MODEL 1
REMARK VINA RESULT:      -4.0      0.000      0.000
REMARK  0 active torsions:
REMARK  status: ('A' for Active; 'I' for Inactive)
ROOT
HETATM    1  C1  UNL     1     -33.889   5.946   4.107  1.00 20.00     0.409 C 
HETATM    2  C2  UNL     1     -34.512   5.931   6.268  1.00 20.00     0.247 C 
HETATM    3  C3  UNL     1     -35.112   4.763   5.557  1.00 20.00     0.343 C 
HETATM    4  O4  UNL     1     -33.352   6.291   3.065  1.00 20.00    -0.229 OA
HETATM    5  O5  UNL     1     -33.517   6.373   5.352  1.00 20.00    -0.293 OA
HETATM    6  O6  UNL     1     -34.948   5.085   4.188  1.00 20.00    -0.260 OA
HETATM    7  F7  UNL     1     -34.385   3.644   5.806  1.00 20.00    -0.217 F 
ENDROOT
TORSDOF 0
ENDMDL
MODEL 2
REMARK VINA RESULT:      -3.8     12.104     12.530
REMARK  0 active torsions:
REMARK  status: ('A' for Active; 'I' for Inactive)
ROOT
HETATM    1  C1  UNL     1     -34.486  13.524  -4.108  1.00 20.00     0.409 C 
HETATM    2  C2  UNL     1     -32.719  14.815  -3.590  1.00 20.00     0.247 C 
HETATM    3  C3  UNL     1     -33.986  15.567  -3.348  1.00 20.00     0.343 C 
HETATM    4  O4  UNL     1     -35.141  12.559  -4.474  1.00 20.00    -0.229 OA
HETATM    5  O5  UNL     1     -33.175  13.474  -3.722  1.00 20.00    -0.293 OA
HETATM    6  O6  UNL     1     -34.963  14.804  -4.033  1.00 20.00    -0.260 OA
HETATM    7  F7  UNL     1     -34.297  15.541  -2.027  1.00 20.00    -0.217 F 
ENDROOT
TORSDOF 0
ENDMDL
MODEL 3
REMARK VINA RESULT:      -3.8      1.715      2.436
REMARK  0 active torsions:
REMARK  status: ('A' for Active; 'I' for Inactive)
ROOT
HETATM    1  C1  UNL     1     -34.138   6.228   5.577  1.00 20.00     0.409 C 
HETATM    2  C2  UNL     1     -33.901   5.600   3.430  1.00 20.00     0.247 C 
HETATM    3  C3  UNL     1     -35.137   4.989   4.006  1.00 20.00     0.343 C 
HETATM    4  O4  UNL     1     -33.919   6.772   6.649  1.00 20.00    -0.229 OA
HETATM    5  O5  UNL     1     -33.576   6.602   4.386  1.00 20.00    -0.293 OA
HETATM    6  O6  UNL     1     -34.974   5.160   5.402  1.00 20.00    -0.260 OA
HETATM    7  F7  UNL     1     -36.228   5.704   3.629  1.00 20.00    -0.217 F 
ENDROOT
TORSDOF 0
ENDMDL
MODEL 4
REMARK VINA RESULT:      -3.7      1.754      2.929
REMARK  0 active torsions:
REMARK  status: ('A' for Active; 'I' for Inactive)
ROOT
HETATM    1  C1  UNL     1     -34.463   5.419   5.476  1.00 20.00     0.409 C 
HETATM    2  C2  UNL     1     -34.643   5.485   3.235  1.00 20.00     0.247 C 
HETATM    3  C3  UNL     1     -33.519   6.362   3.682  1.00 20.00     0.343 C 
HETATM    4  O4  UNL     1     -34.682   5.122   6.641  1.00 20.00    -0.229 OA
HETATM    5  O5  UNL     1     -34.908   4.706   4.396  1.00 20.00    -0.293 OA
HETATM    6  O6  UNL     1     -33.744   6.509   5.072  1.00 20.00    -0.260 OA
HETATM    7  F7  UNL     1     -32.335   5.718   3.522  1.00 20.00    -0.217 F 
ENDROOT
TORSDOF 0
ENDMDL
MODEL 5
REMARK VINA RESULT:      -3.7     12.332     13.003
REMARK  0 active torsions:
REMARK  status: ('A' for Active; 'I' for Inactive)
ROOT
HETATM    1  C1  UNL     1     -34.526  13.620  -4.385  1.00 20.00     0.409 C 
HETATM    2  C2  UNL     1     -33.714  15.658  -4.882  1.00 20.00     0.247 C 
HETATM    3  C3  UNL     1     -33.250  15.242  -3.524  1.00 20.00     0.343 C 
HETATM    4  O4  UNL     1     -35.126  12.561  -4.494  1.00 20.00    -0.229 OA
HETATM    5  O5  UNL     1     -34.197  14.438  -5.432  1.00 20.00    -0.293 OA
HETATM    6  O6  UNL     1     -34.096  14.153  -3.202  1.00 20.00    -0.260 OA
HETATM    7  F7  UNL     1     -31.980  14.769  -3.592  1.00 20.00    -0.217 F 
ENDROOT
TORSDOF 0
ENDMDL
MODEL 6
REMARK VINA RESULT:      -3.6      1.506      2.003
REMARK  0 active torsions:
REMARK  status: ('A' for Active; 'I' for Inactive)
ROOT
HETATM    1  C1  UNL     1     -34.509   5.386   3.965  1.00 20.00     0.409 C 
HETATM    2  C2  UNL     1     -35.050   4.690   6.034  1.00 20.00     0.247 C 
HETATM    3  C3  UNL     1     -33.949   5.696   6.107  1.00 20.00     0.343 C 
HETATM    4  O4  UNL     1     -34.519   5.501   2.749  1.00 20.00    -0.229 OA
HETATM    5  O5  UNL     1     -35.529   4.851   4.704  1.00 20.00    -0.293 OA
HETATM    6  O6  UNL     1     -33.477   5.771   4.775  1.00 20.00    -0.260 OA
HETATM    7  F7  UNL     1     -34.452   6.913   6.435  1.00 20.00    -0.217 F 
ENDROOT
TORSDOF 0
ENDMDL
MODEL 7
REMARK VINA RESULT:      -3.5      1.932      2.602
REMARK  0 active torsions:
REMARK  status: ('A' for Active; 'I' for Inactive)
ROOT
HETATM    1  C1  UNL     1     -34.703   4.588   5.344  1.00 20.00     0.409 C 
HETATM    2  C2  UNL     1     -33.946   6.525   6.201  1.00 20.00     0.247 C 
HETATM    3  C3  UNL     1     -33.614   6.448   4.747  1.00 20.00     0.343 C 
HETATM    4  O4  UNL     1     -35.240   3.494   5.270  1.00 20.00    -0.229 OA
HETATM    5  O5  UNL     1     -34.907   5.488   6.355  1.00 20.00    -0.293 OA
HETATM    6  O6  UNL     1     -33.811   5.082   4.432  1.00 20.00    -0.260 OA
HETATM    7  F7  UNL     1     -34.510   7.169   4.026  1.00 20.00    -0.217 F 
ENDROOT
TORSDOF 0
ENDMDL
MODEL 8
REMARK VINA RESULT:      -3.5     12.314     12.838
REMARK  0 active torsions:
REMARK  status: ('A' for Active; 'I' for Inactive)
ROOT
HETATM    1  C1  UNL     1     -36.201  14.053  -4.098  1.00 20.00     0.409 C 
HETATM    2  C2  UNL     1     -34.205  13.246  -4.750  1.00 20.00     0.247 C 
HETATM    3  C3  UNL     1     -34.077  14.689  -4.384  1.00 20.00     0.343 C 
HETATM    4  O4  UNL     1     -37.391  14.099  -3.823  1.00 20.00    -0.229 OA
HETATM    5  O5  UNL     1     -35.472  12.900  -4.203  1.00 20.00    -0.293 OA
HETATM    6  O6  UNL     1     -35.417  15.144  -4.348  1.00 20.00    -0.260 OA
HETATM    7  F7  UNL     1     -33.569  14.807  -3.130  1.00 20.00    -0.217 F 
ENDROOT
TORSDOF 0
ENDMDL
MODEL 9
REMARK VINA RESULT:      -3.5     12.578     12.807
REMARK  0 active torsions:
REMARK  status: ('A' for Active; 'I' for Inactive)
ROOT
HETATM    1  C1  UNL     1     -36.384  14.128  -3.888  1.00 20.00     0.409 C 
HETATM    2  C2  UNL     1     -34.205  14.533  -3.504  1.00 20.00     0.247 C 
HETATM    3  C3  UNL     1     -34.350  13.446  -4.519  1.00 20.00     0.343 C 
HETATM    4  O4  UNL     1     -37.600  14.212  -3.819  1.00 20.00    -0.229 OA
HETATM    5  O5  UNL     1     -35.512  15.093  -3.461  1.00 20.00    -0.293 OA
HETATM    6  O6  UNL     1     -35.705  13.056  -4.398  1.00 20.00    -0.260 OA
HETATM    7  F7  UNL     1     -34.177  13.950  -5.767  1.00 20.00    -0.217 F 
ENDROOT
TORSDOF 0
ENDMDL
