MODEL 1
REMARK VINA RESULT:      -4.5      0.000      0.000
REMARK  1 active torsions:
REMARK  status: ('A' for Active; 'I' for Inactive)
REMARK    1  A    between atoms: C2_2  and  C5_5 
ROOT
HETATM    1  C1  UNL     1     -34.816   4.973   3.820  1.00 20.00     0.088 A 
HETATM    2  C2  UNL     1     -34.213   5.551   4.917  1.00 20.00     0.147 A 
HETATM    3  C3  UNL     1     -33.073   6.564   3.341  1.00 20.00     0.071 A 
HETATM    4  C4  UNL     1     -32.094   7.449   2.671  1.00 20.00     0.078 C 
HETATM    5  N6  UNL     1     -33.212   6.463   4.644  1.00 20.00    -0.241 NA
HETATM    6  S10 UNL     1     -34.112   5.591   2.383  1.00 20.00    -0.085 SA
ENDROOT
BRANCH   2   7
HETATM    7  C5  UNL     1     -34.545   5.276   6.329  1.00 20.00     0.435 C 
HETATM    8  F7  UNL     1     -35.735   4.617   6.508  1.00 20.00    -0.165 F 
HETATM    9  F8  UNL     1     -33.622   4.498   6.981  1.00 20.00    -0.165 F 
HETATM   10  F9  UNL     1     -34.651   6.410   7.089  1.00 20.00    -0.165 F 
ENDBRANCH   2   7
TORSDOF 1
ENDMDL
MODEL 2
REMARK VINA RESULT:      -4.3      3.121      4.120
REMARK  1 active torsions:
REMARK  status: ('A' for Active; 'I' for Inactive)
REMARK    1  A    between atoms: C2_2  and  C5_5 
ROOT
HETATM    1  C1  UNL     1     -34.134   5.706   2.886  1.00 20.00     0.088 A 
HETATM    2  C2  UNL     1     -33.240   6.521   3.548  1.00 20.00     0.147 A 
HETATM    3  C3  UNL     1     -34.312   5.727   5.288  1.00 20.00     0.071 A 
HETATM    4  C4  UNL     1     -34.717   5.482   6.690  1.00 20.00     0.078 C 
HETATM    5  N6  UNL     1     -33.341   6.536   4.925  1.00 20.00    -0.241 NA
HETATM    6  S10 UNL     1     -35.145   4.917   4.024  1.00 20.00    -0.085 SA
ENDROOT
BRANCH   2   7
HETATM    7  C5  UNL     1     -32.206   7.363   2.912  1.00 20.00     0.435 C 
HETATM    8  F7  UNL     1     -32.683   8.538   2.388  1.00 20.00    -0.165 F 
HETATM    9  F8  UNL     1     -31.199   7.750   3.759  1.00 20.00    -0.165 F 
HETATM   10  F9  UNL     1     -31.572   6.743   1.868  1.00 20.00    -0.165 F 
ENDBRANCH   2   7
TORSDOF 1
ENDMDL
MODEL 3
REMARK VINA RESULT:      -4.2     12.404     13.027
REMARK  1 active torsions:
REMARK  status: ('A' for Active; 'I' for Inactive)
REMARK    1  A    between atoms: C2_2  and  C5_5 
ROOT
HETATM    1  C1  UNL     1     -33.706  16.483  -4.147  1.00 20.00     0.088 A 
HETATM    2  C2  UNL     1     -34.076  15.295  -3.553  1.00 20.00     0.147 A 
HETATM    3  C3  UNL     1     -34.433  16.637  -1.856  1.00 20.00     0.071 A 
HETATM    4  C4  UNL     1     -34.803  17.118  -0.507  1.00 20.00     0.078 C 
HETATM    5  N6  UNL     1     -34.492  15.381  -2.239  1.00 20.00    -0.241 NA
HETATM    6  S10 UNL     1     -33.887  17.768  -3.025  1.00 20.00    -0.085 SA
ENDROOT
BRANCH   2   7
HETATM    7  C5  UNL     1     -34.060  13.967  -4.198  1.00 20.00     0.435 C 
HETATM    8  F7  UNL     1     -35.108  13.157  -3.841  1.00 20.00    -0.165 F 
HETATM    9  F8  UNL     1     -34.110  14.007  -5.568  1.00 20.00    -0.165 F 
HETATM   10  F9  UNL     1     -32.937  13.238  -3.906  1.00 20.00    -0.165 F 
ENDBRANCH   2   7
TORSDOF 1
ENDMDL
MODEL 4
REMARK VINA RESULT:      -4.2     12.412     13.042
REMARK  1 active torsions:
REMARK  status: ('A' for Active; 'I' for Inactive)
REMARK    1  A    between atoms: C2_2  and  C5_5 
ROOT
HETATM    1  C1  UNL     1     -33.726  16.476  -4.159  1.00 20.00     0.088 A 
HETATM    2  C2  UNL     1     -34.085  15.285  -3.564  1.00 20.00     0.147 A 
HETATM    3  C3  UNL     1     -34.427  16.623  -1.860  1.00 20.00     0.071 A 
HETATM    4  C4  UNL     1     -34.784  17.100  -0.506  1.00 20.00     0.078 C 
HETATM    5  N6  UNL     1     -34.487  15.367  -2.245  1.00 20.00    -0.241 NA
HETATM    6  S10 UNL     1     -33.897  17.758  -3.033  1.00 20.00    -0.085 SA
ENDROOT
BRANCH   2   7
HETATM    7  C5  UNL     1     -34.073  13.959  -4.211  1.00 20.00     0.435 C 
HETATM    8  F7  UNL     1     -32.967  13.201  -3.919  1.00 20.00    -0.165 F 
HETATM    9  F8  UNL     1     -35.135  13.159  -3.873  1.00 20.00    -0.165 F 
HETATM   10  F9  UNL     1     -34.103  14.025  -5.580  1.00 20.00    -0.165 F 
ENDBRANCH   2   7
TORSDOF 1
ENDMDL
MODEL 5
REMARK VINA RESULT:      -4.1     12.673     13.773
REMARK  1 active torsions:
REMARK  status: ('A' for Active; 'I' for Inactive)
REMARK    1  A    between atoms: C2_2  and  C5_5 
ROOT
HETATM    1  C1  UNL     1     -33.746  16.579  -5.290  1.00 20.00     0.088 A 
HETATM    2  C2  UNL     1     -33.885  15.284  -4.834  1.00 20.00     0.147 A 
HETATM    3  C3  UNL     1     -34.882  15.061  -6.775  1.00 20.00     0.071 A 
HETATM    4  C4  UNL     1     -35.601  14.454  -7.917  1.00 20.00     0.078 C 
HETATM    5  N6  UNL     1     -34.538  14.413  -5.685  1.00 20.00    -0.241 NA
HETATM    6  S10 UNL     1     -34.453  16.721  -6.845  1.00 20.00    -0.085 SA
ENDROOT
BRANCH   2   7
HETATM    7  C5  UNL     1     -33.404  14.769  -3.537  1.00 20.00     0.435 C 
HETATM    8  F7  UNL     1     -34.039  13.629  -3.115  1.00 20.00    -0.165 F 
HETATM    9  F8  UNL     1     -32.071  14.445  -3.521  1.00 20.00    -0.165 F 
HETATM   10  F9  UNL     1     -33.563  15.662  -2.509  1.00 20.00    -0.165 F 
ENDBRANCH   2   7
TORSDOF 1
ENDMDL
MODEL 6
REMARK VINA RESULT:      -4.1     12.720     13.829
REMARK  1 active torsions:
REMARK  status: ('A' for Active; 'I' for Inactive)
REMARK    1  A    between atoms: C2_2  and  C5_5 
ROOT
HETATM    1  C1  UNL     1     -33.389  16.292  -4.253  1.00 20.00     0.088 A 
HETATM    2  C2  UNL     1     -33.849  15.111  -4.798  1.00 20.00     0.147 A 
HETATM    3  C3  UNL     1     -34.295  16.447  -6.479  1.00 20.00     0.071 A 
HETATM    4  C4  UNL     1     -34.758  16.927  -7.800  1.00 20.00     0.078 C 
HETATM    5  N6  UNL     1     -34.370  15.198  -6.074  1.00 20.00    -0.241 NA
HETATM    6  S10 UNL     1     -33.610  17.569  -5.376  1.00 20.00    -0.085 SA
ENDROOT
BRANCH   2   7
HETATM    7  C5  UNL     1     -33.829  13.791  -4.138  1.00 20.00     0.435 C 
HETATM    8  F7  UNL     1     -34.202  12.750  -4.951  1.00 20.00    -0.165 F 
HETATM    9  F8  UNL     1     -32.599  13.423  -3.654  1.00 20.00    -0.165 F 
HETATM   10  F9  UNL     1     -34.670  13.714  -3.059  1.00 20.00    -0.165 F 
ENDBRANCH   2   7
TORSDOF 1
ENDMDL
MODEL 7
REMARK VINA RESULT:      -4.1     12.325     13.173
REMARK  1 active torsions:
REMARK  status: ('A' for Active; 'I' for Inactive)
REMARK    1  A    between atoms: C2_2  and  C5_5 
ROOT
HETATM    1  C1  UNL     1     -33.684  17.096  -3.858  1.00 20.00     0.088 A 
HETATM    2  C2  UNL     1     -34.101  16.436  -2.722  1.00 20.00     0.147 A 
HETATM    3  C3  UNL     1     -34.209  14.762  -4.134  1.00 20.00     0.071 A 
HETATM    4  C4  UNL     1     -34.429  13.404  -4.681  1.00 20.00     0.078 C 
HETATM    5  N6  UNL     1     -34.404  15.097  -2.878  1.00 20.00    -0.241 NA
HETATM    6  S10 UNL     1     -33.662  16.006  -5.182  1.00 20.00    -0.085 SA
ENDROOT
BRANCH   2   7
HETATM    7  C5  UNL     1     -34.248  17.036  -1.381  1.00 20.00     0.435 C 
HETATM    8  F7  UNL     1     -33.070  17.470  -0.827  1.00 20.00    -0.165 F 
HETATM    9  F8  UNL     1     -35.069  18.134  -1.344  1.00 20.00    -0.165 F 
HETATM   10  F9  UNL     1     -34.773  16.171  -0.457  1.00 20.00    -0.165 F 
ENDBRANCH   2   7
TORSDOF 1
ENDMDL
MODEL 8
REMARK VINA RESULT:      -4.0     12.455     13.596
REMARK  1 active torsions:
REMARK  status: ('A' for Active; 'I' for Inactive)
REMARK    1  A    between atoms: C2_2  and  C5_5 
ROOT
HETATM    1  C1  UNL     1     -33.929  16.177  -2.654  1.00 20.00     0.088 A 
HETATM    2  C2  UNL     1     -33.749  15.471  -3.825  1.00 20.00     0.147 A 
HETATM    3  C3  UNL     1     -33.669  17.503  -4.647  1.00 20.00     0.071 A 
HETATM    4  C4  UNL     1     -33.553  18.617  -5.613  1.00 20.00     0.078 C 
HETATM    5  N6  UNL     1     -33.601  16.230  -4.970  1.00 20.00    -0.241 NA
HETATM    6  S10 UNL     1     -33.910  17.859  -2.986  1.00 20.00    -0.085 SA
ENDROOT
BRANCH   2   7
HETATM    7  C5  UNL     1     -33.705  14.001  -3.948  1.00 20.00     0.435 C 
HETATM    8  F7  UNL     1     -32.491  13.446  -3.629  1.00 20.00    -0.165 F 
HETATM    9  F8  UNL     1     -34.603  13.343  -3.147  1.00 20.00    -0.165 F 
HETATM   10  F9  UNL     1     -33.972  13.557  -5.217  1.00 20.00    -0.165 F 
ENDBRANCH   2   7
TORSDOF 1
ENDMDL
MODEL 9
REMARK VINA RESULT:      -4.0     12.755     13.888
REMARK  1 active torsions:
REMARK  status: ('A' for Active; 'I' for Inactive)
REMARK    1  A    between atoms: C2_2  and  C5_5 
ROOT
HETATM    1  C1  UNL     1     -34.597  15.009  -6.453  1.00 20.00     0.088 A 
HETATM    2  C2  UNL     1     -34.091  14.978  -5.170  1.00 20.00     0.147 A 
HETATM    3  C3  UNL     1     -33.866  17.124  -5.562  1.00 20.00     0.071 A 
HETATM    4  C4  UNL     1     -33.536  18.554  -5.373  1.00 20.00     0.078 C 
HETATM    5  N6  UNL     1     -33.670  16.190  -4.658  1.00 20.00    -0.241 NA
HETATM    6  S10 UNL     1     -34.553  16.616  -7.051  1.00 20.00    -0.085 SA
ENDROOT
BRANCH   2   7
HETATM    7  C5  UNL     1     -33.966  13.777  -4.321  1.00 20.00     0.435 C 
HETATM    8  F7  UNL     1     -32.733  13.628  -3.738  1.00 20.00    -0.165 F 
HETATM    9  F8  UNL     1     -34.847  13.737  -3.271  1.00 20.00    -0.165 F 
HETATM   10  F9  UNL     1     -34.177  12.608  -5.004  1.00 20.00    -0.165 F 
ENDBRANCH   2   7
TORSDOF 1
ENDMDL
