MODEL 1
REMARK VINA RESULT:      -4.9      0.000      0.000
REMARK  1 active torsions:
REMARK  status: ('A' for Active; 'I' for Inactive)
REMARK    1  A    between atoms: C3_3  and  C5_5 
ROOT
HETATM    1  C1  UNL     1     -34.799  14.905  -2.818  1.00 20.00     0.032 A 
HETATM    2  C2  UNL     1     -34.490  16.105  -2.148  1.00 20.00    -0.044 A 
HETATM    3  C3  UNL     1     -34.424  14.982  -4.151  1.00 20.00     0.068 A 
HETATM    4  C4  UNL     1     -33.907  17.026  -2.973  1.00 20.00    -0.010 A 
HETATM    5  C6  UNL     1     -34.631  16.633  -0.769  1.00 20.00     0.040 C 
HETATM    6  C7  UNL     1     -33.564  18.303  -2.307  1.00 20.00     0.047 C 
HETATM    7  C8  UNL     1     -34.356  18.158  -0.971  1.00 20.00     0.010 C 
HETATM    8  S10 UNL     1     -33.707  16.506  -4.550  1.00 20.00    -0.089 SA
ENDROOT
BRANCH   3   9
HETATM    9  C5  UNL     1     -34.556  13.996  -5.175  1.00 20.00     0.259 C 
HETATM   10  O9  UNL     1     -34.581  12.771  -4.875  1.00 20.00    -0.273 OA
HETATM   11 CL11 UNL     1     -34.689  14.437  -6.902  1.00 20.00    -0.038 Cl
ENDBRANCH   3   9
TORSDOF 1
ENDMDL
MODEL 2
REMARK VINA RESULT:      -4.7      1.334      1.501
REMARK  1 active torsions:
REMARK  status: ('A' for Active; 'I' for Inactive)
REMARK    1  A    between atoms: C3_3  and  C5_5 
ROOT
HETATM    1  C1  UNL     1     -34.180  15.131  -2.992  1.00 20.00     0.032 A 
HETATM    2  C2  UNL     1     -34.608  16.214  -2.198  1.00 20.00    -0.044 A 
HETATM    3  C3  UNL     1     -35.132  14.828  -3.954  1.00 20.00     0.068 A 
HETATM    4  C4  UNL     1     -35.836  16.682  -2.575  1.00 20.00    -0.010 A 
HETATM    5  C6  UNL     1     -34.067  16.987  -1.054  1.00 20.00     0.040 C 
HETATM    6  C7  UNL     1     -36.322  17.822  -1.766  1.00 20.00     0.047 C 
HETATM    7  C8  UNL     1     -35.323  17.779  -0.568  1.00 20.00     0.010 C 
HETATM    8  S10 UNL     1     -36.515  15.865  -3.867  1.00 20.00    -0.089 SA
ENDROOT
BRANCH   3   9
HETATM    9  C5  UNL     1     -35.099  13.810  -4.954  1.00 20.00     0.259 C 
HETATM   10  O9  UNL     1     -34.934  12.603  -4.624  1.00 20.00    -0.273 OA
HETATM   11 CL11 UNL     1     -35.285  14.184  -6.692  1.00 20.00    -0.038 Cl
ENDBRANCH   3   9
TORSDOF 1
ENDMDL
MODEL 3
REMARK VINA RESULT:      -4.5      1.246      1.246
REMARK  1 active torsions:
REMARK  status: ('A' for Active; 'I' for Inactive)
REMARK    1  A    between atoms: C3_3  and  C5_5 
ROOT
HETATM    1  C1  UNL     1     -34.664  15.350  -2.717  1.00 20.00     0.032 A 
HETATM    2  C2  UNL     1     -34.420  16.477  -1.907  1.00 20.00    -0.044 A 
HETATM    3  C3  UNL     1     -34.290  15.604  -4.028  1.00 20.00     0.068 A 
HETATM    4  C4  UNL     1     -33.882  17.518  -2.612  1.00 20.00    -0.010 A 
HETATM    5  C6  UNL     1     -34.591  16.830  -0.476  1.00 20.00     0.040 C 
HETATM    6  C7  UNL     1     -33.608  18.723  -1.795  1.00 20.00     0.047 C 
HETATM    7  C8  UNL     1     -34.396  18.379  -0.493  1.00 20.00     0.010 C 
HETATM    8  S10 UNL     1     -33.652  17.199  -4.237  1.00 20.00    -0.089 SA
ENDROOT
BRANCH   3   9
HETATM    9  C5  UNL     1     -34.368  14.741  -5.163  1.00 20.00     0.259 C 
HETATM   10  O9  UNL     1     -34.173  15.201  -6.322  1.00 20.00    -0.273 OA
HETATM   11 CL11 UNL     1     -34.738  13.000  -5.005  1.00 20.00    -0.038 Cl
ENDBRANCH   3   9
TORSDOF 1
ENDMDL
MODEL 4
REMARK VINA RESULT:      -4.4     12.666     13.642
REMARK  1 active torsions:
REMARK  status: ('A' for Active; 'I' for Inactive)
REMARK    1  A    between atoms: C3_3  and  C5_5 
ROOT
HETATM    1  C1  UNL     1     -41.182   4.245  -1.651  1.00 20.00     0.032 A 
HETATM    2  C2  UNL     1     -41.428   5.626  -1.527  1.00 20.00    -0.044 A 
HETATM    3  C3  UNL     1     -42.096   3.665  -2.519  1.00 20.00     0.068 A 
HETATM    4  C4  UNL     1     -42.489   6.036  -2.284  1.00 20.00    -0.010 A 
HETATM    5  C6  UNL     1     -40.828   6.762  -0.785  1.00 20.00     0.040 C 
HETATM    6  C7  UNL     1     -42.780   7.485  -2.183  1.00 20.00     0.047 C 
HETATM    7  C8  UNL     1     -41.916   7.871  -0.943  1.00 20.00     0.010 C 
HETATM    8  S10 UNL     1     -43.222   4.813  -3.159  1.00 20.00    -0.089 SA
ENDROOT
BRANCH   3   9
HETATM    9  C5  UNL     1     -42.204   2.300  -2.922  1.00 20.00     0.259 C 
HETATM   10  O9  UNL     1     -43.097   1.561  -2.424  1.00 20.00    -0.273 OA
HETATM   11 CL11 UNL     1     -41.101   1.579  -4.130  1.00 20.00    -0.038 Cl
ENDBRANCH   3   9
TORSDOF 1
ENDMDL
MODEL 5
REMARK VINA RESULT:      -4.4      3.360      4.707
REMARK  1 active torsions:
REMARK  status: ('A' for Active; 'I' for Inactive)
REMARK    1  A    between atoms: C3_3  and  C5_5 
ROOT
HETATM    1  C1  UNL     1     -34.346  15.889  -2.253  1.00 20.00     0.032 A 
HETATM    2  C2  UNL     1     -34.550  15.190  -3.459  1.00 20.00    -0.044 A 
HETATM    3  C3  UNL     1     -33.875  17.169  -2.506  1.00 20.00     0.068 A 
HETATM    4  C4  UNL     1     -34.236  15.943  -4.556  1.00 20.00    -0.010 A 
HETATM    5  C6  UNL     1     -35.024  13.841  -3.852  1.00 20.00     0.040 C 
HETATM    6  C7  UNL     1     -34.438  15.244  -5.846  1.00 20.00     0.047 C 
HETATM    7  C8  UNL     1     -34.614  13.773  -5.358  1.00 20.00     0.010 C 
HETATM    8  S10 UNL     1     -33.696  17.485  -4.199  1.00 20.00    -0.089 SA
ENDROOT
BRANCH   3   9
HETATM    9  C5  UNL     1     -33.541  18.199  -1.576  1.00 20.00     0.259 C 
HETATM   10  O9  UNL     1     -32.968  19.251  -1.976  1.00 20.00    -0.273 OA
HETATM   11 CL11 UNL     1     -33.906  18.056   0.167  1.00 20.00    -0.038 Cl
ENDBRANCH   3   9
TORSDOF 1
ENDMDL
MODEL 6
REMARK VINA RESULT:      -4.3     11.545     12.391
REMARK  1 active torsions:
REMARK  status: ('A' for Active; 'I' for Inactive)
REMARK    1  A    between atoms: C3_3  and  C5_5 
ROOT
HETATM    1  C1  UNL     1     -33.096   7.215   4.614  1.00 20.00     0.032 A 
HETATM    2  C2  UNL     1     -33.913   6.194   5.138  1.00 20.00    -0.044 A 
HETATM    3  C3  UNL     1     -33.006   7.105   3.234  1.00 20.00     0.068 A 
HETATM    4  C4  UNL     1     -34.401   5.367   4.165  1.00 20.00    -0.010 A 
HETATM    5  C6  UNL     1     -34.388   5.781   6.482  1.00 20.00     0.040 C 
HETATM    6  C7  UNL     1     -35.267   4.280   4.676  1.00 20.00     0.047 C 
HETATM    7  C8  UNL     1     -34.963   4.356   6.204  1.00 20.00     0.010 C 
HETATM    8  S10 UNL     1     -33.915   5.768   2.616  1.00 20.00    -0.089 SA
ENDROOT
BRANCH   3   9
HETATM    9  C5  UNL     1     -32.285   7.928   2.317  1.00 20.00     0.259 C 
HETATM   10  O9  UNL     1     -31.295   7.460   1.690  1.00 20.00    -0.273 OA
HETATM   11 CL11 UNL     1     -32.739   9.630   2.014  1.00 20.00    -0.038 Cl
ENDBRANCH   3   9
TORSDOF 1
ENDMDL
MODEL 7
REMARK VINA RESULT:      -4.3      1.119      1.769
REMARK  1 active torsions:
REMARK  status: ('A' for Active; 'I' for Inactive)
REMARK    1  A    between atoms: C3_3  and  C5_5 
ROOT
HETATM    1  C1  UNL     1     -33.833  16.830  -4.297  1.00 20.00     0.032 A 
HETATM    2  C2  UNL     1     -33.908  17.239  -2.951  1.00 20.00    -0.044 A 
HETATM    3  C3  UNL     1     -34.373  15.562  -4.450  1.00 20.00     0.068 A 
HETATM    4  C4  UNL     1     -34.486  16.294  -2.151  1.00 20.00    -0.010 A 
HETATM    5  C6  UNL     1     -33.522  18.440  -2.170  1.00 20.00     0.040 C 
HETATM    6  C7  UNL     1     -34.585  16.686  -0.727  1.00 20.00     0.047 C 
HETATM    7  C8  UNL     1     -33.643  17.929  -0.699  1.00 20.00     0.010 C 
HETATM    8  S10 UNL     1     -34.956  14.906  -2.958  1.00 20.00    -0.089 SA
ENDROOT
BRANCH   3   9
HETATM    9  C5  UNL     1     -34.495  14.779  -5.638  1.00 20.00     0.259 C 
HETATM   10  O9  UNL     1     -34.839  13.567  -5.565  1.00 20.00    -0.273 OA
HETATM   11 CL11 UNL     1     -34.175  15.461  -7.258  1.00 20.00    -0.038 Cl
ENDBRANCH   3   9
TORSDOF 1
ENDMDL
MODEL 8
REMARK VINA RESULT:      -4.2      3.224      4.976
REMARK  1 active torsions:
REMARK  status: ('A' for Active; 'I' for Inactive)
REMARK    1  A    between atoms: C3_3  and  C5_5 
ROOT
HETATM    1  C1  UNL     1     -33.814  17.116  -4.523  1.00 20.00     0.032 A 
HETATM    2  C2  UNL     1     -34.134  16.071  -5.411  1.00 20.00    -0.044 A 
HETATM    3  C3  UNL     1     -34.072  16.737  -3.214  1.00 20.00     0.068 A 
HETATM    4  C4  UNL     1     -34.611  14.965  -4.764  1.00 20.00    -0.010 A 
HETATM    5  C6  UNL     1     -34.085  15.855  -6.878  1.00 20.00     0.040 C 
HETATM    6  C7  UNL     1     -34.958  13.842  -5.664  1.00 20.00     0.047 C 
HETATM    7  C8  UNL     1     -34.941  14.559  -7.049  1.00 20.00     0.010 C 
HETATM    8  S10 UNL     1     -34.693  15.125  -3.101  1.00 20.00    -0.089 SA
ENDROOT
BRANCH   3   9
HETATM    9  C5  UNL     1     -33.891  17.488  -2.013  1.00 20.00     0.259 C 
HETATM   10  O9  UNL     1     -33.301  18.603  -2.047  1.00 20.00    -0.273 OA
HETATM   11 CL11 UNL     1     -34.478  16.900  -0.431  1.00 20.00    -0.038 Cl
ENDBRANCH   3   9
TORSDOF 1
ENDMDL
MODEL 9
REMARK VINA RESULT:      -4.1      4.171      5.229
REMARK  1 active torsions:
REMARK  status: ('A' for Active; 'I' for Inactive)
REMARK    1  A    between atoms: C3_3  and  C5_5 
ROOT
HETATM    1  C1  UNL     1     -34.579  16.587  -0.839  1.00 20.00     0.032 A 
HETATM    2  C2  UNL     1     -34.328  16.264  -2.188  1.00 20.00    -0.044 A 
HETATM    3  C3  UNL     1     -34.240  17.908  -0.586  1.00 20.00     0.068 A 
HETATM    4  C4  UNL     1     -33.824  17.322  -2.891  1.00 20.00    -0.010 A 
HETATM    5  C6  UNL     1     -34.475  15.066  -3.050  1.00 20.00     0.040 C 
HETATM    6  C7  UNL     1     -33.549  17.023  -4.315  1.00 20.00     0.047 C 
HETATM    7  C8  UNL     1     -33.647  15.466  -4.313  1.00 20.00     0.010 C 
HETATM    8  S10 UNL     1     -33.632  18.717  -1.990  1.00 20.00    -0.089 SA
ENDROOT
BRANCH   3   9
HETATM    9  C5  UNL     1     -34.334  18.636   0.639  1.00 20.00     0.259 C 
HETATM   10  O9  UNL     1     -35.393  19.262   0.924  1.00 20.00    -0.273 OA
HETATM   11 CL11 UNL     1     -32.985  18.699   1.809  1.00 20.00    -0.038 Cl
ENDBRANCH   3   9
TORSDOF 1
ENDMDL
