MODEL 1
REMARK VINA RESULT:      -5.3      0.000      0.000
REMARK  0 active torsions:
REMARK  status: ('A' for Active; 'I' for Inactive)
ROOT
HETATM    1  C1  UNL     1     -35.043  13.635  -4.485  1.00 20.00     0.064 C 
HETATM    2  C2  UNL     1     -33.124  15.738  -3.253  1.00 20.00     0.011 C 
HETATM    3  C3  UNL     1     -34.456  17.684  -3.011  1.00 20.00     0.010 C 
HETATM    4  C4  UNL     1     -35.278  15.010  -4.015  1.00 20.00     0.101 C 
HETATM    5  C5  UNL     1     -33.720  16.868  -4.091  1.00 20.00    -0.009 C 
HETATM    6  C6  UNL     1     -34.487  15.292  -2.710  1.00 20.00     0.007 C 
HETATM    7  C7  UNL     1     -35.038  16.598  -2.083  1.00 20.00    -0.013 C 
HETATM    8  C8  UNL     1     -34.765  16.128  -4.968  1.00 20.00     0.003 C 
HETATM    9  C9  UNL     1     -34.607  16.785  -0.632  1.00 20.00     0.010 C 
HETATM   10  C10 UNL     1     -34.169  15.667  -6.296  1.00 20.00     0.011 C 
HETATM   11  N11 UNL     1     -34.858  12.551  -4.856  1.00 20.00    -0.197 NA
ENDROOT
TORSDOF 0
ENDMDL
MODEL 2
REMARK VINA RESULT:      -4.9      0.919      1.016
REMARK  0 active torsions:
REMARK  status: ('A' for Active; 'I' for Inactive)
ROOT
HETATM    1  C1  UNL     1     -34.983  13.557  -4.107  1.00 20.00     0.064 C 
HETATM    2  C2  UNL     1     -33.777  16.405  -3.861  1.00 20.00     0.011 C 
HETATM    3  C3  UNL     1     -35.477  17.679  -2.808  1.00 20.00     0.010 C 
HETATM    4  C4  UNL     1     -35.497  14.780  -3.470  1.00 20.00     0.101 C 
HETATM    5  C5  UNL     1     -35.115  17.069  -4.177  1.00 20.00    -0.009 C 
HETATM    6  C6  UNL     1     -34.361  15.542  -2.736  1.00 20.00     0.007 C 
HETATM    7  C7  UNL     1     -35.009  16.601  -1.808  1.00 20.00    -0.013 C 
HETATM    8  C8  UNL     1     -36.043  15.856  -4.453  1.00 20.00     0.003 C 
HETATM    9  C9  UNL     1     -34.036  17.156  -0.773  1.00 20.00     0.010 C 
HETATM   10  C10 UNL     1     -36.058  15.477  -5.932  1.00 20.00     0.011 C 
HETATM   11  N11 UNL     1     -34.579  12.593  -4.610  1.00 20.00    -0.197 NA
ENDROOT
TORSDOF 0
ENDMDL
MODEL 3
REMARK VINA RESULT:      -4.7      2.171      3.728
REMARK  0 active torsions:
REMARK  status: ('A' for Active; 'I' for Inactive)
ROOT
HETATM    1  C1  UNL     1     -34.400  16.665  -1.077  1.00 20.00     0.064 C 
HETATM    2  C2  UNL     1     -35.790  16.100  -3.793  1.00 20.00     0.011 C 
HETATM    3  C3  UNL     1     -34.009  15.602  -5.277  1.00 20.00     0.010 C 
HETATM    4  C4  UNL     1     -33.862  16.216  -2.372  1.00 20.00     0.101 C 
HETATM    5  C5  UNL     1     -34.683  16.799  -4.579  1.00 20.00    -0.009 C 
HETATM    6  C6  UNL     1     -34.813  15.188  -3.041  1.00 20.00     0.007 C 
HETATM    7  C7  UNL     1     -34.045  14.500  -4.197  1.00 20.00    -0.013 C 
HETATM    8  C8  UNL     1     -33.747  17.325  -3.458  1.00 20.00     0.003 C 
HETATM    9  C9  UNL     1     -34.731  13.230  -4.690  1.00 20.00     0.010 C 
HETATM   10  C10 UNL     1     -34.120  18.741  -3.023  1.00 20.00     0.011 C 
HETATM   11  N11 UNL     1     -34.824  17.019  -0.057  1.00 20.00    -0.197 NA
ENDROOT
TORSDOF 0
ENDMDL
MODEL 4
REMARK VINA RESULT:      -4.7      2.273      4.171
REMARK  0 active torsions:
REMARK  status: ('A' for Active; 'I' for Inactive)
ROOT
HETATM    1  C1  UNL     1     -34.135  18.317  -3.258  1.00 20.00     0.064 C 
HETATM    2  C2  UNL     1     -33.224  15.413  -3.864  1.00 20.00     0.011 C 
HETATM    3  C3  UNL     1     -35.243  14.222  -4.216  1.00 20.00     0.010 C 
HETATM    4  C4  UNL     1     -34.897  17.119  -3.647  1.00 20.00     0.101 C 
HETATM    5  C5  UNL     1     -34.390  14.815  -3.079  1.00 20.00    -0.009 C 
HETATM    6  C6  UNL     1     -34.133  16.301  -4.723  1.00 20.00     0.007 C 
HETATM    7  C7  UNL     1     -35.116  15.274  -5.338  1.00 20.00    -0.013 C 
HETATM    8  C8  UNL     1     -35.103  16.072  -2.514  1.00 20.00     0.003 C 
HETATM    9  C9  UNL     1     -34.602  14.670  -6.642  1.00 20.00     0.010 C 
HETATM   10  C10 UNL     1     -34.572  16.454  -1.133  1.00 20.00     0.011 C 
HETATM   11  N11 UNL     1     -33.535  19.261  -2.951  1.00 20.00    -0.197 NA
ENDROOT
TORSDOF 0
ENDMDL
MODEL 5
REMARK VINA RESULT:      -4.7      1.710      1.942
REMARK  0 active torsions:
REMARK  status: ('A' for Active; 'I' for Inactive)
ROOT
HETATM    1  C1  UNL     1     -37.458  14.978  -3.889  1.00 20.00     0.064 C 
HETATM    2  C2  UNL     1     -34.441  14.631  -3.254  1.00 20.00     0.011 C 
HETATM    3  C3  UNL     1     -33.466  16.705  -3.863  1.00 20.00     0.010 C 
HETATM    4  C4  UNL     1     -36.333  15.925  -3.959  1.00 20.00     0.101 C 
HETATM    5  C5  UNL     1     -34.023  15.415  -4.496  1.00 20.00    -0.009 C 
HETATM    6  C6  UNL     1     -35.376  15.738  -2.752  1.00 20.00     0.007 C 
HETATM    7  C7  UNL     1     -34.432  16.966  -2.688  1.00 20.00    -0.013 C 
HETATM    8  C8  UNL     1     -35.383  15.730  -5.175  1.00 20.00     0.003 C 
HETATM    9  C9  UNL     1     -33.702  17.083  -1.354  1.00 20.00     0.010 C 
HETATM   10  C10 UNL     1     -35.780  14.651  -6.181  1.00 20.00     0.011 C 
HETATM   11  N11 UNL     1     -38.345  14.232  -3.835  1.00 20.00    -0.197 NA
ENDROOT
TORSDOF 0
ENDMDL
MODEL 6
REMARK VINA RESULT:      -4.6      1.728      2.464
REMARK  0 active torsions:
REMARK  status: ('A' for Active; 'I' for Inactive)
ROOT
HETATM    1  C1  UNL     1     -37.093  14.812  -4.121  1.00 20.00     0.064 C 
HETATM    2  C2  UNL     1     -34.389  15.580  -2.808  1.00 20.00     0.011 C 
HETATM    3  C3  UNL     1     -33.088  16.440  -4.594  1.00 20.00     0.010 C 
HETATM    4  C4  UNL     1     -35.899  15.475  -4.669  1.00 20.00     0.101 C 
HETATM    5  C5  UNL     1     -33.592  15.101  -4.019  1.00 20.00    -0.009 C 
HETATM    6  C6  UNL     1     -35.305  16.480  -3.647  1.00 20.00     0.007 C 
HETATM    7  C7  UNL     1     -34.291  17.385  -4.391  1.00 20.00    -0.013 C 
HETATM    8  C8  UNL     1     -34.694  14.532  -4.952  1.00 20.00     0.003 C 
HETATM    9  C9  UNL     1     -33.918  18.633  -3.597  1.00 20.00     0.010 C 
HETATM   10  C10 UNL     1     -34.927  13.041  -4.712  1.00 20.00     0.011 C 
HETATM   11  N11 UNL     1     -38.035  14.289  -3.690  1.00 20.00    -0.197 NA
ENDROOT
TORSDOF 0
ENDMDL
MODEL 7
REMARK VINA RESULT:      -4.6      1.193      1.890
REMARK  0 active torsions:
REMARK  status: ('A' for Active; 'I' for Inactive)
ROOT
HETATM    1  C1  UNL     1     -34.965  13.913  -4.289  1.00 20.00     0.064 C 
HETATM    2  C2  UNL     1     -34.842  15.881  -1.893  1.00 20.00     0.011 C 
HETATM    3  C3  UNL     1     -34.420  17.993  -2.883  1.00 20.00     0.010 C 
HETATM    4  C4  UNL     1     -34.822  15.377  -4.238  1.00 20.00     0.101 C 
HETATM    5  C5  UNL     1     -33.702  16.678  -2.523  1.00 20.00    -0.009 C 
HETATM    6  C6  UNL     1     -35.732  15.986  -3.138  1.00 20.00     0.007 C 
HETATM    7  C7  UNL     1     -35.807  17.517  -3.364  1.00 20.00    -0.013 C 
HETATM    8  C8  UNL     1     -33.410  15.887  -3.826  1.00 20.00     0.003 C 
HETATM    9  C9  UNL     1     -36.945  18.175  -2.589  1.00 20.00     0.010 C 
HETATM   10  C10 UNL     1     -32.339  14.819  -3.614  1.00 20.00     0.011 C 
HETATM   11  N11 UNL     1     -35.078  12.760  -4.329  1.00 20.00    -0.197 NA
ENDROOT
TORSDOF 0
ENDMDL
MODEL 8
REMARK VINA RESULT:      -4.6      2.267      3.110
REMARK  0 active torsions:
REMARK  status: ('A' for Active; 'I' for Inactive)
ROOT
HETATM    1  C1  UNL     1     -33.578  18.143  -5.729  1.00 20.00     0.064 C 
HETATM    2  C2  UNL     1     -35.715  16.571  -4.121  1.00 20.00     0.011 C 
HETATM    3  C3  UNL     1     -34.496  14.842  -3.050  1.00 20.00     0.010 C 
HETATM    4  C4  UNL     1     -33.456  17.016  -4.790  1.00 20.00     0.101 C 
HETATM    5  C5  UNL     1     -35.056  15.229  -4.433  1.00 20.00    -0.009 C 
HETATM    6  C6  UNL     1     -34.419  17.192  -3.586  1.00 20.00     0.007 C 
HETATM    7  C7  UNL     1     -34.001  16.188  -2.482  1.00 20.00    -0.013 C 
HETATM    8  C8  UNL     1     -33.880  15.633  -5.361  1.00 20.00     0.003 C 
HETATM    9  C9  UNL     1     -34.623  16.507  -1.125  1.00 20.00     0.010 C 
HETATM   10  C10 UNL     1     -34.283  15.602  -6.835  1.00 20.00     0.011 C 
HETATM   11  N11 UNL     1     -33.674  19.030  -6.470  1.00 20.00    -0.197 NA
ENDROOT
TORSDOF 0
ENDMDL
MODEL 9
REMARK VINA RESULT:      -4.6      2.318      4.100
REMARK  0 active torsions:
REMARK  status: ('A' for Active; 'I' for Inactive)
ROOT
HETATM    1  C1  UNL     1     -35.791  18.083  -3.172  1.00 20.00     0.064 C 
HETATM    2  C2  UNL     1     -33.501  16.231  -4.146  1.00 20.00     0.011 C 
HETATM    3  C3  UNL     1     -34.383  14.040  -3.937  1.00 20.00     0.010 C 
HETATM    4  C4  UNL     1     -35.736  16.626  -3.370  1.00 20.00     0.101 C 
HETATM    5  C5  UNL     1     -33.807  15.183  -3.078  1.00 20.00    -0.009 C 
HETATM    6  C6  UNL     1     -34.946  16.271  -4.658  1.00 20.00     0.007 C 
HETATM    7  C7  UNL     1     -35.219  14.784  -4.999  1.00 20.00    -0.013 C 
HETATM    8  C8  UNL     1     -34.959  15.841  -2.273  1.00 20.00     0.003 C 
HETATM    9  C9  UNL     1     -34.806  14.417  -6.421  1.00 20.00     0.010 C 
HETATM   10  C10 UNL     1     -34.434  16.661  -1.096  1.00 20.00     0.011 C 
HETATM   11  N11 UNL     1     -35.836  19.232  -3.016  1.00 20.00    -0.197 NA
ENDROOT
TORSDOF 0
ENDMDL
