MODEL 1
REMARK VINA RESULT:      -5.2      0.000      0.000
REMARK  0 active torsions:
REMARK  status: ('A' for Active; 'I' for Inactive)
ROOT
HETATM    1  C1  UNL     1     -33.087   6.763   4.725  1.00 20.00     0.055 C 
HETATM    2  C2  UNL     1     -34.139   6.066   5.145  1.00 20.00    -0.046 C 
HETATM    3  C3  UNL     1     -33.045   6.486   3.276  1.00 20.00     0.150 C 
HETATM    4  C4  UNL     1     -34.573   5.610   6.479  1.00 20.00     0.202 C 
HETATM    5  C5  UNL     1     -34.072   5.455   2.864  1.00 20.00     0.094 C 
HETATM    6  C6  UNL     1     -35.036   4.018   4.825  1.00 20.00     0.177 C 
HETATM    7  C7  UNL     1     -34.922   5.347   4.114  1.00 20.00     0.048 C 
HETATM    8  O8  UNL     1     -32.233   7.004   2.522  1.00 20.00    -0.293 OA
HETATM    9  O9  UNL     1     -35.233   4.346   6.221  1.00 20.00    -0.386 OA
ENDROOT
TORSDOF 0
ENDMDL
MODEL 2
REMARK VINA RESULT:      -4.7      0.716      3.780
REMARK  0 active torsions:
REMARK  status: ('A' for Active; 'I' for Inactive)
ROOT
HETATM    1  C1  UNL     1     -35.173   4.446   4.583  1.00 20.00     0.055 C 
HETATM    2  C2  UNL     1     -34.552   5.412   3.912  1.00 20.00    -0.046 C 
HETATM    3  C3  UNL     1     -35.009   4.843   5.994  1.00 20.00     0.150 C 
HETATM    4  C4  UNL     1     -34.037   5.505   2.533  1.00 20.00     0.202 C 
HETATM    5  C5  UNL     1     -34.119   6.057   6.143  1.00 20.00     0.094 C 
HETATM    6  C6  UNL     1     -32.633   6.595   4.060  1.00 20.00     0.177 C 
HETATM    7  C7  UNL     1     -33.996   6.531   4.709  1.00 20.00     0.048 C 
HETATM    8  O8  UNL     1     -35.503   4.220   6.923  1.00 20.00    -0.293 OA
HETATM    9  O9  UNL     1     -32.868   6.354   2.651  1.00 20.00    -0.386 OA
ENDROOT
TORSDOF 0
ENDMDL
MODEL 3
REMARK VINA RESULT:      -4.3     11.815     12.827
REMARK  0 active torsions:
REMARK  status: ('A' for Active; 'I' for Inactive)
ROOT
HETATM    1  C1  UNL     1     -36.075  14.455  -3.826  1.00 20.00     0.055 C 
HETATM    2  C2  UNL     1     -35.592  15.494  -3.150  1.00 20.00    -0.046 C 
HETATM    3  C3  UNL     1     -34.880  13.635  -4.100  1.00 20.00     0.150 C 
HETATM    4  C4  UNL     1     -36.130  16.835  -2.851  1.00 20.00     0.202 C 
HETATM    5  C5  UNL     1     -33.607  14.321  -3.660  1.00 20.00     0.094 C 
HETATM    6  C6  UNL     1     -33.824  16.896  -3.262  1.00 20.00     0.177 C 
HETATM    7  C7  UNL     1     -34.143  15.480  -2.843  1.00 20.00     0.048 C 
HETATM    8  O8  UNL     1     -34.932  12.551  -4.664  1.00 20.00    -0.293 OA
HETATM    9  O9  UNL     1     -34.958  17.687  -2.828  1.00 20.00    -0.386 OA
ENDROOT
TORSDOF 0
ENDMDL
MODEL 4
REMARK VINA RESULT:      -4.1     11.577     12.686
REMARK  0 active torsions:
REMARK  status: ('A' for Active; 'I' for Inactive)
ROOT
HETATM    1  C1  UNL     1     -35.252  13.391  -4.231  1.00 20.00     0.055 C 
HETATM    2  C2  UNL     1     -36.038  14.401  -3.870  1.00 20.00    -0.046 C 
HETATM    3  C3  UNL     1     -33.927  13.778  -3.708  1.00 20.00     0.150 C 
HETATM    4  C4  UNL     1     -37.368  14.849  -4.323  1.00 20.00     0.202 C 
HETATM    5  C5  UNL     1     -33.935  15.170  -3.118  1.00 20.00     0.094 C 
HETATM    6  C6  UNL     1     -35.963  16.659  -3.833  1.00 20.00     0.177 C 
HETATM    7  C7  UNL     1     -35.418  15.478  -3.063  1.00 20.00     0.048 C 
HETATM    8  O8  UNL     1     -32.941  13.062  -3.797  1.00 20.00    -0.293 OA
HETATM    9  O9  UNL     1     -37.319  16.291  -4.187  1.00 20.00    -0.386 OA
ENDROOT
TORSDOF 0
ENDMDL
MODEL 5
REMARK VINA RESULT:      -4.1     11.767     13.404
REMARK  0 active torsions:
REMARK  status: ('A' for Active; 'I' for Inactive)
ROOT
HETATM    1  C1  UNL     1     -34.179  14.221  -3.402  1.00 20.00     0.055 C 
HETATM    2  C2  UNL     1     -33.822  15.472  -3.677  1.00 20.00    -0.046 C 
HETATM    3  C3  UNL     1     -34.506  13.656  -4.725  1.00 20.00     0.150 C 
HETATM    4  C4  UNL     1     -33.695  16.685  -2.846  1.00 20.00     0.202 C 
HETATM    5  C5  UNL     1     -34.455  14.701  -5.817  1.00 20.00     0.094 C 
HETATM    6  C6  UNL     1     -34.533  17.176  -4.977  1.00 20.00     0.177 C 
HETATM    7  C7  UNL     1     -33.794  15.864  -5.105  1.00 20.00     0.048 C 
HETATM    8  O8  UNL     1     -34.829  12.488  -4.890  1.00 20.00    -0.293 OA
HETATM    9  O9  UNL     1     -34.058  17.764  -3.742  1.00 20.00    -0.386 OA
ENDROOT
TORSDOF 0
ENDMDL
MODEL 6
REMARK VINA RESULT:      -4.1     11.810     13.357
REMARK  0 active torsions:
REMARK  status: ('A' for Active; 'I' for Inactive)
ROOT
HETATM    1  C1  UNL     1     -34.357  15.952  -5.919  1.00 20.00     0.055 C 
HETATM    2  C2  UNL     1     -34.275  14.722  -5.420  1.00 20.00    -0.046 C 
HETATM    3  C3  UNL     1     -33.605  16.770  -4.948  1.00 20.00     0.150 C 
HETATM    4  C4  UNL     1     -35.044  13.486  -5.662  1.00 20.00     0.202 C 
HETATM    5  C5  UNL     1     -33.173  15.967  -3.742  1.00 20.00     0.094 C 
HETATM    6  C6  UNL     1     -34.449  13.709  -3.408  1.00 20.00     0.177 C 
HETATM    7  C7  UNL     1     -33.466  14.549  -4.190  1.00 20.00     0.048 C 
HETATM    8  O8  UNL     1     -33.409  17.968  -5.098  1.00 20.00    -0.293 OA
HETATM    9  O9  UNL     1     -35.046  12.815  -4.378  1.00 20.00    -0.386 OA
ENDROOT
TORSDOF 0
ENDMDL
MODEL 7
REMARK VINA RESULT:      -4.0     12.354     13.521
REMARK  0 active torsions:
REMARK  status: ('A' for Active; 'I' for Inactive)
ROOT
HETATM    1  C1  UNL     1     -35.513  15.000  -3.163  1.00 20.00     0.055 C 
HETATM    2  C2  UNL     1     -34.435  15.191  -3.918  1.00 20.00    -0.046 C 
HETATM    3  C3  UNL     1     -36.531  14.534  -4.124  1.00 20.00     0.150 C 
HETATM    4  C4  UNL     1     -33.183  15.944  -3.710  1.00 20.00     0.202 C 
HETATM    5  C5  UNL     1     -36.032  14.587  -5.550  1.00 20.00     0.094 C 
HETATM    6  C6  UNL     1     -33.928  16.093  -5.926  1.00 20.00     0.177 C 
HETATM    7  C7  UNL     1     -34.551  14.841  -5.353  1.00 20.00     0.048 C 
HETATM    8  O8  UNL     1     -37.657  14.197  -3.789  1.00 20.00    -0.293 OA
HETATM    9  O9  UNL     1     -32.835  16.419  -5.034  1.00 20.00    -0.386 OA
ENDROOT
TORSDOF 0
ENDMDL
MODEL 8
REMARK VINA RESULT:      -4.0     11.481     12.801
REMARK  0 active torsions:
REMARK  status: ('A' for Active; 'I' for Inactive)
ROOT
HETATM    1  C1  UNL     1     -33.146  15.843  -3.757  1.00 20.00     0.055 C 
HETATM    2  C2  UNL     1     -33.894  14.756  -3.589  1.00 20.00    -0.046 C 
HETATM    3  C3  UNL     1     -34.120  16.948  -3.680  1.00 20.00     0.150 C 
HETATM    4  C4  UNL     1     -33.665  13.326  -3.873  1.00 20.00     0.202 C 
HETATM    5  C5  UNL     1     -35.543  16.446  -3.590  1.00 20.00     0.094 C 
HETATM    6  C6  UNL     1     -35.880  13.954  -4.308  1.00 20.00     0.177 C 
HETATM    7  C7  UNL     1     -35.337  14.968  -3.327  1.00 20.00     0.048 C 
HETATM    8  O8  UNL     1     -33.797  18.126  -3.735  1.00 20.00    -0.293 OA
HETATM    9  O9  UNL     1     -34.977  12.824  -4.229  1.00 20.00    -0.386 OA
ENDROOT
TORSDOF 0
ENDMDL
MODEL 9
REMARK VINA RESULT:      -4.0     11.605     12.524
REMARK  0 active torsions:
REMARK  status: ('A' for Active; 'I' for Inactive)
ROOT
HETATM    1  C1  UNL     1     -36.074  15.512  -3.034  1.00 20.00     0.055 C 
HETATM    2  C2  UNL     1     -35.332  14.750  -3.832  1.00 20.00    -0.046 C 
HETATM    3  C3  UNL     1     -35.086  16.391  -2.379  1.00 20.00     0.150 C 
HETATM    4  C4  UNL     1     -35.585  13.466  -4.514  1.00 20.00     0.202 C 
HETATM    5  C5  UNL     1     -33.666  16.015  -2.737  1.00 20.00     0.094 C 
HETATM    6  C6  UNL     1     -33.380  13.616  -3.737  1.00 20.00     0.177 C 
HETATM    7  C7  UNL     1     -33.879  15.036  -3.874  1.00 20.00     0.048 C 
HETATM    8  O8  UNL     1     -35.399  17.282  -1.603  1.00 20.00    -0.293 OA
HETATM    9  O9  UNL     1     -34.291  12.813  -4.526  1.00 20.00    -0.386 OA
ENDROOT
TORSDOF 0
ENDMDL
