MODEL 1
REMARK VINA RESULT:      -5.1      0.000      0.000
REMARK  0 active torsions:
REMARK  status: ('A' for Active; 'I' for Inactive)
ROOT
HETATM    1  C1  UNL     1     -33.939   5.331   2.641  1.00 20.00     0.015 A 
HETATM    2  C2  UNL     1     -33.087   6.199   2.088  1.00 20.00     0.083 A 
HETATM    3  C3  UNL     1     -34.185   5.333   4.059  1.00 20.00    -0.028 A 
HETATM    4  C4  UNL     1     -33.542   6.231   4.820  1.00 20.00     0.063 A 
HETATM    5  C5  UNL     1     -32.374   7.184   2.925  1.00 20.00     0.287 A 
HETATM    6  C6  UNL     1     -35.144   4.321   4.623  1.00 20.00     0.041 C 
HETATM    7  C7  UNL     1     -33.734   6.346   6.303  1.00 20.00     0.066 C 
HETATM    8  C8  UNL     1     -35.063   4.208   6.149  1.00 20.00     0.005 C 
HETATM    9  C9  UNL     1     -34.961   5.582   6.805  1.00 20.00     0.007 C 
HETATM   10  O10 UNL     1     -31.589   7.981   2.423  1.00 20.00    -0.260 OA
HETATM   11  O11 UNL     1     -32.633   7.165   4.269  1.00 20.00    -0.279 OA
ENDROOT
TORSDOF 0
ENDMDL
MODEL 2
REMARK VINA RESULT:      -5.1     11.768     13.018
REMARK  0 active torsions:
REMARK  status: ('A' for Active; 'I' for Inactive)
ROOT
HETATM    1  C1  UNL     1     -34.054  15.817  -5.446  1.00 20.00     0.015 A 
HETATM    2  C2  UNL     1     -34.374  14.529  -5.605  1.00 20.00     0.083 A 
HETATM    3  C3  UNL     1     -34.075  16.432  -4.145  1.00 20.00    -0.028 A 
HETATM    4  C4  UNL     1     -34.419  15.682  -3.087  1.00 20.00     0.063 A 
HETATM    5  C5  UNL     1     -34.758  13.705  -4.442  1.00 20.00     0.287 A 
HETATM    6  C6  UNL     1     -33.719  17.889  -4.034  1.00 20.00     0.041 C 
HETATM    7  C7  UNL     1     -34.454  16.203  -1.682  1.00 20.00     0.066 C 
HETATM    8  C8  UNL     1     -34.099  18.493  -2.678  1.00 20.00     0.005 C 
HETATM    9  C9  UNL     1     -33.746  17.552  -1.530  1.00 20.00     0.007 C 
HETATM   10  O10 UNL     1     -35.055  12.523  -4.584  1.00 20.00    -0.260 OA
HETATM   11  O11 UNL     1     -34.764  14.316  -3.218  1.00 20.00    -0.279 OA
ENDROOT
TORSDOF 0
ENDMDL
MODEL 3
REMARK VINA RESULT:      -4.7     12.198     14.395
REMARK  0 active torsions:
REMARK  status: ('A' for Active; 'I' for Inactive)
ROOT
HETATM    1  C1  UNL     1     -33.788  15.726  -3.601  1.00 20.00     0.015 A 
HETATM    2  C2  UNL     1     -34.014  14.409  -3.565  1.00 20.00     0.083 A 
HETATM    3  C3  UNL     1     -33.960  16.475  -4.817  1.00 20.00    -0.028 A 
HETATM    4  C4  UNL     1     -34.358  15.825  -5.921  1.00 20.00     0.063 A 
HETATM    5  C5  UNL     1     -34.447  13.691  -4.780  1.00 20.00     0.287 A 
HETATM    6  C6  UNL     1     -33.676  17.952  -4.796  1.00 20.00     0.041 C 
HETATM    7  C7  UNL     1     -34.594  16.500  -7.238  1.00 20.00     0.066 C 
HETATM    8  C8  UNL     1     -33.571  18.559  -6.200  1.00 20.00     0.005 C 
HETATM    9  C9  UNL     1     -34.664  18.025  -7.121  1.00 20.00     0.007 C 
HETATM   10  O10 UNL     1     -34.653  12.482  -4.752  1.00 20.00    -0.260 OA
HETATM   11  O11 UNL     1     -34.606  14.431  -5.919  1.00 20.00    -0.279 OA
ENDROOT
TORSDOF 0
ENDMDL
MODEL 4
REMARK VINA RESULT:      -4.6     11.540     12.801
REMARK  0 active torsions:
REMARK  status: ('A' for Active; 'I' for Inactive)
ROOT
HETATM    1  C1  UNL     1     -33.155  15.225  -3.298  1.00 20.00     0.015 A 
HETATM    2  C2  UNL     1     -33.428  14.016  -3.799  1.00 20.00     0.083 A 
HETATM    3  C3  UNL     1     -34.207  16.164  -3.010  1.00 20.00    -0.028 A 
HETATM    4  C4  UNL     1     -35.475  15.798  -3.248  1.00 20.00     0.063 A 
HETATM    5  C5  UNL     1     -34.823  13.615  -4.067  1.00 20.00     0.287 A 
HETATM    6  C6  UNL     1     -33.834  17.514  -2.461  1.00 20.00     0.041 C 
HETATM    7  C7  UNL     1     -36.656  16.679  -2.966  1.00 20.00     0.066 C 
HETATM    8  C8  UNL     1     -34.990  18.518  -2.514  1.00 20.00     0.005 C 
HETATM    9  C9  UNL     1     -36.305  17.878  -2.081  1.00 20.00     0.007 C 
HETATM   10  O10 UNL     1     -35.078  12.508  -4.529  1.00 20.00    -0.260 OA
HETATM   11  O11 UNL     1     -35.801  14.527  -3.778  1.00 20.00    -0.279 OA
ENDROOT
TORSDOF 0
ENDMDL
MODEL 5
REMARK VINA RESULT:      -4.5     12.160     13.310
REMARK  0 active torsions:
REMARK  status: ('A' for Active; 'I' for Inactive)
ROOT
HETATM    1  C1  UNL     1     -34.790  14.503  -3.426  1.00 20.00     0.015 A 
HETATM    2  C2  UNL     1     -34.748  14.131  -4.709  1.00 20.00     0.083 A 
HETATM    3  C3  UNL     1     -34.446  15.843  -3.030  1.00 20.00    -0.028 A 
HETATM    4  C4  UNL     1     -34.085  16.720  -3.980  1.00 20.00     0.063 A 
HETATM    5  C5  UNL     1     -34.345  15.093  -5.754  1.00 20.00     0.287 A 
HETATM    6  C6  UNL     1     -34.499  16.196  -1.569  1.00 20.00     0.041 C 
HETATM    7  C7  UNL     1     -33.728  18.148  -3.693  1.00 20.00     0.066 C 
HETATM    8  C8  UNL     1     -33.800  17.522  -1.251  1.00 20.00     0.005 C 
HETATM    9  C9  UNL     1     -34.136  18.592  -2.286  1.00 20.00     0.007 C 
HETATM   10  O10 UNL     1     -34.303  14.755  -6.932  1.00 20.00    -0.260 OA
HETATM   11  O11 UNL     1     -34.029  16.361  -5.348  1.00 20.00    -0.279 OA
ENDROOT
TORSDOF 0
ENDMDL
MODEL 6
REMARK VINA RESULT:      -4.5     12.260     13.459
REMARK  0 active torsions:
REMARK  status: ('A' for Active; 'I' for Inactive)
ROOT
HETATM    1  C1  UNL     1     -34.673  15.955  -1.863  1.00 20.00     0.015 A 
HETATM    2  C2  UNL     1     -34.188  17.102  -1.377  1.00 20.00     0.083 A 
HETATM    3  C3  UNL     1     -34.685  15.695  -3.278  1.00 20.00    -0.028 A 
HETATM    4  C4  UNL     1     -34.192  16.629  -4.106  1.00 20.00     0.063 A 
HETATM    5  C5  UNL     1     -33.652  18.133  -2.286  1.00 20.00     0.287 A 
HETATM    6  C6  UNL     1     -35.257  14.392  -3.764  1.00 20.00     0.041 C 
HETATM    7  C7  UNL     1     -34.128  16.463  -5.595  1.00 20.00     0.066 C 
HETATM    8  C8  UNL     1     -35.516  14.381  -5.275  1.00 20.00     0.005 C 
HETATM    9  C9  UNL     1     -34.360  15.018  -6.042  1.00 20.00     0.007 C 
HETATM   10  O10 UNL     1     -33.208  19.187  -1.845  1.00 20.00    -0.260 OA
HETATM   11  O11 UNL     1     -33.671  17.854  -3.626  1.00 20.00    -0.279 OA
ENDROOT
TORSDOF 0
ENDMDL
MODEL 7
REMARK VINA RESULT:      -4.5      1.061      2.206
REMARK  0 active torsions:
REMARK  status: ('A' for Active; 'I' for Inactive)
ROOT
HETATM    1  C1  UNL     1     -32.224   7.441   5.029  1.00 20.00     0.015 A 
HETATM    2  C2  UNL     1     -31.722   7.958   3.903  1.00 20.00     0.083 A 
HETATM    3  C3  UNL     1     -33.290   6.475   4.990  1.00 20.00    -0.028 A 
HETATM    4  C4  UNL     1     -33.769   6.096   3.796  1.00 20.00     0.063 A 
HETATM    5  C5  UNL     1     -32.252   7.547   2.589  1.00 20.00     0.287 A 
HETATM    6  C6  UNL     1     -33.822   5.941   6.291  1.00 20.00     0.041 C 
HETATM    7  C7  UNL     1     -34.860   5.082   3.627  1.00 20.00     0.066 C 
HETATM    8  C8  UNL     1     -35.151   5.194   6.130  1.00 20.00     0.005 C 
HETATM    9  C9  UNL     1     -35.133   4.284   4.905  1.00 20.00     0.007 C 
HETATM   10  O10 UNL     1     -31.796   8.021   1.554  1.00 20.00    -0.260 OA
HETATM   11  O11 UNL     1     -33.261   6.623   2.584  1.00 20.00    -0.279 OA
ENDROOT
TORSDOF 0
ENDMDL
MODEL 8
REMARK VINA RESULT:      -4.4     11.999     13.440
REMARK  0 active torsions:
REMARK  status: ('A' for Active; 'I' for Inactive)
ROOT
HETATM    1  C1  UNL     1     -36.672  15.545  -6.012  1.00 20.00     0.015 A 
HETATM    2  C2  UNL     1     -37.848  15.152  -5.513  1.00 20.00     0.083 A 
HETATM    3  C3  UNL     1     -35.485  15.548  -5.199  1.00 20.00    -0.028 A 
HETATM    4  C4  UNL     1     -35.580  15.141  -3.924  1.00 20.00     0.063 A 
HETATM    5  C5  UNL     1     -37.955  14.709  -4.109  1.00 20.00     0.287 A 
HETATM    6  C6  UNL     1     -34.194  16.016  -5.814  1.00 20.00     0.041 C 
HETATM    7  C7  UNL     1     -34.410  15.077  -2.987  1.00 20.00     0.066 C 
HETATM    8  C8  UNL     1     -33.102  16.286  -4.773  1.00 20.00     0.005 C 
HETATM    9  C9  UNL     1     -33.065  15.194  -3.708  1.00 20.00     0.007 C 
HETATM   10  O10 UNL     1     -39.032  14.350  -3.647  1.00 20.00    -0.260 OA
HETATM   11  O11 UNL     1     -36.808  14.718  -3.363  1.00 20.00    -0.279 OA
ENDROOT
TORSDOF 0
ENDMDL
MODEL 9
REMARK VINA RESULT:      -4.4     11.998     13.031
REMARK  0 active torsions:
REMARK  status: ('A' for Active; 'I' for Inactive)
ROOT
HETATM    1  C1  UNL     1     -34.304  15.978  -2.013  1.00 20.00     0.015 A 
HETATM    2  C2  UNL     1     -35.060  16.991  -1.578  1.00 20.00     0.083 A 
HETATM    3  C3  UNL     1     -34.644  15.262  -3.214  1.00 20.00    -0.028 A 
HETATM    4  C4  UNL     1     -35.736  15.636  -3.896  1.00 20.00     0.063 A 
HETATM    5  C5  UNL     1     -36.266  17.399  -2.324  1.00 20.00     0.287 A 
HETATM    6  C6  UNL     1     -33.762  14.122  -3.643  1.00 20.00     0.041 C 
HETATM    7  C7  UNL     1     -36.178  14.982  -5.172  1.00 20.00     0.066 C 
HETATM    8  C8  UNL     1     -34.404  13.245  -4.724  1.00 20.00     0.005 C 
HETATM    9  C9  UNL     1     -35.096  14.092  -5.789  1.00 20.00     0.007 C 
HETATM   10  O10 UNL     1     -36.963  18.327  -1.928  1.00 20.00    -0.260 OA
HETATM   11  O11 UNL     1     -36.559  16.703  -3.465  1.00 20.00    -0.279 OA
ENDROOT
TORSDOF 0
ENDMDL
