MODEL 1
REMARK VINA RESULT:      -4.7      0.000      0.000
REMARK  0 active torsions:
REMARK  status: ('A' for Active; 'I' for Inactive)
ROOT
HETATM    1  C1  UNL     1     -34.786  14.015  -5.864  1.00 20.00     0.087 A 
HETATM    2  C2  UNL     1     -34.160  16.356  -5.937  1.00 20.00     0.063 A 
HETATM    3  C3  UNL     1     -34.655  15.280  -3.793  1.00 20.00     0.114 A 
HETATM    4  C4  UNL     1     -34.417  15.145  -6.585  1.00 20.00     0.120 A 
HETATM    5  C5  UNL     1     -34.908  14.069  -4.472  1.00 20.00     0.149 A 
HETATM    6  C6  UNL     1     -34.285  16.403  -4.539  1.00 20.00     0.042 A 
HETATM    7  C7  UNL     1     -34.435  16.729  -2.144  1.00 20.00     0.145 A 
HETATM    8  N8  UNL     1     -34.736  15.482  -2.423  1.00 20.00    -0.230 NA
HETATM    9  F9  UNL     1     -34.305  15.073  -7.918  1.00 20.00    -0.206 F 
HETATM   10  F10 UNL     1     -35.265  12.970  -3.793  1.00 20.00    -0.203 F 
HETATM   11  S11 UNL     1     -34.038  17.733  -3.471  1.00 20.00    -0.060 SA
HETATM   12 BR12 UNL     1     -34.438  17.383  -0.351  1.00 20.00    -0.021 Br
ENDROOT
TORSDOF 0
ENDMDL
MODEL 2
REMARK VINA RESULT:      -4.6      1.487      1.487
REMARK  0 active torsions:
REMARK  status: ('A' for Active; 'I' for Inactive)
ROOT
HETATM    1  C1  UNL     1     -34.595  13.870  -5.550  1.00 20.00     0.087 A 
HETATM    2  C2  UNL     1     -36.237  15.639  -5.320  1.00 20.00     0.063 A 
HETATM    3  C3  UNL     1     -34.660  15.179  -3.503  1.00 20.00     0.114 A 
HETATM    4  C4  UNL     1     -35.655  14.609  -6.063  1.00 20.00     0.120 A 
HETATM    5  C5  UNL     1     -34.089  14.144  -4.275  1.00 20.00     0.149 A 
HETATM    6  C6  UNL     1     -35.724  15.908  -4.041  1.00 20.00     0.042 A 
HETATM    7  C7  UNL     1     -35.015  16.557  -1.818  1.00 20.00     0.145 A 
HETATM    8  N8  UNL     1     -34.265  15.562  -2.230  1.00 20.00    -0.230 NA
HETATM    9  F9  UNL     1     -36.126  14.331  -7.287  1.00 20.00    -0.206 F 
HETATM   10  F10 UNL     1     -33.067  13.422  -3.797  1.00 20.00    -0.203 F 
HETATM   11  S11 UNL     1     -36.224  17.100  -2.900  1.00 20.00    -0.060 SA
HETATM   12 BR12 UNL     1     -34.766  17.355  -0.102  1.00 20.00    -0.021 Br
ENDROOT
TORSDOF 0
ENDMDL
MODEL 3
REMARK VINA RESULT:      -4.5      1.233      1.381
REMARK  0 active torsions:
REMARK  status: ('A' for Active; 'I' for Inactive)
ROOT
HETATM    1  C1  UNL     1     -34.098  14.948  -5.030  1.00 20.00     0.087 A 
HETATM    2  C2  UNL     1     -33.750  17.347  -5.075  1.00 20.00     0.063 A 
HETATM    3  C3  UNL     1     -34.076  16.190  -2.941  1.00 20.00     0.114 A 
HETATM    4  C4  UNL     1     -33.876  16.124  -5.739  1.00 20.00     0.120 A 
HETATM    5  C5  UNL     1     -34.199  14.967  -3.636  1.00 20.00     0.149 A 
HETATM    6  C6  UNL     1     -33.854  17.359  -3.675  1.00 20.00     0.042 A 
HETATM    7  C7  UNL     1     -33.994  17.630  -1.273  1.00 20.00     0.145 A 
HETATM    8  N8  UNL     1     -34.154  16.362  -1.567  1.00 20.00    -0.230 NA
HETATM    9  F9  UNL     1     -33.782  16.085  -7.075  1.00 20.00    -0.206 F 
HETATM   10  F10 UNL     1     -34.412  13.824  -2.969  1.00 20.00    -0.203 F 
HETATM   11  S11 UNL     1     -33.743  18.693  -2.589  1.00 20.00    -0.060 SA
HETATM   12 BR12 UNL     1     -34.040  18.254   0.531  1.00 20.00    -0.021 Br
ENDROOT
TORSDOF 0
ENDMDL
MODEL 4
REMARK VINA RESULT:      -4.5     12.452     13.708
REMARK  0 active torsions:
REMARK  status: ('A' for Active; 'I' for Inactive)
ROOT
HETATM    1  C1  UNL     1     -34.477   5.510   6.730  1.00 20.00     0.087 A 
HETATM    2  C2  UNL     1     -34.889   4.549   4.543  1.00 20.00     0.063 A 
HETATM    3  C3  UNL     1     -33.471   6.534   4.768  1.00 20.00     0.114 A 
HETATM    4  C4  UNL     1     -35.075   4.545   5.928  1.00 20.00     0.120 A 
HETATM    5  C5  UNL     1     -33.675   6.507   6.165  1.00 20.00     0.149 A 
HETATM    6  C6  UNL     1     -34.083   5.553   3.982  1.00 20.00     0.042 A 
HETATM    7  C7  UNL     1     -32.741   7.177   2.789  1.00 20.00     0.145 A 
HETATM    8  N8  UNL     1     -32.706   7.456   4.071  1.00 20.00    -0.230 NA
HETATM    9  F9  UNL     1     -35.840   3.599   6.488  1.00 20.00    -0.206 F 
HETATM   10  F10 UNL     1     -33.105   7.428   6.954  1.00 20.00    -0.203 F 
HETATM   11  S11 UNL     1     -33.671   5.818   2.329  1.00 20.00    -0.060 SA
HETATM   12 BR12 UNL     1     -31.800   8.235   1.508  1.00 20.00    -0.021 Br
ENDROOT
TORSDOF 0
ENDMDL
MODEL 5
REMARK VINA RESULT:      -4.5      3.578      5.039
REMARK  0 active torsions:
REMARK  status: ('A' for Active; 'I' for Inactive)
ROOT
HETATM    1  C1  UNL     1     -33.710  18.030  -2.110  1.00 20.00     0.087 A 
HETATM    2  C2  UNL     1     -34.750  15.851  -1.894  1.00 20.00     0.063 A 
HETATM    3  C3  UNL     1     -34.257  16.766  -4.112  1.00 20.00     0.114 A 
HETATM    4  C4  UNL     1     -34.217  17.006  -1.317  1.00 20.00     0.120 A 
HETATM    5  C5  UNL     1     -33.724  17.923  -3.504  1.00 20.00     0.149 A 
HETATM    6  C6  UNL     1     -34.761  15.750  -3.295  1.00 20.00     0.042 A 
HETATM    7  C7  UNL     1     -34.889  15.348  -5.679  1.00 20.00     0.145 A 
HETATM    8  N8  UNL     1     -34.337  16.521  -5.475  1.00 20.00    -0.230 NA
HETATM    9  F9  UNL     1     -34.195  17.128   0.017  1.00 20.00    -0.206 F 
HETATM   10  F10 UNL     1     -33.230  18.919  -4.252  1.00 20.00    -0.203 F 
HETATM   11  S11 UNL     1     -35.344  14.466  -4.286  1.00 20.00    -0.060 SA
HETATM   12 BR12 UNL     1     -35.166  14.664  -7.440  1.00 20.00    -0.021 Br
ENDROOT
TORSDOF 0
ENDMDL
MODEL 6
REMARK VINA RESULT:      -4.4      3.128      3.809
REMARK  0 active torsions:
REMARK  status: ('A' for Active; 'I' for Inactive)
ROOT
HETATM    1  C1  UNL     1     -32.949  15.295  -3.816  1.00 20.00     0.087 A 
HETATM    2  C2  UNL     1     -34.801  13.731  -3.794  1.00 20.00     0.063 A 
HETATM    3  C3  UNL     1     -35.220  16.131  -4.038  1.00 20.00     0.114 A 
HETATM    4  C4  UNL     1     -33.430  13.993  -3.729  1.00 20.00     0.120 A 
HETATM    5  C5  UNL     1     -33.831  16.369  -3.970  1.00 20.00     0.149 A 
HETATM    6  C6  UNL     1     -35.680  14.814  -3.948  1.00 20.00     0.042 A 
HETATM    7  C7  UNL     1     -37.385  16.514  -4.212  1.00 20.00     0.145 A 
HETATM    8  N8  UNL     1     -36.208  17.093  -4.189  1.00 20.00    -0.230 NA
HETATM    9  F9  UNL     1     -32.570  12.977  -3.581  1.00 20.00    -0.206 F 
HETATM   10  F10 UNL     1     -33.349  17.617  -4.053  1.00 20.00    -0.203 F 
HETATM   11  S11 UNL     1     -37.401  14.810  -4.059  1.00 20.00    -0.060 SA
HETATM   12 BR12 UNL     1     -38.995  17.522  -4.407  1.00 20.00    -0.021 Br
ENDROOT
TORSDOF 0
ENDMDL
MODEL 7
REMARK VINA RESULT:      -4.4      1.710      2.697
REMARK  0 active torsions:
REMARK  status: ('A' for Active; 'I' for Inactive)
ROOT
HETATM    1  C1  UNL     1     -34.198  15.036  -5.675  1.00 20.00     0.087 A 
HETATM    2  C2  UNL     1     -34.925  14.393  -3.454  1.00 20.00     0.063 A 
HETATM    3  C3  UNL     1     -33.993  16.623  -3.847  1.00 20.00     0.114 A 
HETATM    4  C4  UNL     1     -34.744  14.097  -4.807  1.00 20.00     0.120 A 
HETATM    5  C5  UNL     1     -33.820  16.299  -5.210  1.00 20.00     0.149 A 
HETATM    6  C6  UNL     1     -34.543  15.663  -2.993  1.00 20.00     0.042 A 
HETATM    7  C7  UNL     1     -33.962  17.779  -1.969  1.00 20.00     0.145 A 
HETATM    8  N8  UNL     1     -33.665  17.830  -3.246  1.00 20.00    -0.230 NA
HETATM    9  F9  UNL     1     -35.100  12.892  -5.272  1.00 20.00    -0.206 F 
HETATM   10  F10 UNL     1     -33.297  17.191  -6.062  1.00 20.00    -0.203 F 
HETATM   11  S11 UNL     1     -34.641  16.316  -1.401  1.00 20.00    -0.060 SA
HETATM   12 BR12 UNL     1     -33.650  19.263  -0.808  1.00 20.00    -0.021 Br
ENDROOT
TORSDOF 0
ENDMDL
MODEL 8
REMARK VINA RESULT:      -4.4      2.853      3.128
REMARK  0 active torsions:
REMARK  status: ('A' for Active; 'I' for Inactive)
ROOT
HETATM    1  C1  UNL     1     -33.606  13.777  -3.988  1.00 20.00     0.087 A 
HETATM    2  C2  UNL     1     -33.860  16.081  -3.279  1.00 20.00     0.063 A 
HETATM    3  C3  UNL     1     -35.836  14.696  -3.696  1.00 20.00     0.114 A 
HETATM    4  C4  UNL     1     -33.048  14.995  -3.616  1.00 20.00     0.120 A 
HETATM    5  C5  UNL     1     -34.994  13.615  -4.032  1.00 20.00     0.149 A 
HETATM    6  C6  UNL     1     -35.253  15.911  -3.325  1.00 20.00     0.042 A 
HETATM    7  C7  UNL     1     -37.674  15.860  -3.330  1.00 20.00     0.145 A 
HETATM    8  N8  UNL     1     -37.223  14.682  -3.694  1.00 20.00    -0.230 NA
HETATM    9  F9  UNL     1     -31.716  15.131  -3.580  1.00 20.00    -0.206 F 
HETATM   10  F10 UNL     1     -35.513  12.433  -4.392  1.00 20.00    -0.203 F 
HETATM   11  S11 UNL     1     -36.498  17.049  -2.969  1.00 20.00    -0.060 SA
HETATM   12 BR12 UNL     1     -39.544  16.223  -3.210  1.00 20.00    -0.021 Br
ENDROOT
TORSDOF 0
ENDMDL
MODEL 9
REMARK VINA RESULT:      -4.4      3.467      4.155
REMARK  0 active torsions:
REMARK  status: ('A' for Active; 'I' for Inactive)
ROOT
HETATM    1  C1  UNL     1     -34.091  14.794  -3.146  1.00 20.00     0.087 A 
HETATM    2  C2  UNL     1     -35.513  16.671  -2.571  1.00 20.00     0.063 A 
HETATM    3  C3  UNL     1     -36.453  14.719  -3.713  1.00 20.00     0.114 A 
HETATM    4  C4  UNL     1     -34.259  16.054  -2.583  1.00 20.00     0.120 A 
HETATM    5  C5  UNL     1     -35.176  14.117  -3.712  1.00 20.00     0.149 A 
HETATM    6  C6  UNL     1     -36.598  15.987  -3.142  1.00 20.00     0.042 A 
HETATM    7  C7  UNL     1     -38.612  15.006  -4.062  1.00 20.00     0.145 A 
HETATM    8  N8  UNL     1     -37.615  14.171  -4.236  1.00 20.00    -0.230 NA
HETATM    9  F9  UNL     1     -33.207  16.686  -2.046  1.00 20.00    -0.206 F 
HETATM   10  F10 UNL     1     -34.995  12.903  -4.250  1.00 20.00    -0.203 F 
HETATM   11  S11 UNL     1     -38.244  16.480  -3.276  1.00 20.00    -0.060 SA
HETATM   12 BR12 UNL     1     -40.379  14.594  -4.656  1.00 20.00    -0.021 Br
ENDROOT
TORSDOF 0
ENDMDL
