MODEL 1
REMARK VINA RESULT:      -5.0      0.000      0.000
REMARK  3 active torsions:
REMARK  status: ('A' for Active; 'I' for Inactive)
REMARK    1  A    between atoms: C1_1  and  C6_6 
REMARK    2  A    between atoms: C4_4  and  C7_7 
REMARK    3  A    between atoms: C6_6  and  C7_7 
ROOT
HETATM    1  C7  UNL     1     -33.405   6.194   4.718  1.00 20.00     0.019 C 
ENDROOT
BRANCH   1   2
HETATM    2  C4  UNL     1     -34.624   5.331   4.895  1.00 20.00    -0.043 A 
HETATM    3  C2  UNL     1     -35.127   5.096   6.301  1.00 20.00     0.010 A 
HETATM    4  C3  UNL     1     -34.448   3.982   5.555  1.00 20.00     0.010 A 
HETATM    5  C5  UNL     1     -35.641   5.449   3.794  1.00 20.00     0.015 C 
ENDBRANCH   1   2
BRANCH   1   6
HETATM    6  C6  UNL     1     -33.041   6.391   3.252  1.00 20.00     0.114 C 
BRANCH   6   7
HETATM    7  C1  UNL     1     -32.035   7.503   2.936  1.00 20.00     0.172 C 
HETATM    8  O8  UNL     1     -32.159   8.073   1.818  1.00 20.00    -0.648 OA
HETATM    9  O9  UNL     1     -31.198   7.722   3.858  1.00 20.00    -0.648 OA
ENDBRANCH   6   7
ENDBRANCH   1   6
TORSDOF 3
ENDMDL
MODEL 2
REMARK VINA RESULT:      -4.9      0.836      1.422
REMARK  3 active torsions:
REMARK  status: ('A' for Active; 'I' for Inactive)
REMARK    1  A    between atoms: C1_1  and  C6_6 
REMARK    2  A    between atoms: C4_4  and  C7_7 
REMARK    3  A    between atoms: C6_6  and  C7_7 
ROOT
HETATM    1  C7  UNL     1     -34.188   6.140   4.001  1.00 20.00     0.019 C 
ENDROOT
BRANCH   1   2
HETATM    2  C4  UNL     1     -34.234   5.725   5.446  1.00 20.00    -0.043 A 
HETATM    3  C2  UNL     1     -33.927   4.284   5.779  1.00 20.00     0.010 A 
HETATM    4  C3  UNL     1     -35.339   4.789   5.879  1.00 20.00     0.010 A 
HETATM    5  C5  UNL     1     -33.786   6.784   6.416  1.00 20.00     0.015 C 
ENDBRANCH   1   2
BRANCH   1   6
HETATM    6  C6  UNL     1     -32.789   6.026   3.408  1.00 20.00     0.114 C 
BRANCH   6   7
HETATM    7  C1  UNL     1     -32.046   7.339   3.139  1.00 20.00     0.172 C 
HETATM    8  O8  UNL     1     -32.319   7.928   2.058  1.00 20.00    -0.648 OA
HETATM    9  O9  UNL     1     -31.246   7.679   4.057  1.00 20.00    -0.648 OA
ENDBRANCH   6   7
ENDBRANCH   1   6
TORSDOF 3
ENDMDL
MODEL 3
REMARK VINA RESULT:      -4.6      2.684      4.338
REMARK  3 active torsions:
REMARK  status: ('A' for Active; 'I' for Inactive)
REMARK    1  A    between atoms: C1_1  and  C6_6 
REMARK    2  A    between atoms: C4_4  and  C7_7 
REMARK    3  A    between atoms: C6_6  and  C7_7 
ROOT
HETATM    1  C7  UNL     1     -33.901   6.802   4.066  1.00 20.00     0.019 C 
ENDROOT
BRANCH   1   2
HETATM    2  C4  UNL     1     -32.621   6.709   3.283  1.00 20.00    -0.043 A 
HETATM    3  C2  UNL     1     -31.475   7.607   3.688  1.00 20.00     0.010 A 
HETATM    4  C3  UNL     1     -32.230   7.887   2.420  1.00 20.00     0.010 A 
HETATM    5  C5  UNL     1     -32.292   5.329   2.782  1.00 20.00     0.015 C 
ENDBRANCH   1   2
BRANCH   1   6
HETATM    6  C6  UNL     1     -34.697   5.504   4.035  1.00 20.00     0.114 C 
BRANCH   6   7
HETATM    7  C1  UNL     1     -34.880   4.776   5.371  1.00 20.00     0.172 C 
HETATM    8  O8  UNL     1     -35.081   3.532   5.311  1.00 20.00    -0.648 OA
HETATM    9  O9  UNL     1     -34.792   5.525   6.386  1.00 20.00    -0.648 OA
ENDBRANCH   6   7
ENDBRANCH   1   6
TORSDOF 3
ENDMDL
MODEL 4
REMARK VINA RESULT:      -4.4     10.984     12.010
REMARK  3 active torsions:
REMARK  status: ('A' for Active; 'I' for Inactive)
REMARK    1  A    between atoms: C1_1  and  C6_6 
REMARK    2  A    between atoms: C4_4  and  C7_7 
REMARK    3  A    between atoms: C6_6  and  C7_7 
ROOT
HETATM    1  C7  UNL     1     -33.785  15.705  -2.696  1.00 20.00     0.019 C 
ENDROOT
BRANCH   1   2
HETATM    2  C4  UNL     1     -34.461  16.858  -2.007  1.00 20.00    -0.043 A 
HETATM    3  C2  UNL     1     -33.631  17.712  -1.076  1.00 20.00     0.010 A 
HETATM    4  C3  UNL     1     -34.658  16.772  -0.511  1.00 20.00     0.010 A 
HETATM    5  C5  UNL     1     -35.528  17.535  -2.821  1.00 20.00     0.015 C 
ENDBRANCH   1   2
BRANCH   1   6
HETATM    6  C6  UNL     1     -34.766  14.837  -3.475  1.00 20.00     0.114 C 
BRANCH   6   7
HETATM    7  C1  UNL     1     -34.274  13.447  -3.893  1.00 20.00     0.172 C 
HETATM    8  O8  UNL     1     -35.124  12.690  -4.436  1.00 20.00    -0.648 OA
HETATM    9  O9  UNL     1     -33.052  13.234  -3.648  1.00 20.00    -0.648 OA
ENDBRANCH   6   7
ENDBRANCH   1   6
TORSDOF 3
ENDMDL
MODEL 5
REMARK VINA RESULT:      -4.1     11.393     12.700
REMARK  3 active torsions:
REMARK  status: ('A' for Active; 'I' for Inactive)
REMARK    1  A    between atoms: C1_1  and  C6_6 
REMARK    2  A    between atoms: C4_4  and  C7_7 
REMARK    3  A    between atoms: C6_6  and  C7_7 
ROOT
HETATM    1  C7  UNL     1     -33.028  15.573  -3.833  1.00 20.00     0.019 C 
ENDROOT
BRANCH   1   2
HETATM    2  C4  UNL     1     -34.024  16.513  -3.213  1.00 20.00    -0.043 A 
HETATM    3  C2  UNL     1     -34.985  17.234  -4.130  1.00 20.00     0.010 A 
HETATM    4  C3  UNL     1     -33.863  17.993  -3.479  1.00 20.00     0.010 A 
HETATM    5  C5  UNL     1     -34.525  16.091  -1.860  1.00 20.00     0.015 C 
ENDBRANCH   1   2
BRANCH   1   6
HETATM    6  C6  UNL     1     -33.448  14.114  -3.704  1.00 20.00     0.114 C 
BRANCH   6   7
HETATM    7  C1  UNL     1     -34.432  13.585  -4.755  1.00 20.00     0.172 C 
HETATM    8  O8  UNL     1     -34.436  14.176  -5.869  1.00 20.00    -0.648 OA
HETATM    9  O9  UNL     1     -35.120  12.597  -4.369  1.00 20.00    -0.648 OA
ENDBRANCH   6   7
ENDBRANCH   1   6
TORSDOF 3
ENDMDL
MODEL 6
REMARK VINA RESULT:      -4.1      1.402      2.001
REMARK  3 active torsions:
REMARK  status: ('A' for Active; 'I' for Inactive)
REMARK    1  A    between atoms: C1_1  and  C6_6 
REMARK    2  A    between atoms: C4_4  and  C7_7 
REMARK    3  A    between atoms: C6_6  and  C7_7 
ROOT
HETATM    1  C7  UNL     1     -33.043   6.076   2.980  1.00 20.00     0.019 C 
ENDROOT
BRANCH   1   2
HETATM    2  C4  UNL     1     -34.021   5.887   4.107  1.00 20.00    -0.043 A 
HETATM    3  C2  UNL     1     -34.671   4.531   4.260  1.00 20.00     0.010 A 
HETATM    4  C3  UNL     1     -35.478   5.694   3.756  1.00 20.00     0.010 A 
HETATM    5  C5  UNL     1     -33.693   6.656   5.356  1.00 20.00     0.015 C 
ENDBRANCH   1   2
BRANCH   1   6
HETATM    6  C6  UNL     1     -32.156   7.298   3.180  1.00 20.00     0.114 C 
BRANCH   6   7
HETATM    7  C1  UNL     1     -32.160   8.343   2.058  1.00 20.00     0.172 C 
HETATM    8  O8  UNL     1     -31.518   8.048   1.013  1.00 20.00    -0.648 OA
HETATM    9  O9  UNL     1     -32.829   9.383   2.319  1.00 20.00    -0.648 OA
ENDBRANCH   6   7
ENDBRANCH   1   6
TORSDOF 3
ENDMDL
MODEL 7
REMARK VINA RESULT:      -4.0     11.088     13.224
REMARK  3 active torsions:
REMARK  status: ('A' for Active; 'I' for Inactive)
REMARK    1  A    between atoms: C1_1  and  C6_6 
REMARK    2  A    between atoms: C4_4  and  C7_7 
REMARK    3  A    between atoms: C6_6  and  C7_7 
ROOT
HETATM    1  C7  UNL     1     -35.523  15.500  -4.792  1.00 20.00     0.019 C 
ENDROOT
BRANCH   1   2
HETATM    2  C4  UNL     1     -34.519  15.989  -5.798  1.00 20.00    -0.043 A 
HETATM    3  C2  UNL     1     -33.269  16.663  -5.282  1.00 20.00     0.010 A 
HETATM    4  C3  UNL     1     -34.336  17.482  -5.950  1.00 20.00     0.010 A 
HETATM    5  C5  UNL     1     -34.401  15.136  -7.031  1.00 20.00     0.015 C 
ENDBRANCH   1   2
BRANCH   1   6
HETATM    6  C6  UNL     1     -34.871  14.754  -3.635  1.00 20.00     0.114 C 
BRANCH   6   7
HETATM    7  C1  UNL     1     -34.287  13.372  -3.949  1.00 20.00     0.172 C 
HETATM    8  O8  UNL     1     -35.065  12.544  -4.496  1.00 20.00    -0.648 OA
HETATM    9  O9  UNL     1     -33.072  13.236  -3.626  1.00 20.00    -0.648 OA
ENDBRANCH   6   7
ENDBRANCH   1   6
TORSDOF 3
ENDMDL
MODEL 8
REMARK VINA RESULT:      -4.0      2.978      4.309
REMARK  3 active torsions:
REMARK  status: ('A' for Active; 'I' for Inactive)
REMARK    1  A    between atoms: C1_1  and  C6_6 
REMARK    2  A    between atoms: C4_4  and  C7_7 
REMARK    3  A    between atoms: C6_6  and  C7_7 
ROOT
HETATM    1  C7  UNL     1     -34.438   5.593   3.210  1.00 20.00     0.019 C 
ENDROOT
BRANCH   1   2
HETATM    2  C4  UNL     1     -33.273   6.415   3.688  1.00 20.00    -0.043 A 
HETATM    3  C2  UNL     1     -32.589   7.322   2.691  1.00 20.00     0.010 A 
HETATM    4  C3  UNL     1     -31.899   6.072   3.159  1.00 20.00     0.010 A 
HETATM    5  C5  UNL     1     -33.382   6.888   5.111  1.00 20.00     0.015 C 
ENDBRANCH   1   2
BRANCH   1   6
HETATM    6  C6  UNL     1     -35.471   5.358   4.305  1.00 20.00     0.114 C 
BRANCH   6   7
HETATM    7  C1  UNL     1     -35.181   4.222   5.293  1.00 20.00     0.172 C 
HETATM    8  O8  UNL     1     -34.808   3.125   4.794  1.00 20.00    -0.648 OA
HETATM    9  O9  UNL     1     -35.343   4.536   6.507  1.00 20.00    -0.648 OA
ENDBRANCH   6   7
ENDBRANCH   1   6
TORSDOF 3
ENDMDL
MODEL 9
REMARK VINA RESULT:      -3.8     11.823     12.669
REMARK  3 active torsions:
REMARK  status: ('A' for Active; 'I' for Inactive)
REMARK    1  A    between atoms: C1_1  and  C6_6 
REMARK    2  A    between atoms: C4_4  and  C7_7 
REMARK    3  A    between atoms: C6_6  and  C7_7 
ROOT
HETATM    1  C7  UNL     1     -35.059  14.178  -3.661  1.00 20.00     0.019 C 
ENDROOT
BRANCH   1   2
HETATM    2  C4  UNL     1     -34.047  15.228  -3.297  1.00 20.00    -0.043 A 
HETATM    3  C2  UNL     1     -33.321  15.932  -4.420  1.00 20.00     0.010 A 
HETATM    4  C3  UNL     1     -32.589  14.932  -3.570  1.00 20.00     0.010 A 
HETATM    5  C5  UNL     1     -34.385  16.025  -2.068  1.00 20.00     0.015 C 
ENDBRANCH   1   2
BRANCH   1   6
HETATM    6  C6  UNL     1     -36.141  14.712  -4.592  1.00 20.00     0.114 C 
BRANCH   6   7
HETATM    7  C1  UNL     1     -37.473  15.108  -3.944  1.00 20.00     0.172 C 
HETATM    8  O8  UNL     1     -38.311  14.182  -3.769  1.00 20.00    -0.648 OA
HETATM    9  O9  UNL     1     -37.561  16.335  -3.649  1.00 20.00    -0.648 OA
ENDBRANCH   6   7
ENDBRANCH   1   6
TORSDOF 3
ENDMDL
