MODEL 1
REMARK VINA RESULT:      -4.5      0.000      0.000
REMARK  0 active torsions:
REMARK  status: ('A' for Active; 'I' for Inactive)
ROOT
HETATM    1  C1  UNL     1     -33.512   6.343   4.849  1.00 20.00     0.050 A 
HETATM    2  C2  UNL     1     -34.145   5.453   4.005  1.00 20.00     0.010 A 
HETATM    3  C3  UNL     1     -32.690   7.031   2.941  1.00 20.00     0.168 A 
HETATM    4  C4  UNL     1     -33.689   6.320   6.329  1.00 20.00     0.060 C 
HETATM    5  C5  UNL     1     -35.112   4.400   4.428  1.00 20.00     0.048 C 
HETATM    6  C6  UNL     1     -34.924   5.494   6.729  1.00 20.00     0.006 C 
HETATM    7  C7  UNL     1     -35.011   4.171   5.948  1.00 20.00     0.006 C 
HETATM    8  N8  UNL     1     -32.670   7.249   4.239  1.00 20.00    -0.233 NA
HETATM    9  S9  UNL     1     -33.697   5.750   2.391  1.00 20.00    -0.061 SA
HETATM   10 CL10 UNL     1     -31.776   7.953   1.821  1.00 20.00    -0.054 Cl
ENDROOT
TORSDOF 0
ENDMDL
MODEL 2
REMARK VINA RESULT:      -4.2     12.528     13.617
REMARK  0 active torsions:
REMARK  status: ('A' for Active; 'I' for Inactive)
ROOT
HETATM    1  C1  UNL     1     -34.698  15.071  -4.282  1.00 20.00     0.050 A 
HETATM    2  C2  UNL     1     -34.480  16.325  -4.816  1.00 20.00     0.010 A 
HETATM    3  C3  UNL     1     -34.550  16.218  -2.423  1.00 20.00     0.168 A 
HETATM    4  C4  UNL     1     -34.854  13.849  -5.122  1.00 20.00     0.060 C 
HETATM    5  C5  UNL     1     -34.421  16.645  -6.271  1.00 20.00     0.048 C 
HETATM    6  C6  UNL     1     -35.145  14.216  -6.588  1.00 20.00     0.006 C 
HETATM    7  C7  UNL     1     -34.236  15.354  -7.089  1.00 20.00     0.006 C 
HETATM    8  N8  UNL     1     -34.734  15.007  -2.905  1.00 20.00    -0.233 NA
HETATM    9  S9  UNL     1     -34.325  17.477  -3.573  1.00 20.00    -0.061 SA
HETATM   10 CL10 UNL     1     -34.530  16.567  -0.745  1.00 20.00    -0.054 Cl
ENDROOT
TORSDOF 0
ENDMDL
MODEL 3
REMARK VINA RESULT:      -4.2      1.263      2.059
REMARK  0 active torsions:
REMARK  status: ('A' for Active; 'I' for Inactive)
ROOT
HETATM    1  C1  UNL     1     -33.857   5.933   3.838  1.00 20.00     0.050 A 
HETATM    2  C2  UNL     1     -33.278   6.563   4.922  1.00 20.00     0.010 A 
HETATM    3  C3  UNL     1     -32.507   7.287   2.772  1.00 20.00     0.168 A 
HETATM    4  C4  UNL     1     -34.912   4.890   3.977  1.00 20.00     0.060 C 
HETATM    5  C5  UNL     1     -33.576   6.267   6.352  1.00 20.00     0.048 C 
HETATM    6  C6  UNL     1     -34.965   4.339   5.413  1.00 20.00     0.006 C 
HETATM    7  C7  UNL     1     -34.884   5.462   6.464  1.00 20.00     0.006 C 
HETATM    8  N8  UNL     1     -33.417   6.352   2.600  1.00 20.00    -0.233 NA
HETATM    9  S9  UNL     1     -32.137   7.710   4.397  1.00 20.00    -0.061 SA
HETATM   10 CL10 UNL     1     -31.706   8.067   1.473  1.00 20.00    -0.054 Cl
ENDROOT
TORSDOF 0
ENDMDL
MODEL 4
REMARK VINA RESULT:      -4.1     10.225     10.970
REMARK  0 active torsions:
REMARK  status: ('A' for Active; 'I' for Inactive)
ROOT
HETATM    1  C1  UNL     1     -41.565   5.160  -1.602  1.00 20.00     0.050 A 
HETATM    2  C2  UNL     1     -42.758   5.521  -2.195  1.00 20.00     0.010 A 
HETATM    3  C3  UNL     1     -41.996   3.299  -2.670  1.00 20.00     0.168 A 
HETATM    4  C4  UNL     1     -40.802   6.069  -0.700  1.00 20.00     0.060 C 
HETATM    5  C5  UNL     1     -43.417   6.852  -2.069  1.00 20.00     0.048 C 
HETATM    6  C6  UNL     1     -41.277   7.526  -0.848  1.00 20.00     0.006 C 
HETATM    7  C7  UNL     1     -42.813   7.630  -0.887  1.00 20.00     0.006 C 
HETATM    8  N8  UNL     1     -41.128   3.880  -1.870  1.00 20.00    -0.233 NA
HETATM    9  S9  UNL     1     -43.362   4.236  -3.134  1.00 20.00    -0.061 SA
HETATM   10 CL10 UNL     1     -41.815   1.694  -3.245  1.00 20.00    -0.054 Cl
ENDROOT
TORSDOF 0
ENDMDL
MODEL 5
REMARK VINA RESULT:      -4.1     12.179     12.994
REMARK  0 active torsions:
REMARK  status: ('A' for Active; 'I' for Inactive)
ROOT
HETATM    1  C1  UNL     1     -35.906  14.702  -3.675  1.00 20.00     0.050 A 
HETATM    2  C2  UNL     1     -36.047  16.041  -3.369  1.00 20.00     0.010 A 
HETATM    3  C3  UNL     1     -38.066  14.900  -3.974  1.00 20.00     0.168 A 
HETATM    4  C4  UNL     1     -34.598  13.991  -3.611  1.00 20.00     0.060 C 
HETATM    5  C5  UNL     1     -34.938  16.961  -2.990  1.00 20.00     0.048 C 
HETATM    6  C6  UNL     1     -33.425  14.987  -3.571  1.00 20.00     0.006 C 
HETATM    7  C7  UNL     1     -33.689  16.150  -2.598  1.00 20.00     0.006 C 
HETATM    8  N8  UNL     1     -37.068  14.043  -4.018  1.00 20.00    -0.233 NA
HETATM    9  S9  UNL     1     -37.675  16.513  -3.523  1.00 20.00    -0.061 SA
HETATM   10 CL10 UNL     1     -39.685  14.474  -4.341  1.00 20.00    -0.054 Cl
ENDROOT
TORSDOF 0
ENDMDL
MODEL 6
REMARK VINA RESULT:      -4.1     10.666     11.426
REMARK  0 active torsions:
REMARK  status: ('A' for Active; 'I' for Inactive)
ROOT
HETATM    1  C1  UNL     1     -42.761   5.701  -2.539  1.00 20.00     0.050 A 
HETATM    2  C2  UNL     1     -41.735   5.074  -1.860  1.00 20.00     0.010 A 
HETATM    3  C3  UNL     1     -42.880   3.727  -3.478  1.00 20.00     0.168 A 
HETATM    4  C4  UNL     1     -43.127   7.128  -2.313  1.00 20.00     0.060 C 
HETATM    5  C5  UNL     1     -40.899   5.695  -0.794  1.00 20.00     0.048 C 
HETATM    6  C6  UNL     1     -42.524   7.655  -0.999  1.00 20.00     0.006 C 
HETATM    7  C7  UNL     1     -41.055   7.227  -0.826  1.00 20.00     0.006 C 
HETATM    8  N8  UNL     1     -43.417   4.929  -3.474  1.00 20.00    -0.233 NA
HETATM    9  S9  UNL     1     -41.580   3.462  -2.384  1.00 20.00    -0.061 SA
HETATM   10 CL10 UNL     1     -43.417   2.463  -4.503  1.00 20.00    -0.054 Cl
ENDROOT
TORSDOF 0
ENDMDL
MODEL 7
REMARK VINA RESULT:      -4.0     12.177     13.157
REMARK  0 active torsions:
REMARK  status: ('A' for Active; 'I' for Inactive)
ROOT
HETATM    1  C1  UNL     1     -34.385  16.291  -2.318  1.00 20.00     0.050 A 
HETATM    2  C2  UNL     1     -33.926  17.272  -3.174  1.00 20.00     0.010 A 
HETATM    3  C3  UNL     1     -34.299  15.123  -4.168  1.00 20.00     0.168 A 
HETATM    4  C4  UNL     1     -34.662  16.541  -0.876  1.00 20.00     0.060 C 
HETATM    5  C5  UNL     1     -33.599  18.673  -2.785  1.00 20.00     0.048 C 
HETATM    6  C6  UNL     1     -34.005  17.849  -0.401  1.00 20.00     0.006 C 
HETATM    7  C7  UNL     1     -34.210  18.995  -1.409  1.00 20.00     0.006 C 
HETATM    8  N8  UNL     1     -34.605  15.055  -2.890  1.00 20.00    -0.233 NA
HETATM    9  S9  UNL     1     -33.744  16.645  -4.746  1.00 20.00    -0.061 SA
HETATM   10 CL10 UNL     1     -34.430  13.790  -5.237  1.00 20.00    -0.054 Cl
ENDROOT
TORSDOF 0
ENDMDL
MODEL 8
REMARK VINA RESULT:      -4.0     12.713     13.903
REMARK  0 active torsions:
REMARK  status: ('A' for Active; 'I' for Inactive)
ROOT
HETATM    1  C1  UNL     1     -33.760  15.966  -4.887  1.00 20.00     0.050 A 
HETATM    2  C2  UNL     1     -34.803  15.528  -5.680  1.00 20.00     0.010 A 
HETATM    3  C3  UNL     1     -33.961  17.713  -6.191  1.00 20.00     0.168 A 
HETATM    4  C4  UNL     1     -33.167  15.136  -3.801  1.00 20.00     0.060 C 
HETATM    5  C5  UNL     1     -35.504  14.221  -5.539  1.00 20.00     0.048 C 
HETATM    6  C6  UNL     1     -34.094  13.966  -3.425  1.00 20.00     0.006 C 
HETATM    7  C7  UNL     1     -34.669  13.264  -4.668  1.00 20.00     0.006 C 
HETATM    8  N8  UNL     1     -33.272  17.221  -5.183  1.00 20.00    -0.233 NA
HETATM    9  S9  UNL     1     -35.208  16.716  -6.830  1.00 20.00    -0.061 SA
HETATM   10 CL10 UNL     1     -33.666  19.263  -6.861  1.00 20.00    -0.054 Cl
ENDROOT
TORSDOF 0
ENDMDL
MODEL 9
REMARK VINA RESULT:      -4.0     12.372     13.436
REMARK  0 active torsions:
REMARK  status: ('A' for Active; 'I' for Inactive)
ROOT
HETATM    1  C1  UNL     1     -34.295  16.216  -2.525  1.00 20.00     0.050 A 
HETATM    2  C2  UNL     1     -33.875  17.412  -3.073  1.00 20.00     0.010 A 
HETATM    3  C3  UNL     1     -34.342  17.459  -0.723  1.00 20.00     0.168 A 
HETATM    4  C4  UNL     1     -34.427  14.964  -3.321  1.00 20.00     0.060 C 
HETATM    5  C5  UNL     1     -33.552  17.636  -4.511  1.00 20.00     0.048 C 
HETATM    6  C6  UNL     1     -34.441  15.263  -4.831  1.00 20.00     0.006 C 
HETATM    7  C7  UNL     1     -33.360  16.286  -5.225  1.00 20.00     0.006 C 
HETATM    8  N8  UNL     1     -34.559  16.240  -1.172  1.00 20.00    -0.233 NA
HETATM    9  S9  UNL     1     -33.816  18.621  -1.877  1.00 20.00    -0.061 SA
HETATM   10 CL10 UNL     1     -34.561  17.908   0.916  1.00 20.00    -0.054 Cl
ENDROOT
TORSDOF 0
ENDMDL
