MODEL 1
REMARK VINA RESULT:      -4.7      0.000      0.000
REMARK  2 active torsions:
REMARK  status: ('A' for Active; 'I' for Inactive)
REMARK    1  A    between atoms: C2_2  and  C7_7 
REMARK    2  A    between atoms: C3_3  and  C6_6 
ROOT
HETATM    1  C1  UNL     1     -33.152   6.922   4.242  1.00 20.00     0.066 A 
HETATM    2  C2  UNL     1     -34.064   5.852   4.225  1.00 20.00     0.068 A 
HETATM    3  C3  UNL     1     -32.687   6.975   2.955  1.00 20.00     0.094 A 
HETATM    4  N8  UNL     1     -34.157   5.285   3.019  1.00 20.00    -0.133 NA
HETATM    5  O9  UNL     1     -33.280   6.003   2.215  1.00 20.00    -0.216 OA
ENDROOT
BRANCH   2   6
HETATM    6  C7  UNL     1     -34.894   5.320   5.377  1.00 20.00     0.032 C 
HETATM    7  C4  UNL     1     -34.458   5.926   6.714  1.00 20.00     0.016 C 
HETATM    8  C5  UNL     1     -34.862   3.790   5.435  1.00 20.00     0.016 C 
ENDBRANCH   2   6
BRANCH   3   9
HETATM    9  C6  UNL     1     -31.722   7.833   2.257  1.00 20.00     0.181 C 
HETATM   10 CL10 UNL     1     -32.489   9.340   1.679  1.00 20.00    -0.123 Cl
ENDBRANCH   3   9
TORSDOF 2
ENDMDL
MODEL 2
REMARK VINA RESULT:      -4.4      1.564      1.922
REMARK  2 active torsions:
REMARK  status: ('A' for Active; 'I' for Inactive)
REMARK    1  A    between atoms: C2_2  and  C7_7 
REMARK    2  A    between atoms: C3_3  and  C6_6 
ROOT
HETATM    1  C1  UNL     1     -33.304   6.607   2.769  1.00 20.00     0.066 A 
HETATM    2  C2  UNL     1     -33.244   6.320   4.144  1.00 20.00     0.068 A 
HETATM    3  C3  UNL     1     -32.298   7.519   2.583  1.00 20.00     0.094 A 
HETATM    4  N8  UNL     1     -32.275   7.002   4.762  1.00 20.00    -0.133 NA
HETATM    5  O9  UNL     1     -31.677   7.762   3.764  1.00 20.00    -0.216 OA
ENDROOT
BRANCH   2   6
HETATM    6  C7  UNL     1     -34.123   5.370   4.934  1.00 20.00     0.032 C 
HETATM    7  C4  UNL     1     -35.437   5.080   4.205  1.00 20.00     0.016 C 
HETATM    8  C5  UNL     1     -34.387   5.892   6.349  1.00 20.00     0.016 C 
ENDBRANCH   2   6
BRANCH   3   9
HETATM    9  C6  UNL     1     -31.790   8.247   1.413  1.00 20.00     0.181 C 
HETATM   10 CL10 UNL     1     -32.447   9.907   1.342  1.00 20.00    -0.123 Cl
ENDBRANCH   3   9
TORSDOF 2
ENDMDL
MODEL 3
REMARK VINA RESULT:      -4.1     10.957     11.509
REMARK  2 active torsions:
REMARK  status: ('A' for Active; 'I' for Inactive)
REMARK    1  A    between atoms: C2_2  and  C7_7 
REMARK    2  A    between atoms: C3_3  and  C6_6 
ROOT
HETATM    1  C1  UNL     1     -41.832   4.289  -2.119  1.00 20.00     0.066 A 
HETATM    2  C2  UNL     1     -42.244   5.593  -2.443  1.00 20.00     0.068 A 
HETATM    3  C3  UNL     1     -42.586   3.495  -2.942  1.00 20.00     0.094 A 
HETATM    4  N8  UNL     1     -43.182   5.606  -3.395  1.00 20.00    -0.133 NA
HETATM    5  O9  UNL     1     -43.395   4.269  -3.708  1.00 20.00    -0.216 OA
ENDROOT
BRANCH   2   6
HETATM    6  C7  UNL     1     -41.752   6.898  -1.848  1.00 20.00     0.032 C 
HETATM    7  C4  UNL     1     -40.900   6.662  -0.598  1.00 20.00     0.016 C 
HETATM    8  C5  UNL     1     -42.911   7.852  -1.546  1.00 20.00     0.016 C 
ENDBRANCH   2   6
BRANCH   3   9
HETATM    9  C6  UNL     1     -42.684   2.044  -3.144  1.00 20.00     0.181 C 
HETATM   10 CL10 UNL     1     -41.257   1.408  -4.011  1.00 20.00    -0.123 Cl
ENDBRANCH   3   9
TORSDOF 2
ENDMDL
MODEL 4
REMARK VINA RESULT:      -4.0     11.737     12.566
REMARK  2 active torsions:
REMARK  status: ('A' for Active; 'I' for Inactive)
REMARK    1  A    between atoms: C2_2  and  C7_7 
REMARK    2  A    between atoms: C3_3  and  C6_6 
ROOT
HETATM    1  C1  UNL     1     -34.170  15.579  -2.795  1.00 20.00     0.066 A 
HETATM    2  C2  UNL     1     -33.998  15.474  -4.186  1.00 20.00     0.068 A 
HETATM    3  C3  UNL     1     -33.824  16.876  -2.521  1.00 20.00     0.094 A 
HETATM    4  N8  UNL     1     -33.578  16.618  -4.732  1.00 20.00    -0.133 NA
HETATM    5  O9  UNL     1     -33.469  17.506  -3.669  1.00 20.00    -0.216 OA
ENDROOT
BRANCH   2   6
HETATM    6  C7  UNL     1     -34.231  14.258  -5.062  1.00 20.00     0.032 C 
HETATM    7  C4  UNL     1     -34.763  14.651  -6.442  1.00 20.00     0.016 C 
HETATM    8  C5  UNL     1     -35.162  13.247  -4.387  1.00 20.00     0.016 C 
ENDBRANCH   2   6
BRANCH   3   9
HETATM    9  C6  UNL     1     -33.765  17.673  -1.290  1.00 20.00     0.181 C 
HETATM   10 CL10 UNL     1     -34.831  16.999  -0.024  1.00 20.00    -0.123 Cl
ENDBRANCH   3   9
TORSDOF 2
ENDMDL
MODEL 5
REMARK VINA RESULT:      -4.0     11.999     12.597
REMARK  2 active torsions:
REMARK  status: ('A' for Active; 'I' for Inactive)
REMARK    1  A    between atoms: C2_2  and  C7_7 
REMARK    2  A    between atoms: C3_3  and  C6_6 
ROOT
HETATM    1  C1  UNL     1     -34.312  15.109  -3.047  1.00 20.00     0.066 A 
HETATM    2  C2  UNL     1     -33.836  16.410  -2.815  1.00 20.00     0.068 A 
HETATM    3  C3  UNL     1     -34.287  14.991  -4.411  1.00 20.00     0.094 A 
HETATM    4  N8  UNL     1     -33.538  17.050  -3.949  1.00 20.00    -0.133 NA
HETATM    5  O9  UNL     1     -33.827  16.143  -4.961  1.00 20.00    -0.216 OA
ENDROOT
BRANCH   2   6
HETATM    6  C7  UNL     1     -33.644  17.106  -1.481  1.00 20.00     0.032 C 
HETATM    7  C4  UNL     1     -34.789  16.795  -0.513  1.00 20.00     0.016 C 
HETATM    8  C5  UNL     1     -33.472  18.618  -1.654  1.00 20.00     0.016 C 
ENDBRANCH   2   6
BRANCH   3   9
HETATM    9  C6  UNL     1     -34.644  13.916  -5.345  1.00 20.00     0.181 C 
HETATM   10 CL10 UNL     1     -34.790  14.527  -7.018  1.00 20.00    -0.123 Cl
ENDBRANCH   3   9
TORSDOF 2
ENDMDL
MODEL 6
REMARK VINA RESULT:      -4.0     11.868     12.655
REMARK  2 active torsions:
REMARK  status: ('A' for Active; 'I' for Inactive)
REMARK    1  A    between atoms: C2_2  and  C7_7 
REMARK    2  A    between atoms: C3_3  and  C6_6 
ROOT
HETATM    1  C1  UNL     1     -34.488  15.603  -2.805  1.00 20.00     0.066 A 
HETATM    2  C2  UNL     1     -34.450  15.646  -4.209  1.00 20.00     0.068 A 
HETATM    3  C3  UNL     1     -33.915  16.789  -2.427  1.00 20.00     0.094 A 
HETATM    4  N8  UNL     1     -33.896  16.772  -4.667  1.00 20.00    -0.133 NA
HETATM    5  O9  UNL     1     -33.558  17.495  -3.530  1.00 20.00    -0.216 OA
ENDROOT
BRANCH   2   6
HETATM    6  C7  UNL     1     -34.947  14.597  -5.185  1.00 20.00     0.032 C 
HETATM    7  C4  UNL     1     -34.540  13.186  -4.753  1.00 20.00     0.016 C 
HETATM    8  C5  UNL     1     -34.476  14.887  -6.613  1.00 20.00     0.016 C 
ENDBRANCH   2   6
BRANCH   3   9
HETATM    9  C6  UNL     1     -33.628  17.410  -1.129  1.00 20.00     0.181 C 
HETATM   10 CL10 UNL     1     -34.892  17.023   0.074  1.00 20.00    -0.123 Cl
ENDBRANCH   3   9
TORSDOF 2
ENDMDL
MODEL 7
REMARK VINA RESULT:      -3.9     10.864     11.102
REMARK  2 active torsions:
REMARK  status: ('A' for Active; 'I' for Inactive)
REMARK    1  A    between atoms: C2_2  and  C7_7 
REMARK    2  A    between atoms: C3_3  and  C6_6 
ROOT
HETATM    1  C1  UNL     1     -41.927   7.407  -2.626  1.00 20.00     0.066 A 
HETATM    2  C2  UNL     1     -42.290   6.063  -2.438  1.00 20.00     0.068 A 
HETATM    3  C3  UNL     1     -42.661   7.794  -3.716  1.00 20.00     0.094 A 
HETATM    4  N8  UNL     1     -43.181   5.648  -3.343  1.00 20.00    -0.133 NA
HETATM    5  O9  UNL     1     -43.414   6.752  -4.153  1.00 20.00    -0.216 OA
ENDROOT
BRANCH   2   6
HETATM    6  C7  UNL     1     -41.793   5.106  -1.372  1.00 20.00     0.032 C 
HETATM    7  C4  UNL     1     -40.794   5.782  -0.429  1.00 20.00     0.016 C 
HETATM    8  C5  UNL     1     -41.191   3.840  -1.988  1.00 20.00     0.016 C 
ENDBRANCH   2   6
BRANCH   3   9
HETATM    9  C6  UNL     1     -42.784   9.051  -4.465  1.00 20.00     0.181 C 
HETATM   10 CL10 UNL     1     -41.541   9.172  -5.743  1.00 20.00    -0.123 Cl
ENDBRANCH   3   9
TORSDOF 2
ENDMDL
MODEL 8
REMARK VINA RESULT:      -3.9     11.786     12.372
REMARK  2 active torsions:
REMARK  status: ('A' for Active; 'I' for Inactive)
REMARK    1  A    between atoms: C2_2  and  C7_7 
REMARK    2  A    between atoms: C3_3  and  C6_6 
ROOT
HETATM    1  C1  UNL     1     -34.511  16.285  -1.419  1.00 20.00     0.066 A 
HETATM    2  C2  UNL     1     -34.000  17.593  -1.395  1.00 20.00     0.068 A 
HETATM    3  C3  UNL     1     -34.418  15.922  -2.737  1.00 20.00     0.094 A 
HETATM    4  N8  UNL     1     -33.619  18.010  -2.606  1.00 20.00    -0.133 NA
HETATM    5  O9  UNL     1     -33.887  16.944  -3.455  1.00 20.00    -0.216 OA
ENDROOT
BRANCH   2   6
HETATM    6  C7  UNL     1     -33.853  18.512  -0.198  1.00 20.00     0.032 C 
HETATM    7  C4  UNL     1     -32.381  18.773   0.136  1.00 20.00     0.016 C 
HETATM    8  C5  UNL     1     -34.601  17.970   1.023  1.00 20.00     0.016 C 
ENDBRANCH   2   6
BRANCH   3   9
HETATM    9  C6  UNL     1     -34.765  14.707  -3.484  1.00 20.00     0.181 C 
HETATM   10 CL10 UNL     1     -33.327  13.685  -3.770  1.00 20.00    -0.123 Cl
ENDBRANCH   3   9
TORSDOF 2
ENDMDL
MODEL 9
REMARK VINA RESULT:      -3.8      2.604      4.306
REMARK  2 active torsions:
REMARK  status: ('A' for Active; 'I' for Inactive)
REMARK    1  A    between atoms: C2_2  and  C7_7 
REMARK    2  A    between atoms: C3_3  and  C6_6 
ROOT
HETATM    1  C1  UNL     1     -33.534   6.332   4.370  1.00 20.00     0.066 A 
HETATM    2  C2  UNL     1     -32.869   6.524   3.147  1.00 20.00     0.068 A 
HETATM    3  C3  UNL     1     -34.476   5.381   4.083  1.00 20.00     0.094 A 
HETATM    4  N8  UNL     1     -33.361   5.751   2.176  1.00 20.00    -0.133 NA
HETATM    5  O9  UNL     1     -34.383   5.025   2.776  1.00 20.00    -0.216 OA
ENDROOT
BRANCH   2   6
HETATM    6  C7  UNL     1     -31.720   7.469   2.852  1.00 20.00     0.032 C 
HETATM    7  C4  UNL     1     -31.121   8.047   4.137  1.00 20.00     0.016 C 
HETATM    8  C5  UNL     1     -32.141   8.588   1.895  1.00 20.00     0.016 C 
ENDBRANCH   2   6
BRANCH   3   9
HETATM    9  C6  UNL     1     -35.514   4.707   4.873  1.00 20.00     0.181 C 
HETATM   10 CL10 UNL     1     -35.030   4.552   6.587  1.00 20.00    -0.123 Cl
ENDBRANCH   3   9
TORSDOF 2
ENDMDL
