MODEL 1
REMARK VINA RESULT:      -5.6      0.000      0.000
REMARK  0 active torsions:
REMARK  status: ('A' for Active; 'I' for Inactive)
ROOT
HETATM    1  C1  UNL     1     -33.545  13.838  -3.922  1.00 20.00     0.135 C 
HETATM    2  C2  UNL     1     -34.637  15.625  -2.627  1.00 20.00     0.017 C 
HETATM    3  C3  UNL     1     -35.999  14.022  -3.997  1.00 20.00     0.017 C 
HETATM    4  C4  UNL     1     -33.237  16.170  -4.652  1.00 20.00     0.037 C 
HETATM    5  C5  UNL     1     -34.601  14.563  -6.025  1.00 20.00     0.037 C 
HETATM    6  C6  UNL     1     -35.742  16.410  -4.745  1.00 20.00     0.030 C 
HETATM    7  C7  UNL     1     -33.374  15.264  -3.420  1.00 20.00     0.058 C 
HETATM    8  C8  UNL     1     -34.760  13.633  -4.814  1.00 20.00     0.058 C 
HETATM    9  C9  UNL     1     -35.885  15.485  -3.522  1.00 20.00    -0.011 C 
HETATM   10  C10 UNL     1     -34.485  16.029  -5.551  1.00 20.00     0.039 C 
HETATM   11  O11 UNL     1     -32.771  12.932  -3.631  1.00 20.00    -0.297 OA
HETATM   12 CL12 UNL     1     -34.327  17.106  -6.968  1.00 20.00    -0.119 Cl
ENDROOT
TORSDOF 0
ENDMDL
MODEL 2
REMARK VINA RESULT:      -5.4      1.471      2.694
REMARK  0 active torsions:
REMARK  status: ('A' for Active; 'I' for Inactive)
ROOT
HETATM    1  C1  UNL     1     -36.408  14.581  -3.908  1.00 20.00     0.135 C 
HETATM    2  C2  UNL     1     -34.095  13.748  -3.770  1.00 20.00     0.017 C 
HETATM    3  C3  UNL     1     -34.801  15.784  -2.482  1.00 20.00     0.017 C 
HETATM    4  C4  UNL     1     -34.968  14.787  -5.895  1.00 20.00     0.037 C 
HETATM    5  C5  UNL     1     -35.676  16.827  -4.604  1.00 20.00     0.037 C 
HETATM    6  C6  UNL     1     -33.292  16.023  -4.479  1.00 20.00     0.030 C 
HETATM    7  C7  UNL     1     -35.309  13.888  -4.698  1.00 20.00     0.058 C 
HETATM    8  C8  UNL     1     -36.027  15.959  -3.387  1.00 20.00     0.058 C 
HETATM    9  C9  UNL     1     -33.645  15.137  -3.271  1.00 20.00    -0.011 C 
HETATM   10  C10 UNL     1     -34.520  16.178  -5.397  1.00 20.00     0.039 C 
HETATM   11  O11 UNL     1     -37.506  14.072  -3.706  1.00 20.00    -0.297 OA
HETATM   12 CL12 UNL     1     -34.101  17.209  -6.796  1.00 20.00    -0.119 Cl
ENDROOT
TORSDOF 0
ENDMDL
MODEL 3
REMARK VINA RESULT:      -5.4      1.206      2.498
REMARK  0 active torsions:
REMARK  status: ('A' for Active; 'I' for Inactive)
ROOT
HETATM    1  C1  UNL     1     -34.602  15.628  -2.696  1.00 20.00     0.135 C 
HETATM    2  C2  UNL     1     -35.922  13.974  -3.955  1.00 20.00     0.017 C 
HETATM    3  C3  UNL     1     -33.420  13.804  -3.854  1.00 20.00     0.017 C 
HETATM    4  C4  UNL     1     -35.731  16.356  -4.760  1.00 20.00     0.037 C 
HETATM    5  C5  UNL     1     -33.223  16.186  -4.658  1.00 20.00     0.037 C 
HETATM    6  C6  UNL     1     -34.545  14.506  -5.991  1.00 20.00     0.030 C 
HETATM    7  C7  UNL     1     -35.862  15.447  -3.530  1.00 20.00     0.058 C 
HETATM    8  C8  UNL     1     -33.315  15.274  -3.426  1.00 20.00     0.058 C 
HETATM    9  C9  UNL     1     -34.656  13.599  -4.752  1.00 20.00    -0.011 C 
HETATM   10  C10 UNL     1     -34.462  15.983  -5.558  1.00 20.00     0.039 C 
HETATM   11  O11 UNL     1     -34.622  16.023  -1.534  1.00 20.00    -0.297 OA
HETATM   12 CL12 UNL     1     -34.333  17.028  -7.002  1.00 20.00    -0.119 Cl
ENDROOT
TORSDOF 0
ENDMDL
MODEL 4
REMARK VINA RESULT:      -5.2      1.682      2.906
REMARK  0 active torsions:
REMARK  status: ('A' for Active; 'I' for Inactive)
ROOT
HETATM    1  C1  UNL     1     -34.788  13.786  -4.599  1.00 20.00     0.135 C 
HETATM    2  C2  UNL     1     -34.078  15.493  -6.225  1.00 20.00     0.017 C 
HETATM    3  C3  UNL     1     -33.009  15.362  -3.958  1.00 20.00     0.017 C 
HETATM    4  C4  UNL     1     -36.355  15.604  -5.148  1.00 20.00     0.037 C 
HETATM    5  C5  UNL     1     -35.284  15.473  -2.875  1.00 20.00     0.037 C 
HETATM    6  C6  UNL     1     -34.569  17.258  -4.503  1.00 20.00     0.030 C 
HETATM    7  C7  UNL     1     -35.280  14.677  -5.730  1.00 20.00     0.058 C 
HETATM    8  C8  UNL     1     -34.191  14.543  -3.423  1.00 20.00     0.058 C 
HETATM    9  C9  UNL     1     -33.485  16.321  -5.067  1.00 20.00    -0.011 C 
HETATM   10  C10 UNL     1     -35.764  16.433  -3.987  1.00 20.00     0.039 C 
HETATM   11  O11 UNL     1     -34.866  12.561  -4.634  1.00 20.00    -0.297 OA
HETATM   12 CL12 UNL     1     -37.016  17.528  -3.332  1.00 20.00    -0.119 Cl
ENDROOT
TORSDOF 0
ENDMDL
MODEL 5
REMARK VINA RESULT:      -5.1      1.913      2.858
REMARK  0 active torsions:
REMARK  status: ('A' for Active; 'I' for Inactive)
ROOT
HETATM    1  C1  UNL     1     -35.015  13.863  -4.277  1.00 20.00     0.135 C 
HETATM    2  C2  UNL     1     -36.482  15.752  -4.865  1.00 20.00     0.017 C 
HETATM    3  C3  UNL     1     -34.174  15.573  -5.836  1.00 20.00     0.017 C 
HETATM    4  C4  UNL     1     -35.523  15.536  -2.542  1.00 20.00     0.037 C 
HETATM    5  C5  UNL     1     -33.211  15.357  -3.516  1.00 20.00     0.037 C 
HETATM    6  C6  UNL     1     -34.674  17.323  -4.100  1.00 20.00     0.030 C 
HETATM    7  C7  UNL     1     -36.108  14.776  -3.741  1.00 20.00     0.058 C 
HETATM    8  C8  UNL     1     -33.760  14.594  -4.730  1.00 20.00     0.058 C 
HETATM    9  C9  UNL     1     -35.241  16.553  -5.307  1.00 20.00    -0.011 C 
HETATM   10  C10 UNL     1     -34.279  16.337  -2.983  1.00 20.00     0.039 C 
HETATM   11  O11 UNL     1     -35.136  12.644  -4.339  1.00 20.00    -0.297 OA
HETATM   12 CL12 UNL     1     -33.621  17.239  -1.587  1.00 20.00    -0.119 Cl
ENDROOT
TORSDOF 0
ENDMDL
MODEL 6
REMARK VINA RESULT:      -5.1      1.978      3.147
REMARK  0 active torsions:
REMARK  status: ('A' for Active; 'I' for Inactive)
ROOT
HETATM    1  C1  UNL     1     -36.829  14.576  -4.257  1.00 20.00     0.135 C 
HETATM    2  C2  UNL     1     -36.208  14.965  -6.607  1.00 20.00     0.017 C 
HETATM    3  C3  UNL     1     -34.801  13.493  -5.140  1.00 20.00     0.017 C 
HETATM    4  C4  UNL     1     -36.047  16.819  -4.906  1.00 20.00     0.037 C 
HETATM    5  C5  UNL     1     -34.638  15.343  -3.434  1.00 20.00     0.037 C 
HETATM    6  C6  UNL     1     -33.955  15.760  -5.823  1.00 20.00     0.030 C 
HETATM    7  C7  UNL     1     -36.862  15.605  -5.376  1.00 20.00     0.058 C 
HETATM    8  C8  UNL     1     -35.430  14.107  -3.882  1.00 20.00     0.058 C 
HETATM    9  C9  UNL     1     -34.765  14.532  -6.278  1.00 20.00    -0.011 C 
HETATM   10  C10 UNL     1     -34.603  16.387  -4.573  1.00 20.00     0.039 C 
HETATM   11  O11 UNL     1     -37.842  14.158  -3.704  1.00 20.00    -0.297 OA
HETATM   12 CL12 UNL     1     -33.655  17.810  -4.052  1.00 20.00    -0.119 Cl
ENDROOT
TORSDOF 0
ENDMDL
MODEL 7
REMARK VINA RESULT:      -4.9      1.978      2.782
REMARK  0 active torsions:
REMARK  status: ('A' for Active; 'I' for Inactive)
ROOT
HETATM    1  C1  UNL     1     -34.468  14.973  -6.158  1.00 20.00     0.135 C 
HETATM    2  C2  UNL     1     -33.066  15.991  -4.409  1.00 20.00     0.017 C 
HETATM    3  C3  UNL     1     -34.022  13.690  -4.105  1.00 20.00     0.017 C 
HETATM    4  C4  UNL     1     -35.371  16.887  -4.899  1.00 20.00     0.037 C 
HETATM    5  C5  UNL     1     -36.330  14.581  -4.595  1.00 20.00     0.037 C 
HETATM    6  C6  UNL     1     -34.935  15.615  -2.769  1.00 20.00     0.030 C 
HETATM    7  C7  UNL     1     -34.092  16.296  -5.508  1.00 20.00     0.058 C 
HETATM    8  C8  UNL     1     -35.065  13.954  -5.199  1.00 20.00     0.058 C 
HETATM    9  C9  UNL     1     -33.662  15.004  -3.384  1.00 20.00    -0.011 C 
HETATM   10  C10 UNL     1     -35.971  15.900  -3.874  1.00 20.00     0.039 C 
HETATM   11  O11 UNL     1     -34.303  14.747  -7.353  1.00 20.00    -0.297 OA
HETATM   12 CL12 UNL     1     -37.445  16.607  -3.151  1.00 20.00    -0.119 Cl
ENDROOT
TORSDOF 0
ENDMDL
MODEL 8
REMARK VINA RESULT:      -4.9      2.081      3.015
REMARK  0 active torsions:
REMARK  status: ('A' for Active; 'I' for Inactive)
ROOT
HETATM    1  C1  UNL     1     -33.734  16.263  -4.741  1.00 20.00     0.135 C 
HETATM    2  C2  UNL     1     -33.548  13.978  -3.843  1.00 20.00     0.017 C 
HETATM    3  C3  UNL     1     -34.454  14.376  -6.150  1.00 20.00     0.017 C 
HETATM    4  C4  UNL     1     -35.230  15.602  -2.899  1.00 20.00     0.037 C 
HETATM    5  C5  UNL     1     -36.138  16.002  -5.211  1.00 20.00     0.037 C 
HETATM    6  C6  UNL     1     -35.999  13.657  -4.301  1.00 20.00     0.030 C 
HETATM    7  C7  UNL     1     -33.811  15.441  -3.463  1.00 20.00     0.058 C 
HETATM    8  C8  UNL     1     -34.733  15.847  -5.811  1.00 20.00     0.058 C 
HETATM    9  C9  UNL     1     -34.582  13.505  -4.884  1.00 20.00    -0.011 C 
HETATM   10  C10 UNL     1     -36.267  15.131  -3.942  1.00 20.00     0.039 C 
HETATM   11  O11 UNL     1     -32.936  17.182  -4.896  1.00 20.00    -0.297 OA
HETATM   12 CL12 UNL     1     -37.914  15.298  -3.266  1.00 20.00    -0.119 Cl
ENDROOT
TORSDOF 0
ENDMDL
MODEL 9
REMARK VINA RESULT:      -4.8      2.004      2.980
REMARK  0 active torsions:
REMARK  status: ('A' for Active; 'I' for Inactive)
ROOT
HETATM    1  C1  UNL     1     -34.509  17.097  -4.071  1.00 20.00     0.135 C 
HETATM    2  C2  UNL     1     -35.336  15.055  -2.972  1.00 20.00     0.017 C 
HETATM    3  C3  UNL     1     -32.960  15.207  -3.769  1.00 20.00     0.017 C 
HETATM    4  C4  UNL     1     -36.151  15.705  -5.268  1.00 20.00     0.037 C 
HETATM    5  C5  UNL     1     -33.770  15.859  -6.067  1.00 20.00     0.037 C 
HETATM    6  C6  UNL     1     -34.601  13.740  -4.986  1.00 20.00     0.030 C 
HETATM    7  C7  UNL     1     -35.739  16.222  -3.882  1.00 20.00     0.058 C 
HETATM    8  C8  UNL     1     -33.322  16.378  -4.693  1.00 20.00     0.058 C 
HETATM    9  C9  UNL     1     -34.171  14.267  -3.605  1.00 20.00    -0.011 C 
HETATM   10  C10 UNL     1     -34.984  14.918  -5.904  1.00 20.00     0.039 C 
HETATM   11  O11 UNL     1     -34.477  18.281  -3.748  1.00 20.00    -0.297 OA
HETATM   12 CL12 UNL     1     -35.481  14.298  -7.505  1.00 20.00    -0.119 Cl
ENDROOT
TORSDOF 0
ENDMDL
