MODEL 1
REMARK VINA RESULT:      -4.9      0.000      0.000
REMARK  0 active torsions:
REMARK  status: ('A' for Active; 'I' for Inactive)
ROOT
HETATM    1  C1  UNL     1     -32.639   7.202   3.021  1.00 20.00     0.105 C 
HETATM    2  C2  UNL     1     -34.008   5.957   6.252  1.00 20.00     0.068 A 
HETATM    3  C3  UNL     1     -35.019   4.716   4.443  1.00 20.00     0.068 A 
HETATM    4  C4  UNL     1     -33.400   6.445   3.965  1.00 20.00     0.121 A 
HETATM    5  C5  UNL     1     -33.266   6.695   5.330  1.00 20.00     0.141 A 
HETATM    6  C6  UNL     1     -34.277   5.455   3.521  1.00 20.00     0.141 A 
HETATM    7  C7  UNL     1     -34.885   4.967   5.808  1.00 20.00     0.040 A 
HETATM    8  N8  UNL     1     -32.022   7.816   2.254  1.00 20.00    -0.191 NA
HETATM    9  F9  UNL     1     -32.426   7.644   5.773  1.00 20.00    -0.204 F 
HETATM   10  F10 UNL     1     -34.419   5.203   2.211  1.00 20.00    -0.204 F 
HETATM   11 CL11 UNL     1     -35.801   4.056   6.944  1.00 20.00    -0.084 Cl
ENDROOT
TORSDOF 0
ENDMDL
MODEL 2
REMARK VINA RESULT:      -4.9      0.006      2.497
REMARK  0 active torsions:
REMARK  status: ('A' for Active; 'I' for Inactive)
ROOT
HETATM    1  C1  UNL     1     -32.636   7.207   3.025  1.00 20.00     0.105 C 
HETATM    2  C2  UNL     1     -35.017   4.719   4.441  1.00 20.00     0.068 A 
HETATM    3  C3  UNL     1     -34.010   5.959   6.253  1.00 20.00     0.068 A 
HETATM    4  C4  UNL     1     -33.398   6.449   3.967  1.00 20.00     0.121 A 
HETATM    5  C5  UNL     1     -34.273   5.459   3.521  1.00 20.00     0.141 A 
HETATM    6  C6  UNL     1     -33.266   6.699   5.333  1.00 20.00     0.141 A 
HETATM    7  C7  UNL     1     -34.885   4.969   5.807  1.00 20.00     0.040 A 
HETATM    8  N8  UNL     1     -32.017   7.822   2.260  1.00 20.00    -0.191 NA
HETATM    9  F9  UNL     1     -34.411   5.206   2.211  1.00 20.00    -0.204 F 
HETATM   10  F10 UNL     1     -32.427   7.646   5.778  1.00 20.00    -0.204 F 
HETATM   11 CL11 UNL     1     -35.801   4.056   6.941  1.00 20.00    -0.084 Cl
ENDROOT
TORSDOF 0
ENDMDL
MODEL 3
REMARK VINA RESULT:      -4.6     12.117     12.652
REMARK  0 active torsions:
REMARK  status: ('A' for Active; 'I' for Inactive)
ROOT
HETATM    1  C1  UNL     1     -34.790  13.612  -4.187  1.00 20.00     0.105 C 
HETATM    2  C2  UNL     1     -33.690  16.718  -2.453  1.00 20.00     0.068 A 
HETATM    3  C3  UNL     1     -36.104  16.670  -2.517  1.00 20.00     0.068 A 
HETATM    4  C4  UNL     1     -34.834  14.863  -3.496  1.00 20.00     0.121 A 
HETATM    5  C5  UNL     1     -33.648  15.497  -3.127  1.00 20.00     0.141 A 
HETATM    6  C6  UNL     1     -36.062  15.450  -3.191  1.00 20.00     0.141 A 
HETATM    7  C7  UNL     1     -34.918  17.304  -2.148  1.00 20.00     0.040 A 
HETATM    8  N8  UNL     1     -34.755  12.597  -4.747  1.00 20.00    -0.191 NA
HETATM    9  F9  UNL     1     -32.458  14.947  -3.412  1.00 20.00    -0.204 F 
HETATM   10  F10 UNL     1     -37.211  14.854  -3.542  1.00 20.00    -0.204 F 
HETATM   11 CL11 UNL     1     -34.971  18.810  -1.317  1.00 20.00    -0.084 Cl
ENDROOT
TORSDOF 0
ENDMDL
MODEL 4
REMARK VINA RESULT:      -4.6     12.124     12.765
REMARK  0 active torsions:
REMARK  status: ('A' for Active; 'I' for Inactive)
ROOT
HETATM    1  C1  UNL     1     -34.790  13.608  -4.207  1.00 20.00     0.105 C 
HETATM    2  C2  UNL     1     -36.109  16.660  -2.533  1.00 20.00     0.068 A 
HETATM    3  C3  UNL     1     -33.695  16.710  -2.463  1.00 20.00     0.068 A 
HETATM    4  C4  UNL     1     -34.835  14.857  -3.513  1.00 20.00     0.121 A 
HETATM    5  C5  UNL     1     -36.064  15.441  -3.209  1.00 20.00     0.141 A 
HETATM    6  C6  UNL     1     -33.650  15.491  -3.140  1.00 20.00     0.141 A 
HETATM    7  C7  UNL     1     -34.924  17.294  -2.159  1.00 20.00     0.040 A 
HETATM    8  N8  UNL     1     -34.753  12.594  -4.770  1.00 20.00    -0.191 NA
HETATM    9  F9  UNL     1     -37.214  14.844  -3.561  1.00 20.00    -0.204 F 
HETATM   10  F10 UNL     1     -32.461  14.940  -3.423  1.00 20.00    -0.204 F 
HETATM   11 CL11 UNL     1     -34.978  18.798  -1.324  1.00 20.00    -0.084 Cl
ENDROOT
TORSDOF 0
ENDMDL
MODEL 5
REMARK VINA RESULT:      -4.6     13.139     14.650
REMARK  0 active torsions:
REMARK  status: ('A' for Active; 'I' for Inactive)
ROOT
HETATM    1  C1  UNL     1     -34.598  13.631  -4.873  1.00 20.00     0.105 C 
HETATM    2  C2  UNL     1     -34.350  16.633  -7.062  1.00 20.00     0.068 A 
HETATM    3  C3  UNL     1     -33.580  17.213  -4.847  1.00 20.00     0.068 A 
HETATM    4  C4  UNL     1     -34.341  14.967  -5.312  1.00 20.00     0.121 A 
HETATM    5  C5  UNL     1     -34.601  15.329  -6.633  1.00 20.00     0.141 A 
HETATM    6  C6  UNL     1     -33.831  15.909  -4.418  1.00 20.00     0.141 A 
HETATM    7  C7  UNL     1     -33.839  17.575  -6.168  1.00 20.00     0.040 A 
HETATM    8  N8  UNL     1     -34.807  12.547  -4.517  1.00 20.00    -0.191 NA
HETATM    9  F9  UNL     1     -35.092  14.436  -7.505  1.00 20.00    -0.204 F 
HETATM   10  F10 UNL     1     -33.578  15.577  -3.144  1.00 20.00    -0.204 F 
HETATM   11 CL11 UNL     1     -33.530  19.183  -6.696  1.00 20.00    -0.084 Cl
ENDROOT
TORSDOF 0
ENDMDL
MODEL 6
REMARK VINA RESULT:      -4.6     13.139     14.449
REMARK  0 active torsions:
REMARK  status: ('A' for Active; 'I' for Inactive)
ROOT
HETATM    1  C1  UNL     1     -34.598  13.632  -4.873  1.00 20.00     0.105 C 
HETATM    2  C2  UNL     1     -33.580  17.213  -4.846  1.00 20.00     0.068 A 
HETATM    3  C3  UNL     1     -34.347  16.634  -7.062  1.00 20.00     0.068 A 
HETATM    4  C4  UNL     1     -34.341  14.968  -5.312  1.00 20.00     0.121 A 
HETATM    5  C5  UNL     1     -33.832  15.909  -4.419  1.00 20.00     0.141 A 
HETATM    6  C6  UNL     1     -34.599  15.330  -6.635  1.00 20.00     0.141 A 
HETATM    7  C7  UNL     1     -33.838  17.575  -6.168  1.00 20.00     0.040 A 
HETATM    8  N8  UNL     1     -34.807  12.548  -4.518  1.00 20.00    -0.191 NA
HETATM    9  F9  UNL     1     -33.578  15.577  -3.143  1.00 20.00    -0.204 F 
HETATM   10  F10 UNL     1     -35.086  14.436  -7.507  1.00 20.00    -0.204 F 
HETATM   11 CL11 UNL     1     -33.528  19.183  -6.697  1.00 20.00    -0.084 Cl
ENDROOT
TORSDOF 0
ENDMDL
MODEL 7
REMARK VINA RESULT:      -4.6     12.153     13.407
REMARK  0 active torsions:
REMARK  status: ('A' for Active; 'I' for Inactive)
ROOT
HETATM    1  C1  UNL     1     -33.604  18.278  -2.320  1.00 20.00     0.105 C 
HETATM    2  C2  UNL     1     -33.869  15.793  -5.080  1.00 20.00     0.068 A 
HETATM    3  C3  UNL     1     -34.660  14.780  -3.035  1.00 20.00     0.068 A 
HETATM    4  C4  UNL     1     -33.872  17.063  -3.025  1.00 20.00     0.121 A 
HETATM    5  C5  UNL     1     -33.607  16.978  -4.391  1.00 20.00     0.141 A 
HETATM    6  C6  UNL     1     -34.399  15.964  -2.347  1.00 20.00     0.141 A 
HETATM    7  C7  UNL     1     -34.395  14.694  -4.402  1.00 20.00     0.040 A 
HETATM    8  N8  UNL     1     -33.387  19.263  -1.748  1.00 20.00    -0.191 NA
HETATM    9  F9  UNL     1     -33.101  18.026  -5.059  1.00 20.00    -0.204 F 
HETATM   10  F10 UNL     1     -34.657  16.030  -1.033  1.00 20.00    -0.204 F 
HETATM   11 CL11 UNL     1     -34.717  13.232  -5.250  1.00 20.00    -0.084 Cl
ENDROOT
TORSDOF 0
ENDMDL
MODEL 8
REMARK VINA RESULT:      -4.5     12.163     13.351
REMARK  0 active torsions:
REMARK  status: ('A' for Active; 'I' for Inactive)
ROOT
HETATM    1  C1  UNL     1     -33.603  18.291  -2.232  1.00 20.00     0.105 C 
HETATM    2  C2  UNL     1     -34.675  14.814  -3.020  1.00 20.00     0.068 A 
HETATM    3  C3  UNL     1     -33.892  15.871  -5.046  1.00 20.00     0.068 A 
HETATM    4  C4  UNL     1     -33.879  17.094  -2.963  1.00 20.00     0.121 A 
HETATM    5  C5  UNL     1     -34.405  15.982  -2.307  1.00 20.00     0.141 A 
HETATM    6  C6  UNL     1     -33.622  17.039  -4.333  1.00 20.00     0.141 A 
HETATM    7  C7  UNL     1     -34.418  14.759  -4.390  1.00 20.00     0.040 A 
HETATM    8  N8  UNL     1     -33.379  19.263  -1.638  1.00 20.00    -0.191 NA
HETATM    9  F9  UNL     1     -34.658  16.019  -0.990  1.00 20.00    -0.204 F 
HETATM   10  F10 UNL     1     -33.118  18.101  -4.979  1.00 20.00    -0.204 F 
HETATM   11 CL11 UNL     1     -34.751  13.318  -5.271  1.00 20.00    -0.084 Cl
ENDROOT
TORSDOF 0
ENDMDL
MODEL 9
REMARK VINA RESULT:      -4.5     12.215     13.366
REMARK  0 active torsions:
REMARK  status: ('A' for Active; 'I' for Inactive)
ROOT
HETATM    1  C1  UNL     1     -34.440  15.104  -6.402  1.00 20.00     0.105 C 
HETATM    2  C2  UNL     1     -35.209  15.094  -2.759  1.00 20.00     0.068 A 
HETATM    3  C3  UNL     1     -33.754  16.959  -3.247  1.00 20.00     0.068 A 
HETATM    4  C4  UNL     1     -34.456  15.479  -5.022  1.00 20.00     0.121 A 
HETATM    5  C5  UNL     1     -35.192  14.729  -4.105  1.00 20.00     0.141 A 
HETATM    6  C6  UNL     1     -33.737  16.594  -4.593  1.00 20.00     0.141 A 
HETATM    7  C7  UNL     1     -34.489  16.210  -2.330  1.00 20.00     0.040 A 
HETATM    8  N8  UNL     1     -34.426  14.800  -7.521  1.00 20.00    -0.191 NA
HETATM    9  F9  UNL     1     -35.890  13.654  -4.501  1.00 20.00    -0.204 F 
HETATM   10  F10 UNL     1     -33.022  17.324  -5.463  1.00 20.00    -0.204 F 
HETATM   11 CL11 UNL     1     -34.509  16.661  -0.670  1.00 20.00    -0.084 Cl
ENDROOT
TORSDOF 0
ENDMDL
