MODEL 1
REMARK VINA RESULT:      -4.5      0.000      0.000
REMARK  1 active torsions:
REMARK  status: ('A' for Active; 'I' for Inactive)
REMARK    1  A    between atoms: C3_3  and  C8_8 
ROOT
HETATM    1  C1  UNL     1     -33.404  16.596  -4.228  1.00 20.00    -0.026 C 
HETATM    2  C2  UNL     1     -33.062  15.369  -3.809  1.00 20.00    -0.025 C 
HETATM    3  C4  UNL     1     -34.700  16.133  -2.371  1.00 20.00     0.018 C 
HETATM    4  C5  UNL     1     -35.780  15.973  -4.487  1.00 20.00     0.022 C 
HETATM    5  C6  UNL     1     -34.795  16.874  -3.710  1.00 20.00     0.009 C 
HETATM    6  C7  UNL     1     -34.233  14.824  -3.018  1.00 20.00     0.021 C 
HETATM    7  C8  UNL     1     -35.417  14.549  -3.976  1.00 20.00     0.080 C 
ENDROOT
BRANCH   7   8
HETATM    8  C3  UNL     1     -35.079  13.597  -5.081  1.00 20.00     0.223 C 
HETATM    9  O9  UNL     1     -34.756  12.434  -4.856  1.00 20.00    -0.279 OA
HETATM   10 CL10 UNL     1     -35.206  14.340  -6.646  1.00 20.00    -0.043 Cl
ENDBRANCH   7   8
TORSDOF 1
ENDMDL
MODEL 2
REMARK VINA RESULT:      -4.5      1.552      2.190
REMARK  1 active torsions:
REMARK  status: ('A' for Active; 'I' for Inactive)
REMARK    1  A    between atoms: C3_3  and  C8_8 
ROOT
HETATM    1  C1  UNL     1     -33.415  13.801  -3.815  1.00 20.00    -0.026 C 
HETATM    2  C2  UNL     1     -34.740  13.601  -3.860  1.00 20.00    -0.025 C 
HETATM    3  C4  UNL     1     -34.398  15.534  -2.645  1.00 20.00     0.018 C 
HETATM    4  C5  UNL     1     -33.603  16.045  -4.831  1.00 20.00     0.022 C 
HETATM    5  C6  UNL     1     -33.194  15.272  -3.557  1.00 20.00     0.009 C 
HETATM    6  C7  UNL     1     -35.404  14.944  -3.640  1.00 20.00     0.021 C 
HETATM    7  C8  UNL     1     -35.146  15.851  -4.867  1.00 20.00     0.080 C 
ENDROOT
BRANCH   7   8
HETATM    8  C3  UNL     1     -35.633  15.263  -6.156  1.00 20.00     0.223 C 
HETATM    9  O9  UNL     1     -36.825  15.055  -6.361  1.00 20.00    -0.279 OA
HETATM   10 CL10 UNL     1     -34.330  14.935  -7.258  1.00 20.00    -0.043 Cl
ENDBRANCH   7   8
TORSDOF 1
ENDMDL
MODEL 3
REMARK VINA RESULT:      -4.4      2.054      2.666
REMARK  1 active torsions:
REMARK  status: ('A' for Active; 'I' for Inactive)
REMARK    1  A    between atoms: C3_3  and  C8_8 
ROOT
HETATM    1  C1  UNL     1     -34.144  15.119  -5.694  1.00 20.00    -0.026 C 
HETATM    2  C2  UNL     1     -35.010  14.096  -5.684  1.00 20.00    -0.025 C 
HETATM    3  C4  UNL     1     -33.604  13.796  -3.878  1.00 20.00     0.018 C 
HETATM    4  C5  UNL     1     -34.767  15.821  -3.409  1.00 20.00     0.022 C 
HETATM    5  C6  UNL     1     -33.619  15.273  -4.287  1.00 20.00     0.009 C 
HETATM    6  C7  UNL     1     -35.071  13.574  -4.264  1.00 20.00     0.021 C 
HETATM    7  C8  UNL     1     -35.759  14.623  -3.359  1.00 20.00     0.080 C 
ENDROOT
BRANCH   7   8
HETATM    8  C3  UNL     1     -37.140  14.986  -3.813  1.00 20.00     0.223 C 
HETATM    9  O9  UNL     1     -38.064  14.180  -3.777  1.00 20.00    -0.279 OA
HETATM   10 CL10 UNL     1     -37.235  16.631  -4.366  1.00 20.00    -0.043 Cl
ENDBRANCH   7   8
TORSDOF 1
ENDMDL
MODEL 4
REMARK VINA RESULT:      -4.3      2.858      3.711
REMARK  1 active torsions:
REMARK  status: ('A' for Active; 'I' for Inactive)
REMARK    1  A    between atoms: C3_3  and  C8_8 
ROOT
HETATM    1  C1  UNL     1     -35.698  15.107  -5.051  1.00 20.00    -0.026 C 
HETATM    2  C2  UNL     1     -35.883  14.912  -3.737  1.00 20.00    -0.025 C 
HETATM    3  C4  UNL     1     -34.034  13.669  -4.342  1.00 20.00     0.018 C 
HETATM    4  C5  UNL     1     -33.392  15.930  -4.722  1.00 20.00     0.022 C 
HETATM    5  C6  UNL     1     -34.249  14.806  -5.347  1.00 20.00     0.009 C 
HETATM    6  C7  UNL     1     -34.550  14.489  -3.155  1.00 20.00     0.021 C 
HETATM    7  C8  UNL     1     -33.569  15.685  -3.196  1.00 20.00     0.080 C 
ENDROOT
BRANCH   7   8
HETATM    8  C3  UNL     1     -34.070  16.891  -2.462  1.00 20.00     0.223 C 
HETATM    9  O9  UNL     1     -34.112  17.998  -2.991  1.00 20.00    -0.279 OA
HETATM   10 CL10 UNL     1     -34.560  16.512  -0.839  1.00 20.00    -0.043 Cl
ENDBRANCH   7   8
TORSDOF 1
ENDMDL
MODEL 5
REMARK VINA RESULT:      -4.3     11.633     12.474
REMARK  1 active torsions:
REMARK  status: ('A' for Active; 'I' for Inactive)
REMARK    1  A    between atoms: C3_3  and  C8_8 
ROOT
HETATM    1  C1  UNL     1     -42.833   5.207   0.359  1.00 20.00    -0.026 C 
HETATM    2  C2  UNL     1     -43.050   6.437  -0.131  1.00 20.00    -0.025 C 
HETATM    3  C4  UNL     1     -40.762   6.185   0.051  1.00 20.00     0.018 C 
HETATM    4  C5  UNL     1     -41.421   4.564  -1.564  1.00 20.00     0.022 C 
HETATM    5  C6  UNL     1     -41.432   4.809  -0.038  1.00 20.00     0.009 C 
HETATM    6  C7  UNL     1     -41.793   6.855  -0.864  1.00 20.00     0.021 C 
HETATM    7  C8  UNL     1     -41.633   5.994  -2.140  1.00 20.00     0.080 C 
ENDROOT
BRANCH   7   8
HETATM    8  C3  UNL     1     -42.803   6.085  -3.071  1.00 20.00     0.223 C 
HETATM    9  O9  UNL     1     -43.416   5.086  -3.437  1.00 20.00    -0.279 OA
HETATM   10 CL10 UNL     1     -43.148   7.725  -3.529  1.00 20.00    -0.043 Cl
ENDBRANCH   7   8
TORSDOF 1
ENDMDL
MODEL 6
REMARK VINA RESULT:      -4.3      0.870      1.994
REMARK  1 active torsions:
REMARK  status: ('A' for Active; 'I' for Inactive)
REMARK    1  A    between atoms: C3_3  and  C8_8 
ROOT
HETATM    1  C1  UNL     1     -35.187  15.882  -2.476  1.00 20.00    -0.026 C 
HETATM    2  C2  UNL     1     -35.788  16.045  -3.664  1.00 20.00    -0.025 C 
HETATM    3  C4  UNL     1     -33.755  17.131  -3.791  1.00 20.00     0.018 C 
HETATM    4  C5  UNL     1     -33.196  14.835  -3.497  1.00 20.00     0.022 C 
HETATM    5  C6  UNL     1     -33.704  16.057  -2.699  1.00 20.00     0.009 C 
HETATM    6  C7  UNL     1     -34.701  16.320  -4.682  1.00 20.00     0.021 C 
HETATM    7  C8  UNL     1     -33.858  15.039  -4.890  1.00 20.00     0.080 C 
ENDROOT
BRANCH   7   8
HETATM    8  C3  UNL     1     -34.666  13.859  -5.334  1.00 20.00     0.223 C 
HETATM    9  O9  UNL     1     -34.734  12.834  -4.664  1.00 20.00    -0.279 OA
HETATM   10 CL10 UNL     1     -35.453  14.142  -6.858  1.00 20.00    -0.043 Cl
ENDBRANCH   7   8
TORSDOF 1
ENDMDL
MODEL 7
REMARK VINA RESULT:      -4.3      1.230      1.432
REMARK  1 active torsions:
REMARK  status: ('A' for Active; 'I' for Inactive)
REMARK    1  A    between atoms: C3_3  and  C8_8 
ROOT
HETATM    1  C1  UNL     1     -34.539  16.964  -4.897  1.00 20.00    -0.026 C 
HETATM    2  C2  UNL     1     -33.342  16.465  -4.554  1.00 20.00    -0.025 C 
HETATM    3  C4  UNL     1     -34.422  17.021  -2.590  1.00 20.00     0.018 C 
HETATM    4  C5  UNL     1     -35.753  15.292  -3.544  1.00 20.00     0.022 C 
HETATM    5  C6  UNL     1     -35.450  16.799  -3.705  1.00 20.00     0.009 C 
HETATM    6  C7  UNL     1     -33.459  15.958  -3.132  1.00 20.00     0.021 C 
HETATM    7  C8  UNL     1     -34.378  14.712  -3.106  1.00 20.00     0.080 C 
ENDROOT
BRANCH   7   8
HETATM    8  C3  UNL     1     -33.900  13.602  -3.990  1.00 20.00     0.223 C 
HETATM    9  O9  UNL     1     -32.880  12.969  -3.738  1.00 20.00    -0.279 OA
HETATM   10 CL10 UNL     1     -34.950  13.355  -5.353  1.00 20.00    -0.043 Cl
ENDBRANCH   7   8
TORSDOF 1
ENDMDL
MODEL 8
REMARK VINA RESULT:      -4.2      2.126      3.247
REMARK  1 active torsions:
REMARK  status: ('A' for Active; 'I' for Inactive)
REMARK    1  A    between atoms: C3_3  and  C8_8 
ROOT
HETATM    1  C1  UNL     1     -36.323  16.495  -6.009  1.00 20.00    -0.026 C 
HETATM    2  C2  UNL     1     -36.682  15.207  -6.110  1.00 20.00    -0.025 C 
HETATM    3  C4  UNL     1     -35.016  15.559  -7.669  1.00 20.00     0.018 C 
HETATM    4  C5  UNL     1     -33.961  15.922  -5.566  1.00 20.00     0.022 C 
HETATM    5  C6  UNL     1     -34.923  16.612  -6.560  1.00 20.00     0.009 C 
HETATM    6  C7  UNL     1     -35.514  14.462  -6.720  1.00 20.00     0.021 C 
HETATM    7  C8  UNL     1     -34.345  14.421  -5.707  1.00 20.00     0.080 C 
ENDROOT
BRANCH   7   8
HETATM    8  C3  UNL     1     -34.711  13.784  -4.402  1.00 20.00     0.223 C 
HETATM    9  O9  UNL     1     -35.058  12.608  -4.331  1.00 20.00    -0.279 OA
HETATM   10 CL10 UNL     1     -34.578  14.894  -3.072  1.00 20.00    -0.043 Cl
ENDBRANCH   7   8
TORSDOF 1
ENDMDL
MODEL 9
REMARK VINA RESULT:      -4.2      2.238      3.252
REMARK  1 active torsions:
REMARK  status: ('A' for Active; 'I' for Inactive)
REMARK    1  A    between atoms: C3_3  and  C8_8 
ROOT
HETATM    1  C1  UNL     1     -36.492  14.368  -4.149  1.00 20.00    -0.026 C 
HETATM    2  C2  UNL     1     -35.422  13.567  -4.264  1.00 20.00    -0.025 C 
HETATM    3  C4  UNL     1     -35.642  14.680  -6.275  1.00 20.00     0.018 C 
HETATM    4  C5  UNL     1     -35.180  16.391  -4.685  1.00 20.00     0.022 C 
HETATM    5  C6  UNL     1     -36.330  15.476  -5.161  1.00 20.00     0.009 C 
HETATM    6  C7  UNL     1     -34.541  14.149  -5.349  1.00 20.00     0.021 C 
HETATM    7  C8  UNL     1     -33.929  15.481  -4.854  1.00 20.00     0.080 C 
ENDROOT
BRANCH   7   8
HETATM    8  C3  UNL     1     -33.133  15.338  -3.593  1.00 20.00     0.223 C 
HETATM    9  O9  UNL     1     -32.137  14.623  -3.536  1.00 20.00    -0.279 OA
HETATM   10 CL10 UNL     1     -33.791  16.285  -2.294  1.00 20.00    -0.043 Cl
ENDBRANCH   7   8
TORSDOF 1
ENDMDL
