MODEL 1
REMARK VINA RESULT:      -4.6      0.000      0.000
REMARK  3 active torsions:
REMARK  status: ('A' for Active; 'I' for Inactive)
REMARK    1  A    between atoms: C2_2  and  O6_6 
REMARK    2  A    between atoms: C3_3  and  C4_4 
REMARK    3  A    between atoms: C3_3  and  O6_6 
ROOT
HETATM    1  C1  UNL     1     -32.207   7.589   2.507  1.00 20.00     0.085 C 
HETATM    2  C2  UNL     1     -32.239   6.361   3.300  1.00 20.00     0.291 C 
HETATM    3  N5  UNL     1     -32.181   8.563   1.878  1.00 20.00    -0.195 NA
ENDROOT
BRANCH   2   4
HETATM    4  O6  UNL     1     -33.577   6.024   3.641  1.00 20.00    -0.369 OA
BRANCH   4   5
HETATM    5  C3  UNL     1     -33.839   6.260   5.019  1.00 20.00     0.286 C 
BRANCH   5   6
HETATM    6  C4  UNL     1     -34.749   5.176   5.538  1.00 20.00     0.408 C 
HETATM    7  F7  UNL     1     -34.073   4.016   5.682  1.00 20.00    -0.169 F 
HETATM    8  F8  UNL     1     -35.776   4.952   4.690  1.00 20.00    -0.169 F 
HETATM    9  F9  UNL     1     -35.264   5.504   6.742  1.00 20.00    -0.169 F 
ENDBRANCH   5   6
ENDBRANCH   4   5
ENDBRANCH   2   4
TORSDOF 3
ENDMDL
MODEL 2
REMARK VINA RESULT:      -4.6      0.076      1.261
REMARK  3 active torsions:
REMARK  status: ('A' for Active; 'I' for Inactive)
REMARK    1  A    between atoms: C2_2  and  O6_6 
REMARK    2  A    between atoms: C3_3  and  C4_4 
REMARK    3  A    between atoms: C3_3  and  O6_6 
ROOT
HETATM    1  C1  UNL     1     -32.222   7.613   2.504  1.00 20.00     0.085 C 
HETATM    2  C2  UNL     1     -32.276   6.412   3.336  1.00 20.00     0.291 C 
HETATM    3  N5  UNL     1     -32.178   8.567   1.845  1.00 20.00    -0.195 NA
ENDROOT
BRANCH   2   4
HETATM    4  O6  UNL     1     -33.618   6.123   3.706  1.00 20.00    -0.369 OA
BRANCH   4   5
HETATM    5  C3  UNL     1     -33.801   6.212   5.113  1.00 20.00     0.286 C 
BRANCH   5   6
HETATM    6  C4  UNL     1     -34.747   5.125   5.555  1.00 20.00     0.408 C 
HETATM    7  F7  UNL     1     -35.298   5.431   6.749  1.00 20.00    -0.169 F 
HETATM    8  F8  UNL     1     -34.106   3.944   5.688  1.00 20.00    -0.169 F 
HETATM    9  F9  UNL     1     -35.751   4.959   4.669  1.00 20.00    -0.169 F 
ENDBRANCH   5   6
ENDBRANCH   4   5
ENDBRANCH   2   4
TORSDOF 3
ENDMDL
MODEL 3
REMARK VINA RESULT:      -4.5      3.499      4.379
REMARK  3 active torsions:
REMARK  status: ('A' for Active; 'I' for Inactive)
REMARK    1  A    between atoms: C2_2  and  O6_6 
REMARK    2  A    between atoms: C3_3  and  C4_4 
REMARK    3  A    between atoms: C3_3  and  O6_6 
ROOT
HETATM    1  C1  UNL     1     -34.800   4.676   5.647  1.00 20.00     0.085 C 
HETATM    2  C2  UNL     1     -34.423   5.978   6.196  1.00 20.00     0.291 C 
HETATM    3  N5  UNL     1     -35.099   3.642   5.213  1.00 20.00    -0.195 NA
ENDROOT
BRANCH   2   4
HETATM    4  O6  UNL     1     -33.373   6.554   5.431  1.00 20.00    -0.369 OA
BRANCH   4   5
HETATM    5  C3  UNL     1     -33.678   6.555   4.042  1.00 20.00     0.286 C 
BRANCH   5   6
HETATM    6  C4  UNL     1     -32.413   6.801   3.261  1.00 20.00     0.408 C 
HETATM    7  F7  UNL     1     -31.872   5.634   2.851  1.00 20.00    -0.169 F 
HETATM    8  F8  UNL     1     -31.491   7.440   4.012  1.00 20.00    -0.169 F 
HETATM    9  F9  UNL     1     -32.653   7.550   2.164  1.00 20.00    -0.169 F 
ENDBRANCH   5   6
ENDBRANCH   4   5
ENDBRANCH   2   4
TORSDOF 3
ENDMDL
MODEL 4
REMARK VINA RESULT:      -4.3      3.577      4.413
REMARK  3 active torsions:
REMARK  status: ('A' for Active; 'I' for Inactive)
REMARK    1  A    between atoms: C2_2  and  O6_6 
REMARK    2  A    between atoms: C3_3  and  C4_4 
REMARK    3  A    between atoms: C3_3  and  O6_6 
ROOT
HETATM    1  C1  UNL     1     -35.141   4.704   5.221  1.00 20.00     0.085 C 
HETATM    2  C2  UNL     1     -35.491   5.245   3.909  1.00 20.00     0.291 C 
HETATM    3  N5  UNL     1     -34.863   4.274   6.263  1.00 20.00    -0.195 NA
ENDROOT
BRANCH   2   4
HETATM    4  O6  UNL     1     -34.319   5.623   3.198  1.00 20.00    -0.369 OA
BRANCH   4   5
HETATM    5  C3  UNL     1     -33.596   6.635   3.886  1.00 20.00     0.286 C 
BRANCH   5   6
HETATM    6  C4  UNL     1     -32.290   6.877   3.172  1.00 20.00     0.408 C 
HETATM    7  F7  UNL     1     -31.745   5.710   2.769  1.00 20.00    -0.169 F 
HETATM    8  F8  UNL     1     -31.399   7.491   3.979  1.00 20.00    -0.169 F 
HETATM    9  F9  UNL     1     -32.466   7.649   2.078  1.00 20.00    -0.169 F 
ENDBRANCH   5   6
ENDBRANCH   4   5
ENDBRANCH   2   4
TORSDOF 3
ENDMDL
MODEL 5
REMARK VINA RESULT:      -4.0      3.238      4.053
REMARK  3 active torsions:
REMARK  status: ('A' for Active; 'I' for Inactive)
REMARK    1  A    between atoms: C2_2  and  O6_6 
REMARK    2  A    between atoms: C3_3  and  C4_4 
REMARK    3  A    between atoms: C3_3  and  O6_6 
ROOT
HETATM    1  C1  UNL     1     -34.015   6.520   6.411  1.00 20.00     0.085 C 
HETATM    2  C2  UNL     1     -34.577   5.417   5.633  1.00 20.00     0.291 C 
HETATM    3  N5  UNL     1     -33.570   7.396   7.029  1.00 20.00    -0.195 NA
ENDROOT
BRANCH   2   4
HETATM    4  O6  UNL     1     -33.867   5.257   4.413  1.00 20.00    -0.369 OA
BRANCH   4   5
HETATM    5  C3  UNL     1     -33.871   6.454   3.645  1.00 20.00     0.286 C 
BRANCH   5   6
HETATM    6  C4  UNL     1     -32.473   6.725   3.150  1.00 20.00     0.408 C 
HETATM    7  F7  UNL     1     -32.498   7.566   2.094  1.00 20.00    -0.169 F 
HETATM    8  F8  UNL     1     -31.866   5.586   2.755  1.00 20.00    -0.169 F 
HETATM    9  F9  UNL     1     -31.714   7.293   4.111  1.00 20.00    -0.169 F 
ENDBRANCH   5   6
ENDBRANCH   4   5
ENDBRANCH   2   4
TORSDOF 3
ENDMDL
MODEL 6
REMARK VINA RESULT:      -3.9     11.783     12.429
REMARK  3 active torsions:
REMARK  status: ('A' for Active; 'I' for Inactive)
REMARK    1  A    between atoms: C2_2  and  O6_6 
REMARK    2  A    between atoms: C3_3  and  C4_4 
REMARK    3  A    between atoms: C3_3  and  O6_6 
ROOT
HETATM    1  C1  UNL     1     -35.505  13.603  -4.335  1.00 20.00     0.085 C 
HETATM    2  C2  UNL     1     -36.510  14.643  -4.120  1.00 20.00     0.291 C 
HETATM    3  N5  UNL     1     -34.709  12.777  -4.505  1.00 20.00    -0.195 NA
ENDROOT
BRANCH   2   4
HETATM    4  O6  UNL     1     -36.216  15.383  -2.942  1.00 20.00    -0.369 OA
BRANCH   4   5
HETATM    5  C3  UNL     1     -35.338  16.467  -3.212  1.00 20.00     0.286 C 
BRANCH   5   6
HETATM    6  C4  UNL     1     -34.163  16.394  -2.271  1.00 20.00     0.408 C 
HETATM    7  F7  UNL     1     -33.556  17.597  -2.175  1.00 20.00    -0.169 F 
HETATM    8  F8  UNL     1     -33.246  15.503  -2.702  1.00 20.00    -0.169 F 
HETATM    9  F9  UNL     1     -34.552  16.030  -1.030  1.00 20.00    -0.169 F 
ENDBRANCH   5   6
ENDBRANCH   4   5
ENDBRANCH   2   4
TORSDOF 3
ENDMDL
MODEL 7
REMARK VINA RESULT:      -3.9     11.650     12.224
REMARK  3 active torsions:
REMARK  status: ('A' for Active; 'I' for Inactive)
REMARK    1  A    between atoms: C2_2  and  O6_6 
REMARK    2  A    between atoms: C3_3  and  C4_4 
REMARK    3  A    between atoms: C3_3  and  O6_6 
ROOT
HETATM    1  C1  UNL     1     -34.084  13.658  -4.127  1.00 20.00     0.085 C 
HETATM    2  C2  UNL     1     -33.175  14.725  -3.713  1.00 20.00     0.291 C 
HETATM    3  N5  UNL     1     -34.806  12.811  -4.456  1.00 20.00    -0.195 NA
ENDROOT
BRANCH   2   4
HETATM    4  O6  UNL     1     -33.900  15.915  -3.432  1.00 20.00    -0.369 OA
BRANCH   4   5
HETATM    5  C3  UNL     1     -34.776  15.743  -2.326  1.00 20.00     0.286 C 
BRANCH   5   6
HETATM    6  C4  UNL     1     -34.503  16.823  -1.310  1.00 20.00     0.408 C 
HETATM    7  F7  UNL     1     -34.862  16.415  -0.074  1.00 20.00    -0.169 F 
HETATM    8  F8  UNL     1     -35.197  17.945  -1.591  1.00 20.00    -0.169 F 
HETATM    9  F9  UNL     1     -33.191  17.139  -1.273  1.00 20.00    -0.169 F 
ENDBRANCH   5   6
ENDBRANCH   4   5
ENDBRANCH   2   4
TORSDOF 3
ENDMDL
MODEL 8
REMARK VINA RESULT:      -3.9     11.792     12.471
REMARK  3 active torsions:
REMARK  status: ('A' for Active; 'I' for Inactive)
REMARK    1  A    between atoms: C2_2  and  O6_6 
REMARK    2  A    between atoms: C3_3  and  C4_4 
REMARK    3  A    between atoms: C3_3  and  O6_6 
ROOT
HETATM    1  C1  UNL     1     -35.522  13.613  -4.311  1.00 20.00     0.085 C 
HETATM    2  C2  UNL     1     -36.531  14.652  -4.107  1.00 20.00     0.291 C 
HETATM    3  N5  UNL     1     -34.722  12.788  -4.473  1.00 20.00    -0.195 NA
ENDROOT
BRANCH   2   4
HETATM    4  O6  UNL     1     -36.198  15.454  -2.982  1.00 20.00    -0.369 OA
BRANCH   4   5
HETATM    5  C3  UNL     1     -35.239  16.449  -3.317  1.00 20.00     0.286 C 
BRANCH   5   6
HETATM    6  C4  UNL     1     -34.106  16.392  -2.324  1.00 20.00     0.408 C 
HETATM    7  F7  UNL     1     -34.554  15.998  -1.113  1.00 20.00    -0.169 F 
HETATM    8  F8  UNL     1     -33.526  17.602  -2.174  1.00 20.00    -0.169 F 
HETATM    9  F9  UNL     1     -33.155  15.518  -2.715  1.00 20.00    -0.169 F 
ENDBRANCH   5   6
ENDBRANCH   4   5
ENDBRANCH   2   4
TORSDOF 3
ENDMDL
MODEL 9
REMARK VINA RESULT:      -3.8      4.726      5.421
REMARK  3 active torsions:
REMARK  status: ('A' for Active; 'I' for Inactive)
REMARK    1  A    between atoms: C2_2  and  O6_6 
REMARK    2  A    between atoms: C3_3  and  C4_4 
REMARK    3  A    between atoms: C3_3  and  O6_6 
ROOT
HETATM    1  C1  UNL     1     -33.314   6.246   3.963  1.00 20.00     0.085 C 
HETATM    2  C2  UNL     1     -32.142   6.334   3.094  1.00 20.00     0.291 C 
HETATM    3  N5  UNL     1     -34.245   6.175   4.653  1.00 20.00    -0.195 NA
ENDROOT
BRANCH   2   4
HETATM    4  O6  UNL     1     -31.805   7.694   2.851  1.00 20.00    -0.369 OA
BRANCH   4   5
HETATM    5  C3  UNL     1     -32.806   8.351   2.086  1.00 20.00     0.286 C 
BRANCH   5   6
HETATM    6  C4  UNL     1     -32.153   9.063   0.929  1.00 20.00     0.408 C 
HETATM    7  F7  UNL     1     -32.881   8.907  -0.198  1.00 20.00    -0.169 F 
HETATM    8  F8  UNL     1     -30.917   8.576   0.690  1.00 20.00    -0.169 F 
HETATM    9  F9  UNL     1     -32.043  10.387   1.167  1.00 20.00    -0.169 F 
ENDBRANCH   5   6
ENDBRANCH   4   5
ENDBRANCH   2   4
TORSDOF 3
ENDMDL
