MODEL 1
REMARK VINA RESULT:      -5.0      0.000      0.000
REMARK  0 active torsions:
REMARK  status: ('A' for Active; 'I' for Inactive)
ROOT
HETATM    1  C1  UNL     1     -33.677  17.816  -2.613  1.00 20.00     0.042 C 
HETATM    2  C2  UNL     1     -33.192  16.133  -4.454  1.00 20.00     0.042 C 
HETATM    3  C3  UNL     1     -35.800  16.056  -3.314  1.00 20.00     0.174 C 
HETATM    4  C4  UNL     1     -34.626  15.496  -2.495  1.00 20.00     0.017 C 
HETATM    5  C5  UNL     1     -34.002  16.645  -1.665  1.00 20.00    -0.009 C 
HETATM    6  C6  UNL     1     -33.530  14.996  -3.468  1.00 20.00    -0.009 C 
HETATM    7  C7  UNL     1     -33.970  17.407  -4.071  1.00 20.00     0.058 C 
HETATM    8  C8  UNL     1     -34.883  17.090  -0.498  1.00 20.00     0.010 C 
HETATM    9  C9  UNL     1     -33.917  13.711  -4.199  1.00 20.00     0.010 C 
HETATM   10  C10 UNL     1     -33.656  18.549  -5.032  1.00 20.00     0.046 C 
HETATM   11  O11 UNL     1     -35.376  17.120  -4.179  1.00 20.00    -0.380 OA
ENDROOT
TORSDOF 0
ENDMDL
MODEL 2
REMARK VINA RESULT:      -4.9      1.392      3.168
REMARK  0 active torsions:
REMARK  status: ('A' for Active; 'I' for Inactive)
ROOT
HETATM    1  C1  UNL     1     -34.910  15.611  -5.503  1.00 20.00     0.042 C 
HETATM    2  C2  UNL     1     -34.730  17.322  -3.633  1.00 20.00     0.042 C 
HETATM    3  C3  UNL     1     -32.871  15.166  -3.569  1.00 20.00     0.174 C 
HETATM    4  C4  UNL     1     -34.329  14.888  -3.171  1.00 20.00     0.017 C 
HETATM    5  C5  UNL     1     -35.132  14.515  -4.442  1.00 20.00    -0.009 C 
HETATM    6  C6  UNL     1     -34.952  16.190  -2.610  1.00 20.00    -0.009 C 
HETATM    7  C7  UNL     1     -34.069  16.756  -4.905  1.00 20.00     0.058 C 
HETATM    8  C8  UNL     1     -34.790  13.127  -4.982  1.00 20.00     0.010 C 
HETATM    9  C9  UNL     1     -34.418  16.564  -1.227  1.00 20.00     0.010 C 
HETATM   10  C10 UNL     1     -33.835  17.857  -5.934  1.00 20.00     0.046 C 
HETATM   11  O11 UNL     1     -32.783  16.221  -4.538  1.00 20.00    -0.380 OA
ENDROOT
TORSDOF 0
ENDMDL
MODEL 3
REMARK VINA RESULT:      -4.7      1.112      3.285
REMARK  0 active torsions:
REMARK  status: ('A' for Active; 'I' for Inactive)
ROOT
HETATM    1  C1  UNL     1     -33.696  15.841  -5.444  1.00 20.00     0.042 C 
HETATM    2  C2  UNL     1     -34.171  14.899  -3.133  1.00 20.00     0.042 C 
HETATM    3  C3  UNL     1     -35.840  17.034  -4.005  1.00 20.00     0.174 C 
HETATM    4  C4  UNL     1     -34.401  17.359  -3.574  1.00 20.00     0.017 C 
HETATM    5  C5  UNL     1     -33.469  17.224  -4.804  1.00 20.00    -0.009 C 
HETATM    6  C6  UNL     1     -33.937  16.303  -2.540  1.00 20.00    -0.009 C 
HETATM    7  C7  UNL     1     -34.677  15.020  -4.583  1.00 20.00     0.058 C 
HETATM    8  C8  UNL     1     -33.648  18.354  -5.818  1.00 20.00     0.010 C 
HETATM    9  C9  UNL     1     -34.612  16.461  -1.177  1.00 20.00     0.010 C 
HETATM   10  C10 UNL     1     -34.920  13.643  -5.194  1.00 20.00     0.046 C 
HETATM   11  O11 UNL     1     -35.938  15.715  -4.559  1.00 20.00    -0.380 OA
ENDROOT
TORSDOF 0
ENDMDL
MODEL 4
REMARK VINA RESULT:      -4.6      1.114      3.327
REMARK  0 active torsions:
REMARK  status: ('A' for Active; 'I' for Inactive)
ROOT
HETATM    1  C1  UNL     1     -36.006  14.949  -4.048  1.00 20.00     0.042 C 
HETATM    2  C2  UNL     1     -35.909  16.874  -2.393  1.00 20.00     0.042 C 
HETATM    3  C3  UNL     1     -33.647  16.538  -4.089  1.00 20.00     0.174 C 
HETATM    4  C4  UNL     1     -33.843  15.552  -2.927  1.00 20.00     0.017 C 
HETATM    5  C5  UNL     1     -34.724  14.375  -3.413  1.00 20.00    -0.009 C 
HETATM    6  C6  UNL     1     -34.626  16.262  -1.795  1.00 20.00    -0.009 C 
HETATM    7  C7  UNL     1     -36.034  16.481  -3.878  1.00 20.00     0.058 C 
HETATM    8  C8  UNL     1     -33.992  13.433  -4.370  1.00 20.00     0.010 C 
HETATM    9  C9  UNL     1     -33.793  17.307  -1.053  1.00 20.00     0.010 C 
HETATM   10  C10 UNL     1     -37.295  17.076  -4.496  1.00 20.00     0.046 C 
HETATM   11  O11 UNL     1     -34.903  17.028  -4.581  1.00 20.00    -0.380 OA
ENDROOT
TORSDOF 0
ENDMDL
MODEL 5
REMARK VINA RESULT:      -4.6      1.078      3.350
REMARK  0 active torsions:
REMARK  status: ('A' for Active; 'I' for Inactive)
ROOT
HETATM    1  C1  UNL     1     -34.146  14.724  -3.062  1.00 20.00     0.042 C 
HETATM    2  C2  UNL     1     -33.611  17.174  -3.470  1.00 20.00     0.042 C 
HETATM    3  C3  UNL     1     -35.887  16.127  -4.821  1.00 20.00     0.174 C 
HETATM    4  C4  UNL     1     -34.491  15.739  -5.332  1.00 20.00     0.017 C 
HETATM    5  C5  UNL     1     -34.017  14.472  -4.578  1.00 20.00    -0.009 C 
HETATM    6  C6  UNL     1     -33.496  16.873  -4.977  1.00 20.00    -0.009 C 
HETATM    7  C7  UNL     1     -34.585  16.180  -2.809  1.00 20.00     0.058 C 
HETATM    8  C8  UNL     1     -34.759  13.206  -5.006  1.00 20.00     0.010 C 
HETATM    9  C9  UNL     1     -33.693  18.131  -5.823  1.00 20.00     0.010 C 
HETATM   10  C10 UNL     1     -34.720  16.458  -1.315  1.00 20.00     0.046 C 
HETATM   11  O11 UNL     1     -35.883  16.364  -3.406  1.00 20.00    -0.380 OA
ENDROOT
TORSDOF 0
ENDMDL
MODEL 6
REMARK VINA RESULT:      -4.4     12.497     14.198
REMARK  0 active torsions:
REMARK  status: ('A' for Active; 'I' for Inactive)
ROOT
HETATM    1  C1  UNL     1     -42.697   5.200  -3.159  1.00 20.00     0.042 C 
HETATM    2  C2  UNL     1     -43.375   6.498  -1.083  1.00 20.00     0.042 C 
HETATM    3  C3  UNL     1     -40.916   5.070  -0.944  1.00 20.00     0.174 C 
HETATM    4  C4  UNL     1     -42.229   4.274  -0.873  1.00 20.00     0.017 C 
HETATM    5  C5  UNL     1     -42.672   3.912  -2.312  1.00 20.00    -0.009 C 
HETATM    6  C6  UNL     1     -43.333   5.183  -0.278  1.00 20.00    -0.009 C 
HETATM    7  C7  UNL     1     -42.391   6.419  -2.266  1.00 20.00     0.058 C 
HETATM    8  C8  UNL     1     -41.802   2.830  -2.953  1.00 20.00     0.010 C 
HETATM    9  C9  UNL     1     -43.155   5.441   1.219  1.00 20.00     0.010 C 
HETATM   10  C10 UNL     1     -42.411   7.710  -3.079  1.00 20.00     0.046 C 
HETATM   11  O11 UNL     1     -41.064   6.259  -1.732  1.00 20.00    -0.380 OA
ENDROOT
TORSDOF 0
ENDMDL
MODEL 7
REMARK VINA RESULT:      -4.4     12.489     14.119
REMARK  0 active torsions:
REMARK  status: ('A' for Active; 'I' for Inactive)
ROOT
HETATM    1  C1  UNL     1     -43.012   4.103  -0.878  1.00 20.00     0.042 C 
HETATM    2  C2  UNL     1     -42.685   5.379  -3.051  1.00 20.00     0.042 C 
HETATM    3  C3  UNL     1     -41.123   6.230  -0.828  1.00 20.00     0.174 C 
HETATM    4  C4  UNL     1     -42.618   6.582  -0.849  1.00 20.00     0.017 C 
HETATM    5  C5  UNL     1     -43.413   5.425  -0.194  1.00 20.00    -0.009 C 
HETATM    6  C6  UNL     1     -43.090   6.676  -2.321  1.00 20.00    -0.009 C 
HETATM    7  C7  UNL     1     -42.054   4.391  -2.051  1.00 20.00     0.058 C 
HETATM    8  C8  UNL     1     -43.232   5.355   1.322  1.00 20.00     0.010 C 
HETATM    9  C9  UNL     1     -42.566   7.918  -3.042  1.00 20.00     0.010 C 
HETATM   10  C10 UNL     1     -41.640   3.098  -2.748  1.00 20.00     0.046 C 
HETATM   11  O11 UNL     1     -40.863   4.998  -1.516  1.00 20.00    -0.380 OA
ENDROOT
TORSDOF 0
ENDMDL
MODEL 8
REMARK VINA RESULT:      -4.4      2.481      3.558
REMARK  0 active torsions:
REMARK  status: ('A' for Active; 'I' for Inactive)
ROOT
HETATM    1  C1  UNL     1     -36.562  15.371  -5.863  1.00 20.00     0.042 C 
HETATM    2  C2  UNL     1     -34.033  15.594  -5.757  1.00 20.00     0.042 C 
HETATM    3  C3  UNL     1     -35.173  13.370  -4.393  1.00 20.00     0.174 C 
HETATM    4  C4  UNL     1     -35.320  14.766  -3.767  1.00 20.00     0.017 C 
HETATM    5  C5  UNL     1     -36.604  15.430  -4.323  1.00 20.00    -0.009 C 
HETATM    6  C6  UNL     1     -34.127  15.645  -4.219  1.00 20.00    -0.009 C 
HETATM    7  C7  UNL     1     -35.214  14.785  -6.328  1.00 20.00     0.058 C 
HETATM    8  C8  UNL     1     -37.888  14.812  -3.768  1.00 20.00     0.010 C 
HETATM    9  C9  UNL     1     -32.807  15.250  -3.557  1.00 20.00     0.010 C 
HETATM   10  C10 UNL     1     -35.144  14.716  -7.850  1.00 20.00     0.046 C 
HETATM   11  O11 UNL     1     -35.116  13.439  -5.825  1.00 20.00    -0.380 OA
ENDROOT
TORSDOF 0
ENDMDL
MODEL 9
REMARK VINA RESULT:      -4.4      1.358      3.095
REMARK  0 active torsions:
REMARK  status: ('A' for Active; 'I' for Inactive)
ROOT
HETATM    1  C1  UNL     1     -34.801  17.523  -3.496  1.00 20.00     0.042 C 
HETATM    2  C2  UNL     1     -35.476  15.134  -2.953  1.00 20.00     0.042 C 
HETATM    3  C3  UNL     1     -32.890  15.499  -4.087  1.00 20.00     0.174 C 
HETATM    4  C4  UNL     1     -34.117  15.635  -5.003  1.00 20.00     0.017 C 
HETATM    5  C5  UNL     1     -34.607  17.104  -4.967  1.00 20.00    -0.009 C 
HETATM    6  C6  UNL     1     -35.265  14.764  -4.435  1.00 20.00    -0.009 C 
HETATM    7  C7  UNL     1     -34.560  16.313  -2.571  1.00 20.00     0.058 C 
HETATM    8  C8  UNL     1     -33.679  18.065  -5.711  1.00 20.00     0.010 C 
HETATM    9  C9  UNL     1     -35.026  13.265  -4.615  1.00 20.00     0.010 C 
HETATM   10  C10 UNL     1     -34.747  16.698  -1.107  1.00 20.00     0.046 C 
HETATM   11  O11 UNL     1     -33.194  15.888  -2.740  1.00 20.00    -0.380 OA
ENDROOT
TORSDOF 0
ENDMDL
