MODEL 1
REMARK VINA RESULT:      -4.8      0.000      0.000
REMARK  2 active torsions:
REMARK  status: ('A' for Active; 'I' for Inactive)
REMARK    1  A    between atoms: C1_1  and  C2_2 
REMARK    2  A    between atoms: C2_2  and  C3_3 
ROOT
HETATM    1  C2  UNL     1     -33.883   6.299   5.062  1.00 20.00     0.213 C 
ENDROOT
BRANCH   1   2
HETATM    2  C1  UNL     1     -33.463   6.087   3.619  1.00 20.00     0.227 C 
HETATM    3  O4  UNL     1     -34.090   5.378   2.838  1.00 20.00    -0.280 OA
HETATM    4 CL8  UNL     1     -32.006   6.964   3.242  1.00 20.00    -0.043 Cl
ENDBRANCH   1   2
BRANCH   1   5
HETATM    5  C3  UNL     1     -34.748   5.178   5.592  1.00 20.00     0.395 C 
HETATM    6  F5  UNL     1     -34.063   4.017   5.667  1.00 20.00    -0.171 F 
HETATM    7  F6  UNL     1     -35.832   4.979   4.812  1.00 20.00    -0.171 F 
HETATM    8  F7  UNL     1     -35.189   5.472   6.835  1.00 20.00    -0.171 F 
ENDBRANCH   1   5
TORSDOF 2
ENDMDL
MODEL 2
REMARK VINA RESULT:      -4.8      3.073      3.453
REMARK  2 active torsions:
REMARK  status: ('A' for Active; 'I' for Inactive)
REMARK    1  A    between atoms: C1_1  and  C2_2 
REMARK    2  A    between atoms: C2_2  and  C3_3 
ROOT
HETATM    1  C2  UNL     1     -33.760   6.211   4.562  1.00 20.00     0.213 C 
ENDROOT
BRANCH   1   2
HETATM    2  C1  UNL     1     -34.973   5.298   4.527  1.00 20.00     0.227 C 
HETATM    3  O4  UNL     1     -35.931   5.488   3.783  1.00 20.00    -0.280 OA
HETATM    4 CL8  UNL     1     -34.816   3.983   5.659  1.00 20.00    -0.043 Cl
ENDBRANCH   1   2
BRANCH   1   5
HETATM    5  C3  UNL     1     -32.981   6.200   3.266  1.00 20.00     0.395 C 
HETATM    6  F5  UNL     1     -31.720   5.754   3.449  1.00 20.00    -0.171 F 
HETATM    7  F6  UNL     1     -32.918   7.432   2.717  1.00 20.00    -0.171 F 
HETATM    8  F7  UNL     1     -33.576   5.384   2.367  1.00 20.00    -0.171 F 
ENDBRANCH   1   5
TORSDOF 2
ENDMDL
MODEL 3
REMARK VINA RESULT:      -4.8      0.110      1.362
REMARK  2 active torsions:
REMARK  status: ('A' for Active; 'I' for Inactive)
REMARK    1  A    between atoms: C1_1  and  C2_2 
REMARK    2  A    between atoms: C2_2  and  C3_3 
ROOT
HETATM    1  C2  UNL     1     -33.929   6.355   5.090  1.00 20.00     0.213 C 
ENDROOT
BRANCH   1   2
HETATM    2  C1  UNL     1     -33.489   6.115   3.657  1.00 20.00     0.227 C 
HETATM    3  O4  UNL     1     -34.085   5.364   2.891  1.00 20.00    -0.280 OA
HETATM    4 CL8  UNL     1     -32.059   7.030   3.265  1.00 20.00    -0.043 Cl
ENDBRANCH   1   2
BRANCH   1   5
HETATM    5  C3  UNL     1     -34.694   5.188   5.670  1.00 20.00     0.395 C 
HETATM    6  F5  UNL     1     -35.188   5.477   6.892  1.00 20.00    -0.171 F 
HETATM    7  F6  UNL     1     -33.915   4.090   5.778  1.00 20.00    -0.171 F 
HETATM    8  F7  UNL     1     -35.739   4.868   4.874  1.00 20.00    -0.171 F 
ENDBRANCH   1   5
TORSDOF 2
ENDMDL
MODEL 4
REMARK VINA RESULT:      -4.8      1.811      2.319
REMARK  2 active torsions:
REMARK  status: ('A' for Active; 'I' for Inactive)
REMARK    1  A    between atoms: C1_1  and  C2_2 
REMARK    2  A    between atoms: C2_2  and  C3_3 
ROOT
HETATM    1  C2  UNL     1     -34.778   5.511   4.600  1.00 20.00     0.213 C 
ENDROOT
BRANCH   1   2
HETATM    2  C1  UNL     1     -33.599   6.416   4.905  1.00 20.00     0.227 C 
HETATM    3  O4  UNL     1     -32.720   6.669   4.086  1.00 20.00    -0.280 OA
HETATM    4 CL8  UNL     1     -33.666   7.027   6.535  1.00 20.00    -0.043 Cl
ENDBRANCH   1   2
BRANCH   1   5
HETATM    5  C3  UNL     1     -34.835   4.299   5.502  1.00 20.00     0.395 C 
HETATM    6  F5  UNL     1     -35.697   4.482   6.525  1.00 20.00    -0.171 F 
HETATM    7  F6  UNL     1     -33.621   4.010   6.020  1.00 20.00    -0.171 F 
HETATM    8  F7  UNL     1     -35.249   3.215   4.808  1.00 20.00    -0.171 F 
ENDBRANCH   1   5
TORSDOF 2
ENDMDL
MODEL 5
REMARK VINA RESULT:      -4.7      2.810      3.314
REMARK  2 active torsions:
REMARK  status: ('A' for Active; 'I' for Inactive)
REMARK    1  A    between atoms: C1_1  and  C2_2 
REMARK    2  A    between atoms: C2_2  and  C3_3 
ROOT
HETATM    1  C2  UNL     1     -35.164   5.445   4.026  1.00 20.00     0.213 C 
ENDROOT
BRANCH   1   2
HETATM    2  C1  UNL     1     -34.926   4.756   5.357  1.00 20.00     0.227 C 
HETATM    3  O4  UNL     1     -35.021   3.541   5.508  1.00 20.00    -0.280 OA
HETATM    4 CL8  UNL     1     -34.511   5.899   6.604  1.00 20.00    -0.043 Cl
ENDBRANCH   1   2
BRANCH   1   5
HETATM    5  C3  UNL     1     -33.881   5.880   3.354  1.00 20.00     0.395 C 
HETATM    6  F5  UNL     1     -33.804   7.224   3.257  1.00 20.00    -0.171 F 
HETATM    7  F6  UNL     1     -33.771   5.359   2.113  1.00 20.00    -0.171 F 
HETATM    8  F7  UNL     1     -32.811   5.461   4.067  1.00 20.00    -0.171 F 
ENDBRANCH   1   5
TORSDOF 2
ENDMDL
MODEL 6
REMARK VINA RESULT:      -4.7      2.405      2.788
REMARK  2 active torsions:
REMARK  status: ('A' for Active; 'I' for Inactive)
REMARK    1  A    between atoms: C1_1  and  C2_2 
REMARK    2  A    between atoms: C2_2  and  C3_3 
ROOT
HETATM    1  C2  UNL     1     -33.896   6.075   4.491  1.00 20.00     0.213 C 
ENDROOT
BRANCH   1   2
HETATM    2  C1  UNL     1     -34.262   6.042   5.964  1.00 20.00     0.227 C 
HETATM    3  O4  UNL     1     -35.039   5.221   6.442  1.00 20.00    -0.280 OA
HETATM    4 CL8  UNL     1     -33.447   7.299   6.853  1.00 20.00    -0.043 Cl
ENDBRANCH   1   2
BRANCH   1   5
HETATM    5  C3  UNL     1     -34.814   5.227   3.641  1.00 20.00     0.395 C 
HETATM    6  F5  UNL     1     -34.964   3.988   4.156  1.00 20.00    -0.171 F 
HETATM    7  F6  UNL     1     -34.348   5.106   2.379  1.00 20.00    -0.171 F 
HETATM    8  F7  UNL     1     -36.041   5.789   3.569  1.00 20.00    -0.171 F 
ENDBRANCH   1   5
TORSDOF 2
ENDMDL
MODEL 7
REMARK VINA RESULT:      -4.7      3.291      3.753
REMARK  2 active torsions:
REMARK  status: ('A' for Active; 'I' for Inactive)
REMARK    1  A    between atoms: C1_1  and  C2_2 
REMARK    2  A    between atoms: C2_2  and  C3_3 
ROOT
HETATM    1  C2  UNL     1     -34.064   6.360   3.904  1.00 20.00     0.213 C 
ENDROOT
BRANCH   1   2
HETATM    2  C1  UNL     1     -34.174   5.896   5.346  1.00 20.00     0.227 C 
HETATM    3  O4  UNL     1     -33.853   6.599   6.300  1.00 20.00    -0.280 OA
HETATM    4 CL8  UNL     1     -34.799   4.274   5.450  1.00 20.00    -0.043 Cl
ENDBRANCH   1   2
BRANCH   1   5
HETATM    5  C3  UNL     1     -32.637   6.625   3.481  1.00 20.00     0.395 C 
HETATM    6  F5  UNL     1     -31.963   5.477   3.262  1.00 20.00    -0.171 F 
HETATM    7  F6  UNL     1     -31.969   7.336   4.415  1.00 20.00    -0.171 F 
HETATM    8  F7  UNL     1     -32.612   7.339   2.333  1.00 20.00    -0.171 F 
ENDBRANCH   1   5
TORSDOF 2
ENDMDL
MODEL 8
REMARK VINA RESULT:      -4.7      1.623      1.911
REMARK  2 active torsions:
REMARK  status: ('A' for Active; 'I' for Inactive)
REMARK    1  A    between atoms: C1_1  and  C2_2 
REMARK    2  A    between atoms: C2_2  and  C3_3 
ROOT
HETATM    1  C2  UNL     1     -34.897   4.243   4.741  1.00 20.00     0.213 C 
ENDROOT
BRANCH   1   2
HETATM    2  C1  UNL     1     -34.988   5.402   3.765  1.00 20.00     0.227 C 
HETATM    3  O4  UNL     1     -36.055   5.851   3.357  1.00 20.00    -0.280 OA
HETATM    4 CL8  UNL     1     -33.409   5.985   3.317  1.00 20.00    -0.043 Cl
ENDBRANCH   1   2
BRANCH   1   5
HETATM    5  C3  UNL     1     -34.774   4.695   6.178  1.00 20.00     0.395 C 
HETATM    6  F5  UNL     1     -35.810   4.258   6.926  1.00 20.00    -0.171 F 
HETATM    7  F6  UNL     1     -34.725   6.042   6.270  1.00 20.00    -0.171 F 
HETATM    8  F7  UNL     1     -33.640   4.209   6.728  1.00 20.00    -0.171 F 
ENDBRANCH   1   5
TORSDOF 2
ENDMDL
MODEL 9
REMARK VINA RESULT:      -4.6      3.255      3.684
REMARK  2 active torsions:
REMARK  status: ('A' for Active; 'I' for Inactive)
REMARK    1  A    between atoms: C1_1  and  C2_2 
REMARK    2  A    between atoms: C2_2  and  C3_3 
ROOT
HETATM    1  C2  UNL     1     -34.126   6.194   3.927  1.00 20.00     0.213 C 
ENDROOT
BRANCH   1   2
HETATM    2  C1  UNL     1     -34.235   5.797   5.388  1.00 20.00     0.227 C 
HETATM    3  O4  UNL     1     -33.998   6.571   6.311  1.00 20.00    -0.280 OA
HETATM    4 CL8  UNL     1     -34.729   4.136   5.564  1.00 20.00    -0.043 Cl
ENDBRANCH   1   2
BRANCH   1   5
HETATM    5  C3  UNL     1     -32.712   6.534   3.516  1.00 20.00     0.395 C 
HETATM    6  F5  UNL     1     -32.687   7.268   2.384  1.00 20.00    -0.171 F 
HETATM    7  F6  UNL     1     -31.974   5.421   3.315  1.00 20.00    -0.171 F 
HETATM    8  F7  UNL     1     -32.102   7.256   4.483  1.00 20.00    -0.171 F 
ENDBRANCH   1   5
TORSDOF 2
ENDMDL
