MODEL 1
REMARK VINA RESULT:      -3.4      0.000      0.000
REMARK  1 active torsions:
REMARK  status: ('A' for Active; 'I' for Inactive)
REMARK    1  A    between atoms: C1_1  and  C2_2 
ROOT
HETATM    1  C1  UNL     1     -34.849   4.661   5.156  1.00 20.00     0.208 C 
HETATM    2  O3  UNL     1     -35.142   3.502   4.911  1.00 20.00    -0.284 OA
HETATM    3 BR5  UNL     1     -34.392   5.746   3.651  1.00 20.00    -0.008 Br
ENDROOT
BRANCH   1   4
HETATM    4  C2  UNL     1     -34.810   5.313   6.508  1.00 20.00     0.205 C 
HETATM    5 CL4  UNL     1     -33.817   6.777   6.452  1.00 20.00    -0.122 Cl
ENDBRANCH   1   4
TORSDOF 1
ENDMDL
MODEL 2
REMARK VINA RESULT:      -3.4      2.100      2.360
REMARK  1 active torsions:
REMARK  status: ('A' for Active; 'I' for Inactive)
REMARK    1  A    between atoms: C1_1  and  C2_2 
ROOT
HETATM    1  C1  UNL     1     -34.867   4.761   4.835  1.00 20.00     0.208 C 
HETATM    2  O3  UNL     1     -35.201   3.611   5.071  1.00 20.00    -0.284 OA
HETATM    3 BR5  UNL     1     -34.389   5.823   6.349  1.00 20.00    -0.008 Br
ENDROOT
BRANCH   1   4
HETATM    4  C2  UNL     1     -34.795   5.417   3.486  1.00 20.00     0.205 C 
HETATM    5 CL4  UNL     1     -33.185   6.106   3.227  1.00 20.00    -0.122 Cl
ENDBRANCH   1   4
TORSDOF 1
ENDMDL
MODEL 3
REMARK VINA RESULT:      -3.4      2.818      2.935
REMARK  1 active torsions:
REMARK  status: ('A' for Active; 'I' for Inactive)
REMARK    1  A    between atoms: C1_1  and  C2_2 
ROOT
HETATM    1  C1  UNL     1     -34.145   5.993   5.388  1.00 20.00     0.208 C 
HETATM    2  O3  UNL     1     -33.829   6.658   6.363  1.00 20.00    -0.284 OA
HETATM    3 BR5  UNL     1     -34.886   4.271   5.753  1.00 20.00    -0.008 Br
ENDROOT
BRANCH   1   4
HETATM    4  C2  UNL     1     -34.011   6.392   3.946  1.00 20.00     0.205 C 
HETATM    5 CL4  UNL     1     -32.334   6.200   3.415  1.00 20.00    -0.122 Cl
ENDBRANCH   1   4
TORSDOF 1
ENDMDL
MODEL 4
REMARK VINA RESULT:      -3.3      2.114      2.114
REMARK  1 active torsions:
REMARK  status: ('A' for Active; 'I' for Inactive)
REMARK    1  A    between atoms: C1_1  and  C2_2 
ROOT
HETATM    1  C1  UNL     1     -34.095   5.846   4.095  1.00 20.00     0.208 C 
HETATM    2  O3  UNL     1     -34.904   5.387   3.304  1.00 20.00    -0.284 OA
HETATM    3 BR5  UNL     1     -32.520   6.612   3.332  1.00 20.00    -0.008 Br
ENDROOT
BRANCH   1   4
HETATM    4  C2  UNL     1     -34.213   5.868   5.592  1.00 20.00     0.205 C 
HETATM    5 CL4  UNL     1     -35.077   4.430   6.156  1.00 20.00    -0.122 Cl
ENDBRANCH   1   4
TORSDOF 1
ENDMDL
MODEL 5
REMARK VINA RESULT:      -3.3      2.631      2.700
REMARK  1 active torsions:
REMARK  status: ('A' for Active; 'I' for Inactive)
REMARK    1  A    between atoms: C1_1  and  C2_2 
ROOT
HETATM    1  C1  UNL     1     -34.599   5.527   4.361  1.00 20.00     0.208 C 
HETATM    2  O3  UNL     1     -35.438   5.491   3.475  1.00 20.00    -0.284 OA
HETATM    3 BR5  UNL     1     -34.864   4.319   5.817  1.00 20.00    -0.008 Br
ENDROOT
BRANCH   1   4
HETATM    4  C2  UNL     1     -33.391   6.418   4.419  1.00 20.00     0.205 C 
HETATM    5 CL4  UNL     1     -32.342   6.117   3.026  1.00 20.00    -0.122 Cl
ENDBRANCH   1   4
TORSDOF 1
ENDMDL
MODEL 6
REMARK VINA RESULT:      -3.3      2.587      2.676
REMARK  1 active torsions:
REMARK  status: ('A' for Active; 'I' for Inactive)
REMARK    1  A    between atoms: C1_1  and  C2_2 
ROOT
HETATM    1  C1  UNL     1     -33.883   6.124   4.652  1.00 20.00     0.208 C 
HETATM    2  O3  UNL     1     -33.725   6.669   5.733  1.00 20.00    -0.284 OA
HETATM    3 BR5  UNL     1     -32.632   6.592   3.286  1.00 20.00    -0.008 Br
ENDROOT
BRANCH   1   4
HETATM    4  C2  UNL     1     -34.953   5.133   4.292  1.00 20.00     0.205 C 
HETATM    5 CL4  UNL     1     -35.050   3.866   5.524  1.00 20.00    -0.122 Cl
ENDBRANCH   1   4
TORSDOF 1
ENDMDL
MODEL 7
REMARK VINA RESULT:      -3.2      1.986      2.017
REMARK  1 active torsions:
REMARK  status: ('A' for Active; 'I' for Inactive)
REMARK    1  A    between atoms: C1_1  and  C2_2 
ROOT
HETATM    1  C1  UNL     1     -34.519   5.462   4.398  1.00 20.00     0.208 C 
HETATM    2  O3  UNL     1     -35.032   5.323   3.299  1.00 20.00    -0.284 OA
HETATM    3 BR5  UNL     1     -34.988   4.157   5.712  1.00 20.00    -0.008 Br
ENDROOT
BRANCH   1   4
HETATM    4  C2  UNL     1     -33.567   6.546   4.816  1.00 20.00     0.205 C 
HETATM    5 CL4  UNL     1     -33.753   6.889   6.542  1.00 20.00    -0.122 Cl
ENDBRANCH   1   4
TORSDOF 1
ENDMDL
MODEL 8
REMARK VINA RESULT:      -3.2      2.855      2.933
REMARK  1 active torsions:
REMARK  status: ('A' for Active; 'I' for Inactive)
REMARK    1  A    between atoms: C1_1  and  C2_2 
ROOT
HETATM    1  C1  UNL     1     -33.996   6.126   4.492  1.00 20.00     0.208 C 
HETATM    2  O3  UNL     1     -33.264   6.678   3.686  1.00 20.00    -0.284 OA
HETATM    3 BR5  UNL     1     -33.810   6.680   6.311  1.00 20.00    -0.008 Br
ENDROOT
BRANCH   1   4
HETATM    4  C2  UNL     1     -35.017   5.064   4.200  1.00 20.00     0.205 C 
HETATM    5 CL4  UNL     1     -35.045   3.868   5.504  1.00 20.00    -0.122 Cl
ENDBRANCH   1   4
TORSDOF 1
ENDMDL
MODEL 9
REMARK VINA RESULT:      -2.8     13.211     13.230
REMARK  1 active torsions:
REMARK  status: ('A' for Active; 'I' for Inactive)
REMARK    1  A    between atoms: C1_1  and  C2_2 
ROOT
HETATM    1  C1  UNL     1     -34.442  13.677  -4.696  1.00 20.00     0.208 C 
HETATM    2  O3  UNL     1     -34.991  12.604  -4.505  1.00 20.00    -0.284 OA
HETATM    3 BR5  UNL     1     -34.848  14.545  -6.349  1.00 20.00    -0.008 Br
ENDROOT
BRANCH   1   4
HETATM    4  C2  UNL     1     -33.487  14.376  -3.770  1.00 20.00     0.205 C 
HETATM    5 CL4  UNL     1     -34.376  15.423  -2.654  1.00 20.00    -0.122 Cl
ENDBRANCH   1   4
TORSDOF 1
ENDMDL
