MODEL 1
REMARK VINA RESULT:      -2.9      0.000      0.000
REMARK  0 active torsions:
REMARK  status: ('A' for Active; 'I' for Inactive)
ROOT
HETATM    1  C1  UNL     1     -33.203  16.243  -4.662  1.00 20.00     0.345 C 
HETATM    2  C2  UNL     1     -33.647  14.106  -3.590  1.00 20.00     0.345 C 
HETATM    3  C3  UNL     1     -35.405  14.863  -5.566  1.00 20.00     0.151 C 
HETATM    4  N4  UNL     1     -32.633  15.014  -4.117  1.00 20.00     0.101 N 
HETATM    5  S5  UNL     1     -34.142  15.997  -6.197  1.00 20.00    -0.129 SA
HETATM    6  S6  UNL     1     -34.691  13.350  -4.871  1.00 20.00    -0.129 SA
HETATM    7  H13 UNL     1     -32.098  14.540  -4.843  1.00 20.00     0.317 HD
ENDROOT
TORSDOF 0
ENDMDL
MODEL 2
REMARK VINA RESULT:      -2.9      1.548      1.679
REMARK  0 active torsions:
REMARK  status: ('A' for Active; 'I' for Inactive)
ROOT
HETATM    1  C1  UNL     1     -33.232  14.756  -3.521  1.00 20.00     0.345 C 
HETATM    2  C2  UNL     1     -34.752  13.262  -4.693  1.00 20.00     0.345 C 
HETATM    3  C3  UNL     1     -34.923  15.929  -5.348  1.00 20.00     0.151 C 
HETATM    4  N4  UNL     1     -33.404  13.458  -4.167  1.00 20.00     0.101 N 
HETATM    5  S5  UNL     1     -33.256  16.158  -4.676  1.00 20.00    -0.129 SA
HETATM    6  S6  UNL     1     -35.137  14.308  -6.128  1.00 20.00    -0.129 SA
HETATM    7  H13 UNL     1     -32.728  13.366  -4.924  1.00 20.00     0.317 HD
ENDROOT
TORSDOF 0
ENDMDL
MODEL 3
REMARK VINA RESULT:      -2.9      2.086      2.618
REMARK  0 active torsions:
REMARK  status: ('A' for Active; 'I' for Inactive)
ROOT
HETATM    1  C1  UNL     1     -34.816  13.297  -4.684  1.00 20.00     0.345 C 
HETATM    2  C2  UNL     1     -32.962  14.547  -3.727  1.00 20.00     0.345 C 
HETATM    3  C3  UNL     1     -35.291  15.953  -4.141  1.00 20.00     0.151 C 
HETATM    4  N4  UNL     1     -33.698  13.286  -3.745  1.00 20.00     0.101 N 
HETATM    5  S5  UNL     1     -36.186  14.378  -4.178  1.00 20.00    -0.129 SA
HETATM    6  S6  UNL     1     -33.891  15.925  -2.992  1.00 20.00    -0.129 SA
HETATM    7  H13 UNL     1     -34.045  13.082  -2.809  1.00 20.00     0.317 HD
ENDROOT
TORSDOF 0
ENDMDL
MODEL 4
REMARK VINA RESULT:      -2.8      1.657      2.806
REMARK  0 active torsions:
REMARK  status: ('A' for Active; 'I' for Inactive)
ROOT
HETATM    1  C1  UNL     1     -34.949  14.417  -6.247  1.00 20.00     0.345 C 
HETATM    2  C2  UNL     1     -33.629  16.294  -5.438  1.00 20.00     0.345 C 
HETATM    3  C3  UNL     1     -34.575  14.558  -3.524  1.00 20.00     0.151 C 
HETATM    4  N4  UNL     1     -33.786  15.272  -6.470  1.00 20.00     0.101 N 
HETATM    5  S5  UNL     1     -34.779  13.308  -4.818  1.00 20.00    -0.129 SA
HETATM    6  S6  UNL     1     -33.145  15.630  -3.818  1.00 20.00    -0.129 SA
HETATM    7  H13 UNL     1     -32.946  14.696  -6.506  1.00 20.00     0.317 HD
ENDROOT
TORSDOF 0
ENDMDL
MODEL 5
REMARK VINA RESULT:      -2.7      0.668      2.324
REMARK  0 active torsions:
REMARK  status: ('A' for Active; 'I' for Inactive)
ROOT
HETATM    1  C1  UNL     1     -33.366  13.921  -3.759  1.00 20.00     0.345 C 
HETATM    2  C2  UNL     1     -33.169  16.168  -4.670  1.00 20.00     0.345 C 
HETATM    3  C3  UNL     1     -34.769  14.423  -6.073  1.00 20.00     0.151 C 
HETATM    4  N4  UNL     1     -33.299  15.350  -3.467  1.00 20.00     0.101 N 
HETATM    5  S5  UNL     1     -34.906  13.412  -4.576  1.00 20.00    -0.129 SA
HETATM    6  S6  UNL     1     -34.663  16.193  -5.703  1.00 20.00    -0.129 SA
HETATM    7  H13 UNL     1     -34.136  15.630  -2.956  1.00 20.00     0.317 HD
ENDROOT
TORSDOF 0
ENDMDL
MODEL 6
REMARK VINA RESULT:      -2.6     13.193     14.161
REMARK  0 active torsions:
REMARK  status: ('A' for Active; 'I' for Inactive)
ROOT
HETATM    1  C1  UNL     1     -35.064   4.014   4.486  1.00 20.00     0.345 C 
HETATM    2  C2  UNL     1     -34.282   4.818   6.645  1.00 20.00     0.345 C 
HETATM    3  C3  UNL     1     -33.544   6.308   4.453  1.00 20.00     0.151 C 
HETATM    4  N4  UNL     1     -35.387   4.226   5.895  1.00 20.00     0.101 N 
HETATM    5  S5  UNL     1     -34.907   5.552   3.531  1.00 20.00    -0.129 SA
HETATM    6  S6  UNL     1     -33.941   6.547   6.204  1.00 20.00    -0.129 SA
HETATM    7  H13 UNL     1     -36.206   4.828   5.966  1.00 20.00     0.317 HD
ENDROOT
TORSDOF 0
ENDMDL
MODEL 7
REMARK VINA RESULT:      -2.6      1.725      2.323
REMARK  0 active torsions:
REMARK  status: ('A' for Active; 'I' for Inactive)
ROOT
HETATM    1  C1  UNL     1     -33.373  16.327  -5.081  1.00 20.00     0.345 C 
HETATM    2  C2  UNL     1     -34.594  14.584  -6.259  1.00 20.00     0.345 C 
HETATM    3  C3  UNL     1     -33.493  13.874  -3.838  1.00 20.00     0.151 C 
HETATM    4  N4  UNL     1     -34.542  15.996  -5.890  1.00 20.00     0.101 N 
HETATM    5  S5  UNL     1     -33.421  15.630  -3.403  1.00 20.00    -0.129 SA
HETATM    6  S6  UNL     1     -34.934  13.473  -4.861  1.00 20.00    -0.129 SA
HETATM    7  H13 UNL     1     -35.388  16.242  -5.377  1.00 20.00     0.317 HD
ENDROOT
TORSDOF 0
ENDMDL
MODEL 8
REMARK VINA RESULT:      -2.6     12.267     13.038
REMARK  0 active torsions:
REMARK  status: ('A' for Active; 'I' for Inactive)
ROOT
HETATM    1  C1  UNL     1     -42.292   4.083  -2.659  1.00 20.00     0.345 C 
HETATM    2  C2  UNL     1     -40.691   4.707  -0.937  1.00 20.00     0.345 C 
HETATM    3  C3  UNL     1     -41.810   6.777  -2.364  1.00 20.00     0.151 C 
HETATM    4  N4  UNL     1     -41.796   3.827  -1.310  1.00 20.00     0.101 N 
HETATM    5  S5  UNL     1     -43.164   5.668  -2.830  1.00 20.00    -0.129 SA
HETATM    6  S6  UNL     1     -41.182   6.440  -0.698  1.00 20.00    -0.129 SA
HETATM    7  H13 UNL     1     -42.558   3.941  -0.643  1.00 20.00     0.317 HD
ENDROOT
TORSDOF 0
ENDMDL
MODEL 9
REMARK VINA RESULT:      -2.6     11.734     12.221
REMARK  0 active torsions:
REMARK  status: ('A' for Active; 'I' for Inactive)
ROOT
HETATM    1  C1  UNL     1     -42.254   7.649  -1.719  1.00 20.00     0.345 C 
HETATM    2  C2  UNL     1     -40.883   6.224  -0.302  1.00 20.00     0.345 C 
HETATM    3  C3  UNL     1     -42.702   4.941  -1.921  1.00 20.00     0.151 C 
HETATM    4  N4  UNL     1     -40.928   7.407  -1.157  1.00 20.00     0.101 N 
HETATM    5  S5  UNL     1     -42.759   6.423  -2.961  1.00 20.00    -0.129 SA
HETATM    6  S6  UNL     1     -41.061   4.659  -1.208  1.00 20.00    -0.129 SA
HETATM    7  H13 UNL     1     -40.255   7.303  -1.915  1.00 20.00     0.317 HD
ENDROOT
TORSDOF 0
ENDMDL
