MODEL 1
REMARK VINA RESULT:      -3.7      0.000      0.000
REMARK  4 active torsions:
REMARK  status: ('A' for Active; 'I' for Inactive)
REMARK    1  A    between atoms: C1_1  and  N8_8 
REMARK    2  A    between atoms: C1_1  and  N9_9 
REMARK    3  A    between atoms: C6_6  and  N8_8 
REMARK    4  A    between atoms: C7_7  and  N9_9 
ROOT
HETATM    1  N9  UNL     1     -33.211   5.434   4.157  1.00 20.00    -0.220 NA
ENDROOT
BRANCH   1   2
HETATM    2  C1  UNL     1     -33.174   6.416   3.517  1.00 20.00     0.091 C 
BRANCH   2   3
HETATM    3  N8  UNL     1     -33.155   7.392   2.866  1.00 20.00    -0.231 NA
BRANCH   3   4
HETATM    4  C6  UNL     1     -31.822   7.792   2.410  1.00 20.00     0.156 C 
HETATM    5  C2  UNL     1     -31.964   8.755   1.248  1.00 20.00     0.029 C 
ENDBRANCH   3   4
ENDBRANCH   2   3
ENDBRANCH   1   2
BRANCH   1   6
HETATM    6  C7  UNL     1     -34.401   5.314   5.012  1.00 20.00     0.053 C 
HETATM    7  C3  UNL     1     -35.641   5.543   4.149  1.00 20.00     0.041 C 
HETATM    8  C4  UNL     1     -34.412   3.906   5.607  1.00 20.00     0.041 C 
HETATM    9  C5  UNL     1     -34.307   6.364   6.119  1.00 20.00     0.041 C 
ENDBRANCH   1   6
TORSDOF 4
ENDMDL
MODEL 2
REMARK VINA RESULT:      -3.7      0.017      1.451
REMARK  4 active torsions:
REMARK  status: ('A' for Active; 'I' for Inactive)
REMARK    1  A    between atoms: C1_1  and  N8_8 
REMARK    2  A    between atoms: C1_1  and  N9_9 
REMARK    3  A    between atoms: C6_6  and  N8_8 
REMARK    4  A    between atoms: C7_7  and  N9_9 
ROOT
HETATM    1  N9  UNL     1     -33.205   5.450   4.167  1.00 20.00    -0.220 NA
ENDROOT
BRANCH   1   2
HETATM    2  C1  UNL     1     -33.187   6.425   3.515  1.00 20.00     0.091 C 
BRANCH   2   3
HETATM    3  N8  UNL     1     -33.154   7.408   2.875  1.00 20.00    -0.231 NA
BRANCH   3   4
HETATM    4  C6  UNL     1     -31.818   7.781   2.403  1.00 20.00     0.156 C 
HETATM    5  C2  UNL     1     -31.954   8.745   1.242  1.00 20.00     0.029 C 
ENDBRANCH   3   4
ENDBRANCH   2   3
ENDBRANCH   1   2
BRANCH   1   6
HETATM    6  C7  UNL     1     -34.390   5.320   5.027  1.00 20.00     0.053 C 
HETATM    7  C3  UNL     1     -34.304   6.375   6.129  1.00 20.00     0.041 C 
HETATM    8  C4  UNL     1     -35.627   5.549   4.158  1.00 20.00     0.041 C 
HETATM    9  C5  UNL     1     -34.404   3.912   5.620  1.00 20.00     0.041 C 
ENDBRANCH   1   6
TORSDOF 4
ENDMDL
MODEL 3
REMARK VINA RESULT:      -3.4     11.258     12.211
REMARK  4 active torsions:
REMARK  status: ('A' for Active; 'I' for Inactive)
REMARK    1  A    between atoms: C1_1  and  N8_8 
REMARK    2  A    between atoms: C1_1  and  N9_9 
REMARK    3  A    between atoms: C6_6  and  N8_8 
REMARK    4  A    between atoms: C7_7  and  N9_9 
ROOT
HETATM    1  N9  UNL     1     -34.174  16.028  -4.356  1.00 20.00    -0.220 NA
ENDROOT
BRANCH   1   2
HETATM    2  C1  UNL     1     -33.910  16.300  -3.245  1.00 20.00     0.091 C 
BRANCH   2   3
HETATM    3  N8  UNL     1     -33.637  16.589  -2.141  1.00 20.00    -0.231 NA
BRANCH   3   4
HETATM    4  C6  UNL     1     -34.737  16.440  -1.185  1.00 20.00     0.156 C 
HETATM    5  C2  UNL     1     -34.523  17.400  -0.032  1.00 20.00     0.029 C 
ENDBRANCH   3   4
ENDBRANCH   2   3
ENDBRANCH   1   2
BRANCH   1   6
HETATM    6  C7  UNL     1     -34.592  14.633  -4.554  1.00 20.00     0.053 C 
HETATM    7  C3  UNL     1     -35.980  14.454  -3.941  1.00 20.00     0.041 C 
HETATM    8  C4  UNL     1     -34.630  14.365  -6.059  1.00 20.00     0.041 C 
HETATM    9  C5  UNL     1     -33.573  13.722  -3.871  1.00 20.00     0.041 C 
ENDBRANCH   1   6
TORSDOF 4
ENDMDL
MODEL 4
REMARK VINA RESULT:      -3.4     11.279     12.251
REMARK  4 active torsions:
REMARK  status: ('A' for Active; 'I' for Inactive)
REMARK    1  A    between atoms: C1_1  and  N8_8 
REMARK    2  A    between atoms: C1_1  and  N9_9 
REMARK    3  A    between atoms: C6_6  and  N8_8 
REMARK    4  A    between atoms: C7_7  and  N9_9 
ROOT
HETATM    1  N9  UNL     1     -34.242  16.041  -4.353  1.00 20.00    -0.220 NA
ENDROOT
BRANCH   1   2
HETATM    2  C1  UNL     1     -33.945  16.303  -3.249  1.00 20.00     0.091 C 
BRANCH   2   3
HETATM    3  N8  UNL     1     -33.645  16.586  -2.150  1.00 20.00    -0.231 NA
BRANCH   3   4
HETATM    4  C6  UNL     1     -34.726  16.445  -1.171  1.00 20.00     0.156 C 
HETATM    5  C2  UNL     1     -34.503  17.431  -0.042  1.00 20.00     0.029 C 
ENDBRANCH   3   4
ENDBRANCH   2   3
ENDBRANCH   1   2
BRANCH   1   6
HETATM    6  C7  UNL     1     -34.610  14.633  -4.561  1.00 20.00     0.053 C 
HETATM    7  C3  UNL     1     -33.562  13.754  -3.880  1.00 20.00     0.041 C 
HETATM    8  C4  UNL     1     -35.987  14.411  -3.935  1.00 20.00     0.041 C 
HETATM    9  C5  UNL     1     -34.654  14.363  -6.065  1.00 20.00     0.041 C 
ENDBRANCH   1   6
TORSDOF 4
ENDMDL
MODEL 5
REMARK VINA RESULT:      -3.4     11.275     12.187
REMARK  4 active torsions:
REMARK  status: ('A' for Active; 'I' for Inactive)
REMARK    1  A    between atoms: C1_1  and  N8_8 
REMARK    2  A    between atoms: C1_1  and  N9_9 
REMARK    3  A    between atoms: C6_6  and  N8_8 
REMARK    4  A    between atoms: C7_7  and  N9_9 
ROOT
HETATM    1  N9  UNL     1     -34.282  15.975  -4.433  1.00 20.00    -0.220 NA
ENDROOT
BRANCH   1   2
HETATM    2  C1  UNL     1     -33.976  16.245  -3.334  1.00 20.00     0.091 C 
BRANCH   2   3
HETATM    3  N8  UNL     1     -33.650  16.506  -2.237  1.00 20.00    -0.231 NA
BRANCH   3   4
HETATM    4  C6  UNL     1     -34.725  16.409  -1.245  1.00 20.00     0.156 C 
HETATM    5  C2  UNL     1     -34.464  17.405  -0.134  1.00 20.00     0.029 C 
ENDBRANCH   3   4
ENDBRANCH   2   3
ENDBRANCH   1   2
BRANCH   1   6
HETATM    6  C7  UNL     1     -34.720  14.584  -4.615  1.00 20.00     0.053 C 
HETATM    7  C3  UNL     1     -34.814  14.299  -6.113  1.00 20.00     0.041 C 
HETATM    8  C4  UNL     1     -33.680  13.675  -3.959  1.00 20.00     0.041 C 
HETATM    9  C5  UNL     1     -36.081  14.415  -3.942  1.00 20.00     0.041 C 
ENDBRANCH   1   6
TORSDOF 4
ENDMDL
MODEL 6
REMARK VINA RESULT:      -3.3     11.116     12.494
REMARK  4 active torsions:
REMARK  status: ('A' for Active; 'I' for Inactive)
REMARK    1  A    between atoms: C1_1  and  N8_8 
REMARK    2  A    between atoms: C1_1  and  N9_9 
REMARK    3  A    between atoms: C6_6  and  N8_8 
REMARK    4  A    between atoms: C7_7  and  N9_9 
ROOT
HETATM    1  N9  UNL     1     -35.638  15.423  -4.501  1.00 20.00    -0.220 NA
ENDROOT
BRANCH   1   2
HETATM    2  C1  UNL     1     -36.567  14.824  -4.110  1.00 20.00     0.091 C 
BRANCH   2   3
HETATM    3  N8  UNL     1     -37.510  14.238  -3.728  1.00 20.00    -0.231 NA
BRANCH   3   4
HETATM    4  C6  UNL     1     -38.735  15.039  -3.657  1.00 20.00     0.156 C 
HETATM    5  C2  UNL     1     -39.723  14.525  -4.684  1.00 20.00     0.029 C 
ENDBRANCH   3   4
ENDBRANCH   2   3
ENDBRANCH   1   2
BRANCH   1   6
HETATM    6  C7  UNL     1     -34.426  15.260  -3.685  1.00 20.00     0.053 C 
HETATM    7  C3  UNL     1     -34.706  15.816  -2.290  1.00 20.00     0.041 C 
HETATM    8  C4  UNL     1     -34.106  13.766  -3.615  1.00 20.00     0.041 C 
HETATM    9  C5  UNL     1     -33.286  16.023  -4.356  1.00 20.00     0.041 C 
ENDBRANCH   1   6
TORSDOF 4
ENDMDL
MODEL 7
REMARK VINA RESULT:      -3.3     11.589     12.469
REMARK  4 active torsions:
REMARK  status: ('A' for Active; 'I' for Inactive)
REMARK    1  A    between atoms: C1_1  and  N8_8 
REMARK    2  A    between atoms: C1_1  and  N9_9 
REMARK    3  A    between atoms: C6_6  and  N8_8 
REMARK    4  A    between atoms: C7_7  and  N9_9 
ROOT
HETATM    1  N9  UNL     1     -35.439  14.713  -3.405  1.00 20.00    -0.220 NA
ENDROOT
BRANCH   1   2
HETATM    2  C1  UNL     1     -35.198  14.149  -4.405  1.00 20.00     0.091 C 
BRANCH   2   3
HETATM    3  N8  UNL     1     -34.978  13.585  -5.411  1.00 20.00    -0.231 NA
BRANCH   3   4
HETATM    4  C6  UNL     1     -35.426  14.292  -6.613  1.00 20.00     0.156 C 
HETATM    5  C2  UNL     1     -34.294  15.156  -7.131  1.00 20.00     0.029 C 
ENDBRANCH   3   4
ENDBRANCH   2   3
ENDBRANCH   1   2
BRANCH   1   6
HETATM    6  C7  UNL     1     -34.566  15.864  -3.136  1.00 20.00     0.053 C 
HETATM    7  C3  UNL     1     -34.687  16.225  -1.656  1.00 20.00     0.041 C 
HETATM    8  C4  UNL     1     -33.133  15.456  -3.475  1.00 20.00     0.041 C 
HETATM    9  C5  UNL     1     -35.016  17.028  -4.018  1.00 20.00     0.041 C 
ENDBRANCH   1   6
TORSDOF 4
ENDMDL
MODEL 8
REMARK VINA RESULT:      -3.3     11.600     12.461
REMARK  4 active torsions:
REMARK  status: ('A' for Active; 'I' for Inactive)
REMARK    1  A    between atoms: C1_1  and  N8_8 
REMARK    2  A    between atoms: C1_1  and  N9_9 
REMARK    3  A    between atoms: C6_6  and  N8_8 
REMARK    4  A    between atoms: C7_7  and  N9_9 
ROOT
HETATM    1  N9  UNL     1     -35.437  14.734  -3.390  1.00 20.00    -0.220 NA
ENDROOT
BRANCH   1   2
HETATM    2  C1  UNL     1     -35.219  14.174  -4.397  1.00 20.00     0.091 C 
BRANCH   2   3
HETATM    3  N8  UNL     1     -35.018  13.601  -5.401  1.00 20.00    -0.231 NA
BRANCH   3   4
HETATM    4  C6  UNL     1     -35.445  14.318  -6.606  1.00 20.00     0.156 C 
HETATM    5  C2  UNL     1     -34.294  15.163  -7.113  1.00 20.00     0.029 C 
ENDBRANCH   3   4
ENDBRANCH   2   3
ENDBRANCH   1   2
BRANCH   1   6
HETATM    6  C7  UNL     1     -34.551  15.878  -3.131  1.00 20.00     0.053 C 
HETATM    7  C3  UNL     1     -34.987  17.039  -4.024  1.00 20.00     0.041 C 
HETATM    8  C4  UNL     1     -34.689  16.253  -1.655  1.00 20.00     0.041 C 
HETATM    9  C5  UNL     1     -33.116  15.458  -3.446  1.00 20.00     0.041 C 
ENDBRANCH   1   6
TORSDOF 4
ENDMDL
MODEL 9
REMARK VINA RESULT:      -3.3     11.129     12.505
REMARK  4 active torsions:
REMARK  status: ('A' for Active; 'I' for Inactive)
REMARK    1  A    between atoms: C1_1  and  N8_8 
REMARK    2  A    between atoms: C1_1  and  N9_9 
REMARK    3  A    between atoms: C6_6  and  N8_8 
REMARK    4  A    between atoms: C7_7  and  N9_9 
ROOT
HETATM    1  N9  UNL     1     -35.642  15.481  -4.459  1.00 20.00    -0.220 NA
ENDROOT
BRANCH   1   2
HETATM    2  C1  UNL     1     -36.571  14.869  -4.088  1.00 20.00     0.091 C 
BRANCH   2   3
HETATM    3  N8  UNL     1     -37.501  14.247  -3.735  1.00 20.00    -0.231 NA
BRANCH   3   4
HETATM    4  C6  UNL     1     -38.787  14.733  -4.243  1.00 20.00     0.156 C 
HETATM    5  C2  UNL     1     -39.431  15.618  -3.195  1.00 20.00     0.029 C 
ENDBRANCH   3   4
ENDBRANCH   2   3
ENDBRANCH   1   2
BRANCH   1   6
HETATM    6  C7  UNL     1     -34.431  15.292  -3.648  1.00 20.00     0.053 C 
HETATM    7  C3  UNL     1     -34.108  13.799  -3.604  1.00 20.00     0.041 C 
HETATM    8  C4  UNL     1     -33.295  16.069  -4.314  1.00 20.00     0.041 C 
HETATM    9  C5  UNL     1     -34.700  15.832  -2.245  1.00 20.00     0.041 C 
ENDBRANCH   1   6
TORSDOF 4
ENDMDL
