MODEL 1
REMARK VINA RESULT:      -4.8      0.000      0.000
REMARK  3 active torsions:
REMARK  status: ('A' for Active; 'I' for Inactive)
REMARK    1  A    between atoms: C1_1  and  C2_2 
REMARK    2  A    between atoms: C4_4  and  C6_6 
REMARK    3  A    between atoms: C6_6  and  O7_7 
ROOT
HETATM    1  C2  UNL     1     -33.954   6.385   3.760  1.00 20.00    -0.002 C 
HETATM    2  C4  UNL     1     -32.694   6.263   3.317  1.00 20.00    -0.001 C 
ENDROOT
BRANCH   1   3
HETATM    3  C1  UNL     1     -34.873   5.274   3.844  1.00 20.00    -0.005 C 
HETATM    4  C3  UNL     1     -35.198   4.677   5.001  1.00 20.00    -0.031 C 
HETATM    5  C5  UNL     1     -34.651   5.090   6.328  1.00 20.00     0.036 C 
ENDBRANCH   1   3
BRANCH   2   6
HETATM    6  C6  UNL     1     -31.736   7.408   3.230  1.00 20.00     0.191 C 
BRANCH   6   7
HETATM    7  O7  UNL     1     -32.045   8.207   2.095  1.00 20.00    -0.397 OA
HETATM    8  H17 UNL     1     -31.213   8.613   1.804  1.00 20.00     0.209 HD
ENDBRANCH   6   7
ENDBRANCH   2   6
TORSDOF 3
ENDMDL
MODEL 2
REMARK VINA RESULT:      -4.3      2.559      4.425
REMARK  3 active torsions:
REMARK  status: ('A' for Active; 'I' for Inactive)
REMARK    1  A    between atoms: C1_1  and  C2_2 
REMARK    2  A    between atoms: C4_4  and  C6_6 
REMARK    3  A    between atoms: C6_6  and  O7_7 
ROOT
HETATM    1  C2  UNL     1     -33.345   6.122   3.366  1.00 20.00    -0.002 C 
HETATM    2  C4  UNL     1     -34.063   5.694   4.416  1.00 20.00    -0.001 C 
ENDROOT
BRANCH   1   3
HETATM    3  C1  UNL     1     -32.036   6.719   3.494  1.00 20.00    -0.005 C 
HETATM    4  C3  UNL     1     -31.649   7.795   2.792  1.00 20.00    -0.031 C 
HETATM    5  C5  UNL     1     -32.521   8.495   1.803  1.00 20.00     0.036 C 
ENDBRANCH   1   3
BRANCH   2   6
HETATM    6  C6  UNL     1     -35.417   5.072   4.292  1.00 20.00     0.191 C 
BRANCH   6   7
HETATM    7  O7  UNL     1     -35.419   3.798   4.926  1.00 20.00    -0.397 OA
HETATM    8  H17 UNL     1     -34.911   3.894   5.747  1.00 20.00     0.209 HD
ENDBRANCH   6   7
ENDBRANCH   2   6
TORSDOF 3
ENDMDL
MODEL 3
REMARK VINA RESULT:      -4.0      1.335      2.079
REMARK  3 active torsions:
REMARK  status: ('A' for Active; 'I' for Inactive)
REMARK    1  A    between atoms: C1_1  and  C2_2 
REMARK    2  A    between atoms: C4_4  and  C6_6 
REMARK    3  A    between atoms: C6_6  and  O7_7 
ROOT
HETATM    1  C2  UNL     1     -32.668   6.777   2.879  1.00 20.00    -0.002 C 
HETATM    2  C4  UNL     1     -32.113   7.970   2.614  1.00 20.00    -0.001 C 
ENDROOT
BRANCH   1   3
HETATM    3  C1  UNL     1     -32.931   6.308   4.219  1.00 20.00    -0.005 C 
HETATM    4  C3  UNL     1     -34.073   5.699   4.573  1.00 20.00    -0.031 C 
HETATM    5  C5  UNL     1     -35.199   5.438   3.627  1.00 20.00     0.036 C 
ENDBRANCH   1   3
BRANCH   2   6
HETATM    6  C6  UNL     1     -31.841   8.464   1.229  1.00 20.00     0.191 C 
BRANCH   6   7
HETATM    7  O7  UNL     1     -32.296   9.805   1.101  1.00 20.00    -0.397 OA
HETATM    8  H17 UNL     1     -33.261   9.784   1.207  1.00 20.00     0.209 HD
ENDBRANCH   6   7
ENDBRANCH   2   6
TORSDOF 3
ENDMDL
MODEL 4
REMARK VINA RESULT:      -3.9      2.609      4.302
REMARK  3 active torsions:
REMARK  status: ('A' for Active; 'I' for Inactive)
REMARK    1  A    between atoms: C1_1  and  C2_2 
REMARK    2  A    between atoms: C4_4  and  C6_6 
REMARK    3  A    between atoms: C6_6  and  O7_7 
ROOT
HETATM    1  C2  UNL     1     -33.460   6.141   4.139  1.00 20.00    -0.002 C 
HETATM    2  C4  UNL     1     -34.602   5.454   4.291  1.00 20.00    -0.001 C 
ENDROOT
BRANCH   1   3
HETATM    3  C1  UNL     1     -33.027   6.685   2.873  1.00 20.00    -0.005 C 
HETATM    4  C3  UNL     1     -31.973   7.506   2.749  1.00 20.00    -0.031 C 
HETATM    5  C5  UNL     1     -31.130   7.950   3.899  1.00 20.00     0.036 C 
ENDBRANCH   1   3
BRANCH   2   6
HETATM    6  C6  UNL     1     -35.059   4.891   5.599  1.00 20.00     0.191 C 
BRANCH   6   7
HETATM    7  O7  UNL     1     -35.467   3.540   5.423  1.00 20.00    -0.397 OA
HETATM    8  H17 UNL     1     -34.788   2.987   5.840  1.00 20.00     0.209 HD
ENDBRANCH   6   7
ENDBRANCH   2   6
TORSDOF 3
ENDMDL
MODEL 5
REMARK VINA RESULT:      -3.9     11.457     11.864
REMARK  3 active torsions:
REMARK  status: ('A' for Active; 'I' for Inactive)
REMARK    1  A    between atoms: C1_1  and  C2_2 
REMARK    2  A    between atoms: C4_4  and  C6_6 
REMARK    3  A    between atoms: C6_6  and  O7_7 
ROOT
HETATM    1  C2  UNL     1     -34.772  15.670  -2.622  1.00 20.00    -0.002 C 
HETATM    2  C4  UNL     1     -34.659  14.888  -3.707  1.00 20.00    -0.001 C 
ENDROOT
BRANCH   1   3
HETATM    3  C1  UNL     1     -33.754  16.611  -2.217  1.00 20.00    -0.005 C 
HETATM    4  C3  UNL     1     -33.792  17.278  -1.054  1.00 20.00    -0.031 C 
HETATM    5  C5  UNL     1     -34.886  17.126  -0.049  1.00 20.00     0.036 C 
ENDBRANCH   1   3
BRANCH   2   6
HETATM    6  C6  UNL     1     -35.711  13.914  -4.135  1.00 20.00     0.191 C 
BRANCH   6   7
HETATM    7  O7  UNL     1     -35.166  12.601  -4.159  1.00 20.00    -0.397 OA
HETATM    8  H17 UNL     1     -34.224  12.685  -3.943  1.00 20.00     0.209 HD
ENDBRANCH   6   7
ENDBRANCH   2   6
TORSDOF 3
ENDMDL
MODEL 6
REMARK VINA RESULT:      -3.7     11.670     12.059
REMARK  3 active torsions:
REMARK  status: ('A' for Active; 'I' for Inactive)
REMARK    1  A    between atoms: C1_1  and  C2_2 
REMARK    2  A    between atoms: C4_4  and  C6_6 
REMARK    3  A    between atoms: C6_6  and  O7_7 
ROOT
HETATM    1  C2  UNL     1     -33.922  16.623  -1.940  1.00 20.00    -0.002 C 
HETATM    2  C4  UNL     1     -33.953  15.625  -2.836  1.00 20.00    -0.001 C 
ENDROOT
BRANCH   1   3
HETATM    3  C1  UNL     1     -34.778  16.668  -0.777  1.00 20.00    -0.005 C 
HETATM    4  C3  UNL     1     -34.572  17.503   0.253  1.00 20.00    -0.031 C 
HETATM    5  C5  UNL     1     -33.441  18.475   0.318  1.00 20.00     0.036 C 
ENDBRANCH   1   3
BRANCH   2   6
HETATM    6  C6  UNL     1     -33.067  15.569  -4.040  1.00 20.00     0.191 C 
BRANCH   6   7
HETATM    7  O7  UNL     1     -31.960  14.716  -3.782  1.00 20.00    -0.397 OA
HETATM    8  H17 UNL     1     -31.170  15.176  -4.108  1.00 20.00     0.209 HD
ENDBRANCH   6   7
ENDBRANCH   2   6
TORSDOF 3
ENDMDL
MODEL 7
REMARK VINA RESULT:      -3.6     11.219     12.161
REMARK  3 active torsions:
REMARK  status: ('A' for Active; 'I' for Inactive)
REMARK    1  A    between atoms: C1_1  and  C2_2 
REMARK    2  A    between atoms: C4_4  and  C6_6 
REMARK    3  A    between atoms: C6_6  and  O7_7 
ROOT
HETATM    1  C2  UNL     1     -34.887  15.613  -2.728  1.00 20.00    -0.002 C 
HETATM    2  C4  UNL     1     -34.211  14.562  -3.217  1.00 20.00    -0.001 C 
ENDROOT
BRANCH   1   3
HETATM    3  C1  UNL     1     -34.529  16.280  -1.497  1.00 20.00    -0.005 C 
HETATM    4  C3  UNL     1     -34.005  17.514  -1.457  1.00 20.00    -0.031 C 
HETATM    5  C5  UNL     1     -33.732  18.337  -2.673  1.00 20.00     0.036 C 
ENDBRANCH   1   3
BRANCH   2   6
HETATM    6  C6  UNL     1     -34.573  13.869  -4.492  1.00 20.00     0.191 C 
BRANCH   6   7
HETATM    7  O7  UNL     1     -35.172  12.612  -4.201  1.00 20.00    -0.397 OA
HETATM    8  H17 UNL     1     -35.159  12.100  -5.024  1.00 20.00     0.209 HD
ENDBRANCH   6   7
ENDBRANCH   2   6
TORSDOF 3
ENDMDL
MODEL 8
REMARK VINA RESULT:      -3.4     11.860     12.162
REMARK  3 active torsions:
REMARK  status: ('A' for Active; 'I' for Inactive)
REMARK    1  A    between atoms: C1_1  and  C2_2 
REMARK    2  A    between atoms: C4_4  and  C6_6 
REMARK    3  A    between atoms: C6_6  and  O7_7 
ROOT
HETATM    1  C2  UNL     1     -35.106  15.861  -2.291  1.00 20.00    -0.002 C 
HETATM    2  C4  UNL     1     -35.287  15.359  -3.521  1.00 20.00    -0.001 C 
ENDROOT
BRANCH   1   3
HETATM    3  C1  UNL     1     -33.965  16.669  -1.927  1.00 20.00    -0.005 C 
HETATM    4  C3  UNL     1     -33.884  17.346  -0.770  1.00 20.00    -0.031 C 
HETATM    5  C5  UNL     1     -34.957  17.341   0.268  1.00 20.00     0.036 C 
ENDBRANCH   1   3
BRANCH   2   6
HETATM    6  C6  UNL     1     -36.467  14.525  -3.907  1.00 20.00     0.191 C 
BRANCH   6   7
HETATM    7  O7  UNL     1     -37.569  14.835  -3.063  1.00 20.00    -0.397 OA
HETATM    8  H17 UNL     1     -38.361  14.479  -3.496  1.00 20.00     0.209 HD
ENDBRANCH   6   7
ENDBRANCH   2   6
TORSDOF 3
ENDMDL
MODEL 9
REMARK VINA RESULT:      -3.4     11.266     12.051
REMARK  3 active torsions:
REMARK  status: ('A' for Active; 'I' for Inactive)
REMARK    1  A    between atoms: C1_1  and  C2_2 
REMARK    2  A    between atoms: C4_4  and  C6_6 
REMARK    3  A    between atoms: C6_6  and  O7_7 
ROOT
HETATM    1  C2  UNL     1     -34.115  14.668  -3.340  1.00 20.00    -0.002 C 
HETATM    2  C4  UNL     1     -34.861  15.416  -2.512  1.00 20.00    -0.001 C 
ENDROOT
BRANCH   1   3
HETATM    3  C1  UNL     1     -34.652  13.578  -4.121  1.00 20.00    -0.005 C 
HETATM    4  C3  UNL     1     -34.846  13.651  -5.447  1.00 20.00    -0.031 C 
HETATM    5  C5  UNL     1     -34.531  14.861  -6.263  1.00 20.00     0.036 C 
ENDBRANCH   1   3
BRANCH   2   6
HETATM    6  C6  UNL     1     -34.313  16.548  -1.703  1.00 20.00     0.191 C 
BRANCH   6   7
HETATM    7  O7  UNL     1     -34.923  16.559  -0.419  1.00 20.00    -0.397 OA
HETATM    8  H17 UNL     1     -34.224  16.363   0.224  1.00 20.00     0.209 HD
ENDBRANCH   6   7
ENDBRANCH   2   6
TORSDOF 3
ENDMDL
