MODEL 1
REMARK VINA RESULT:      -4.8      0.000      0.000
REMARK  2 active torsions:
REMARK  status: ('A' for Active; 'I' for Inactive)
REMARK    1  A    between atoms: C1_1  and  C3_3 
REMARK    2  A    between atoms: C2_2  and  C5_5 
ROOT
HETATM    1  C1  UNL     1     -34.869   5.350   3.694  1.00 20.00     0.003 C 
HETATM    2  C2  UNL     1     -35.193   4.576   4.738  1.00 20.00     0.041 C 
ENDROOT
BRANCH   1   3
HETATM    3  C3  UNL     1     -33.882   6.403   3.780  1.00 20.00    -0.004 C 
HETATM    4  C4  UNL     1     -32.694   6.347   3.162  1.00 20.00    -0.031 C 
HETATM    5  C6  UNL     1     -31.666   7.428   3.243  1.00 20.00     0.036 C 
ENDBRANCH   1   3
BRANCH   2   6
HETATM    6  C5  UNL     1     -34.520   4.802   6.033  1.00 20.00     0.258 C 
HETATM    7  O7  UNL     1     -34.774   5.774   6.733  1.00 20.00    -0.302 OA
ENDBRANCH   2   6
TORSDOF 2
ENDMDL
MODEL 2
REMARK VINA RESULT:      -4.5      1.469      1.801
REMARK  2 active torsions:
REMARK  status: ('A' for Active; 'I' for Inactive)
REMARK    1  A    between atoms: C1_1  and  C3_3 
REMARK    2  A    between atoms: C2_2  and  C5_5 
ROOT
HETATM    1  C1  UNL     1     -33.904   6.356   5.841  1.00 20.00     0.003 C 
HETATM    2  C2  UNL     1     -34.659   5.305   6.186  1.00 20.00     0.041 C 
ENDROOT
BRANCH   1   3
HETATM    3  C3  UNL     1     -33.704   6.756   4.467  1.00 20.00    -0.004 C 
HETATM    4  C4  UNL     1     -32.501   6.784   3.878  1.00 20.00    -0.031 C 
HETATM    5  C6  UNL     1     -32.281   7.196   2.459  1.00 20.00     0.036 C 
ENDBRANCH   1   3
BRANCH   2   6
HETATM    6  C5  UNL     1     -35.318   4.518   5.125  1.00 20.00     0.258 C 
HETATM    7  O7  UNL     1     -35.015   3.352   4.901  1.00 20.00    -0.302 OA
ENDBRANCH   2   6
TORSDOF 2
ENDMDL
MODEL 3
REMARK VINA RESULT:      -4.2      2.077      3.753
REMARK  2 active torsions:
REMARK  status: ('A' for Active; 'I' for Inactive)
REMARK    1  A    between atoms: C1_1  and  C3_3 
REMARK    2  A    between atoms: C2_2  and  C5_5 
ROOT
HETATM    1  C1  UNL     1     -34.285   5.486   3.004  1.00 20.00     0.003 C 
HETATM    2  C2  UNL     1     -33.127   5.978   2.546  1.00 20.00     0.041 C 
ENDROOT
BRANCH   1   3
HETATM    3  C3  UNL     1     -34.665   5.551   4.398  1.00 20.00    -0.004 C 
HETATM    4  C4  UNL     1     -34.831   4.464   5.164  1.00 20.00    -0.031 C 
HETATM    5  C6  UNL     1     -35.224   4.518   6.605  1.00 20.00     0.036 C 
ENDBRANCH   1   3
BRANCH   2   6
HETATM    6  C5  UNL     1     -32.194   6.613   3.498  1.00 20.00     0.258 C 
HETATM    7  O7  UNL     1     -31.672   7.697   3.267  1.00 20.00    -0.302 OA
ENDBRANCH   2   6
TORSDOF 2
ENDMDL
MODEL 4
REMARK VINA RESULT:      -4.1      2.393      3.037
REMARK  2 active torsions:
REMARK  status: ('A' for Active; 'I' for Inactive)
REMARK    1  A    between atoms: C1_1  and  C3_3 
REMARK    2  A    between atoms: C2_2  and  C5_5 
ROOT
HETATM    1  C1  UNL     1     -34.954   4.274   5.865  1.00 20.00     0.003 C 
HETATM    2  C2  UNL     1     -35.092   4.137   4.540  1.00 20.00     0.041 C 
ENDROOT
BRANCH   1   3
HETATM    3  C3  UNL     1     -34.753   5.557   6.501  1.00 20.00    -0.004 C 
HETATM    4  C4  UNL     1     -33.637   6.284   6.350  1.00 20.00    -0.031 C 
HETATM    5  C6  UNL     1     -33.417   7.610   7.002  1.00 20.00     0.036 C 
ENDBRANCH   1   3
BRANCH   2   6
HETATM    6  C5  UNL     1     -35.036   5.341   3.687  1.00 20.00     0.258 C 
HETATM    7  O7  UNL     1     -34.122   5.531   2.894  1.00 20.00    -0.302 OA
ENDBRANCH   2   6
TORSDOF 2
ENDMDL
MODEL 5
REMARK VINA RESULT:      -4.1      1.766      2.510
REMARK  2 active torsions:
REMARK  status: ('A' for Active; 'I' for Inactive)
REMARK    1  A    between atoms: C1_1  and  C3_3 
REMARK    2  A    between atoms: C2_2  and  C5_5 
ROOT
HETATM    1  C1  UNL     1     -32.622   6.605   4.007  1.00 20.00     0.003 C 
HETATM    2  C2  UNL     1     -33.656   5.866   4.427  1.00 20.00     0.041 C 
ENDROOT
BRANCH   1   3
HETATM    3  C3  UNL     1     -32.476   7.036   2.635  1.00 20.00    -0.004 C 
HETATM    4  C4  UNL     1     -32.072   8.267   2.291  1.00 20.00    -0.031 C 
HETATM    5  C6  UNL     1     -31.918   8.724   0.876  1.00 20.00     0.036 C 
ENDBRANCH   1   3
BRANCH   2   6
HETATM    6  C5  UNL     1     -34.693   5.469   3.454  1.00 20.00     0.258 C 
HETATM    7  O7  UNL     1     -35.882   5.452   3.746  1.00 20.00    -0.302 OA
ENDBRANCH   2   6
TORSDOF 2
ENDMDL
MODEL 6
REMARK VINA RESULT:      -4.1     11.684     12.327
REMARK  2 active torsions:
REMARK  status: ('A' for Active; 'I' for Inactive)
REMARK    1  A    between atoms: C1_1  and  C3_3 
REMARK    2  A    between atoms: C2_2  and  C5_5 
ROOT
HETATM    1  C1  UNL     1     -33.536  15.707  -3.271  1.00 20.00     0.003 C 
HETATM    2  C2  UNL     1     -33.746  14.670  -4.091  1.00 20.00     0.041 C 
ENDROOT
BRANCH   1   3
HETATM    3  C3  UNL     1     -34.372  15.977  -2.123  1.00 20.00    -0.004 C 
HETATM    4  C4  UNL     1     -34.067  16.891  -1.191  1.00 20.00    -0.031 C 
HETATM    5  C6  UNL     1     -34.923  17.178  -0.001  1.00 20.00     0.036 C 
ENDBRANCH   1   3
BRANCH   2   6
HETATM    6  C5  UNL     1     -34.877  13.761  -3.819  1.00 20.00     0.258 C 
HETATM    7  O7  UNL     1     -34.999  12.688  -4.397  1.00 20.00    -0.302 OA
ENDBRANCH   2   6
TORSDOF 2
ENDMDL
MODEL 7
REMARK VINA RESULT:      -4.1      2.740      4.540
REMARK  2 active torsions:
REMARK  status: ('A' for Active; 'I' for Inactive)
REMARK    1  A    between atoms: C1_1  and  C3_3 
REMARK    2  A    between atoms: C2_2  and  C5_5 
ROOT
HETATM    1  C1  UNL     1     -32.037   6.844   3.517  1.00 20.00     0.003 C 
HETATM    2  C2  UNL     1     -31.549   7.867   2.806  1.00 20.00     0.041 C 
ENDROOT
BRANCH   1   3
HETATM    3  C3  UNL     1     -33.369   6.318   3.319  1.00 20.00    -0.004 C 
HETATM    4  C4  UNL     1     -34.085   5.743   4.295  1.00 20.00    -0.031 C 
HETATM    5  C6  UNL     1     -35.461   5.196   4.102  1.00 20.00     0.036 C 
ENDBRANCH   1   3
BRANCH   2   6
HETATM    6  C5  UNL     1     -32.402   8.492   1.774  1.00 20.00     0.258 C 
HETATM    7  O7  UNL     1     -32.548   9.705   1.703  1.00 20.00    -0.302 OA
ENDBRANCH   2   6
TORSDOF 2
ENDMDL
MODEL 8
REMARK VINA RESULT:      -3.7     12.501     12.908
REMARK  2 active torsions:
REMARK  status: ('A' for Active; 'I' for Inactive)
REMARK    1  A    between atoms: C1_1  and  C3_3 
REMARK    2  A    between atoms: C2_2  and  C5_5 
ROOT
HETATM    1  C1  UNL     1     -34.864  15.539  -2.379  1.00 20.00     0.003 C 
HETATM    2  C2  UNL     1     -34.265  14.993  -3.445  1.00 20.00     0.041 C 
ENDROOT
BRANCH   1   3
HETATM    3  C3  UNL     1     -34.253  16.587  -1.592  1.00 20.00    -0.004 C 
HETATM    4  C4  UNL     1     -34.720  16.974  -0.397  1.00 20.00    -0.031 C 
HETATM    5  C6  UNL     1     -34.098  18.055   0.425  1.00 20.00     0.036 C 
ENDBRANCH   1   3
BRANCH   2   6
HETATM    6  C5  UNL     1     -32.926  15.475  -3.839  1.00 20.00     0.258 C 
HETATM    7  O7  UNL     1     -32.764  16.244  -4.777  1.00 20.00    -0.302 OA
ENDBRANCH   2   6
TORSDOF 2
ENDMDL
MODEL 9
REMARK VINA RESULT:      -3.7     12.541     13.350
REMARK  2 active torsions:
REMARK  status: ('A' for Active; 'I' for Inactive)
REMARK    1  A    between atoms: C1_1  and  C3_3 
REMARK    2  A    between atoms: C2_2  and  C5_5 
ROOT
HETATM    1  C1  UNL     1     -34.230  17.648   0.008  1.00 20.00     0.003 C 
HETATM    2  C2  UNL     1     -33.554  18.688   0.509  1.00 20.00     0.041 C 
ENDROOT
BRANCH   1   3
HETATM    3  C3  UNL     1     -33.906  17.045  -1.265  1.00 20.00    -0.004 C 
HETATM    4  C4  UNL     1     -34.620  16.050  -1.810  1.00 20.00    -0.031 C 
HETATM    5  C6  UNL     1     -34.295  15.419  -3.124  1.00 20.00     0.036 C 
ENDBRANCH   1   3
BRANCH   2   6
HETATM    6  C5  UNL     1     -32.429  19.250  -0.265  1.00 20.00     0.258 C 
HETATM    7  O7  UNL     1     -31.285  19.263   0.171  1.00 20.00    -0.302 OA
ENDBRANCH   2   6
TORSDOF 2
ENDMDL
