MODEL 1
REMARK VINA RESULT:      -4.4      0.000      0.000
REMARK  0 active torsions:
REMARK  status: ('A' for Active; 'I' for Inactive)
ROOT
HETATM    1  C1  UNL     1     -34.701  13.547  -4.234  1.00 20.00     0.129 C 
HETATM    2  C2  UNL     1     -35.883  14.420  -3.839  1.00 20.00     0.093 C 
HETATM    3  C3  UNL     1     -33.324  13.897  -3.690  1.00 20.00     0.093 C 
HETATM    4  C4  UNL     1     -34.854  16.435  -4.998  1.00 20.00     0.017 C 
HETATM    5  C5  UNL     1     -33.348  16.127  -4.911  1.00 20.00     0.017 C 
HETATM    6  C6  UNL     1     -35.553  15.910  -3.740  1.00 20.00     0.054 C 
HETATM    7  C7  UNL     1     -33.055  15.400  -3.595  1.00 20.00     0.054 C 
HETATM    8  O8  UNL     1     -34.873  12.517  -4.889  1.00 20.00    -0.298 OA
HETATM    9  S9  UNL     1     -34.273  16.138  -2.487  1.00 20.00    -0.159 SA
ENDROOT
TORSDOF 0
ENDMDL
MODEL 2
REMARK VINA RESULT:      -4.4      1.176      2.285
REMARK  0 active torsions:
REMARK  status: ('A' for Active; 'I' for Inactive)
ROOT
HETATM    1  C1  UNL     1     -34.609  13.652  -4.544  1.00 20.00     0.129 C 
HETATM    2  C2  UNL     1     -33.326  14.028  -3.816  1.00 20.00     0.093 C 
HETATM    3  C3  UNL     1     -35.274  14.693  -5.432  1.00 20.00     0.093 C 
HETATM    4  C4  UNL     1     -34.542  15.820  -2.485  1.00 20.00     0.017 C 
HETATM    5  C5  UNL     1     -35.688  16.211  -3.436  1.00 20.00     0.017 C 
HETATM    6  C6  UNL     1     -33.298  15.470  -3.307  1.00 20.00     0.054 C 
HETATM    7  C7  UNL     1     -35.199  16.119  -4.884  1.00 20.00     0.054 C 
HETATM    8  O8  UNL     1     -35.039  12.497  -4.502  1.00 20.00    -0.298 OA
HETATM    9  S9  UNL     1     -33.464  16.586  -4.717  1.00 20.00    -0.159 SA
ENDROOT
TORSDOF 0
ENDMDL
MODEL 3
REMARK VINA RESULT:      -4.2      1.553      1.853
REMARK  0 active torsions:
REMARK  status: ('A' for Active; 'I' for Inactive)
ROOT
HETATM    1  C1  UNL     1     -33.643  13.817  -3.876  1.00 20.00     0.129 C 
HETATM    2  C2  UNL     1     -35.009  13.401  -4.403  1.00 20.00     0.093 C 
HETATM    3  C3  UNL     1     -33.415  15.278  -3.517  1.00 20.00     0.093 C 
HETATM    4  C4  UNL     1     -34.731  14.882  -6.450  1.00 20.00     0.017 C 
HETATM    5  C5  UNL     1     -33.792  15.986  -5.929  1.00 20.00     0.017 C 
HETATM    6  C6  UNL     1     -35.664  14.435  -5.321  1.00 20.00     0.054 C 
HETATM    7  C7  UNL     1     -34.107  16.266  -4.456  1.00 20.00     0.054 C 
HETATM    8  O8  UNL     1     -32.777  12.971  -3.641  1.00 20.00    -0.298 OA
HETATM    9  S9  UNL     1     -35.887  15.971  -4.398  1.00 20.00    -0.159 SA
ENDROOT
TORSDOF 0
ENDMDL
MODEL 4
REMARK VINA RESULT:      -4.2      1.284      2.129
REMARK  0 active torsions:
REMARK  status: ('A' for Active; 'I' for Inactive)
ROOT
HETATM    1  C1  UNL     1     -35.049  13.744  -4.797  1.00 20.00     0.129 C 
HETATM    2  C2  UNL     1     -34.453  14.591  -5.912  1.00 20.00     0.093 C 
HETATM    3  C3  UNL     1     -35.925  14.423  -3.755  1.00 20.00     0.093 C 
HETATM    4  C4  UNL     1     -33.110  15.951  -4.236  1.00 20.00     0.017 C 
HETATM    5  C5  UNL     1     -33.976  15.851  -2.966  1.00 20.00     0.017 C 
HETATM    6  C6  UNL     1     -34.019  15.989  -5.468  1.00 20.00     0.054 C 
HETATM    7  C7  UNL     1     -35.455  15.824  -3.362  1.00 20.00     0.054 C 
HETATM    8  O8  UNL     1     -34.915  12.518  -4.801  1.00 20.00    -0.298 OA
HETATM    9  S9  UNL     1     -35.462  16.870  -4.833  1.00 20.00    -0.159 SA
ENDROOT
TORSDOF 0
ENDMDL
MODEL 5
REMARK VINA RESULT:      -4.2      1.570      2.569
REMARK  0 active torsions:
REMARK  status: ('A' for Active; 'I' for Inactive)
ROOT
HETATM    1  C1  UNL     1     -33.727  14.280  -3.799  1.00 20.00     0.129 C 
HETATM    2  C2  UNL     1     -33.010  15.538  -4.267  1.00 20.00     0.093 C 
HETATM    3  C3  UNL     1     -35.237  14.327  -3.618  1.00 20.00     0.093 C 
HETATM    4  C4  UNL     1     -33.708  16.786  -2.166  1.00 20.00     0.017 C 
HETATM    5  C5  UNL     1     -35.018  16.073  -1.783  1.00 20.00     0.017 C 
HETATM    6  C6  UNL     1     -33.583  16.834  -3.692  1.00 20.00     0.054 C 
HETATM    7  C7  UNL     1     -35.757  15.652  -3.057  1.00 20.00     0.054 C 
HETATM    8  O8  UNL     1     -33.114  13.218  -3.674  1.00 20.00    -0.298 OA
HETATM    9  S9  UNL     1     -35.311  16.979  -4.197  1.00 20.00    -0.159 SA
ENDROOT
TORSDOF 0
ENDMDL
MODEL 6
REMARK VINA RESULT:      -4.1      1.954      2.695
REMARK  0 active torsions:
REMARK  status: ('A' for Active; 'I' for Inactive)
ROOT
HETATM    1  C1  UNL     1     -36.851  14.742  -4.029  1.00 20.00     0.129 C 
HETATM    2  C2  UNL     1     -36.454  14.729  -5.498  1.00 20.00     0.093 C 
HETATM    3  C3  UNL     1     -35.920  15.412  -3.029  1.00 20.00     0.093 C 
HETATM    4  C4  UNL     1     -34.394  13.330  -4.986  1.00 20.00     0.017 C 
HETATM    5  C5  UNL     1     -34.081  13.731  -3.533  1.00 20.00     0.017 C 
HETATM    6  C6  UNL     1     -34.955  14.541  -5.737  1.00 20.00     0.054 C 
HETATM    7  C7  UNL     1     -34.434  15.207  -3.327  1.00 20.00     0.054 C 
HETATM    8  O8  UNL     1     -37.953  14.318  -3.673  1.00 20.00    -0.298 OA
HETATM    9  S9  UNL     1     -34.068  15.903  -4.951  1.00 20.00    -0.159 SA
ENDROOT
TORSDOF 0
ENDMDL
MODEL 7
REMARK VINA RESULT:      -4.0      2.212      2.865
REMARK  0 active torsions:
REMARK  status: ('A' for Active; 'I' for Inactive)
ROOT
HETATM    1  C1  UNL     1     -34.725  16.034  -2.209  1.00 20.00     0.129 C 
HETATM    2  C2  UNL     1     -35.959  15.654  -3.015  1.00 20.00     0.093 C 
HETATM    3  C3  UNL     1     -33.429  16.317  -2.952  1.00 20.00     0.093 C 
HETATM    4  C4  UNL     1     -34.827  13.538  -3.853  1.00 20.00     0.017 C 
HETATM    5  C5  UNL     1     -33.338  13.928  -3.815  1.00 20.00     0.017 C 
HETATM    6  C6  UNL     1     -35.664  14.766  -4.225  1.00 20.00     0.054 C 
HETATM    7  C7  UNL     1     -33.194  15.412  -4.163  1.00 20.00     0.054 C 
HETATM    8  O8  UNL     1     -34.802  16.216  -0.991  1.00 20.00    -0.298 OA
HETATM    9  S9  UNL     1     -34.547  15.649  -5.334  1.00 20.00    -0.159 SA
ENDROOT
TORSDOF 0
ENDMDL
MODEL 8
REMARK VINA RESULT:      -4.0      1.657      1.998
REMARK  0 active torsions:
REMARK  status: ('A' for Active; 'I' for Inactive)
ROOT
HETATM    1  C1  UNL     1     -36.402  14.470  -3.826  1.00 20.00     0.129 C 
HETATM    2  C2  UNL     1     -35.915  15.808  -3.289  1.00 20.00     0.093 C 
HETATM    3  C3  UNL     1     -35.369  13.436  -4.248  1.00 20.00     0.093 C 
HETATM    4  C4  UNL     1     -34.819  16.367  -5.513  1.00 20.00     0.017 C 
HETATM    5  C5  UNL     1     -34.499  14.971  -6.078  1.00 20.00     0.017 C 
HETATM    6  C6  UNL     1     -34.665  16.345  -3.989  1.00 20.00     0.054 C 
HETATM    7  C7  UNL     1     -34.133  14.029  -4.927  1.00 20.00     0.054 C 
HETATM    8  O8  UNL     1     -37.603  14.190  -3.817  1.00 20.00    -0.298 OA
HETATM    9  S9  UNL     1     -33.324  15.156  -3.773  1.00 20.00    -0.159 SA
ENDROOT
TORSDOF 0
ENDMDL
MODEL 9
REMARK VINA RESULT:      -4.0      2.383      3.038
REMARK  0 active torsions:
REMARK  status: ('A' for Active; 'I' for Inactive)
ROOT
HETATM    1  C1  UNL     1     -33.501  16.216  -5.040  1.00 20.00     0.129 C 
HETATM    2  C2  UNL     1     -34.216  15.554  -6.209  1.00 20.00     0.093 C 
HETATM    3  C3  UNL     1     -33.242  15.395  -3.786  1.00 20.00     0.093 C 
HETATM    4  C4  UNL     1     -36.311  15.218  -4.808  1.00 20.00     0.017 C 
HETATM    5  C5  UNL     1     -35.738  15.125  -3.382  1.00 20.00     0.017 C 
HETATM    6  C6  UNL     1     -35.324  14.584  -5.794  1.00 20.00     0.054 C 
HETATM    7  C7  UNL     1     -34.374  14.430  -3.428  1.00 20.00     0.054 C 
HETATM    8  O8  UNL     1     -33.043  17.356  -5.149  1.00 20.00    -0.298 OA
HETATM    9  S9  UNL     1     -34.598  13.269  -4.792  1.00 20.00    -0.159 SA
ENDROOT
TORSDOF 0
ENDMDL
