MODEL 1
REMARK VINA RESULT:      -4.8      0.000      0.000
REMARK  1 active torsions:
REMARK  status: ('A' for Active; 'I' for Inactive)
REMARK    1  A    between atoms: C6_6  and  C10_10 
ROOT
HETATM    1  C1  UNL     1     -34.711  14.525  -3.032  1.00 20.00     0.053 C 
HETATM    2  C2  UNL     1     -34.886  15.821  -2.729  1.00 20.00    -0.080 C 
HETATM    3  C3  UNL     1     -35.078  14.000  -4.373  1.00 20.00     0.154 C 
HETATM    4  C4  UNL     1     -35.394  16.833  -3.723  1.00 20.00     0.034 C 
HETATM    5  C5  UNL     1     -35.264  16.358  -5.169  1.00 20.00     0.017 C 
HETATM    6  C6  UNL     1     -35.797  14.936  -5.336  1.00 20.00     0.063 C 
HETATM    7  C7  UNL     1     -34.581  16.349  -1.357  1.00 20.00     0.043 C 
HETATM    8  O11 UNL     1     -34.850  12.821  -4.635  1.00 20.00    -0.293 OA
ENDROOT
BRANCH   6   9
HETATM    9  C10 UNL     1     -35.637  14.469  -6.780  1.00 20.00    -0.011 C 
HETATM   10  C8  UNL     1     -36.831  14.912  -7.624  1.00 20.00     0.010 C 
HETATM   11  C9  UNL     1     -34.333  14.999  -7.375  1.00 20.00     0.010 C 
ENDBRANCH   6   9
TORSDOF 1
ENDMDL
MODEL 2
REMARK VINA RESULT:      -4.5      2.494      3.661
REMARK  1 active torsions:
REMARK  status: ('A' for Active; 'I' for Inactive)
REMARK    1  A    between atoms: C6_6  and  C10_10 
ROOT
HETATM    1  C1  UNL     1     -33.656  18.341  -2.625  1.00 20.00     0.053 C 
HETATM    2  C2  UNL     1     -33.971  18.145  -1.335  1.00 20.00    -0.080 C 
HETATM    3  C3  UNL     1     -33.672  17.213  -3.592  1.00 20.00     0.154 C 
HETATM    4  C4  UNL     1     -34.418  16.812  -0.794  1.00 20.00     0.034 C 
HETATM    5  C5  UNL     1     -34.895  15.859  -1.889  1.00 20.00     0.017 C 
HETATM    6  C6  UNL     1     -33.903  15.808  -3.050  1.00 20.00     0.063 C 
HETATM    7  C7  UNL     1     -33.896  19.263  -0.336  1.00 20.00     0.043 C 
HETATM    8  O11 UNL     1     -33.435  17.439  -4.777  1.00 20.00    -0.293 OA
ENDROOT
BRANCH   6   9
HETATM    9  C10 UNL     1     -34.407  14.872  -4.145  1.00 20.00    -0.011 C 
HETATM   10  C8  UNL     1     -33.668  13.536  -4.093  1.00 20.00     0.010 C 
HETATM   11  C9  UNL     1     -35.914  14.656  -4.016  1.00 20.00     0.010 C 
ENDBRANCH   6   9
TORSDOF 1
ENDMDL
MODEL 3
REMARK VINA RESULT:      -4.4      1.701      1.910
REMARK  1 active torsions:
REMARK  status: ('A' for Active; 'I' for Inactive)
REMARK    1  A    between atoms: C6_6  and  C10_10 
ROOT
HETATM    1  C1  UNL     1     -33.478  16.200  -2.796  1.00 20.00     0.053 C 
HETATM    2  C2  UNL     1     -34.673  16.249  -2.188  1.00 20.00    -0.080 C 
HETATM    3  C3  UNL     1     -33.362  15.779  -4.216  1.00 20.00     0.154 C 
HETATM    4  C4  UNL     1     -35.967  15.951  -2.899  1.00 20.00     0.034 C 
HETATM    5  C5  UNL     1     -35.837  16.029  -4.420  1.00 20.00     0.017 C 
HETATM    6  C6  UNL     1     -34.614  15.258  -4.912  1.00 20.00     0.063 C 
HETATM    7  C7  UNL     1     -34.795  16.610  -0.735  1.00 20.00     0.043 C 
HETATM    8  O11 UNL     1     -32.259  15.802  -4.758  1.00 20.00    -0.293 OA
ENDROOT
BRANCH   6   9
HETATM    9  C10 UNL     1     -34.486  15.368  -6.429  1.00 20.00    -0.011 C 
HETATM   10  C8  UNL     1     -35.405  14.363  -7.120  1.00 20.00     0.010 C 
HETATM   11  C9  UNL     1     -34.798  16.790  -6.894  1.00 20.00     0.010 C 
ENDBRANCH   6   9
TORSDOF 1
ENDMDL
MODEL 4
REMARK VINA RESULT:      -4.4      2.248      4.743
REMARK  1 active torsions:
REMARK  status: ('A' for Active; 'I' for Inactive)
REMARK    1  A    between atoms: C6_6  and  C10_10 
ROOT
HETATM    1  C1  UNL     1     -35.992  15.046  -4.102  1.00 20.00     0.053 C 
HETATM    2  C2  UNL     1     -34.877  14.329  -4.311  1.00 20.00    -0.080 C 
HETATM    3  C3  UNL     1     -36.062  16.040  -2.999  1.00 20.00     0.154 C 
HETATM    4  C4  UNL     1     -33.617  14.519  -3.506  1.00 20.00     0.034 C 
HETATM    5  C5  UNL     1     -33.584  15.856  -2.768  1.00 20.00     0.017 C 
HETATM    6  C6  UNL     1     -34.894  16.111  -2.024  1.00 20.00     0.063 C 
HETATM    7  C7  UNL     1     -34.817  13.276  -5.380  1.00 20.00     0.043 C 
HETATM    8  O11 UNL     1     -37.078  16.721  -2.873  1.00 20.00    -0.293 OA
ENDROOT
BRANCH   6   9
HETATM    9  C10 UNL     1     -34.852  17.460  -1.313  1.00 20.00    -0.011 C 
HETATM   10  C8  UNL     1     -34.900  17.272   0.203  1.00 20.00     0.010 C 
HETATM   11  C9  UNL     1     -33.603  18.243  -1.716  1.00 20.00     0.010 C 
ENDBRANCH   6   9
TORSDOF 1
ENDMDL
MODEL 5
REMARK VINA RESULT:      -4.4      1.640      2.212
REMARK  1 active torsions:
REMARK  status: ('A' for Active; 'I' for Inactive)
REMARK    1  A    between atoms: C6_6  and  C10_10 
ROOT
HETATM    1  C1  UNL     1     -35.955  16.199  -2.260  1.00 20.00     0.053 C 
HETATM    2  C2  UNL     1     -34.728  16.490  -1.800  1.00 20.00    -0.080 C 
HETATM    3  C3  UNL     1     -36.144  15.638  -3.623  1.00 20.00     0.154 C 
HETATM    4  C4  UNL     1     -33.472  16.215  -2.585  1.00 20.00     0.034 C 
HETATM    5  C5  UNL     1     -33.688  15.203  -3.710  1.00 20.00     0.017 C 
HETATM    6  C6  UNL     1     -34.927  15.547  -4.535  1.00 20.00     0.063 C 
HETATM    7  C7  UNL     1     -34.530  17.117  -0.450  1.00 20.00     0.043 C 
HETATM    8  O11 UNL     1     -37.276  15.328  -3.989  1.00 20.00    -0.293 OA
ENDROOT
BRANCH   6   9
HETATM    9  C10 UNL     1     -35.141  14.514  -5.637  1.00 20.00    -0.011 C 
HETATM   10  C8  UNL     1     -34.440  14.947  -6.924  1.00 20.00     0.010 C 
HETATM   11  C9  UNL     1     -34.643  13.141  -5.191  1.00 20.00     0.010 C 
ENDBRANCH   6   9
TORSDOF 1
ENDMDL
MODEL 6
REMARK VINA RESULT:      -4.3     11.263     12.943
REMARK  1 active torsions:
REMARK  status: ('A' for Active; 'I' for Inactive)
REMARK    1  A    between atoms: C6_6  and  C10_10 
ROOT
HETATM    1  C1  UNL     1     -34.787   4.744   4.438  1.00 20.00     0.053 C 
HETATM    2  C2  UNL     1     -34.785   5.149   5.718  1.00 20.00    -0.080 C 
HETATM    3  C3  UNL     1     -34.085   5.530   3.390  1.00 20.00     0.154 C 
HETATM    4  C4  UNL     1     -34.034   6.367   6.191  1.00 20.00     0.034 C 
HETATM    5  C5  UNL     1     -32.955   6.815   5.206  1.00 20.00     0.017 C 
HETATM    6  C6  UNL     1     -33.499   6.880   3.779  1.00 20.00     0.063 C 
HETATM    7  C7  UNL     1     -35.544   4.399   6.774  1.00 20.00     0.043 C 
HETATM    8  O11 UNL     1     -34.058   5.098   2.239  1.00 20.00    -0.293 OA
ENDROOT
BRANCH   6   9
HETATM    9  C10 UNL     1     -32.402   7.306   2.807  1.00 20.00    -0.011 C 
HETATM   10  C8  UNL     1     -32.827   8.548   2.027  1.00 20.00     0.010 C 
HETATM   11  C9  UNL     1     -31.093   7.561   3.552  1.00 20.00     0.010 C 
ENDBRANCH   6   9
TORSDOF 1
ENDMDL
MODEL 7
REMARK VINA RESULT:      -4.2      4.318      6.403
REMARK  1 active torsions:
REMARK  status: ('A' for Active; 'I' for Inactive)
REMARK    1  A    between atoms: C6_6  and  C10_10 
ROOT
HETATM    1  C1  UNL     1     -32.913  18.953   1.783  1.00 20.00     0.053 C 
HETATM    2  C2  UNL     1     -33.984  18.444   2.413  1.00 20.00    -0.080 C 
HETATM    3  C3  UNL     1     -32.689  18.700   0.336  1.00 20.00     0.154 C 
HETATM    4  C4  UNL     1     -35.051  17.651   1.703  1.00 20.00     0.034 C 
HETATM    5  C5  UNL     1     -35.034  17.860   0.190  1.00 20.00     0.017 C 
HETATM    6  C6  UNL     1     -33.620  17.725  -0.373  1.00 20.00     0.063 C 
HETATM    7  C7  UNL     1     -34.186  18.638   3.887  1.00 20.00     0.043 C 
HETATM    8  O11 UNL     1     -31.729  19.229  -0.221  1.00 20.00    -0.293 OA
ENDROOT
BRANCH   6   9
HETATM    9  C10 UNL     1     -33.619  17.960  -1.880  1.00 20.00    -0.011 C 
HETATM   10  C8  UNL     1     -33.842  16.648  -2.630  1.00 20.00     0.010 C 
HETATM   11  C9  UNL     1     -34.684  18.985  -2.266  1.00 20.00     0.010 C 
ENDBRANCH   6   9
TORSDOF 1
ENDMDL
MODEL 8
REMARK VINA RESULT:      -4.0     11.963     12.984
REMARK  1 active torsions:
REMARK  status: ('A' for Active; 'I' for Inactive)
REMARK    1  A    between atoms: C6_6  and  C10_10 
ROOT
HETATM    1  C1  UNL     1     -42.157   6.662  -2.295  1.00 20.00     0.053 C 
HETATM    2  C2  UNL     1     -41.307   6.698  -1.257  1.00 20.00    -0.080 C 
HETATM    3  C3  UNL     1     -42.590   5.365  -2.879  1.00 20.00     0.154 C 
HETATM    4  C4  UNL     1     -40.790   5.458  -0.577  1.00 20.00     0.034 C 
HETATM    5  C5  UNL     1     -41.640   4.223  -0.873  1.00 20.00     0.017 C 
HETATM    6  C6  UNL     1     -41.925   4.093  -2.369  1.00 20.00     0.063 C 
HETATM    7  C7  UNL     1     -40.812   8.002  -0.701  1.00 20.00     0.043 C 
HETATM    8  O11 UNL     1     -43.414   5.367  -3.791  1.00 20.00    -0.293 OA
ENDROOT
BRANCH   6   9
HETATM    9  C10 UNL     1     -42.795   2.870  -2.643  1.00 20.00    -0.011 C 
HETATM   10  C8  UNL     1     -41.981   1.772  -3.325  1.00 20.00     0.010 C 
HETATM   11  C9  UNL     1     -43.417   2.350  -1.348  1.00 20.00     0.010 C 
ENDBRANCH   6   9
TORSDOF 1
ENDMDL
MODEL 9
REMARK VINA RESULT:      -4.0      1.678      3.953
REMARK  1 active torsions:
REMARK  status: ('A' for Active; 'I' for Inactive)
REMARK    1  A    between atoms: C6_6  and  C10_10 
ROOT
HETATM    1  C1  UNL     1     -37.699  15.590  -5.594  1.00 20.00     0.053 C 
HETATM    2  C2  UNL     1     -37.094  16.360  -6.511  1.00 20.00    -0.080 C 
HETATM    3  C3  UNL     1     -36.904  14.803  -4.615  1.00 20.00     0.154 C 
HETATM    4  C4  UNL     1     -35.599  16.535  -6.575  1.00 20.00     0.034 C 
HETATM    5  C5  UNL     1     -34.900  16.135  -5.277  1.00 20.00     0.017 C 
HETATM    6  C6  UNL     1     -35.390  14.776  -4.780  1.00 20.00     0.063 C 
HETATM    7  C7  UNL     1     -37.884  17.107  -7.546  1.00 20.00     0.043 C 
HETATM    8  O11 UNL     1     -37.493  14.155  -3.751  1.00 20.00    -0.293 OA
ENDROOT
BRANCH   6   9
HETATM    9  C10 UNL     1     -34.700  14.404  -3.471  1.00 20.00    -0.011 C 
HETATM   10  C8  UNL     1     -33.375  13.695  -3.743  1.00 20.00     0.010 C 
HETATM   11  C9  UNL     1     -34.478  15.645  -2.608  1.00 20.00     0.010 C 
ENDBRANCH   6   9
TORSDOF 1
ENDMDL
