MODEL 1
REMARK VINA RESULT:      -4.5      0.000      0.000
REMARK  2 active torsions:
REMARK  status: ('A' for Active; 'I' for Inactive)
REMARK    1  A    between atoms: C4_4  and  C10_10 
REMARK    2  A    between atoms: C10_10  and  O11_11 
ROOT
HETATM    1  C1  UNL     1     -35.406  14.961  -4.890  1.00 20.00    -0.069 C 
HETATM    2  C2  UNL     1     -35.558  15.049  -6.214  1.00 20.00    -0.085 C 
HETATM    3  C3  UNL     1     -36.405  14.890  -3.760  1.00 20.00     0.043 C 
HETATM    4  C4  UNL     1     -35.199  15.163  -2.826  1.00 20.00     0.025 C 
HETATM    5  C5  UNL     1     -34.177  14.877  -3.989  1.00 20.00    -0.018 C 
HETATM    6  C6  UNL     1     -34.385  15.107  -7.152  1.00 20.00     0.043 C 
HETATM    7  C7  UNL     1     -36.915  15.097  -6.861  1.00 20.00     0.043 C 
HETATM    8  C8  UNL     1     -33.110  15.940  -4.249  1.00 20.00     0.020 C 
HETATM    9  C9  UNL     1     -33.553  13.481  -3.911  1.00 20.00     0.020 C 
ENDROOT
BRANCH   4  10
HETATM   10  C10 UNL     1     -35.219  16.539  -2.166  1.00 20.00     0.170 C 
BRANCH  10  11
HETATM   11  O11 UNL     1     -34.918  16.387  -0.789  1.00 20.00    -0.400 OA
HETATM   12  H29 UNL     1     -35.223  15.502  -0.527  1.00 20.00     0.209 HD
ENDBRANCH  10  11
ENDBRANCH   4  10
TORSDOF 2
ENDMDL
MODEL 2
REMARK VINA RESULT:      -4.5      2.255      3.761
REMARK  2 active torsions:
REMARK  status: ('A' for Active; 'I' for Inactive)
REMARK    1  A    between atoms: C4_4  and  C10_10 
REMARK    2  A    between atoms: C10_10  and  O11_11 
ROOT
HETATM    1  C1  UNL     1     -34.215  16.863  -4.005  1.00 20.00    -0.069 C 
HETATM    2  C2  UNL     1     -34.439  18.123  -4.389  1.00 20.00    -0.085 C 
HETATM    3  C3  UNL     1     -33.116  15.884  -4.343  1.00 20.00     0.043 C 
HETATM    4  C4  UNL     1     -34.026  14.811  -3.694  1.00 20.00     0.025 C 
HETATM    5  C5  UNL     1     -34.956  15.914  -3.066  1.00 20.00    -0.018 C 
HETATM    6  C6  UNL     1     -35.628  18.906  -3.906  1.00 20.00     0.043 C 
HETATM    7  C7  UNL     1     -33.519  18.847  -5.331  1.00 20.00     0.043 C 
HETATM    8  C8  UNL     1     -36.456  15.786  -3.327  1.00 20.00     0.020 C 
HETATM    9  C9  UNL     1     -34.676  16.162  -1.581  1.00 20.00     0.020 C 
ENDROOT
BRANCH   4  10
HETATM   10  C10 UNL     1     -34.614  13.809  -4.685  1.00 20.00     0.170 C 
BRANCH  10  11
HETATM   11  O11 UNL     1     -34.982  12.635  -3.980  1.00 20.00    -0.400 OA
HETATM   12  H29 UNL     1     -35.035  11.916  -4.632  1.00 20.00     0.209 HD
ENDBRANCH  10  11
ENDBRANCH   4  10
TORSDOF 2
ENDMDL
MODEL 3
REMARK VINA RESULT:      -4.4      2.465      4.262
REMARK  2 active torsions:
REMARK  status: ('A' for Active; 'I' for Inactive)
REMARK    1  A    between atoms: C4_4  and  C10_10 
REMARK    2  A    between atoms: C10_10  and  O11_11 
ROOT
HETATM    1  C1  UNL     1     -33.989  16.121  -3.938  1.00 20.00    -0.069 C 
HETATM    2  C2  UNL     1     -34.137  16.850  -2.829  1.00 20.00    -0.085 C 
HETATM    3  C3  UNL     1     -33.418  16.451  -5.296  1.00 20.00     0.043 C 
HETATM    4  C4  UNL     1     -34.055  15.119  -5.764  1.00 20.00     0.025 C 
HETATM    5  C5  UNL     1     -34.314  14.668  -4.279  1.00 20.00    -0.018 C 
HETATM    6  C6  UNL     1     -34.747  16.285  -1.577  1.00 20.00     0.043 C 
HETATM    7  C7  UNL     1     -33.705  18.288  -2.754  1.00 20.00     0.043 C 
HETATM    8  C8  UNL     1     -35.733  14.223  -3.928  1.00 20.00     0.020 C 
HETATM    9  C9  UNL     1     -33.280  13.661  -3.768  1.00 20.00     0.020 C 
ENDROOT
BRANCH   4  10
HETATM   10  C10 UNL     1     -35.239  15.292  -6.713  1.00 20.00     0.170 C 
BRANCH  10  11
HETATM   11  O11 UNL     1     -35.126  14.343  -7.760  1.00 20.00    -0.400 OA
HETATM   12  H29 UNL     1     -34.300  13.852  -7.611  1.00 20.00     0.209 HD
ENDBRANCH  10  11
ENDBRANCH   4  10
TORSDOF 2
ENDMDL
MODEL 4
REMARK VINA RESULT:      -4.4      2.016      2.871
REMARK  2 active torsions:
REMARK  status: ('A' for Active; 'I' for Inactive)
REMARK    1  A    between atoms: C4_4  and  C10_10 
REMARK    2  A    between atoms: C10_10  and  O11_11 
ROOT
HETATM    1  C1  UNL     1     -36.024  14.878  -4.971  1.00 20.00    -0.069 C 
HETATM    2  C2  UNL     1     -37.283  15.326  -4.966  1.00 20.00    -0.085 C 
HETATM    3  C3  UNL     1     -35.338  13.783  -4.191  1.00 20.00     0.043 C 
HETATM    4  C4  UNL     1     -34.014  14.391  -4.719  1.00 20.00     0.025 C 
HETATM    5  C5  UNL     1     -34.785  15.271  -5.772  1.00 20.00    -0.018 C 
HETATM    6  C6  UNL     1     -37.735  16.453  -5.852  1.00 20.00     0.043 C 
HETATM    7  C7  UNL     1     -38.337  14.736  -4.071  1.00 20.00     0.043 C 
HETATM    8  C8  UNL     1     -34.471  16.766  -5.788  1.00 20.00     0.020 C 
HETATM    9  C9  UNL     1     -34.745  14.686  -7.187  1.00 20.00     0.020 C 
ENDROOT
BRANCH   4  10
HETATM   10  C10 UNL     1     -33.169  15.075  -3.646  1.00 20.00     0.170 C 
BRANCH  10  11
HETATM   11  O11 UNL     1     -31.809  15.035  -4.045  1.00 20.00    -0.400 OA
HETATM   12  H29 UNL     1     -31.277  14.959  -3.235  1.00 20.00     0.209 HD
ENDBRANCH  10  11
ENDBRANCH   4  10
TORSDOF 2
ENDMDL
MODEL 5
REMARK VINA RESULT:      -4.4      2.318      4.153
REMARK  2 active torsions:
REMARK  status: ('A' for Active; 'I' for Inactive)
REMARK    1  A    between atoms: C4_4  and  C10_10 
REMARK    2  A    between atoms: C10_10  and  O11_11 
ROOT
HETATM    1  C1  UNL     1     -34.742  16.334  -2.864  1.00 20.00    -0.069 C 
HETATM    2  C2  UNL     1     -34.336  17.192  -1.924  1.00 20.00    -0.085 C 
HETATM    3  C3  UNL     1     -35.510  15.037  -2.786  1.00 20.00     0.043 C 
HETATM    4  C4  UNL     1     -35.088  14.827  -4.261  1.00 20.00     0.025 C 
HETATM    5  C5  UNL     1     -34.615  16.323  -4.385  1.00 20.00    -0.018 C 
HETATM    6  C6  UNL     1     -33.570  18.441  -2.257  1.00 20.00     0.043 C 
HETATM    7  C7  UNL     1     -34.616  16.968  -0.464  1.00 20.00     0.043 C 
HETATM    8  C8  UNL     1     -33.203  16.561  -4.918  1.00 20.00     0.020 C 
HETATM    9  C9  UNL     1     -35.630  17.217  -5.103  1.00 20.00     0.020 C 
ENDROOT
BRANCH   4  10
HETATM   10  C10 UNL     1     -34.078  13.701  -4.469  1.00 20.00     0.170 C 
BRANCH  10  11
HETATM   11  O11 UNL     1     -34.770  12.544  -4.906  1.00 20.00    -0.400 OA
HETATM   12  H29 UNL     1     -34.486  11.810  -4.337  1.00 20.00     0.209 HD
ENDBRANCH  10  11
ENDBRANCH   4  10
TORSDOF 2
ENDMDL
MODEL 6
REMARK VINA RESULT:      -4.3      2.303      3.784
REMARK  2 active torsions:
REMARK  status: ('A' for Active; 'I' for Inactive)
REMARK    1  A    between atoms: C4_4  and  C10_10 
REMARK    2  A    between atoms: C10_10  and  O11_11 
ROOT
HETATM    1  C1  UNL     1     -34.680  16.795  -3.646  1.00 20.00    -0.069 C 
HETATM    2  C2  UNL     1     -33.985  17.931  -3.549  1.00 20.00    -0.085 C 
HETATM    3  C3  UNL     1     -35.219  15.847  -2.601  1.00 20.00     0.043 C 
HETATM    4  C4  UNL     1     -35.462  14.868  -3.776  1.00 20.00     0.025 C 
HETATM    5  C5  UNL     1     -35.224  16.008  -4.835  1.00 20.00    -0.018 C 
HETATM    6  C6  UNL     1     -33.553  18.711  -4.760  1.00 20.00     0.043 C 
HETATM    7  C7  UNL     1     -33.583  18.511  -2.221  1.00 20.00     0.043 C 
HETATM    8  C8  UNL     1     -34.210  15.724  -5.942  1.00 20.00     0.020 C 
HETATM    9  C9  UNL     1     -36.526  16.571  -5.414  1.00 20.00     0.020 C 
ENDROOT
BRANCH   4  10
HETATM   10  C10 UNL     1     -34.546  13.646  -3.771  1.00 20.00     0.170 C 
BRANCH  10  11
HETATM   11  O11 UNL     1     -35.301  12.510  -4.155  1.00 20.00    -0.400 OA
HETATM   12  H29 UNL     1     -35.073  12.316  -5.080  1.00 20.00     0.209 HD
ENDBRANCH  10  11
ENDBRANCH   4  10
TORSDOF 2
ENDMDL
MODEL 7
REMARK VINA RESULT:      -4.2      1.481      2.152
REMARK  2 active torsions:
REMARK  status: ('A' for Active; 'I' for Inactive)
REMARK    1  A    between atoms: C4_4  and  C10_10 
REMARK    2  A    between atoms: C10_10  and  O11_11 
ROOT
HETATM    1  C1  UNL     1     -35.039  15.564  -3.497  1.00 20.00    -0.069 C 
HETATM    2  C2  UNL     1     -35.954  14.996  -4.286  1.00 20.00    -0.085 C 
HETATM    3  C3  UNL     1     -35.092  16.037  -2.064  1.00 20.00     0.043 C 
HETATM    4  C4  UNL     1     -33.748  16.745  -2.365  1.00 20.00     0.025 C 
HETATM    5  C5  UNL     1     -33.576  15.946  -3.709  1.00 20.00    -0.018 C 
HETATM    6  C6  UNL     1     -35.655  14.608  -5.707  1.00 20.00     0.043 C 
HETATM    7  C7  UNL     1     -37.350  14.706  -3.810  1.00 20.00     0.043 C 
HETATM    8  C8  UNL     1     -33.297  16.763  -4.970  1.00 20.00     0.020 C 
HETATM    9  C9  UNL     1     -32.600  14.771  -3.590  1.00 20.00     0.020 C 
ENDROOT
BRANCH   4  10
HETATM   10  C10 UNL     1     -33.839  18.269  -2.404  1.00 20.00     0.170 C 
BRANCH  10  11
HETATM   11  O11 UNL     1     -33.004  18.801  -1.389  1.00 20.00    -0.400 OA
HETATM   12  H29 UNL     1     -32.833  19.729  -1.619  1.00 20.00     0.209 HD
ENDBRANCH  10  11
ENDBRANCH   4  10
TORSDOF 2
ENDMDL
MODEL 8
REMARK VINA RESULT:      -4.1      2.299      3.681
REMARK  2 active torsions:
REMARK  status: ('A' for Active; 'I' for Inactive)
REMARK    1  A    between atoms: C4_4  and  C10_10 
REMARK    2  A    between atoms: C10_10  and  O11_11 
ROOT
HETATM    1  C1  UNL     1     -34.950  16.507  -5.880  1.00 20.00    -0.069 C 
HETATM    2  C2  UNL     1     -34.380  17.577  -6.440  1.00 20.00    -0.085 C 
HETATM    3  C3  UNL     1     -35.011  16.026  -4.450  1.00 20.00     0.043 C 
HETATM    4  C4  UNL     1     -35.533  14.692  -5.038  1.00 20.00     0.025 C 
HETATM    5  C5  UNL     1     -35.779  15.355  -6.444  1.00 20.00    -0.018 C 
HETATM    6  C6  UNL     1     -34.458  17.843  -7.918  1.00 20.00     0.043 C 
HETATM    7  C7  UNL     1     -33.618  18.591  -5.633  1.00 20.00     0.043 C 
HETATM    8  C8  UNL     1     -35.169  14.653  -7.657  1.00 20.00     0.020 C 
HETATM    9  C9  UNL     1     -37.248  15.707  -6.694  1.00 20.00     0.020 C 
ENDROOT
BRANCH   4  10
HETATM   10  C10 UNL     1     -34.551  13.529  -4.918  1.00 20.00     0.170 C 
BRANCH  10  11
HETATM   11  O11 UNL     1     -35.146  12.510  -4.133  1.00 20.00    -0.400 OA
HETATM   12  H29 UNL     1     -35.787  12.942  -3.545  1.00 20.00     0.209 HD
ENDBRANCH  10  11
ENDBRANCH   4  10
TORSDOF 2
ENDMDL
MODEL 9
REMARK VINA RESULT:      -4.1      1.840      2.568
REMARK  2 active torsions:
REMARK  status: ('A' for Active; 'I' for Inactive)
REMARK    1  A    between atoms: C4_4  and  C10_10 
REMARK    2  A    between atoms: C10_10  and  O11_11 
ROOT
HETATM    1  C1  UNL     1     -35.429  15.584  -5.330  1.00 20.00    -0.069 C 
HETATM    2  C2  UNL     1     -34.435  16.278  -5.890  1.00 20.00    -0.085 C 
HETATM    3  C3  UNL     1     -36.814  15.230  -5.815  1.00 20.00     0.043 C 
HETATM    4  C4  UNL     1     -37.096  14.803  -4.353  1.00 20.00     0.025 C 
HETATM    5  C5  UNL     1     -35.564  14.855  -3.995  1.00 20.00    -0.018 C 
HETATM    6  C6  UNL     1     -33.121  16.499  -5.193  1.00 20.00     0.043 C 
HETATM    7  C7  UNL     1     -34.559  16.890  -7.257  1.00 20.00     0.043 C 
HETATM    8  C8  UNL     1     -35.168  15.675  -2.767  1.00 20.00     0.020 C 
HETATM    9  C9  UNL     1     -34.906  13.473  -3.968  1.00 20.00     0.020 C 
ENDROOT
BRANCH   4  10
HETATM   10  C10 UNL     1     -38.071  15.715  -3.613  1.00 20.00     0.170 C 
BRANCH  10  11
HETATM   11  O11 UNL     1     -38.825  14.932  -2.703  1.00 20.00    -0.400 OA
HETATM   12  H29 UNL     1     -38.321  14.116  -2.545  1.00 20.00     0.209 HD
ENDBRANCH  10  11
ENDBRANCH   4  10
TORSDOF 2
ENDMDL
