MODEL 1
REMARK VINA RESULT:      -4.1      0.000      0.000
REMARK  1 active torsions:
REMARK  status: ('A' for Active; 'I' for Inactive)
REMARK    1  A    between atoms: C2_2  and  C3_3 
ROOT
HETATM    1  C1  UNL     1     -33.984  16.317  -3.440  1.00 20.00     0.010 C 
HETATM    2  C2  UNL     1     -33.773  15.390  -4.382  1.00 20.00     0.074 C 
HETATM    3  C4  UNL     1     -34.349  15.966  -2.018  1.00 20.00     0.058 C 
HETATM    4  C5  UNL     1     -34.943  17.274  -1.491  1.00 20.00     0.026 C 
HETATM    5  C6  UNL     1     -34.240  18.371  -2.295  1.00 20.00     0.122 C 
HETATM    6  C8  UNL     1     -33.487  18.462  -4.688  1.00 20.00     0.149 C 
HETATM    7  N9  UNL     1     -33.936  17.696  -3.549  1.00 20.00    -0.388 N 
ENDROOT
BRANCH   2   8
HETATM    8  C3  UNL     1     -33.892  13.943  -4.061  1.00 20.00     0.147 C 
HETATM    9  C7  UNL     1     -35.228  13.302  -4.327  1.00 20.00     0.096 C 
HETATM   10  O10 UNL     1     -32.948  13.289  -3.625  1.00 20.00    -0.294 OA
ENDBRANCH   2   8
TORSDOF 1
ENDMDL
MODEL 2
REMARK VINA RESULT:      -4.1     12.413     13.878
REMARK  1 active torsions:
REMARK  status: ('A' for Active; 'I' for Inactive)
REMARK    1  A    between atoms: C2_2  and  C3_3 
ROOT
HETATM    1  C1  UNL     1     -41.982   5.046  -2.228  1.00 20.00     0.010 C 
HETATM    2  C2  UNL     1     -42.687   4.195  -2.983  1.00 20.00     0.074 C 
HETATM    3  C4  UNL     1     -41.028   4.583  -1.152  1.00 20.00     0.058 C 
HETATM    4  C5  UNL     1     -40.862   5.837  -0.290  1.00 20.00     0.026 C 
HETATM    5  C6  UNL     1     -41.079   7.004  -1.255  1.00 20.00     0.122 C 
HETATM    6  C8  UNL     1     -42.630   7.287  -3.209  1.00 20.00     0.149 C 
HETATM    7  N9  UNL     1     -41.977   6.430  -2.247  1.00 20.00    -0.388 N 
ENDROOT
BRANCH   2   8
HETATM    8  C3  UNL     1     -42.559   2.727  -2.790  1.00 20.00     0.147 C 
HETATM    9  C7  UNL     1     -41.499   2.031  -3.603  1.00 20.00     0.096 C 
HETATM   10  O10 UNL     1     -43.258   2.106  -1.993  1.00 20.00    -0.294 OA
ENDBRANCH   2   8
TORSDOF 1
ENDMDL
MODEL 3
REMARK VINA RESULT:      -4.0      1.942      2.393
REMARK  1 active torsions:
REMARK  status: ('A' for Active; 'I' for Inactive)
REMARK    1  A    between atoms: C2_2  and  C3_3 
ROOT
HETATM    1  C1  UNL     1     -35.772  15.768  -3.236  1.00 20.00     0.010 C 
HETATM    2  C2  UNL     1     -36.216  14.934  -4.184  1.00 20.00     0.074 C 
HETATM    3  C4  UNL     1     -34.370  15.697  -2.680  1.00 20.00     0.058 C 
HETATM    4  C5  UNL     1     -34.493  16.463  -1.361  1.00 20.00     0.026 C 
HETATM    5  C6  UNL     1     -35.621  17.470  -1.600  1.00 20.00     0.122 C 
HETATM    6  C8  UNL     1     -37.758  17.300  -2.906  1.00 20.00     0.149 C 
HETATM    7  N9  UNL     1     -36.445  16.790  -2.590  1.00 20.00    -0.388 N 
ENDROOT
BRANCH   2   8
HETATM    8  C3  UNL     1     -35.328  13.880  -4.743  1.00 20.00     0.147 C 
HETATM    9  C7  UNL     1     -34.600  14.219  -6.016  1.00 20.00     0.096 C 
HETATM   10  O10 UNL     1     -35.170  12.795  -4.188  1.00 20.00    -0.294 OA
ENDBRANCH   2   8
TORSDOF 1
ENDMDL
MODEL 4
REMARK VINA RESULT:      -3.9      2.429      4.289
REMARK  1 active torsions:
REMARK  status: ('A' for Active; 'I' for Inactive)
REMARK    1  A    between atoms: C2_2  and  C3_3 
ROOT
HETATM    1  C1  UNL     1     -35.297  15.400  -3.133  1.00 20.00     0.010 C 
HETATM    2  C2  UNL     1     -35.608  16.562  -2.546  1.00 20.00     0.074 C 
HETATM    3  C4  UNL     1     -33.910  14.806  -3.076  1.00 20.00     0.058 C 
HETATM    4  C5  UNL     1     -33.925  13.809  -4.238  1.00 20.00     0.026 C 
HETATM    5  C6  UNL     1     -35.391  13.384  -4.365  1.00 20.00     0.122 C 
HETATM    6  C8  UNL     1     -37.530  14.662  -4.066  1.00 20.00     0.149 C 
HETATM    7  N9  UNL     1     -36.102  14.557  -3.878  1.00 20.00    -0.388 N 
ENDROOT
BRANCH   2   8
HETATM    8  C3  UNL     1     -34.581  17.333  -1.797  1.00 20.00     0.147 C 
HETATM    9  C7  UNL     1     -34.535  17.123  -0.307  1.00 20.00     0.096 C 
HETATM   10  O10 UNL     1     -33.788  18.085  -2.359  1.00 20.00    -0.294 OA
ENDBRANCH   2   8
TORSDOF 1
ENDMDL
MODEL 5
REMARK VINA RESULT:      -3.9      2.713      3.739
REMARK  1 active torsions:
REMARK  status: ('A' for Active; 'I' for Inactive)
REMARK    1  A    between atoms: C2_2  and  C3_3 
ROOT
HETATM    1  C1  UNL     1     -35.328  15.130  -3.611  1.00 20.00     0.010 C 
HETATM    2  C2  UNL     1     -36.545  15.643  -3.395  1.00 20.00     0.074 C 
HETATM    3  C4  UNL     1     -35.080  14.001  -4.583  1.00 20.00     0.058 C 
HETATM    4  C5  UNL     1     -33.720  13.463  -4.132  1.00 20.00     0.026 C 
HETATM    5  C6  UNL     1     -33.009  14.672  -3.517  1.00 20.00     0.122 C 
HETATM    6  C8  UNL     1     -33.869  16.595  -2.152  1.00 20.00     0.149 C 
HETATM    7  N9  UNL     1     -34.121  15.475  -3.029  1.00 20.00    -0.388 N 
ENDROOT
BRANCH   2   8
HETATM    8  C3  UNL     1     -37.730  15.113  -4.119  1.00 20.00     0.147 C 
HETATM    9  C7  UNL     1     -38.100  15.806  -5.404  1.00 20.00     0.096 C 
HETATM   10  O10 UNL     1     -38.367  14.144  -3.713  1.00 20.00    -0.294 OA
ENDBRANCH   2   8
TORSDOF 1
ENDMDL
MODEL 6
REMARK VINA RESULT:      -3.9      2.550      3.449
REMARK  1 active torsions:
REMARK  status: ('A' for Active; 'I' for Inactive)
REMARK    1  A    between atoms: C2_2  and  C3_3 
ROOT
HETATM    1  C1  UNL     1     -35.328  15.668  -5.253  1.00 20.00     0.010 C 
HETATM    2  C2  UNL     1     -35.313  14.932  -4.135  1.00 20.00     0.074 C 
HETATM    3  C4  UNL     1     -34.588  15.263  -6.505  1.00 20.00     0.058 C 
HETATM    4  C5  UNL     1     -34.496  16.580  -7.281  1.00 20.00     0.026 C 
HETATM    5  C6  UNL     1     -35.726  17.377  -6.839  1.00 20.00     0.122 C 
HETATM    6  C8  UNL     1     -36.889  17.557  -4.621  1.00 20.00     0.149 C 
HETATM    7  N9  UNL     1     -35.958  16.877  -5.491  1.00 20.00    -0.388 N 
ENDROOT
BRANCH   2   8
HETATM    8  C3  UNL     1     -34.552  13.656  -4.079  1.00 20.00     0.147 C 
HETATM    9  C7  UNL     1     -33.117  13.748  -3.633  1.00 20.00     0.096 C 
HETATM   10  O10 UNL     1     -35.065  12.574  -4.355  1.00 20.00    -0.294 OA
ENDBRANCH   2   8
TORSDOF 1
ENDMDL
MODEL 7
REMARK VINA RESULT:      -3.9      2.549      4.189
REMARK  1 active torsions:
REMARK  status: ('A' for Active; 'I' for Inactive)
REMARK    1  A    between atoms: C2_2  and  C3_3 
ROOT
HETATM    1  C1  UNL     1     -34.915  15.612  -2.869  1.00 20.00     0.010 C 
HETATM    2  C2  UNL     1     -34.029  16.207  -2.061  1.00 20.00     0.074 C 
HETATM    3  C4  UNL     1     -36.313  16.141  -3.075  1.00 20.00     0.058 C 
HETATM    4  C5  UNL     1     -37.052  14.925  -3.642  1.00 20.00     0.026 C 
HETATM    5  C6  UNL     1     -35.972  14.121  -4.370  1.00 20.00     0.122 C 
HETATM    6  C8  UNL     1     -33.553  13.712  -3.838  1.00 20.00     0.149 C 
HETATM    7  N9  UNL     1     -34.769  14.462  -3.625  1.00 20.00    -0.388 N 
ENDROOT
BRANCH   2   8
HETATM    8  C3  UNL     1     -34.393  17.441  -1.317  1.00 20.00     0.147 C 
HETATM    9  C7  UNL     1     -34.877  17.257   0.097  1.00 20.00     0.096 C 
HETATM   10  O10 UNL     1     -34.284  18.561  -1.811  1.00 20.00    -0.294 OA
ENDBRANCH   2   8
TORSDOF 1
ENDMDL
MODEL 8
REMARK VINA RESULT:      -3.8      0.760      2.094
REMARK  1 active torsions:
REMARK  status: ('A' for Active; 'I' for Inactive)
REMARK    1  A    between atoms: C2_2  and  C3_3 
ROOT
HETATM    1  C1  UNL     1     -34.093  16.232  -3.674  1.00 20.00     0.010 C 
HETATM    2  C2  UNL     1     -34.150  15.073  -3.006  1.00 20.00     0.074 C 
HETATM    3  C4  UNL     1     -33.856  16.303  -5.163  1.00 20.00     0.058 C 
HETATM    4  C5  UNL     1     -33.400  17.750  -5.361  1.00 20.00     0.026 C 
HETATM    5  C6  UNL     1     -34.081  18.530  -4.233  1.00 20.00     0.122 C 
HETATM    6  C8  UNL     1     -34.587  17.917  -1.852  1.00 20.00     0.149 C 
HETATM    7  N9  UNL     1     -34.213  17.523  -3.190  1.00 20.00    -0.388 N 
ENDROOT
BRANCH   2   8
HETATM    8  C3  UNL     1     -33.978  13.779  -3.718  1.00 20.00     0.147 C 
HETATM    9  C7  UNL     1     -35.192  13.228  -4.417  1.00 20.00     0.096 C 
HETATM   10  O10 UNL     1     -32.898  13.194  -3.762  1.00 20.00    -0.294 OA
ENDBRANCH   2   8
TORSDOF 1
ENDMDL
MODEL 9
REMARK VINA RESULT:      -3.8      1.849      2.299
REMARK  1 active torsions:
REMARK  status: ('A' for Active; 'I' for Inactive)
REMARK    1  A    between atoms: C2_2  and  C3_3 
ROOT
HETATM    1  C1  UNL     1     -35.019  16.768  -2.602  1.00 20.00     0.010 C 
HETATM    2  C2  UNL     1     -34.876  16.157  -3.785  1.00 20.00     0.074 C 
HETATM    3  C4  UNL     1     -33.922  16.806  -1.567  1.00 20.00     0.058 C 
HETATM    4  C5  UNL     1     -34.683  17.147  -0.284  1.00 20.00     0.026 C 
HETATM    5  C6  UNL     1     -35.894  17.958  -0.755  1.00 20.00     0.122 C 
HETATM    6  C8  UNL     1     -37.338  17.763  -2.799  1.00 20.00     0.149 C 
HETATM    7  N9  UNL     1     -36.120  17.434  -2.094  1.00 20.00    -0.388 N 
ENDROOT
BRANCH   2   8
HETATM    8  C3  UNL     1     -33.602  15.476  -4.136  1.00 20.00     0.147 C 
HETATM    9  C7  UNL     1     -33.524  14.002  -3.842  1.00 20.00     0.096 C 
HETATM   10  O10 UNL     1     -32.664  16.071  -4.663  1.00 20.00    -0.294 OA
ENDBRANCH   2   8
TORSDOF 1
ENDMDL
