MODEL 1
REMARK VINA RESULT:      -4.6      0.000      0.000
REMARK  2 active torsions:
REMARK  status: ('A' for Active; 'I' for Inactive)
REMARK    1  A    between atoms: C4_4  and  C10_10 
REMARK    2  A    between atoms: C10_10  and  O11_11 
ROOT
HETATM    1  C1  UNL     1     -33.968  16.568  -5.067  1.00 20.00    -0.069 C 
HETATM    2  C2  UNL     1     -33.740  17.880  -5.141  1.00 20.00    -0.085 C 
HETATM    3  C3  UNL     1     -34.308  15.527  -6.113  1.00 20.00     0.043 C 
HETATM    4  C4  UNL     1     -34.803  14.684  -4.909  1.00 20.00     0.025 C 
HETATM    5  C5  UNL     1     -33.962  15.564  -3.911  1.00 20.00    -0.018 C 
HETATM    6  C6  UNL     1     -33.414  18.706  -3.928  1.00 20.00     0.043 C 
HETATM    7  C7  UNL     1     -33.791  18.629  -6.445  1.00 20.00     0.043 C 
HETATM    8  C8  UNL     1     -34.755  15.983  -2.674  1.00 20.00     0.020 C 
HETATM    9  C9  UNL     1     -32.566  15.064  -3.534  1.00 20.00     0.020 C 
ENDROOT
BRANCH   4  10
HETATM   10  C10 UNL     1     -34.528  13.190  -4.989  1.00 20.00     0.170 C 
BRANCH  10  11
HETATM   11  O11 UNL     1     -35.430  12.516  -4.128  1.00 20.00    -0.400 OA
HETATM   12  H29 UNL     1     -36.191  13.106  -3.995  1.00 20.00     0.209 HD
ENDBRANCH  10  11
ENDBRANCH   4  10
TORSDOF 2
ENDMDL
MODEL 2
REMARK VINA RESULT:      -4.5      1.475      2.953
REMARK  2 active torsions:
REMARK  status: ('A' for Active; 'I' for Inactive)
REMARK    1  A    between atoms: C4_4  and  C10_10 
REMARK    2  A    between atoms: C10_10  and  O11_11 
ROOT
HETATM    1  C1  UNL     1     -34.320  16.834  -2.727  1.00 20.00    -0.069 C 
HETATM    2  C2  UNL     1     -33.846  17.929  -2.130  1.00 20.00    -0.085 C 
HETATM    3  C3  UNL     1     -34.857  15.526  -2.187  1.00 20.00     0.043 C 
HETATM    4  C4  UNL     1     -34.574  14.984  -3.612  1.00 20.00     0.025 C 
HETATM    5  C5  UNL     1     -34.539  16.447  -4.192  1.00 20.00    -0.018 C 
HETATM    6  C6  UNL     1     -33.364  19.121  -2.910  1.00 20.00     0.043 C 
HETATM    7  C7  UNL     1     -33.760  18.052  -0.634  1.00 20.00     0.043 C 
HETATM    8  C8  UNL     1     -33.350  16.692  -5.120  1.00 20.00     0.020 C 
HETATM    9  C9  UNL     1     -35.834  16.999  -4.790  1.00 20.00     0.020 C 
ENDROOT
BRANCH   4  10
HETATM   10  C10 UNL     1     -35.591  13.996  -4.160  1.00 20.00     0.170 C 
BRANCH  10  11
HETATM   11  O11 UNL     1     -35.028  12.695  -4.120  1.00 20.00    -0.400 OA
HETATM   12  H29 UNL     1     -35.014  12.363  -5.034  1.00 20.00     0.209 HD
ENDBRANCH  10  11
ENDBRANCH   4  10
TORSDOF 2
ENDMDL
MODEL 3
REMARK VINA RESULT:      -4.3      1.685      2.554
REMARK  2 active torsions:
REMARK  status: ('A' for Active; 'I' for Inactive)
REMARK    1  A    between atoms: C4_4  and  C10_10 
REMARK    2  A    between atoms: C10_10  and  O11_11 
ROOT
HETATM    1  C1  UNL     1     -34.243  16.393  -3.831  1.00 20.00    -0.069 C 
HETATM    2  C2  UNL     1     -34.161  17.020  -2.656  1.00 20.00    -0.085 C 
HETATM    3  C3  UNL     1     -33.845  16.795  -5.236  1.00 20.00     0.043 C 
HETATM    4  C4  UNL     1     -34.814  15.669  -5.681  1.00 20.00     0.025 C 
HETATM    5  C5  UNL     1     -34.752  15.012  -4.252  1.00 20.00    -0.018 C 
HETATM    6  C6  UNL     1     -34.638  16.389  -1.378  1.00 20.00     0.043 C 
HETATM    7  C7  UNL     1     -33.583  18.402  -2.525  1.00 20.00     0.043 C 
HETATM    8  C8  UNL     1     -36.129  14.627  -3.714  1.00 20.00     0.020 C 
HETATM    9  C9  UNL     1     -33.737  13.888  -4.037  1.00 20.00     0.020 C 
ENDROOT
BRANCH   4  10
HETATM   10  C10 UNL     1     -34.374  14.856  -6.889  1.00 20.00     0.170 C 
BRANCH  10  11
HETATM   11  O11 UNL     1     -35.525  14.321  -7.520  1.00 20.00    -0.400 OA
HETATM   12  H29 UNL     1     -35.645  13.420  -7.177  1.00 20.00     0.209 HD
ENDBRANCH  10  11
ENDBRANCH   4  10
TORSDOF 2
ENDMDL
MODEL 4
REMARK VINA RESULT:      -4.2      2.316      3.537
REMARK  2 active torsions:
REMARK  status: ('A' for Active; 'I' for Inactive)
REMARK    1  A    between atoms: C4_4  and  C10_10 
REMARK    2  A    between atoms: C10_10  and  O11_11 
ROOT
HETATM    1  C1  UNL     1     -35.165  15.582  -3.452  1.00 20.00    -0.069 C 
HETATM    2  C2  UNL     1     -33.947  15.826  -2.963  1.00 20.00    -0.085 C 
HETATM    3  C3  UNL     1     -36.530  16.150  -3.129  1.00 20.00     0.043 C 
HETATM    4  C4  UNL     1     -37.070  14.874  -3.825  1.00 20.00     0.025 C 
HETATM    5  C5  UNL     1     -35.689  14.650  -4.547  1.00 20.00    -0.018 C 
HETATM    6  C6  UNL     1     -32.724  15.111  -3.467  1.00 20.00     0.043 C 
HETATM    7  C7  UNL     1     -33.710  16.835  -1.874  1.00 20.00     0.043 C 
HETATM    8  C8  UNL     1     -35.203  13.203  -4.467  1.00 20.00     0.020 C 
HETATM    9  C9  UNL     1     -35.536  15.211  -5.962  1.00 20.00     0.020 C 
ENDROOT
BRANCH   4  10
HETATM   10  C10 UNL     1     -38.324  15.058  -4.666  1.00 20.00     0.170 C 
BRANCH  10  11
HETATM   11  O11 UNL     1     -39.271  14.071  -4.292  1.00 20.00    -0.400 OA
HETATM   12  H29 UNL     1     -38.873  13.206  -4.489  1.00 20.00     0.209 HD
ENDBRANCH  10  11
ENDBRANCH   4  10
TORSDOF 2
ENDMDL
MODEL 5
REMARK VINA RESULT:      -4.2      1.363      2.828
REMARK  2 active torsions:
REMARK  status: ('A' for Active; 'I' for Inactive)
REMARK    1  A    between atoms: C4_4  and  C10_10 
REMARK    2  A    between atoms: C10_10  and  O11_11 
ROOT
HETATM    1  C1  UNL     1     -34.641  16.715  -5.841  1.00 20.00    -0.069 C 
HETATM    2  C2  UNL     1     -34.236  17.835  -6.443  1.00 20.00    -0.085 C 
HETATM    3  C3  UNL     1     -34.578  16.245  -4.403  1.00 20.00     0.043 C 
HETATM    4  C4  UNL     1     -34.793  14.832  -5.003  1.00 20.00     0.025 C 
HETATM    5  C5  UNL     1     -35.351  15.453  -6.338  1.00 20.00    -0.018 C 
HETATM    6  C6  UNL     1     -34.421  18.062  -7.918  1.00 20.00     0.043 C 
HETATM    7  C7  UNL     1     -33.568  18.951  -5.690  1.00 20.00     0.043 C 
HETATM    8  C8  UNL     1     -34.752  14.811  -7.589  1.00 20.00     0.020 C 
HETATM    9  C9  UNL     1     -36.868  15.606  -6.463  1.00 20.00     0.020 C 
ENDROOT
BRANCH   4  10
HETATM   10  C10 UNL     1     -35.679  13.897  -4.195  1.00 20.00     0.170 C 
BRANCH  10  11
HETATM   11  O11 UNL     1     -35.098  12.604  -4.198  1.00 20.00    -0.400 OA
HETATM   12  H29 UNL     1     -34.182  12.704  -4.510  1.00 20.00     0.209 HD
ENDBRANCH  10  11
ENDBRANCH   4  10
TORSDOF 2
ENDMDL
MODEL 6
REMARK VINA RESULT:      -4.1      2.192      3.391
REMARK  2 active torsions:
REMARK  status: ('A' for Active; 'I' for Inactive)
REMARK    1  A    between atoms: C4_4  and  C10_10 
REMARK    2  A    between atoms: C10_10  and  O11_11 
ROOT
HETATM    1  C1  UNL     1     -34.450  16.240  -4.814  1.00 20.00    -0.069 C 
HETATM    2  C2  UNL     1     -34.376  16.226  -6.146  1.00 20.00    -0.085 C 
HETATM    3  C3  UNL     1     -34.435  17.364  -3.800  1.00 20.00     0.043 C 
HETATM    4  C4  UNL     1     -34.058  16.254  -2.785  1.00 20.00     0.025 C 
HETATM    5  C5  UNL     1     -34.599  15.141  -3.758  1.00 20.00    -0.018 C 
HETATM    6  C6  UNL     1     -34.413  14.947  -6.936  1.00 20.00     0.043 C 
HETATM    7  C7  UNL     1     -34.252  17.488  -6.954  1.00 20.00     0.043 C 
HETATM    8  C8  UNL     1     -33.641  13.959  -3.901  1.00 20.00     0.020 C 
HETATM    9  C9  UNL     1     -36.040  14.668  -3.557  1.00 20.00     0.020 C 
ENDROOT
BRANCH   4  10
HETATM   10  C10 UNL     1     -34.672  16.386  -1.400  1.00 20.00     0.170 C 
BRANCH  10  11
HETATM   11  O11 UNL     1     -33.827  17.200  -0.604  1.00 20.00    -0.400 OA
HETATM   12  H29 UNL     1     -33.026  17.375  -1.127  1.00 20.00     0.209 HD
ENDBRANCH  10  11
ENDBRANCH   4  10
TORSDOF 2
ENDMDL
MODEL 7
REMARK VINA RESULT:      -4.1      1.164      1.451
REMARK  2 active torsions:
REMARK  status: ('A' for Active; 'I' for Inactive)
REMARK    1  A    between atoms: C4_4  and  C10_10 
REMARK    2  A    between atoms: C10_10  and  O11_11 
ROOT
HETATM    1  C1  UNL     1     -34.425  17.019  -4.418  1.00 20.00    -0.069 C 
HETATM    2  C2  UNL     1     -34.532  18.339  -4.577  1.00 20.00    -0.085 C 
HETATM    3  C3  UNL     1     -33.569  15.972  -5.099  1.00 20.00     0.043 C 
HETATM    4  C4  UNL     1     -34.607  14.963  -4.541  1.00 20.00     0.025 C 
HETATM    5  C5  UNL     1     -35.100  16.016  -3.479  1.00 20.00    -0.018 C 
HETATM    6  C6  UNL     1     -35.479  19.170  -3.757  1.00 20.00     0.043 C 
HETATM    7  C7  UNL     1     -33.711  19.092  -5.587  1.00 20.00     0.043 C 
HETATM    8  C8  UNL     1     -36.623  16.112  -3.399  1.00 20.00     0.020 C 
HETATM    9  C9  UNL     1     -34.472  15.956  -2.085  1.00 20.00     0.020 C 
ENDROOT
BRANCH   4  10
HETATM   10  C10 UNL     1     -34.048  13.634  -4.061  1.00 20.00     0.170 C 
BRANCH  10  11
HETATM   11  O11 UNL     1     -35.059  12.647  -4.175  1.00 20.00    -0.400 OA
HETATM   12  H29 UNL     1     -34.660  11.799  -3.917  1.00 20.00     0.209 HD
ENDBRANCH  10  11
ENDBRANCH   4  10
TORSDOF 2
ENDMDL
MODEL 8
REMARK VINA RESULT:      -4.1     11.554     13.560
REMARK  2 active torsions:
REMARK  status: ('A' for Active; 'I' for Inactive)
REMARK    1  A    between atoms: C4_4  and  C10_10 
REMARK    2  A    between atoms: C10_10  and  O11_11 
ROOT
HETATM    1  C1  UNL     1     -42.774   5.639  -1.595  1.00 20.00    -0.069 C 
HETATM    2  C2  UNL     1     -42.848   4.599  -0.763  1.00 20.00    -0.085 C 
HETATM    3  C3  UNL     1     -43.177   5.822  -3.043  1.00 20.00     0.043 C 
HETATM    4  C4  UNL     1     -42.217   7.039  -3.010  1.00 20.00     0.025 C 
HETATM    5  C5  UNL     1     -42.276   7.078  -1.437  1.00 20.00    -0.018 C 
HETATM    6  C6  UNL     1     -42.368   4.677   0.660  1.00 20.00     0.043 C 
HETATM    7  C7  UNL     1     -43.417   3.273  -1.187  1.00 20.00     0.043 C 
HETATM    8  C8  UNL     1     -40.899   7.229  -0.793  1.00 20.00     0.020 C 
HETATM    9  C9  UNL     1     -43.298   8.018  -0.793  1.00 20.00     0.020 C 
ENDROOT
BRANCH   4  10
HETATM   10  C10 UNL     1     -42.668   8.260  -3.797  1.00 20.00     0.170 C 
BRANCH  10  11
HETATM   11  O11 UNL     1     -41.566   8.751  -4.543  1.00 20.00    -0.400 OA
HETATM   12  H29 UNL     1     -41.629   8.362  -5.432  1.00 20.00     0.209 HD
ENDBRANCH  10  11
ENDBRANCH   4  10
TORSDOF 2
ENDMDL
MODEL 9
REMARK VINA RESULT:      -4.0      1.313      1.313
REMARK  2 active torsions:
REMARK  status: ('A' for Active; 'I' for Inactive)
REMARK    1  A    between atoms: C4_4  and  C10_10 
REMARK    2  A    between atoms: C10_10  and  O11_11 
ROOT
HETATM    1  C1  UNL     1     -35.233  16.880  -4.554  1.00 20.00    -0.069 C 
HETATM    2  C2  UNL     1     -35.372  18.203  -4.442  1.00 20.00    -0.085 C 
HETATM    3  C3  UNL     1     -35.725  15.883  -5.580  1.00 20.00     0.043 C 
HETATM    4  C4  UNL     1     -35.458  14.827  -4.476  1.00 20.00     0.025 C 
HETATM    5  C5  UNL     1     -34.509  15.825  -3.713  1.00 20.00    -0.018 C 
HETATM    6  C6  UNL     1     -34.771  18.977  -3.301  1.00 20.00     0.043 C 
HETATM    7  C7  UNL     1     -36.137  19.015  -5.450  1.00 20.00     0.043 C 
HETATM    8  C8  UNL     1     -34.786  15.879  -2.211  1.00 20.00     0.020 C 
HETATM    9  C9  UNL     1     -33.010  15.729  -3.999  1.00 20.00     0.020 C 
ENDROOT
BRANCH   4  10
HETATM   10  C10 UNL     1     -34.901  13.496  -4.953  1.00 20.00     0.170 C 
BRANCH  10  11
HETATM   11  O11 UNL     1     -35.337  12.477  -4.068  1.00 20.00    -0.400 OA
HETATM   12  H29 UNL     1     -35.380  11.653  -4.582  1.00 20.00     0.209 HD
ENDBRANCH  10  11
ENDBRANCH   4  10
TORSDOF 2
ENDMDL
