MODEL 1
REMARK VINA RESULT:      -4.6      0.000      0.000
REMARK  3 active torsions:
REMARK  status: ('A' for Active; 'I' for Inactive)
REMARK    1  A    between atoms: C1_1  and  C4_4 
REMARK    2  A    between atoms: C4_4  and  C5_5 
REMARK    3  A    between atoms: N6_6  and  O7_7 
ROOT
HETATM    1  C1  UNL     1     -34.510   5.526   4.924  1.00 20.00     0.035 C 
HETATM    2  C2  UNL     1     -34.274   5.925   6.362  1.00 20.00     0.068 C 
HETATM    3  N6  UNL     1     -35.088   4.421   4.562  1.00 20.00    -0.146 NA
ENDROOT
BRANCH   1   4
HETATM    4  C4  UNL     1     -34.078   6.494   3.837  1.00 20.00     0.056 C 
BRANCH   4   5
HETATM    5  C5  UNL     1     -32.688   6.166   3.297  1.00 20.00     0.001 C 
HETATM    6  C3  UNL     1     -31.802   7.397   3.170  1.00 20.00     0.005 C 
ENDBRANCH   4   5
ENDBRANCH   1   4
BRANCH   3   7
HETATM    7  O7  UNL     1     -35.451   3.657   5.672  1.00 20.00    -0.266 OA
HETATM    8  H18 UNL     1     -36.375   3.435   5.463  1.00 20.00     0.247 HD
ENDBRANCH   3   7
TORSDOF 3
ENDMDL
MODEL 2
REMARK VINA RESULT:      -4.3      1.723      1.847
REMARK  3 active torsions:
REMARK  status: ('A' for Active; 'I' for Inactive)
REMARK    1  A    between atoms: C1_1  and  C4_4 
REMARK    2  A    between atoms: C4_4  and  C5_5 
REMARK    3  A    between atoms: N6_6  and  O7_7 
ROOT
HETATM    1  C1  UNL     1     -34.135   5.756   4.488  1.00 20.00     0.035 C 
HETATM    2  C2  UNL     1     -35.226   4.713   4.540  1.00 20.00     0.068 C 
HETATM    3  N6  UNL     1     -33.748   6.455   5.511  1.00 20.00    -0.146 NA
ENDROOT
BRANCH   1   4
HETATM    4  C4  UNL     1     -33.422   5.975   3.166  1.00 20.00     0.056 C 
BRANCH   4   5
HETATM    5  C5  UNL     1     -32.165   6.826   3.326  1.00 20.00     0.001 C 
HETATM    6  C3  UNL     1     -32.085   7.955   2.307  1.00 20.00     0.005 C 
ENDBRANCH   4   5
ENDBRANCH   1   4
BRANCH   3   7
HETATM    7  O7  UNL     1     -34.476   6.117   6.654  1.00 20.00    -0.266 OA
HETATM    8  H18 UNL     1     -33.804   6.218   7.350  1.00 20.00     0.247 HD
ENDBRANCH   3   7
TORSDOF 3
ENDMDL
MODEL 3
REMARK VINA RESULT:      -4.0      1.067      1.358
REMARK  3 active torsions:
REMARK  status: ('A' for Active; 'I' for Inactive)
REMARK    1  A    between atoms: C1_1  and  C4_4 
REMARK    2  A    between atoms: C4_4  and  C5_5 
REMARK    3  A    between atoms: N6_6  and  O7_7 
ROOT
HETATM    1  C1  UNL     1     -33.851   5.779   4.067  1.00 20.00     0.035 C 
HETATM    2  C2  UNL     1     -33.767   6.445   5.420  1.00 20.00     0.068 C 
HETATM    3  N6  UNL     1     -34.830   5.012   3.694  1.00 20.00    -0.146 NA
ENDROOT
BRANCH   1   4
HETATM    4  C4  UNL     1     -32.741   6.053   3.069  1.00 20.00     0.056 C 
BRANCH   4   5
HETATM    5  C5  UNL     1     -32.080   7.409   3.305  1.00 20.00     0.001 C 
HETATM    6  C3  UNL     1     -32.029   8.265   2.047  1.00 20.00     0.005 C 
ENDBRANCH   4   5
ENDBRANCH   1   4
BRANCH   3   7
HETATM    7  O7  UNL     1     -35.782   4.883   4.708  1.00 20.00    -0.266 OA
HETATM    8  H18 UNL     1     -35.285   4.386   5.380  1.00 20.00     0.247 HD
ENDBRANCH   3   7
TORSDOF 3
ENDMDL
MODEL 4
REMARK VINA RESULT:      -4.0     11.872     12.190
REMARK  3 active torsions:
REMARK  status: ('A' for Active; 'I' for Inactive)
REMARK    1  A    between atoms: C1_1  and  C4_4 
REMARK    2  A    between atoms: C4_4  and  C5_5 
REMARK    3  A    between atoms: N6_6  and  O7_7 
ROOT
HETATM    1  C1  UNL     1     -34.829  14.622  -3.328  1.00 20.00     0.035 C 
HETATM    2  C2  UNL     1     -36.278  14.909  -3.644  1.00 20.00     0.068 C 
HETATM    3  N6  UNL     1     -34.244  13.488  -3.568  1.00 20.00    -0.146 NA
ENDROOT
BRANCH   1   4
HETATM    4  C4  UNL     1     -33.997  15.740  -2.728  1.00 20.00     0.056 C 
BRANCH   4   5
HETATM    5  C5  UNL     1     -34.628  16.307  -1.459  1.00 20.00     0.001 C 
HETATM    6  C3  UNL     1     -33.821  17.452  -0.862  1.00 20.00     0.005 C 
ENDBRANCH   4   5
ENDBRANCH   1   4
BRANCH   3   7
HETATM    7  O7  UNL     1     -35.132  12.577  -4.146  1.00 20.00    -0.266 OA
HETATM    8  H18 UNL     1     -34.520  11.943  -4.556  1.00 20.00     0.247 HD
ENDBRANCH   3   7
TORSDOF 3
ENDMDL
MODEL 5
REMARK VINA RESULT:      -3.8      2.872      3.657
REMARK  3 active torsions:
REMARK  status: ('A' for Active; 'I' for Inactive)
REMARK    1  A    between atoms: C1_1  and  C4_4 
REMARK    2  A    between atoms: C4_4  and  C5_5 
REMARK    3  A    between atoms: N6_6  and  O7_7 
ROOT
HETATM    1  C1  UNL     1     -33.403   6.321   3.911  1.00 20.00     0.035 C 
HETATM    2  C2  UNL     1     -33.454   6.877   5.315  1.00 20.00     0.068 C 
HETATM    3  N6  UNL     1     -32.474   6.607   3.050  1.00 20.00    -0.146 NA
ENDROOT
BRANCH   1   4
HETATM    4  C4  UNL     1     -34.484   5.341   3.494  1.00 20.00     0.056 C 
BRANCH   4   5
HETATM    5  C5  UNL     1     -35.424   4.999   4.648  1.00 20.00     0.001 C 
HETATM    6  C3  UNL     1     -34.896   3.871   5.523  1.00 20.00     0.005 C 
ENDBRANCH   4   5
ENDBRANCH   1   4
BRANCH   3   7
HETATM    7  O7  UNL     1     -31.541   7.493   3.593  1.00 20.00    -0.266 OA
HETATM    8  H18 UNL     1     -31.730   7.417   4.544  1.00 20.00     0.247 HD
ENDBRANCH   3   7
TORSDOF 3
ENDMDL
MODEL 6
REMARK VINA RESULT:      -3.8     11.944     12.222
REMARK  3 active torsions:
REMARK  status: ('A' for Active; 'I' for Inactive)
REMARK    1  A    between atoms: C1_1  and  C4_4 
REMARK    2  A    between atoms: C4_4  and  C5_5 
REMARK    3  A    between atoms: N6_6  and  O7_7 
ROOT
HETATM    1  C1  UNL     1     -34.666  14.428  -3.578  1.00 20.00     0.035 C 
HETATM    2  C2  UNL     1     -33.162  14.325  -3.667  1.00 20.00     0.068 C 
HETATM    3  N6  UNL     1     -35.486  13.589  -4.135  1.00 20.00    -0.146 NA
ENDROOT
BRANCH   1   4
HETATM    4  C4  UNL     1     -35.254  15.560  -2.757  1.00 20.00     0.056 C 
BRANCH   4   5
HETATM    5  C5  UNL     1     -34.179  16.348  -2.013  1.00 20.00     0.001 C 
HETATM    6  C3  UNL     1     -34.620  16.773  -0.619  1.00 20.00     0.005 C 
ENDBRANCH   4   5
ENDBRANCH   1   4
BRANCH   3   7
HETATM    7  O7  UNL     1     -34.793  12.592  -4.825  1.00 20.00    -0.266 OA
HETATM    8  H18 UNL     1     -33.999  12.488  -4.273  1.00 20.00     0.247 HD
ENDBRANCH   3   7
TORSDOF 3
ENDMDL
MODEL 7
REMARK VINA RESULT:      -3.8      2.935      3.980
REMARK  3 active torsions:
REMARK  status: ('A' for Active; 'I' for Inactive)
REMARK    1  A    between atoms: C1_1  and  C4_4 
REMARK    2  A    between atoms: C4_4  and  C5_5 
REMARK    3  A    between atoms: N6_6  and  O7_7 
ROOT
HETATM    1  C1  UNL     1     -33.324   6.342   3.829  1.00 20.00     0.035 C 
HETATM    2  C2  UNL     1     -33.920   5.558   2.683  1.00 20.00     0.068 C 
HETATM    3  N6  UNL     1     -32.356   7.197   3.698  1.00 20.00    -0.146 NA
ENDROOT
BRANCH   1   4
HETATM    4  C4  UNL     1     -33.917   6.143   5.211  1.00 20.00     0.056 C 
BRANCH   4   5
HETATM    5  C5  UNL     1     -35.112   5.192   5.191  1.00 20.00     0.001 C 
HETATM    6  C3  UNL     1     -34.830   3.877   5.905  1.00 20.00     0.005 C 
ENDBRANCH   4   5
ENDBRANCH   1   4
BRANCH   3   7
HETATM    7  O7  UNL     1     -31.943   7.289   2.367  1.00 20.00    -0.266 OA
HETATM    8  H18 UNL     1     -31.342   8.053   2.402  1.00 20.00     0.247 HD
ENDBRANCH   3   7
TORSDOF 3
ENDMDL
MODEL 8
REMARK VINA RESULT:      -3.7     11.889     12.663
REMARK  3 active torsions:
REMARK  status: ('A' for Active; 'I' for Inactive)
REMARK    1  A    between atoms: C1_1  and  C4_4 
REMARK    2  A    between atoms: C4_4  and  C5_5 
REMARK    3  A    between atoms: N6_6  and  O7_7 
ROOT
HETATM    1  C1  UNL     1     -34.468  14.461  -3.582  1.00 20.00     0.035 C 
HETATM    2  C2  UNL     1     -35.866  15.003  -3.404  1.00 20.00     0.068 C 
HETATM    3  N6  UNL     1     -34.201  13.240  -3.935  1.00 20.00    -0.146 NA
ENDROOT
BRANCH   1   4
HETATM    4  C4  UNL     1     -33.304  15.411  -3.371  1.00 20.00     0.056 C 
BRANCH   4   5
HETATM    5  C5  UNL     1     -33.639  16.835  -3.808  1.00 20.00     0.001 C 
HETATM    6  C3  UNL     1     -33.408  17.064  -5.296  1.00 20.00     0.005 C 
ENDBRANCH   4   5
ENDBRANCH   1   4
BRANCH   3   7
HETATM    7  O7  UNL     1     -35.373  12.504  -4.120  1.00 20.00    -0.266 OA
HETATM    8  H18 UNL     1     -36.036  13.084  -3.708  1.00 20.00     0.247 HD
ENDBRANCH   3   7
TORSDOF 3
ENDMDL
MODEL 9
REMARK VINA RESULT:      -3.6      1.858      3.303
REMARK  3 active torsions:
REMARK  status: ('A' for Active; 'I' for Inactive)
REMARK    1  A    between atoms: C1_1  and  C4_4 
REMARK    2  A    between atoms: C4_4  and  C5_5 
REMARK    3  A    between atoms: N6_6  and  O7_7 
ROOT
HETATM    1  C1  UNL     1     -33.674   6.051   4.113  1.00 20.00     0.035 C 
HETATM    2  C2  UNL     1     -32.350   6.377   3.463  1.00 20.00     0.068 C 
HETATM    3  N6  UNL     1     -34.661   5.471   3.500  1.00 20.00    -0.146 NA
ENDROOT
BRANCH   1   4
HETATM    4  C4  UNL     1     -33.849   6.389   5.582  1.00 20.00     0.056 C 
BRANCH   4   5
HETATM    5  C5  UNL     1     -34.812   5.432   6.280  1.00 20.00     0.001 C 
HETATM    6  C3  UNL     1     -34.460   3.969   6.048  1.00 20.00     0.005 C 
ENDBRANCH   4   5
ENDBRANCH   1   4
BRANCH   3   7
HETATM    7  O7  UNL     1     -34.335   5.198   2.170  1.00 20.00    -0.266 OA
HETATM    8  H18 UNL     1     -33.687   4.479   2.271  1.00 20.00     0.247 HD
ENDBRANCH   3   7
TORSDOF 3
ENDMDL
