MODEL 1
REMARK VINA RESULT:      -5.3      0.000      0.000
REMARK  0 active torsions:
REMARK  status: ('A' for Active; 'I' for Inactive)
ROOT
HETATM    1  C1  UNL     1     -35.168   4.442   4.850  1.00 20.00     0.027 A 
HETATM    2  C2  UNL     1     -35.192   4.798   6.191  1.00 20.00     0.116 A 
HETATM    3  C3  UNL     1     -33.765   6.592   5.876  1.00 20.00     0.124 A 
HETATM    4  C4  UNL     1     -34.381   5.221   4.027  1.00 20.00    -0.049 A 
HETATM    5  C5  UNL     1     -33.669   6.309   4.533  1.00 20.00    -0.030 A 
HETATM    6  C6  UNL     1     -34.189   5.099   2.547  1.00 20.00     0.040 C 
HETATM    7  C7  UNL     1     -32.917   5.937   2.348  1.00 20.00     0.014 C 
HETATM    8  C8  UNL     1     -32.936   7.028   3.441  1.00 20.00     0.017 C 
HETATM    9  C9  UNL     1     -31.540   7.505   3.806  1.00 20.00     0.015 C 
HETATM   10  N10 UNL     1     -34.513   5.849   6.725  1.00 20.00    -0.273 NA
ENDROOT
TORSDOF 0
ENDMDL
MODEL 2
REMARK VINA RESULT:      -4.7      9.563     10.766
REMARK  0 active torsions:
REMARK  status: ('A' for Active; 'I' for Inactive)
ROOT
HETATM    1  C1  UNL     1     -41.899   3.311  -2.374  1.00 20.00     0.027 A 
HETATM    2  C2  UNL     1     -42.872   3.441  -3.356  1.00 20.00     0.116 A 
HETATM    3  C3  UNL     1     -42.969   5.743  -3.144  1.00 20.00     0.124 A 
HETATM    4  C4  UNL     1     -41.484   4.481  -1.771  1.00 20.00    -0.049 A 
HETATM    5  C5  UNL     1     -42.016   5.714  -2.151  1.00 20.00    -0.030 A 
HETATM    6  C6  UNL     1     -40.436   4.654  -0.716  1.00 20.00     0.040 C 
HETATM    7  C7  UNL     1     -40.772   6.061  -0.199  1.00 20.00     0.014 C 
HETATM    8  C8  UNL     1     -41.371   6.835  -1.394  1.00 20.00     0.017 C 
HETATM    9  C9  UNL     1     -42.314   7.942  -0.952  1.00 20.00     0.015 C 
HETATM   10  N10 UNL     1     -43.417   4.621  -3.755  1.00 20.00    -0.273 NA
ENDROOT
TORSDOF 0
ENDMDL
MODEL 3
REMARK VINA RESULT:      -4.7      1.720      4.006
REMARK  0 active torsions:
REMARK  status: ('A' for Active; 'I' for Inactive)
ROOT
HETATM    1  C1  UNL     1     -32.236   7.489   4.277  1.00 20.00     0.027 A 
HETATM    2  C2  UNL     1     -32.040   7.138   2.949  1.00 20.00     0.116 A 
HETATM    3  C3  UNL     1     -33.711   5.538   2.987  1.00 20.00     0.124 A 
HETATM    4  C4  UNL     1     -33.219   6.794   4.952  1.00 20.00    -0.049 A 
HETATM    5  C5  UNL     1     -33.971   5.808   4.311  1.00 20.00    -0.030 A 
HETATM    6  C6  UNL     1     -33.673   6.976   6.367  1.00 20.00     0.040 C 
HETATM    7  C7  UNL     1     -34.433   5.662   6.601  1.00 20.00     0.014 C 
HETATM    8  C8  UNL     1     -35.007   5.239   5.232  1.00 20.00     0.017 C 
HETATM    9  C9  UNL     1     -35.206   3.735   5.128  1.00 20.00     0.015 C 
HETATM   10  N10 UNL     1     -32.749   6.183   2.288  1.00 20.00    -0.273 NA
ENDROOT
TORSDOF 0
ENDMDL
MODEL 4
REMARK VINA RESULT:      -4.6     12.468     13.722
REMARK  0 active torsions:
REMARK  status: ('A' for Active; 'I' for Inactive)
ROOT
HETATM    1  C1  UNL     1     -33.659  14.947  -3.590  1.00 20.00     0.027 A 
HETATM    2  C2  UNL     1     -34.139  13.658  -3.404  1.00 20.00     0.116 A 
HETATM    3  C3  UNL     1     -34.915  13.490  -5.577  1.00 20.00     0.124 A 
HETATM    4  C4  UNL     1     -33.852  15.493  -4.842  1.00 20.00    -0.049 A 
HETATM    5  C5  UNL     1     -34.483  14.767  -5.854  1.00 20.00    -0.030 A 
HETATM    6  C6  UNL     1     -33.416  16.835  -5.341  1.00 20.00     0.040 C 
HETATM    7  C7  UNL     1     -34.291  16.979  -6.596  1.00 20.00     0.014 C 
HETATM    8  C8  UNL     1     -34.525  15.549  -7.131  1.00 20.00     0.017 C 
HETATM    9  C9  UNL     1     -35.821  15.432  -7.918  1.00 20.00     0.015 C 
HETATM   10  N10 UNL     1     -34.760  12.918  -4.360  1.00 20.00    -0.273 NA
ENDROOT
TORSDOF 0
ENDMDL
MODEL 5
REMARK VINA RESULT:      -4.6     12.630     13.892
REMARK  0 active torsions:
REMARK  status: ('A' for Active; 'I' for Inactive)
ROOT
HETATM    1  C1  UNL     1     -34.993  14.702  -7.048  1.00 20.00     0.027 A 
HETATM    2  C2  UNL     1     -34.854  15.976  -7.580  1.00 20.00     0.116 A 
HETATM    3  C3  UNL     1     -33.864  16.812  -5.663  1.00 20.00     0.124 A 
HETATM    4  C4  UNL     1     -34.543  14.529  -5.755  1.00 20.00    -0.049 A 
HETATM    5  C5  UNL     1     -33.970  15.587  -5.047  1.00 20.00    -0.030 A 
HETATM    6  C6  UNL     1     -34.531  13.273  -4.942  1.00 20.00     0.040 C 
HETATM    7  C7  UNL     1     -34.332  13.842  -3.529  1.00 20.00     0.014 C 
HETATM    8  C8  UNL     1     -33.512  15.140  -3.692  1.00 20.00     0.017 C 
HETATM    9  C9  UNL     1     -33.766  16.130  -2.566  1.00 20.00     0.015 C 
HETATM   10  N10 UNL     1     -34.304  17.033  -6.924  1.00 20.00    -0.273 NA
ENDROOT
TORSDOF 0
ENDMDL
MODEL 6
REMARK VINA RESULT:      -4.4      1.569      3.257
REMARK  0 active torsions:
REMARK  status: ('A' for Active; 'I' for Inactive)
ROOT
HETATM    1  C1  UNL     1     -34.302   5.104   2.833  1.00 20.00     0.027 A 
HETATM    2  C2  UNL     1     -33.423   5.939   2.157  1.00 20.00     0.116 A 
HETATM    3  C3  UNL     1     -32.664   6.936   4.102  1.00 20.00     0.124 A 
HETATM    4  C4  UNL     1     -34.335   5.239   4.206  1.00 20.00    -0.049 A 
HETATM    5  C5  UNL     1     -33.513   6.160   4.858  1.00 20.00    -0.030 A 
HETATM    6  C6  UNL     1     -35.149   4.459   5.191  1.00 20.00     0.040 C 
HETATM    7  C7  UNL     1     -35.055   5.365   6.428  1.00 20.00     0.014 C 
HETATM    8  C8  UNL     1     -33.690   6.081   6.343  1.00 20.00     0.017 C 
HETATM    9  C9  UNL     1     -33.693   7.420   7.064  1.00 20.00     0.015 C 
HETATM   10  N10 UNL     1     -32.607   6.849   2.752  1.00 20.00    -0.273 NA
ENDROOT
TORSDOF 0
ENDMDL
MODEL 7
REMARK VINA RESULT:      -4.3     11.502     12.475
REMARK  0 active torsions:
REMARK  status: ('A' for Active; 'I' for Inactive)
ROOT
HETATM    1  C1  UNL     1     -35.891  14.117  -4.840  1.00 20.00     0.027 A 
HETATM    2  C2  UNL     1     -34.794  13.275  -4.958  1.00 20.00     0.116 A 
HETATM    3  C3  UNL     1     -33.693  14.239  -3.166  1.00 20.00     0.124 A 
HETATM    4  C4  UNL     1     -35.832  15.055  -3.829  1.00 20.00    -0.049 A 
HETATM    5  C5  UNL     1     -34.728  15.126  -2.978  1.00 20.00    -0.030 A 
HETATM    6  C6  UNL     1     -36.869  16.063  -3.444  1.00 20.00     0.040 C 
HETATM    7  C7  UNL     1     -36.034  17.029  -2.590  1.00 20.00     0.014 C 
HETATM    8  C8  UNL     1     -34.922  16.183  -1.933  1.00 20.00     0.017 C 
HETATM    9  C9  UNL     1     -33.684  17.005  -1.610  1.00 20.00     0.015 C 
HETATM   10  N10 UNL     1     -33.700  13.311  -4.151  1.00 20.00    -0.273 NA
ENDROOT
TORSDOF 0
ENDMDL
MODEL 8
REMARK VINA RESULT:      -4.3     12.249     13.483
REMARK  0 active torsions:
REMARK  status: ('A' for Active; 'I' for Inactive)
ROOT
HETATM    1  C1  UNL     1     -33.924  16.068  -2.452  1.00 20.00     0.027 A 
HETATM    2  C2  UNL     1     -33.847  17.431  -2.697  1.00 20.00     0.116 A 
HETATM    3  C3  UNL     1     -34.478  17.204  -4.911  1.00 20.00     0.124 A 
HETATM    4  C4  UNL     1     -34.287  15.276  -3.522  1.00 20.00    -0.049 A 
HETATM    5  C5  UNL     1     -34.569  15.838  -4.769  1.00 20.00    -0.030 A 
HETATM    6  C6  UNL     1     -34.483  13.793  -3.549  1.00 20.00     0.040 C 
HETATM    7  C7  UNL     1     -34.440  13.519  -5.060  1.00 20.00     0.014 C 
HETATM    8  C8  UNL     1     -34.991  14.786  -5.749  1.00 20.00     0.017 C 
HETATM    9  C9  UNL     1     -34.445  14.962  -7.158  1.00 20.00     0.015 C 
HETATM   10  N10 UNL     1     -34.113  18.019  -3.895  1.00 20.00    -0.273 NA
ENDROOT
TORSDOF 0
ENDMDL
MODEL 9
REMARK VINA RESULT:      -4.2     12.343     13.569
REMARK  0 active torsions:
REMARK  status: ('A' for Active; 'I' for Inactive)
ROOT
HETATM    1  C1  UNL     1     -34.524  13.974  -3.530  1.00 20.00     0.027 A 
HETATM    2  C2  UNL     1     -34.841  13.315  -4.709  1.00 20.00     0.116 A 
HETATM    3  C3  UNL     1     -34.348  15.152  -6.026  1.00 20.00     0.124 A 
HETATM    4  C4  UNL     1     -34.117  15.286  -3.657  1.00 20.00    -0.049 A 
HETATM    5  C5  UNL     1     -34.023  15.892  -4.912  1.00 20.00    -0.030 A 
HETATM    6  C6  UNL     1     -33.683  16.227  -2.577  1.00 20.00     0.040 C 
HETATM    7  C7  UNL     1     -33.793  17.577  -3.304  1.00 20.00     0.014 C 
HETATM    8  C8  UNL     1     -33.510  17.294  -4.795  1.00 20.00     0.017 C 
HETATM    9  C9  UNL     1     -34.180  18.305  -5.712  1.00 20.00     0.015 C 
HETATM   10  N10 UNL     1     -34.764  13.866  -5.950  1.00 20.00    -0.273 NA
ENDROOT
TORSDOF 0
ENDMDL
