MODEL 1
REMARK VINA RESULT:      -4.9      0.000      0.000
REMARK  1 active torsions:
REMARK  status: ('A' for Active; 'I' for Inactive)
REMARK    1  A    between atoms: C1_1  and  C2_2 
ROOT
HETATM    1  C1  UNL     1     -33.340   6.137   3.906  1.00 20.00     0.028 C 
HETATM    2  C4  UNL     1     -33.627   6.669   5.294  1.00 20.00     0.059 C 
HETATM    3  C5  UNL     1     -34.308   5.600   6.140  1.00 20.00     0.008 C 
HETATM    4  C6  UNL     1     -35.250   4.711   5.327  1.00 20.00     0.022 C 
HETATM    5  C7  UNL     1     -35.494   5.261   3.929  1.00 20.00     0.149 C 
HETATM    6  N9  UNL     1     -34.219   5.470   3.232  1.00 20.00    -0.294 NA
ENDROOT
BRANCH   1   7
HETATM    7  C2  UNL     1     -32.019   6.433   3.322  1.00 20.00     0.022 C 
HETATM    8  C3  UNL     1     -31.803   7.514   2.602  1.00 20.00    -0.029 C 
HETATM    9  C8  UNL     1     -32.881   8.512   2.330  1.00 20.00     0.036 C 
ENDBRANCH   1   7
TORSDOF 1
ENDMDL
MODEL 2
REMARK VINA RESULT:      -4.2      1.329      3.913
REMARK  1 active torsions:
REMARK  status: ('A' for Active; 'I' for Inactive)
REMARK    1  A    between atoms: C1_1  and  C2_2 
ROOT
HETATM    1  C1  UNL     1     -33.799   6.410   4.847  1.00 20.00     0.028 C 
HETATM    2  C4  UNL     1     -34.705   6.119   3.670  1.00 20.00     0.059 C 
HETATM    3  C5  UNL     1     -33.942   5.362   2.589  1.00 20.00     0.008 C 
HETATM    4  C6  UNL     1     -32.479   5.790   2.485  1.00 20.00     0.022 C 
HETATM    5  C7  UNL     1     -32.190   7.048   3.293  1.00 20.00     0.149 C 
HETATM    6  N9  UNL     1     -32.597   6.863   4.691  1.00 20.00    -0.294 NA
ENDROOT
BRANCH   1   7
HETATM    7  C2  UNL     1     -34.344   6.190   6.199  1.00 20.00     0.022 C 
HETATM    8  C3  UNL     1     -34.786   5.013   6.587  1.00 20.00    -0.029 C 
HETATM    9  C8  UNL     1     -34.767   3.823   5.685  1.00 20.00     0.036 C 
ENDBRANCH   1   7
TORSDOF 1
ENDMDL
MODEL 3
REMARK VINA RESULT:      -4.1      9.364     10.283
REMARK  1 active torsions:
REMARK  status: ('A' for Active; 'I' for Inactive)
REMARK    1  A    between atoms: C1_1  and  C2_2 
ROOT
HETATM    1  C1  UNL     1     -41.337   5.316  -1.140  1.00 20.00     0.028 C 
HETATM    2  C4  UNL     1     -42.063   5.278   0.187  1.00 20.00     0.059 C 
HETATM    3  C5  UNL     1     -43.246   6.239   0.171  1.00 20.00     0.008 C 
HETATM    4  C6  UNL     1     -42.972   7.503  -0.644  1.00 20.00     0.022 C 
HETATM    5  C7  UNL     1     -41.504   7.633  -1.026  1.00 20.00     0.149 C 
HETATM    6  N9  UNL     1     -41.052   6.429  -1.733  1.00 20.00    -0.294 NA
ENDROOT
BRANCH   1   7
HETATM    7  C2  UNL     1     -40.929   4.029  -1.733  1.00 20.00     0.022 C 
HETATM    8  C3  UNL     1     -41.685   3.394  -2.603  1.00 20.00    -0.029 C 
HETATM    9  C8  UNL     1     -43.006   3.932  -3.048  1.00 20.00     0.036 C 
ENDBRANCH   1   7
TORSDOF 1
ENDMDL
MODEL 4
REMARK VINA RESULT:      -4.0     11.061     12.076
REMARK  1 active torsions:
REMARK  status: ('A' for Active; 'I' for Inactive)
REMARK    1  A    between atoms: C1_1  and  C2_2 
ROOT
HETATM    1  C1  UNL     1     -34.787  15.086  -3.223  1.00 20.00     0.028 C 
HETATM    2  C4  UNL     1     -33.603  15.996  -2.977  1.00 20.00     0.059 C 
HETATM    3  C5  UNL     1     -33.805  16.792  -1.693  1.00 20.00     0.008 C 
HETATM    4  C6  UNL     1     -35.267  17.169  -1.452  1.00 20.00     0.022 C 
HETATM    5  C7  UNL     1     -36.138  16.897  -2.671  1.00 20.00     0.149 C 
HETATM    6  N9  UNL     1     -36.006  15.497  -3.091  1.00 20.00    -0.294 NA
ENDROOT
BRANCH   1   7
HETATM    7  C2  UNL     1     -34.508  13.703  -3.654  1.00 20.00     0.022 C 
HETATM    8  C3  UNL     1     -34.488  13.363  -4.925  1.00 20.00    -0.029 C 
HETATM    9  C8  UNL     1     -34.746  14.351  -6.015  1.00 20.00     0.036 C 
ENDBRANCH   1   7
TORSDOF 1
ENDMDL
MODEL 5
REMARK VINA RESULT:      -4.0     11.223     12.917
REMARK  1 active torsions:
REMARK  status: ('A' for Active; 'I' for Inactive)
REMARK    1  A    between atoms: C1_1  and  C2_2 
ROOT
HETATM    1  C1  UNL     1     -33.235  15.861  -3.782  1.00 20.00     0.028 C 
HETATM    2  C4  UNL     1     -33.866  16.532  -2.581  1.00 20.00     0.059 C 
HETATM    3  C5  UNL     1     -35.103  17.317  -3.003  1.00 20.00     0.008 C 
HETATM    4  C6  UNL     1     -34.962  17.948  -4.388  1.00 20.00     0.022 C 
HETATM    5  C7  UNL     1     -33.534  17.873  -4.909  1.00 20.00     0.149 C 
HETATM    6  N9  UNL     1     -33.059  16.485  -4.902  1.00 20.00    -0.294 NA
ENDROOT
BRANCH   1   7
HETATM    7  C2  UNL     1     -32.792  14.463  -3.629  1.00 20.00     0.022 C 
HETATM    8  C3  UNL     1     -33.604  13.449  -3.840  1.00 20.00    -0.029 C 
HETATM    9  C8  UNL     1     -35.027  13.646  -4.248  1.00 20.00     0.036 C 
ENDBRANCH   1   7
TORSDOF 1
ENDMDL
MODEL 6
REMARK VINA RESULT:      -3.9     11.441     12.468
REMARK  1 active torsions:
REMARK  status: ('A' for Active; 'I' for Inactive)
REMARK    1  A    between atoms: C1_1  and  C2_2 
ROOT
HETATM    1  C1  UNL     1     -34.050  15.282  -3.340  1.00 20.00     0.028 C 
HETATM    2  C4  UNL     1     -33.309  15.942  -4.483  1.00 20.00     0.059 C 
HETATM    3  C5  UNL     1     -34.048  15.713  -5.796  1.00 20.00     0.008 C 
HETATM    4  C6  UNL     1     -34.728  14.345  -5.864  1.00 20.00     0.022 C 
HETATM    5  C7  UNL     1     -34.291  13.431  -4.728  1.00 20.00     0.149 C 
HETATM    6  N9  UNL     1     -34.520  14.080  -3.432  1.00 20.00    -0.294 NA
ENDROOT
BRANCH   1   7
HETATM    7  C2  UNL     1     -34.197  16.047  -2.088  1.00 20.00     0.022 C 
HETATM    8  C3  UNL     1     -35.233  16.828  -1.869  1.00 20.00    -0.029 C 
HETATM    9  C8  UNL     1     -36.328  16.993  -2.872  1.00 20.00     0.036 C 
ENDBRANCH   1   7
TORSDOF 1
ENDMDL
MODEL 7
REMARK VINA RESULT:      -3.9      8.942     10.714
REMARK  1 active torsions:
REMARK  status: ('A' for Active; 'I' for Inactive)
REMARK    1  A    between atoms: C1_1  and  C2_2 
ROOT
HETATM    1  C1  UNL     1     -42.170   4.624  -1.863  1.00 20.00     0.028 C 
HETATM    2  C4  UNL     1     -40.861   4.635  -1.103  1.00 20.00     0.059 C 
HETATM    3  C5  UNL     1     -40.731   5.918  -0.289  1.00 20.00     0.008 C 
HETATM    4  C6  UNL     1     -41.351   7.128  -0.988  1.00 20.00     0.022 C 
HETATM    5  C7  UNL     1     -41.713   6.832  -2.436  1.00 20.00     0.149 C 
HETATM    6  N9  UNL     1     -42.592   5.659  -2.514  1.00 20.00    -0.294 NA
ENDROOT
BRANCH   1   7
HETATM    7  C2  UNL     1     -42.947   3.372  -1.867  1.00 20.00     0.022 C 
HETATM    8  C3  UNL     1     -42.617   2.351  -2.629  1.00 20.00    -0.029 C 
HETATM    9  C8  UNL     1     -41.434   2.392  -3.540  1.00 20.00     0.036 C 
ENDBRANCH   1   7
TORSDOF 1
ENDMDL
MODEL 8
REMARK VINA RESULT:      -3.9     11.375     13.112
REMARK  1 active torsions:
REMARK  status: ('A' for Active; 'I' for Inactive)
REMARK    1  A    between atoms: C1_1  and  C2_2 
ROOT
HETATM    1  C1  UNL     1     -34.414  14.759  -5.896  1.00 20.00     0.028 C 
HETATM    2  C4  UNL     1     -34.372  13.554  -4.981  1.00 20.00     0.059 C 
HETATM    3  C5  UNL     1     -34.670  13.970  -3.545  1.00 20.00     0.008 C 
HETATM    4  C6  UNL     1     -34.119  15.353  -3.201  1.00 20.00     0.022 C 
HETATM    5  C7  UNL     1     -33.178  15.880  -4.276  1.00 20.00     0.149 C 
HETATM    6  N9  UNL     1     -33.844  15.877  -5.584  1.00 20.00    -0.294 NA
ENDROOT
BRANCH   1   7
HETATM    7  C2  UNL     1     -35.109  14.610  -7.189  1.00 20.00     0.022 C 
HETATM    8  C3  UNL     1     -36.386  14.892  -7.327  1.00 20.00    -0.029 C 
HETATM    9  C8  UNL     1     -37.219  15.380  -6.187  1.00 20.00     0.036 C 
ENDBRANCH   1   7
TORSDOF 1
ENDMDL
MODEL 9
REMARK VINA RESULT:      -3.9     11.120     12.506
REMARK  1 active torsions:
REMARK  status: ('A' for Active; 'I' for Inactive)
REMARK    1  A    between atoms: C1_1  and  C2_2 
ROOT
HETATM    1  C1  UNL     1     -35.900  14.100  -4.623  1.00 20.00     0.028 C 
HETATM    2  C4  UNL     1     -35.990  14.875  -5.919  1.00 20.00     0.059 C 
HETATM    3  C5  UNL     1     -36.571  16.262  -5.668  1.00 20.00     0.008 C 
HETATM    4  C6  UNL     1     -37.628  16.271  -4.564  1.00 20.00     0.022 C 
HETATM    5  C7  UNL     1     -38.047  14.864  -4.158  1.00 20.00     0.149 C 
HETATM    6  N9  UNL     1     -36.873  14.073  -3.771  1.00 20.00    -0.294 NA
ENDROOT
BRANCH   1   7
HETATM    7  C2  UNL     1     -34.664  13.338  -4.367  1.00 20.00     0.022 C 
HETATM    8  C3  UNL     1     -33.625  13.879  -3.767  1.00 20.00    -0.029 C 
HETATM    9  C8  UNL     1     -33.628  15.300  -3.305  1.00 20.00     0.036 C 
ENDBRANCH   1   7
TORSDOF 1
ENDMDL
