MODEL 1
REMARK VINA RESULT:      -4.9      0.000      0.000
REMARK  4 active torsions:
REMARK  status: ('A' for Active; 'I' for Inactive)
REMARK    1  A    between atoms: C6_6  and  C8_8 
REMARK    2  A    between atoms: C7_7  and  C9_9 
REMARK    3  A    between atoms: C10_10  and  C11_11 
REMARK    4  A    between atoms: C11_11  and  O12_12 
ROOT
HETATM    1  C4  UNL     1     -35.768  15.365  -4.207  1.00 20.00     0.012 C 
HETATM    2  C5  UNL     1     -34.031  15.621  -5.849  1.00 20.00     0.012 C 
HETATM    3  C8  UNL     1     -34.657  16.170  -3.537  1.00 20.00    -0.006 C 
HETATM    4  C9  UNL     1     -33.541  16.334  -4.593  1.00 20.00    -0.006 C 
HETATM    5  C10 UNL     1     -35.061  14.605  -5.336  1.00 20.00     0.010 C 
ENDROOT
BRANCH   5   6
HETATM    6  C11 UNL     1     -34.404  13.316  -4.842  1.00 20.00     0.168 C 
BRANCH   6   7
HETATM    7  O12 UNL     1     -35.357  12.577  -4.099  1.00 20.00    -0.400 OA
HETATM    8  H30 UNL     1     -35.006  11.676  -4.003  1.00 20.00     0.209 HD
ENDBRANCH   6   7
ENDBRANCH   5   6
BRANCH   3   9
HETATM    9  C6  UNL     1     -34.915  17.619  -3.076  1.00 20.00    -0.010 C 
HETATM   10  C1  UNL     1     -33.686  18.269  -2.419  1.00 20.00     0.005 C 
HETATM   11  C2  UNL     1     -33.550  17.505  -1.095  1.00 20.00     0.005 C 
HETATM   12  C7  UNL     1     -34.718  16.505  -1.144  1.00 20.00    -0.010 C 
HETATM   13  C3  UNL     1     -35.789  17.364  -1.836  1.00 20.00     0.010 C 
ENDBRANCH   3   9
TORSDOF 4
ENDMDL
MODEL 2
REMARK VINA RESULT:      -4.8      2.745      4.955
REMARK  4 active torsions:
REMARK  status: ('A' for Active; 'I' for Inactive)
REMARK    1  A    between atoms: C6_6  and  C8_8 
REMARK    2  A    between atoms: C7_7  and  C9_9 
REMARK    3  A    between atoms: C10_10  and  C11_11 
REMARK    4  A    between atoms: C11_11  and  O12_12 
ROOT
HETATM    1  C4  UNL     1     -33.613  18.229  -2.254  1.00 20.00     0.012 C 
HETATM    2  C5  UNL     1     -34.980  17.634  -0.368  1.00 20.00     0.012 C 
HETATM    3  C8  UNL     1     -33.866  16.727  -2.362  1.00 20.00    -0.006 C 
HETATM    4  C9  UNL     1     -34.744  16.346  -1.150  1.00 20.00    -0.006 C 
HETATM    5  C10 UNL     1     -33.809  18.543  -0.766  1.00 20.00     0.010 C 
ENDROOT
BRANCH   5   6
HETATM    6  C11 UNL     1     -32.552  18.258   0.056  1.00 20.00     0.168 C 
BRANCH   6   7
HETATM    7  O12 UNL     1     -31.587  19.255  -0.232  1.00 20.00    -0.400 OA
HETATM    8  H30 UNL     1     -32.073  20.054  -0.497  1.00 20.00     0.209 HD
ENDBRANCH   6   7
ENDBRANCH   5   6
BRANCH   3   9
HETATM    9  C6  UNL     1     -34.655  16.154  -3.557  1.00 20.00    -0.010 C 
HETATM   10  C1  UNL     1     -34.982  14.659  -3.400  1.00 20.00     0.005 C 
HETATM   11  C2  UNL     1     -33.611  13.984  -3.537  1.00 20.00     0.005 C 
HETATM   12  C7  UNL     1     -32.655  15.168  -3.757  1.00 20.00    -0.010 C 
HETATM   13  C3  UNL     1     -33.542  16.084  -4.616  1.00 20.00     0.010 C 
ENDBRANCH   3   9
TORSDOF 4
ENDMDL
MODEL 3
REMARK VINA RESULT:      -4.4      2.367      4.572
REMARK  4 active torsions:
REMARK  status: ('A' for Active; 'I' for Inactive)
REMARK    1  A    between atoms: C6_6  and  C8_8 
REMARK    2  A    between atoms: C7_7  and  C9_9 
REMARK    3  A    between atoms: C10_10  and  C11_11 
REMARK    4  A    between atoms: C11_11  and  O12_12 
ROOT
HETATM    1  C4  UNL     1     -34.674  16.332  -1.017  1.00 20.00     0.012 C 
HETATM    2  C5  UNL     1     -33.609  18.487  -1.050  1.00 20.00     0.012 C 
HETATM    3  C8  UNL     1     -34.367  16.638  -2.481  1.00 20.00    -0.006 C 
HETATM    4  C9  UNL     1     -33.682  18.023  -2.501  1.00 20.00    -0.006 C 
HETATM    5  C10 UNL     1     -34.726  17.708  -0.342  1.00 20.00     0.010 C 
ENDROOT
BRANCH   5   6
HETATM    6  C11 UNL     1     -36.089  18.380  -0.502  1.00 20.00     0.168 C 
BRANCH   6   7
HETATM    7  O12 UNL     1     -36.904  18.021   0.600  1.00 20.00    -0.400 OA
HETATM    8  H30 UNL     1     -37.785  17.812   0.246  1.00 20.00     0.209 HD
ENDBRANCH   6   7
ENDBRANCH   5   6
BRANCH   3   9
HETATM    9  C6  UNL     1     -33.382  15.753  -3.272  1.00 20.00    -0.010 C 
HETATM   10  C1  UNL     1     -33.203  16.208  -4.730  1.00 20.00     0.005 C 
HETATM   11  C2  UNL     1     -34.557  15.876  -5.371  1.00 20.00     0.005 C 
HETATM   12  C7  UNL     1     -35.358  15.267  -4.207  1.00 20.00    -0.010 C 
HETATM   13  C3  UNL     1     -34.245  14.496  -3.479  1.00 20.00     0.010 C 
ENDBRANCH   3   9
TORSDOF 4
ENDMDL
MODEL 4
REMARK VINA RESULT:      -4.4      1.124      1.414
REMARK  4 active torsions:
REMARK  status: ('A' for Active; 'I' for Inactive)
REMARK    1  A    between atoms: C6_6  and  C8_8 
REMARK    2  A    between atoms: C7_7  and  C9_9 
REMARK    3  A    between atoms: C10_10  and  C11_11 
REMARK    4  A    between atoms: C11_11  and  O12_12 
ROOT
HETATM    1  C4  UNL     1     -35.310  16.416  -4.209  1.00 20.00     0.012 C 
HETATM    2  C5  UNL     1     -33.486  14.851  -4.154  1.00 20.00     0.012 C 
HETATM    3  C8  UNL     1     -34.697  16.519  -2.815  1.00 20.00    -0.006 C 
HETATM    4  C9  UNL     1     -33.525  15.513  -2.781  1.00 20.00    -0.006 C 
HETATM    5  C10 UNL     1     -34.910  15.019  -4.700  1.00 20.00     0.010 C 
ENDROOT
BRANCH   5   6
HETATM    6  C11 UNL     1     -35.857  13.934  -4.189  1.00 20.00     0.168 C 
BRANCH   6   7
HETATM    7  O12 UNL     1     -35.163  12.699  -4.168  1.00 20.00    -0.400 OA
HETATM    8  H30 UNL     1     -34.279  12.876  -3.802  1.00 20.00     0.209 HD
ENDBRANCH   6   7
ENDBRANCH   5   6
BRANCH   3   9
HETATM    9  C6  UNL     1     -34.040  17.834  -2.348  1.00 20.00    -0.010 C 
HETATM   10  C1  UNL     1     -33.412  17.728  -0.948  1.00 20.00     0.005 C 
HETATM   11  C2  UNL     1     -34.631  17.604  -0.024  1.00 20.00     0.005 C 
HETATM   12  C7  UNL     1     -35.819  17.654  -1.000  1.00 20.00    -0.010 C 
HETATM   13  C3  UNL     1     -35.291  18.669  -2.027  1.00 20.00     0.010 C 
ENDBRANCH   3   9
TORSDOF 4
ENDMDL
MODEL 5
REMARK VINA RESULT:      -4.3      1.568      2.572
REMARK  4 active torsions:
REMARK  status: ('A' for Active; 'I' for Inactive)
REMARK    1  A    between atoms: C6_6  and  C8_8 
REMARK    2  A    between atoms: C7_7  and  C9_9 
REMARK    3  A    between atoms: C10_10  and  C11_11 
REMARK    4  A    between atoms: C11_11  and  O12_12 
ROOT
HETATM    1  C4  UNL     1     -33.264  15.755  -3.221  1.00 20.00     0.012 C 
HETATM    2  C5  UNL     1     -35.312  14.568  -3.640  1.00 20.00     0.012 C 
HETATM    3  C8  UNL     1     -34.375  16.565  -2.556  1.00 20.00    -0.006 C 
HETATM    4  C9  UNL     1     -35.690  15.800  -2.826  1.00 20.00    -0.006 C 
HETATM    5  C10 UNL     1     -33.981  14.943  -4.306  1.00 20.00     0.010 C 
ENDROOT
BRANCH   5   6
HETATM    6  C11 UNL     1     -34.184  15.746  -5.591  1.00 20.00     0.168 C 
BRANCH   6   7
HETATM    7  O12 UNL     1     -33.882  14.915  -6.698  1.00 20.00    -0.400 OA
HETATM    8  H30 UNL     1     -34.181  14.018  -6.470  1.00 20.00     0.209 HD
ENDBRANCH   6   7
ENDBRANCH   5   6
BRANCH   3   9
HETATM    9  C6  UNL     1     -34.391  16.754  -1.025  1.00 20.00    -0.010 C 
HETATM   10  C1  UNL     1     -35.586  17.590  -0.536  1.00 20.00     0.005 C 
HETATM   11  C2  UNL     1     -35.267  18.998  -1.054  1.00 20.00     0.005 C 
HETATM   12  C7  UNL     1     -33.924  18.809  -1.782  1.00 20.00    -0.010 C 
HETATM   13  C3  UNL     1     -33.254  17.777  -0.861  1.00 20.00     0.010 C 
ENDBRANCH   3   9
TORSDOF 4
ENDMDL
MODEL 6
REMARK VINA RESULT:      -4.3      1.369      2.267
REMARK  4 active torsions:
REMARK  status: ('A' for Active; 'I' for Inactive)
REMARK    1  A    between atoms: C6_6  and  C8_8 
REMARK    2  A    between atoms: C7_7  and  C9_9 
REMARK    3  A    between atoms: C10_10  and  C11_11 
REMARK    4  A    between atoms: C11_11  and  O12_12 
ROOT
HETATM    1  C4  UNL     1     -33.759  16.035  -4.765  1.00 20.00     0.012 C 
HETATM    2  C5  UNL     1     -34.314  13.780  -4.146  1.00 20.00     0.012 C 
HETATM    3  C8  UNL     1     -34.475  16.122  -3.420  1.00 20.00    -0.006 C 
HETATM    4  C9  UNL     1     -34.832  14.672  -3.023  1.00 20.00    -0.006 C 
HETATM    5  C10 UNL     1     -34.235  14.706  -5.366  1.00 20.00     0.010 C 
ENDROOT
BRANCH   5   6
HETATM    6  C11 UNL     1     -35.581  14.842  -6.077  1.00 20.00     0.168 C 
BRANCH   6   7
HETATM    7  O12 UNL     1     -35.469  14.280  -7.372  1.00 20.00    -0.400 OA
HETATM    8  H30 UNL     1     -34.584  13.882  -7.434  1.00 20.00     0.209 HD
ENDBRANCH   6   7
ENDBRANCH   5   6
BRANCH   3   9
HETATM    9  C6  UNL     1     -33.734  16.651  -2.176  1.00 20.00    -0.010 C 
HETATM   10  C1  UNL     1     -34.598  16.619  -0.903  1.00 20.00     0.005 C 
HETATM   11  C2  UNL     1     -35.651  17.704  -1.165  1.00 20.00     0.005 C 
HETATM   12  C7  UNL     1     -35.271  18.235  -2.557  1.00 20.00    -0.010 C 
HETATM   13  C3  UNL     1     -33.737  18.161  -2.473  1.00 20.00     0.010 C 
ENDBRANCH   3   9
TORSDOF 4
ENDMDL
MODEL 7
REMARK VINA RESULT:      -4.2      1.419      2.196
REMARK  4 active torsions:
REMARK  status: ('A' for Active; 'I' for Inactive)
REMARK    1  A    between atoms: C6_6  and  C8_8 
REMARK    2  A    between atoms: C7_7  and  C9_9 
REMARK    3  A    between atoms: C10_10  and  C11_11 
REMARK    4  A    between atoms: C11_11  and  O12_12 
ROOT
HETATM    1  C4  UNL     1     -34.276  15.816  -5.479  1.00 20.00     0.012 C 
HETATM    2  C5  UNL     1     -33.274  14.533  -3.711  1.00 20.00     0.012 C 
HETATM    3  C8  UNL     1     -34.345  16.684  -4.226  1.00 20.00    -0.006 C 
HETATM    4  C9  UNL     1     -33.701  15.859  -3.089  1.00 20.00    -0.006 C 
HETATM    5  C10 UNL     1     -34.172  14.382  -4.946  1.00 20.00     0.010 C 
ENDROOT
BRANCH   5   6
HETATM    6  C11 UNL     1     -35.539  13.794  -4.597  1.00 20.00     0.168 C 
BRANCH   6   7
HETATM    7  O12 UNL     1     -35.351  12.502  -4.049  1.00 20.00    -0.400 OA
HETATM    8  H30 UNL     1     -35.753  11.869  -4.668  1.00 20.00     0.209 HD
ENDBRANCH   6   7
ENDBRANCH   5   6
BRANCH   3   9
HETATM    9  C6  UNL     1     -33.579  18.021  -4.161  1.00 20.00    -0.010 C 
HETATM   10  C1  UNL     1     -33.746  18.745  -2.814  1.00 20.00     0.005 C 
HETATM   11  C2  UNL     1     -35.214  19.189  -2.833  1.00 20.00     0.005 C 
HETATM   12  C7  UNL     1     -35.722  18.670  -4.189  1.00 20.00    -0.010 C 
HETATM   13  C3  UNL     1     -34.473  18.896  -5.056  1.00 20.00     0.010 C 
ENDBRANCH   3   9
TORSDOF 4
ENDMDL
MODEL 8
REMARK VINA RESULT:      -4.1      1.847      3.427
REMARK  4 active torsions:
REMARK  status: ('A' for Active; 'I' for Inactive)
REMARK    1  A    between atoms: C6_6  and  C8_8 
REMARK    2  A    between atoms: C7_7  and  C9_9 
REMARK    3  A    between atoms: C10_10  and  C11_11 
REMARK    4  A    between atoms: C11_11  and  O12_12 
ROOT
HETATM    1  C4  UNL     1     -33.345  15.673  -4.468  1.00 20.00     0.012 C 
HETATM    2  C5  UNL     1     -35.147  15.045  -3.007  1.00 20.00     0.012 C 
HETATM    3  C8  UNL     1     -34.561  16.480  -4.913  1.00 20.00    -0.006 C 
HETATM    4  C9  UNL     1     -35.719  16.076  -3.974  1.00 20.00    -0.006 C 
HETATM    5  C10 UNL     1     -33.937  14.457  -3.745  1.00 20.00     0.010 C 
ENDROOT
BRANCH   5   6
HETATM    6  C11 UNL     1     -34.336  13.345  -4.716  1.00 20.00     0.168 C 
BRANCH   6   7
HETATM    7  O12 UNL     1     -35.356  12.565  -4.117  1.00 20.00    -0.400 OA
HETATM    8  H30 UNL     1     -35.053  12.342  -3.220  1.00 20.00     0.209 HD
ENDBRANCH   6   7
ENDBRANCH   5   6
BRANCH   3   9
HETATM    9  C6  UNL     1     -34.554  18.019  -4.813  1.00 20.00    -0.010 C 
HETATM   10  C1  UNL     1     -35.858  18.661  -5.319  1.00 20.00     0.005 C 
HETATM   11  C2  UNL     1     -35.807  18.413  -6.832  1.00 20.00     0.005 C 
HETATM   12  C7  UNL     1     -34.480  17.659  -7.022  1.00 20.00    -0.010 C 
HETATM   13  C3  UNL     1     -33.607  18.368  -5.974  1.00 20.00     0.010 C 
ENDBRANCH   3   9
TORSDOF 4
ENDMDL
MODEL 9
REMARK VINA RESULT:      -4.1      2.093      4.369
REMARK  4 active torsions:
REMARK  status: ('A' for Active; 'I' for Inactive)
REMARK    1  A    between atoms: C6_6  and  C8_8 
REMARK    2  A    between atoms: C7_7  and  C9_9 
REMARK    3  A    between atoms: C10_10  and  C11_11 
REMARK    4  A    between atoms: C11_11  and  O12_12 
ROOT
HETATM    1  C4  UNL     1     -33.783  16.507  -2.007  1.00 20.00     0.012 C 
HETATM    2  C5  UNL     1     -34.253  18.586  -3.117  1.00 20.00     0.012 C 
HETATM    3  C8  UNL     1     -34.358  16.144  -3.374  1.00 20.00    -0.006 C 
HETATM    4  C9  UNL     1     -34.660  17.482  -4.087  1.00 20.00    -0.006 C 
HETATM    5  C10 UNL     1     -34.308  17.922  -1.735  1.00 20.00     0.010 C 
ENDROOT
BRANCH   5   6
HETATM    6  C11 UNL     1     -35.721  17.913  -1.153  1.00 20.00     0.168 C 
BRANCH   6   7
HETATM    7  O12 UNL     1     -35.671  17.367   0.153  1.00 20.00    -0.400 OA
HETATM    8  H30 UNL     1     -34.795  17.579   0.516  1.00 20.00     0.209 HD
ENDBRANCH   6   7
ENDBRANCH   5   6
BRANCH   3   9
HETATM    9  C6  UNL     1     -33.498  15.388  -4.406  1.00 20.00    -0.010 C 
HETATM   10  C1  UNL     1     -34.213  15.184  -5.752  1.00 20.00     0.005 C 
HETATM   11  C2  UNL     1     -35.316  14.172  -5.414  1.00 20.00     0.005 C 
HETATM   12  C7  UNL     1     -35.107  13.910  -3.913  1.00 20.00    -0.010 C 
HETATM   13  C3  UNL     1     -33.572  13.961  -3.835  1.00 20.00     0.010 C 
ENDBRANCH   3   9
TORSDOF 4
ENDMDL
