MODEL 1
REMARK VINA RESULT:      -4.5      0.000      0.000
REMARK  0 active torsions:
REMARK  status: ('A' for Active; 'I' for Inactive)
ROOT
HETATM    1  C1  UNL     1     -33.057   6.216   3.714  1.00 20.00     0.064 C 
HETATM    2  C2  UNL     1     -35.387   5.410   3.969  1.00 20.00     0.045 C 
HETATM    3  C3  UNL     1     -34.155   6.392   5.929  1.00 20.00     0.045 C 
HETATM    4  C4  UNL     1     -35.141   4.040   4.596  1.00 20.00     0.169 C 
HETATM    5  C5  UNL     1     -33.982   4.964   6.440  1.00 20.00     0.169 C 
HETATM    6  C6  UNL     1     -34.340   6.439   4.408  1.00 20.00     0.097 C 
HETATM    7  N7  UNL     1     -32.049   6.041   3.168  1.00 20.00    -0.197 NA
HETATM    8  O8  UNL     1     -35.065   4.139   6.016  1.00 20.00    -0.391 OA
ENDROOT
TORSDOF 0
ENDMDL
MODEL 2
REMARK VINA RESULT:      -4.1     12.458     13.010
REMARK  0 active torsions:
REMARK  status: ('A' for Active; 'I' for Inactive)
ROOT
HETATM    1  C1  UNL     1     -33.355  16.089  -4.362  1.00 20.00     0.064 C 
HETATM    2  C2  UNL     1     -35.140  15.346  -2.811  1.00 20.00     0.045 C 
HETATM    3  C3  UNL     1     -33.557  13.678  -3.827  1.00 20.00     0.045 C 
HETATM    4  C4  UNL     1     -36.186  14.850  -3.805  1.00 20.00     0.169 C 
HETATM    5  C5  UNL     1     -34.696  13.280  -4.763  1.00 20.00     0.169 C 
HETATM    6  C6  UNL     1     -33.711  15.114  -3.314  1.00 20.00     0.097 C 
HETATM    7  N7  UNL     1     -33.074  16.857  -5.185  1.00 20.00    -0.197 NA
HETATM    8  O8  UNL     1     -35.960  13.481  -4.136  1.00 20.00    -0.391 OA
ENDROOT
TORSDOF 0
ENDMDL
MODEL 3
REMARK VINA RESULT:      -4.0     12.671     13.559
REMARK  0 active torsions:
REMARK  status: ('A' for Active; 'I' for Inactive)
ROOT
HETATM    1  C1  UNL     1     -36.024  13.994  -4.269  1.00 20.00     0.064 C 
HETATM    2  C2  UNL     1     -34.458  14.652  -6.074  1.00 20.00     0.045 C 
HETATM    3  C3  UNL     1     -33.585  13.858  -3.853  1.00 20.00     0.045 C 
HETATM    4  C4  UNL     1     -34.096  16.066  -5.628  1.00 20.00     0.169 C 
HETATM    5  C5  UNL     1     -33.275  15.320  -3.537  1.00 20.00     0.169 C 
HETATM    6  C6  UNL     1     -34.711  13.721  -4.883  1.00 20.00     0.097 C 
HETATM    7  N7  UNL     1     -37.057  14.209  -3.787  1.00 20.00    -0.197 NA
HETATM    8  O8  UNL     1     -32.987  16.045  -4.731  1.00 20.00    -0.391 OA
ENDROOT
TORSDOF 0
ENDMDL
MODEL 4
REMARK VINA RESULT:      -4.0     12.623     13.535
REMARK  0 active torsions:
REMARK  status: ('A' for Active; 'I' for Inactive)
ROOT
HETATM    1  C1  UNL     1     -34.550  13.550  -4.111  1.00 20.00     0.064 C 
HETATM    2  C2  UNL     1     -32.936  15.394  -3.736  1.00 20.00     0.045 C 
HETATM    3  C3  UNL     1     -35.326  15.616  -2.985  1.00 20.00     0.045 C 
HETATM    4  C4  UNL     1     -33.292  16.317  -4.897  1.00 20.00     0.169 C 
HETATM    5  C5  UNL     1     -35.541  16.527  -4.191  1.00 20.00     0.169 C 
HETATM    6  C6  UNL     1     -34.161  14.644  -3.201  1.00 20.00     0.097 C 
HETATM    7  N7  UNL     1     -34.854  12.689  -4.827  1.00 20.00    -0.197 NA
HETATM    8  O8  UNL     1     -34.338  17.214  -4.529  1.00 20.00    -0.391 OA
ENDROOT
TORSDOF 0
ENDMDL
MODEL 5
REMARK VINA RESULT:      -3.8     12.501     13.393
REMARK  0 active torsions:
REMARK  status: ('A' for Active; 'I' for Inactive)
ROOT
HETATM    1  C1  UNL     1     -34.137  15.804  -2.558  1.00 20.00     0.064 C 
HETATM    2  C2  UNL     1     -33.349  13.797  -3.781  1.00 20.00     0.045 C 
HETATM    3  C3  UNL     1     -33.304  16.060  -4.878  1.00 20.00     0.045 C 
HETATM    4  C4  UNL     1     -34.577  13.490  -4.633  1.00 20.00     0.169 C 
HETATM    5  C5  UNL     1     -34.535  15.619  -5.666  1.00 20.00     0.169 C 
HETATM    6  C6  UNL     1     -33.170  15.302  -3.552  1.00 20.00     0.097 C 
HETATM    7  N7  UNL     1     -34.897  16.199  -1.775  1.00 20.00    -0.197 NA
HETATM    8  O8  UNL     1     -34.530  14.207  -5.865  1.00 20.00    -0.391 OA
ENDROOT
TORSDOF 0
ENDMDL
MODEL 6
REMARK VINA RESULT:      -3.8      8.956      9.893
REMARK  0 active torsions:
REMARK  status: ('A' for Active; 'I' for Inactive)
ROOT
HETATM    1  C1  UNL     1     -42.447   4.808   0.590  1.00 20.00     0.064 C 
HETATM    2  C2  UNL     1     -41.555   4.459  -1.696  1.00 20.00     0.045 C 
HETATM    3  C3  UNL     1     -40.482   6.125  -0.149  1.00 20.00     0.045 C 
HETATM    4  C4  UNL     1     -42.179   5.647  -2.424  1.00 20.00     0.169 C 
HETATM    5  C5  UNL     1     -41.169   7.216  -0.967  1.00 20.00     0.169 C 
HETATM    6  C6  UNL     1     -41.225   4.788  -0.236  1.00 20.00     0.097 C 
HETATM    7  N7  UNL     1     -43.408   4.823   1.240  1.00 20.00    -0.197 NA
HETATM    8  O8  UNL     1     -41.345   6.799  -2.319  1.00 20.00    -0.391 OA
ENDROOT
TORSDOF 0
ENDMDL
MODEL 7
REMARK VINA RESULT:      -3.7     12.694     13.609
REMARK  0 active torsions:
REMARK  status: ('A' for Active; 'I' for Inactive)
ROOT
HETATM    1  C1  UNL     1     -35.287  13.763  -4.166  1.00 20.00     0.064 C 
HETATM    2  C2  UNL     1     -34.849  15.587  -2.545  1.00 20.00     0.045 C 
HETATM    3  C3  UNL     1     -35.659  16.111  -4.867  1.00 20.00     0.045 C 
HETATM    4  C4  UNL     1     -33.466  16.042  -3.004  1.00 20.00     0.169 C 
HETATM    5  C5  UNL     1     -34.228  16.536  -5.189  1.00 20.00     0.169 C 
HETATM    6  C6  UNL     1     -35.712  15.102  -3.715  1.00 20.00     0.097 C 
HETATM    7  N7  UNL     1     -34.952  12.711  -4.520  1.00 20.00    -0.197 NA
HETATM    8  O8  UNL     1     -33.572  17.032  -4.025  1.00 20.00    -0.391 OA
ENDROOT
TORSDOF 0
ENDMDL
MODEL 8
REMARK VINA RESULT:      -3.7     12.550     13.201
REMARK  0 active torsions:
REMARK  status: ('A' for Active; 'I' for Inactive)
ROOT
HETATM    1  C1  UNL     1     -35.053  14.064  -5.758  1.00 20.00     0.064 C 
HETATM    2  C2  UNL     1     -33.544  13.674  -3.831  1.00 20.00     0.045 C 
HETATM    3  C3  UNL     1     -35.770  14.795  -3.502  1.00 20.00     0.045 C 
HETATM    4  C4  UNL     1     -32.910  15.055  -3.688  1.00 20.00     0.169 C 
HETATM    5  C5  UNL     1     -35.005  16.111  -3.379  1.00 20.00     0.169 C 
HETATM    6  C6  UNL     1     -34.995  13.755  -4.317  1.00 20.00     0.097 C 
HETATM    7  N7  UNL     1     -35.098  14.307  -6.892  1.00 20.00    -0.197 NA
HETATM    8  O8  UNL     1     -33.701  15.890  -2.846  1.00 20.00    -0.391 OA
ENDROOT
TORSDOF 0
ENDMDL
MODEL 9
REMARK VINA RESULT:      -3.7     12.851     13.581
REMARK  0 active torsions:
REMARK  status: ('A' for Active; 'I' for Inactive)
ROOT
HETATM    1  C1  UNL     1     -36.487  14.210  -3.887  1.00 20.00     0.064 C 
HETATM    2  C2  UNL     1     -34.531  13.824  -5.360  1.00 20.00     0.045 C 
HETATM    3  C3  UNL     1     -34.265  15.050  -3.180  1.00 20.00     0.045 C 
HETATM    4  C4  UNL     1     -34.430  15.181  -6.051  1.00 20.00     0.169 C 
HETATM    5  C5  UNL     1     -34.180  16.335  -4.000  1.00 20.00     0.169 C 
HETATM    6  C6  UNL     1     -35.035  13.949  -3.918  1.00 20.00     0.097 C 
HETATM    7  N7  UNL     1     -37.629  14.413  -3.863  1.00 20.00    -0.197 NA
HETATM    8  O8  UNL     1     -33.626  16.079  -5.288  1.00 20.00    -0.391 OA
ENDROOT
TORSDOF 0
ENDMDL
