MODEL 1
REMARK VINA RESULT:      -5.2      0.000      0.000
REMARK  5 active torsions:
REMARK  status: ('A' for Active; 'I' for Inactive)
REMARK    1  A    between atoms: C3_3  and  C6_6 
REMARK    2  A    between atoms: C5_5  and  C7_7 
REMARK    3  A    between atoms: C6_6  and  C8_8 
REMARK    4  A    between atoms: C7_7  and  C9_9 
REMARK    5  A    between atoms: C8_8  and  C9_9 
ROOT
HETATM    1  C1  UNL     1     -32.314   8.810   0.635  1.00 20.00     0.059 C 
HETATM    2  C5  UNL     1     -31.657   8.350   1.867  1.00 20.00     0.124 C 
HETATM    3  N10 UNL     1     -32.831   9.174  -0.338  1.00 20.00    -0.197 NA
ENDROOT
BRANCH   2   4
HETATM    4  C7  UNL     1     -32.642   7.702   2.842  1.00 20.00     0.014 C 
BRANCH   4   5
HETATM    5  C9  UNL     1     -32.359   6.213   3.071  1.00 20.00     0.001 C 
BRANCH   5   6
HETATM    6  C8  UNL     1     -33.646   5.386   2.983  1.00 20.00     0.004 C 
BRANCH   6   7
HETATM    7  C6  UNL     1     -34.744   5.873   3.938  1.00 20.00     0.033 C 
BRANCH   7   8
HETATM    8  C3  UNL     1     -34.604   5.386   5.361  1.00 20.00    -0.093 C 
HETATM    9  C2  UNL     1     -34.900   4.122   5.701  1.00 20.00     0.014 C 
HETATM   10  C4  UNL     1     -34.083   6.366   6.372  1.00 20.00     0.042 C 
ENDBRANCH   7   8
ENDBRANCH   6   7
ENDBRANCH   5   6
ENDBRANCH   4   5
ENDBRANCH   2   4
TORSDOF 5
ENDMDL
MODEL 2
REMARK VINA RESULT:      -5.0      2.515      4.969
REMARK  5 active torsions:
REMARK  status: ('A' for Active; 'I' for Inactive)
REMARK    1  A    between atoms: C3_3  and  C6_6 
REMARK    2  A    between atoms: C5_5  and  C7_7 
REMARK    3  A    between atoms: C6_6  and  C8_8 
REMARK    4  A    between atoms: C7_7  and  C9_9 
REMARK    5  A    between atoms: C8_8  and  C9_9 
ROOT
HETATM    1  C1  UNL     1     -34.283   5.849   6.407  1.00 20.00     0.059 C 
HETATM    2  C5  UNL     1     -34.797   4.527   6.021  1.00 20.00     0.124 C 
HETATM    3  N10 UNL     1     -33.878   6.892   6.715  1.00 20.00    -0.197 NA
ENDROOT
BRANCH   2   4
HETATM    4  C7  UNL     1     -35.116   4.444   4.527  1.00 20.00     0.014 C 
BRANCH   4   5
HETATM    5  C9  UNL     1     -34.914   5.778   3.801  1.00 20.00     0.001 C 
BRANCH   5   6
HETATM    6  C8  UNL     1     -33.877   5.646   2.680  1.00 20.00     0.004 C 
BRANCH   6   7
HETATM    7  C6  UNL     1     -32.435   5.843   3.165  1.00 20.00     0.033 C 
BRANCH   7   8
HETATM    8  C3  UNL     1     -31.962   7.278   3.168  1.00 20.00    -0.093 C 
HETATM    9  C2  UNL     1     -31.372   7.819   4.246  1.00 20.00     0.014 C 
HETATM   10  C4  UNL     1     -32.146   8.063   1.901  1.00 20.00     0.042 C 
ENDBRANCH   7   8
ENDBRANCH   6   7
ENDBRANCH   5   6
ENDBRANCH   4   5
ENDBRANCH   2   4
TORSDOF 5
ENDMDL
MODEL 3
REMARK VINA RESULT:      -4.9      2.752      5.408
REMARK  5 active torsions:
REMARK  status: ('A' for Active; 'I' for Inactive)
REMARK    1  A    between atoms: C3_3  and  C6_6 
REMARK    2  A    between atoms: C5_5  and  C7_7 
REMARK    3  A    between atoms: C6_6  and  C8_8 
REMARK    4  A    between atoms: C7_7  and  C9_9 
REMARK    5  A    between atoms: C8_8  and  C9_9 
ROOT
HETATM    1  C1  UNL     1     -34.848   4.540   5.651  1.00 20.00     0.059 C 
HETATM    2  C5  UNL     1     -34.467   5.809   6.288  1.00 20.00     0.124 C 
HETATM    3  N10 UNL     1     -35.150   3.538   5.150  1.00 20.00    -0.197 NA
ENDROOT
BRANCH   2   4
HETATM    4  C7  UNL     1     -33.573   6.663   5.387  1.00 20.00     0.014 C 
BRANCH   4   5
HETATM    5  C9  UNL     1     -33.959   6.572   3.907  1.00 20.00     0.001 C 
BRANCH   5   6
HETATM    6  C8  UNL     1     -32.718   6.435   3.019  1.00 20.00     0.004 C 
BRANCH   6   7
HETATM    7  C6  UNL     1     -31.841   7.693   3.007  1.00 20.00     0.033 C 
BRANCH   7   8
HETATM    8  C3  UNL     1     -32.089   8.623   1.843  1.00 20.00    -0.093 C 
HETATM    9  C2  UNL     1     -31.687   8.313   0.600  1.00 20.00     0.014 C 
HETATM   10  C4  UNL     1     -32.837   9.893   2.127  1.00 20.00     0.042 C 
ENDBRANCH   7   8
ENDBRANCH   6   7
ENDBRANCH   5   6
ENDBRANCH   4   5
ENDBRANCH   2   4
TORSDOF 5
ENDMDL
MODEL 4
REMARK VINA RESULT:      -4.7      2.706      5.462
REMARK  5 active torsions:
REMARK  status: ('A' for Active; 'I' for Inactive)
REMARK    1  A    between atoms: C3_3  and  C6_6 
REMARK    2  A    between atoms: C5_5  and  C7_7 
REMARK    3  A    between atoms: C6_6  and  C8_8 
REMARK    4  A    between atoms: C7_7  and  C9_9 
REMARK    5  A    between atoms: C8_8  and  C9_9 
ROOT
HETATM    1  C1  UNL     1     -34.744   5.313   5.812  1.00 20.00     0.059 C 
HETATM    2  C5  UNL     1     -35.110   4.590   4.586  1.00 20.00     0.124 C 
HETATM    3  N10 UNL     1     -34.457   5.882   6.781  1.00 20.00    -0.197 NA
ENDROOT
BRANCH   2   4
HETATM    4  C7  UNL     1     -34.667   5.331   3.322  1.00 20.00     0.014 C 
BRANCH   4   5
HETATM    5  C9  UNL     1     -33.825   6.575   3.627  1.00 20.00     0.001 C 
BRANCH   5   6
HETATM    6  C8  UNL     1     -32.446   6.484   2.965  1.00 20.00     0.004 C 
BRANCH   6   7
HETATM    7  C6  UNL     1     -31.707   7.827   2.922  1.00 20.00     0.033 C 
BRANCH   7   8
HETATM    8  C3  UNL     1     -32.118   8.737   1.788  1.00 20.00    -0.093 C 
HETATM    9  C2  UNL     1     -32.791   9.876   2.013  1.00 20.00     0.014 C 
HETATM   10  C4  UNL     1     -31.709   8.332   0.401  1.00 20.00     0.042 C 
ENDBRANCH   7   8
ENDBRANCH   6   7
ENDBRANCH   5   6
ENDBRANCH   4   5
ENDBRANCH   2   4
TORSDOF 5
ENDMDL
MODEL 5
REMARK VINA RESULT:      -4.3     10.663     11.452
REMARK  5 active torsions:
REMARK  status: ('A' for Active; 'I' for Inactive)
REMARK    1  A    between atoms: C3_3  and  C6_6 
REMARK    2  A    between atoms: C5_5  and  C7_7 
REMARK    3  A    between atoms: C6_6  and  C8_8 
REMARK    4  A    between atoms: C7_7  and  C9_9 
REMARK    5  A    between atoms: C8_8  and  C9_9 
ROOT
HETATM    1  C1  UNL     1     -37.003  14.488  -4.070  1.00 20.00     0.059 C 
HETATM    2  C5  UNL     1     -35.616  14.670  -4.522  1.00 20.00     0.124 C 
HETATM    3  N10 UNL     1     -38.098  14.346  -3.715  1.00 20.00    -0.197 NA
ENDROOT
BRANCH   2   4
HETATM    4  C7  UNL     1     -34.601  14.320  -3.432  1.00 20.00     0.014 C 
BRANCH   4   5
HETATM    5  C9  UNL     1     -33.407  15.280  -3.401  1.00 20.00     0.001 C 
BRANCH   5   6
HETATM    6  C8  UNL     1     -33.758  16.576  -2.662  1.00 20.00     0.004 C 
BRANCH   6   7
HETATM    7  C6  UNL     1     -34.577  16.341  -1.387  1.00 20.00     0.033 C 
BRANCH   7   8
HETATM    8  C3  UNL     1     -34.349  17.358  -0.294  1.00 20.00    -0.093 C 
HETATM    9  C2  UNL     1     -35.145  17.419   0.785  1.00 20.00     0.014 C 
HETATM   10  C4  UNL     1     -33.170  18.275  -0.447  1.00 20.00     0.042 C 
ENDBRANCH   7   8
ENDBRANCH   6   7
ENDBRANCH   5   6
ENDBRANCH   4   5
ENDBRANCH   2   4
TORSDOF 5
ENDMDL
MODEL 6
REMARK VINA RESULT:      -4.2     10.419     11.840
REMARK  5 active torsions:
REMARK  status: ('A' for Active; 'I' for Inactive)
REMARK    1  A    between atoms: C3_3  and  C6_6 
REMARK    2  A    between atoms: C5_5  and  C7_7 
REMARK    3  A    between atoms: C6_6  and  C8_8 
REMARK    4  A    between atoms: C7_7  and  C9_9 
REMARK    5  A    between atoms: C8_8  and  C9_9 
ROOT
HETATM    1  C1  UNL     1     -34.732  16.603  -0.889  1.00 20.00     0.059 C 
HETATM    2  C5  UNL     1     -34.774  15.910  -2.184  1.00 20.00     0.124 C 
HETATM    3  N10 UNL     1     -34.701  17.150   0.134  1.00 20.00    -0.197 NA
ENDROOT
BRANCH   2   4
HETATM    4  C7  UNL     1     -33.448  16.015  -2.941  1.00 20.00     0.014 C 
BRANCH   4   5
HETATM    5  C9  UNL     1     -33.080  14.723  -3.678  1.00 20.00     0.001 C 
BRANCH   5   6
HETATM    6  C8  UNL     1     -34.242  13.725  -3.657  1.00 20.00     0.004 C 
BRANCH   6   7
HETATM    7  C6  UNL     1     -34.713  13.314  -5.058  1.00 20.00     0.033 C 
BRANCH   7   8
HETATM    8  C3  UNL     1     -35.300  14.437  -5.880  1.00 20.00    -0.093 C 
HETATM    9  C2  UNL     1     -36.442  15.045  -5.522  1.00 20.00     0.014 C 
HETATM   10  C4  UNL     1     -34.531  14.871  -7.095  1.00 20.00     0.042 C 
ENDBRANCH   7   8
ENDBRANCH   6   7
ENDBRANCH   5   6
ENDBRANCH   4   5
ENDBRANCH   2   4
TORSDOF 5
ENDMDL
MODEL 7
REMARK VINA RESULT:      -4.2     10.424     11.857
REMARK  5 active torsions:
REMARK  status: ('A' for Active; 'I' for Inactive)
REMARK    1  A    between atoms: C3_3  and  C6_6 
REMARK    2  A    between atoms: C5_5  and  C7_7 
REMARK    3  A    between atoms: C6_6  and  C8_8 
REMARK    4  A    between atoms: C7_7  and  C9_9 
REMARK    5  A    between atoms: C8_8  and  C9_9 
ROOT
HETATM    1  C1  UNL     1     -34.635  16.650  -0.901  1.00 20.00     0.059 C 
HETATM    2  C5  UNL     1     -34.788  15.897  -2.153  1.00 20.00     0.124 C 
HETATM    3  N10 UNL     1     -34.515  17.245   0.088  1.00 20.00    -0.197 NA
ENDROOT
BRANCH   2   4
HETATM    4  C7  UNL     1     -33.546  15.990  -3.042  1.00 20.00     0.014 C 
BRANCH   4   5
HETATM    5  C9  UNL     1     -33.118  14.632  -3.610  1.00 20.00     0.001 C 
BRANCH   5   6
HETATM    6  C8  UNL     1     -34.309  13.672  -3.703  1.00 20.00     0.004 C 
BRANCH   6   7
HETATM    7  C6  UNL     1     -34.662  13.284  -5.144  1.00 20.00     0.033 C 
BRANCH   7   8
HETATM    8  C3  UNL     1     -35.158  14.425  -6.001  1.00 20.00    -0.093 C 
HETATM    9  C2  UNL     1     -34.499  14.812  -7.104  1.00 20.00     0.014 C 
HETATM   10  C4  UNL     1     -36.442  15.086  -5.587  1.00 20.00     0.042 C 
ENDBRANCH   7   8
ENDBRANCH   6   7
ENDBRANCH   5   6
ENDBRANCH   4   5
ENDBRANCH   2   4
TORSDOF 5
ENDMDL
MODEL 8
REMARK VINA RESULT:      -4.2     10.980     11.920
REMARK  5 active torsions:
REMARK  status: ('A' for Active; 'I' for Inactive)
REMARK    1  A    between atoms: C3_3  and  C6_6 
REMARK    2  A    between atoms: C5_5  and  C7_7 
REMARK    3  A    between atoms: C6_6  and  C8_8 
REMARK    4  A    between atoms: C7_7  and  C9_9 
REMARK    5  A    between atoms: C8_8  and  C9_9 
ROOT
HETATM    1  C1  UNL     1     -34.877  13.551  -5.374  1.00 20.00     0.059 C 
HETATM    2  C5  UNL     1     -34.929  14.457  -6.530  1.00 20.00     0.124 C 
HETATM    3  N10 UNL     1     -34.836  12.834  -4.463  1.00 20.00    -0.197 NA
ENDROOT
BRANCH   2   4
HETATM    4  C7  UNL     1     -34.735  15.920  -6.129  1.00 20.00     0.014 C 
BRANCH   4   5
HETATM    5  C9  UNL     1     -33.354  16.193  -5.524  1.00 20.00     0.001 C 
BRANCH   5   6
HETATM    6  C8  UNL     1     -33.472  16.954  -4.198  1.00 20.00     0.004 C 
BRANCH   6   7
HETATM    7  C6  UNL     1     -33.548  16.030  -2.977  1.00 20.00     0.033 C 
BRANCH   7   8
HETATM    8  C3  UNL     1     -34.812  16.165  -2.161  1.00 20.00    -0.093 C 
HETATM    9  C2  UNL     1     -36.011  15.836  -2.667  1.00 20.00     0.014 C 
HETATM   10  C4  UNL     1     -34.667  16.647  -0.746  1.00 20.00     0.042 C 
ENDBRANCH   7   8
ENDBRANCH   6   7
ENDBRANCH   5   6
ENDBRANCH   4   5
ENDBRANCH   2   4
TORSDOF 5
ENDMDL
MODEL 9
REMARK VINA RESULT:      -4.2     10.909     11.474
REMARK  5 active torsions:
REMARK  status: ('A' for Active; 'I' for Inactive)
REMARK    1  A    between atoms: C3_3  and  C6_6 
REMARK    2  A    between atoms: C5_5  and  C7_7 
REMARK    3  A    between atoms: C6_6  and  C8_8 
REMARK    4  A    between atoms: C7_7  and  C9_9 
REMARK    5  A    between atoms: C8_8  and  C9_9 
ROOT
HETATM    1  C1  UNL     1     -34.605  13.830  -4.892  1.00 20.00     0.059 C 
HETATM    2  C5  UNL     1     -34.263  15.167  -5.398  1.00 20.00     0.124 C 
HETATM    3  N10 UNL     1     -34.876  12.775  -4.494  1.00 20.00    -0.197 NA
ENDROOT
BRANCH   2   4
HETATM    4  C7  UNL     1     -33.225  15.870  -4.522  1.00 20.00     0.014 C 
BRANCH   4   5
HETATM    5  C9  UNL     1     -33.439  15.616  -3.026  1.00 20.00     0.001 C 
BRANCH   5   6
HETATM    6  C8  UNL     1     -33.938  16.880  -2.317  1.00 20.00     0.004 C 
BRANCH   6   7
HETATM    7  C6  UNL     1     -34.658  16.587  -0.995  1.00 20.00     0.033 C 
BRANCH   7   8
HETATM    8  C3  UNL     1     -34.362  17.567   0.116  1.00 20.00    -0.093 C 
HETATM    9  C2  UNL     1     -33.344  18.437   0.029  1.00 20.00     0.014 C 
HETATM   10  C4  UNL     1     -35.280  17.554   1.304  1.00 20.00     0.042 C 
ENDBRANCH   7   8
ENDBRANCH   6   7
ENDBRANCH   5   6
ENDBRANCH   4   5
ENDBRANCH   2   4
TORSDOF 5
ENDMDL
