MODEL 1
REMARK VINA RESULT:      -3.3      0.000      0.000
REMARK  0 active torsions:
REMARK  status: ('A' for Active; 'I' for Inactive)
ROOT
HETATM    1  C1  UNL     1     -33.043  15.275  -3.733  1.00 20.00     0.011 C 
HETATM    2  C2  UNL     1     -33.663  16.148  -2.640  1.00 20.00     0.011 C 
HETATM    3  C3  UNL     1     -33.511  13.822  -3.757  1.00 20.00     0.075 C 
HETATM    4  C4  UNL     1     -35.159  16.018  -2.370  1.00 20.00     0.075 C 
HETATM    5  C5  UNL     1     -36.259  14.210  -4.139  1.00 20.00     0.147 C 
HETATM    6  S6  UNL     1     -34.818  13.537  -4.998  1.00 20.00    -0.159 SA
HETATM    7  S7  UNL     1     -36.195  15.998  -3.862  1.00 20.00    -0.159 SA
ENDROOT
TORSDOF 0
ENDMDL
MODEL 2
REMARK VINA RESULT:      -3.2      2.052      2.970
REMARK  0 active torsions:
REMARK  status: ('A' for Active; 'I' for Inactive)
ROOT
HETATM    1  C1  UNL     1     -34.222  14.987  -3.238  1.00 20.00     0.011 C 
HETATM    2  C2  UNL     1     -34.673  13.618  -3.751  1.00 20.00     0.011 C 
HETATM    3  C3  UNL     1     -33.042  15.610  -3.980  1.00 20.00     0.075 C 
HETATM    4  C4  UNL     1     -34.758  13.400  -5.258  1.00 20.00     0.075 C 
HETATM    5  C5  UNL     1     -34.117  15.744  -6.564  1.00 20.00     0.147 C 
HETATM    6  S6  UNL     1     -33.574  16.832  -5.225  1.00 20.00    -0.159 SA
HETATM    7  S7  UNL     1     -35.573  14.744  -6.168  1.00 20.00    -0.159 SA
ENDROOT
TORSDOF 0
ENDMDL
MODEL 3
REMARK VINA RESULT:      -3.2      1.703      2.637
REMARK  0 active torsions:
REMARK  status: ('A' for Active; 'I' for Inactive)
ROOT
HETATM    1  C1  UNL     1     -34.650  13.361  -4.551  1.00 20.00     0.011 C 
HETATM    2  C2  UNL     1     -33.402  13.807  -3.785  1.00 20.00     0.011 C 
HETATM    3  C3  UNL     1     -35.941  14.089  -4.182  1.00 20.00     0.075 C 
HETATM    4  C4  UNL     1     -33.182  15.300  -3.564  1.00 20.00     0.075 C 
HETATM    5  C5  UNL     1     -35.200  16.720  -4.797  1.00 20.00     0.147 C 
HETATM    6  S6  UNL     1     -36.337  15.430  -5.354  1.00 20.00    -0.159 SA
HETATM    7  S7  UNL     1     -33.450  16.327  -5.039  1.00 20.00    -0.159 SA
ENDROOT
TORSDOF 0
ENDMDL
MODEL 4
REMARK VINA RESULT:      -3.2      1.585      2.526
REMARK  0 active torsions:
REMARK  status: ('A' for Active; 'I' for Inactive)
ROOT
HETATM    1  C1  UNL     1     -33.114  15.222  -3.589  1.00 20.00     0.011 C 
HETATM    2  C2  UNL     1     -33.473  13.752  -3.823  1.00 20.00     0.011 C 
HETATM    3  C3  UNL     1     -33.278  16.138  -4.800  1.00 20.00     0.075 C 
HETATM    4  C4  UNL     1     -34.730  13.432  -4.626  1.00 20.00     0.075 C 
HETATM    5  C5  UNL     1     -36.009  15.779  -5.307  1.00 20.00     0.147 C 
HETATM    6  S6  UNL     1     -34.852  17.058  -4.763  1.00 20.00    -0.159 SA
HETATM    7  S7  UNL     1     -36.193  14.399  -4.151  1.00 20.00    -0.159 SA
ENDROOT
TORSDOF 0
ENDMDL
MODEL 5
REMARK VINA RESULT:      -3.1      1.088      2.544
REMARK  0 active torsions:
REMARK  status: ('A' for Active; 'I' for Inactive)
ROOT
HETATM    1  C1  UNL     1     -35.148  16.189  -2.158  1.00 20.00     0.011 C 
HETATM    2  C2  UNL     1     -33.666  16.228  -2.538  1.00 20.00     0.011 C 
HETATM    3  C3  UNL     1     -36.128  16.351  -3.318  1.00 20.00     0.075 C 
HETATM    4  C4  UNL     1     -33.217  15.472  -3.785  1.00 20.00     0.075 C 
HETATM    5  C5  UNL     1     -35.376  14.157  -4.890  1.00 20.00     0.147 C 
HETATM    6  S6  UNL     1     -36.773  14.749  -3.906  1.00 20.00    -0.159 SA
HETATM    7  S7  UNL     1     -33.888  13.789  -3.926  1.00 20.00    -0.159 SA
ENDROOT
TORSDOF 0
ENDMDL
MODEL 6
REMARK VINA RESULT:      -3.0      1.409      3.298
REMARK  0 active torsions:
REMARK  status: ('A' for Active; 'I' for Inactive)
ROOT
HETATM    1  C1  UNL     1     -35.885  14.380  -5.100  1.00 20.00     0.011 C 
HETATM    2  C2  UNL     1     -34.683  13.441  -4.977  1.00 20.00     0.011 C 
HETATM    3  C3  UNL     1     -36.576  14.737  -3.785  1.00 20.00     0.075 C 
HETATM    4  C4  UNL     1     -33.688  13.681  -3.846  1.00 20.00     0.075 C 
HETATM    5  C5  UNL     1     -34.435  15.923  -2.424  1.00 20.00     0.147 C 
HETATM    6  S6  UNL     1     -36.039  16.355  -3.138  1.00 20.00    -0.159 SA
HETATM    7  S7  UNL     1     -33.191  15.415  -3.636  1.00 20.00    -0.159 SA
ENDROOT
TORSDOF 0
ENDMDL
MODEL 7
REMARK VINA RESULT:      -3.0      2.222      3.313
REMARK  0 active torsions:
REMARK  status: ('A' for Active; 'I' for Inactive)
ROOT
HETATM    1  C1  UNL     1     -34.982  13.704  -4.457  1.00 20.00     0.011 C 
HETATM    2  C2  UNL     1     -35.084  13.803  -5.981  1.00 20.00     0.011 C 
HETATM    3  C3  UNL     1     -33.614  14.042  -3.869  1.00 20.00     0.075 C 
HETATM    4  C4  UNL     1     -34.433  14.995  -6.676  1.00 20.00     0.075 C 
HETATM    5  C5  UNL     1     -33.334  16.675  -4.785  1.00 20.00     0.147 C 
HETATM    6  S6  UNL     1     -33.534  15.753  -3.242  1.00 20.00    -0.159 SA
HETATM    7  S7  UNL     1     -34.766  16.598  -5.890  1.00 20.00    -0.159 SA
ENDROOT
TORSDOF 0
ENDMDL
MODEL 8
REMARK VINA RESULT:      -3.0      2.133      2.880
REMARK  0 active torsions:
REMARK  status: ('A' for Active; 'I' for Inactive)
ROOT
HETATM    1  C1  UNL     1     -35.479  15.636  -6.086  1.00 20.00     0.011 C 
HETATM    2  C2  UNL     1     -34.409  16.728  -6.003  1.00 20.00     0.011 C 
HETATM    3  C3  UNL     1     -34.951  14.206  -6.168  1.00 20.00     0.075 C 
HETATM    4  C4  UNL     1     -33.209  16.500  -5.089  1.00 20.00     0.075 C 
HETATM    5  C5  UNL     1     -33.498  14.092  -3.775  1.00 20.00     0.147 C 
HETATM    6  S6  UNL     1     -34.965  13.369  -4.547  1.00 20.00    -0.159 SA
HETATM    7  S7  UNL     1     -33.630  15.865  -3.439  1.00 20.00    -0.159 SA
ENDROOT
TORSDOF 0
ENDMDL
MODEL 9
REMARK VINA RESULT:      -3.0      2.322      3.494
REMARK  0 active torsions:
REMARK  status: ('A' for Active; 'I' for Inactive)
ROOT
HETATM    1  C1  UNL     1     -34.393  15.386  -6.567  1.00 20.00     0.011 C 
HETATM    2  C2  UNL     1     -35.051  14.044  -6.235  1.00 20.00     0.011 C 
HETATM    3  C3  UNL     1     -34.787  16.551  -5.662  1.00 20.00     0.075 C 
HETATM    4  C4  UNL     1     -35.156  13.630  -4.771  1.00 20.00     0.075 C 
HETATM    5  C5  UNL     1     -33.953  15.540  -3.186  1.00 20.00     0.147 C 
HETATM    6  S6  UNL     1     -33.553  16.861  -4.355  1.00 20.00    -0.159 SA
HETATM    7  S7  UNL     1     -33.634  13.871  -3.809  1.00 20.00    -0.159 SA
ENDROOT
TORSDOF 0
ENDMDL
