MODEL 1
REMARK VINA RESULT:      -4.6      0.000      0.000
REMARK  0 active torsions:
REMARK  status: ('A' for Active; 'I' for Inactive)
ROOT
HETATM    1  C1  UNL     1     -34.694  15.152  -2.695  1.00 20.00     0.029 A 
HETATM    2  C2  UNL     1     -33.812  16.137  -4.696  1.00 20.00     0.136 A 
HETATM    3  C3  UNL     1     -34.383  16.336  -2.056  1.00 20.00    -0.032 A 
HETATM    4  C4  UNL     1     -34.395  15.045  -4.051  1.00 20.00     0.029 A 
HETATM    5  C5  UNL     1     -33.805  17.368  -2.787  1.00 20.00     0.040 A 
HETATM    6  C6  UNL     1     -34.617  16.737  -0.638  1.00 20.00     0.041 C 
HETATM    7  C7  UNL     1     -33.598  18.580  -1.924  1.00 20.00     0.060 C 
HETATM    8  C8  UNL     1     -33.688  17.958  -0.522  1.00 20.00     0.011 C 
HETATM    9  N9  UNL     1     -33.508  17.313  -4.096  1.00 20.00    -0.264 NA
HETATM   10 BR10 UNL     1     -34.776  13.460  -4.996  1.00 20.00    -0.050 Br
ENDROOT
TORSDOF 0
ENDMDL
MODEL 2
REMARK VINA RESULT:      -4.6     12.086     13.005
REMARK  0 active torsions:
REMARK  status: ('A' for Active; 'I' for Inactive)
ROOT
HETATM    1  C1  UNL     1     -33.072   7.052   4.407  1.00 20.00     0.029 A 
HETATM    2  C2  UNL     1     -33.582   5.871   2.384  1.00 20.00     0.136 A 
HETATM    3  C3  UNL     1     -33.822   6.102   5.071  1.00 20.00    -0.032 A 
HETATM    4  C4  UNL     1     -32.953   6.939   3.024  1.00 20.00     0.029 A 
HETATM    5  C5  UNL     1     -34.407   5.073   4.343  1.00 20.00     0.040 A 
HETATM    6  C6  UNL     1     -34.088   5.958   6.532  1.00 20.00     0.041 C 
HETATM    7  C7  UNL     1     -35.129   4.121   5.255  1.00 20.00     0.060 C 
HETATM    8  C8  UNL     1     -35.279   4.984   6.517  1.00 20.00     0.011 C 
HETATM    9  N9  UNL     1     -34.312   4.919   3.012  1.00 20.00    -0.264 NA
HETATM   10 BR10 UNL     1     -31.957   8.200   2.039  1.00 20.00    -0.050 Br
ENDROOT
TORSDOF 0
ENDMDL
MODEL 3
REMARK VINA RESULT:      -4.5     12.799     13.936
REMARK  0 active torsions:
REMARK  status: ('A' for Active; 'I' for Inactive)
ROOT
HETATM    1  C1  UNL     1     -41.299   3.869  -1.922  1.00 20.00     0.029 A 
HETATM    2  C2  UNL     1     -43.101   4.171  -3.475  1.00 20.00     0.136 A 
HETATM    3  C3  UNL     1     -41.480   5.189  -1.559  1.00 20.00    -0.032 A 
HETATM    4  C4  UNL     1     -42.127   3.346  -2.912  1.00 20.00     0.029 A 
HETATM    5  C5  UNL     1     -42.481   5.929  -2.178  1.00 20.00     0.040 A 
HETATM    6  C6  UNL     1     -40.771   5.992  -0.520  1.00 20.00     0.041 C 
HETATM    7  C7  UNL     1     -42.548   7.316  -1.605  1.00 20.00     0.060 C 
HETATM    8  C8  UNL     1     -41.171   7.419  -0.930  1.00 20.00     0.011 C 
HETATM    9  N9  UNL     1     -43.308   5.464  -3.129  1.00 20.00    -0.264 NA
HETATM   10 BR10 UNL     1     -41.939   1.557  -3.474  1.00 20.00    -0.050 Br
ENDROOT
TORSDOF 0
ENDMDL
MODEL 4
REMARK VINA RESULT:      -4.4      2.174      4.099
REMARK  0 active torsions:
REMARK  status: ('A' for Active; 'I' for Inactive)
ROOT
HETATM    1  C1  UNL     1     -34.763  15.204  -3.086  1.00 20.00     0.029 A 
HETATM    2  C2  UNL     1     -33.952  17.424  -3.494  1.00 20.00     0.136 A 
HETATM    3  C3  UNL     1     -34.655  14.988  -4.446  1.00 20.00    -0.032 A 
HETATM    4  C4  UNL     1     -34.408  16.458  -2.596  1.00 20.00     0.029 A 
HETATM    5  C5  UNL     1     -34.187  16.014  -5.259  1.00 20.00     0.040 A 
HETATM    6  C6  UNL     1     -34.930  13.750  -5.232  1.00 20.00     0.041 C 
HETATM    7  C7  UNL     1     -34.094  15.559  -6.688  1.00 20.00     0.060 C 
HETATM    8  C8  UNL     1     -35.004  14.321  -6.659  1.00 20.00     0.011 C 
HETATM    9  N9  UNL     1     -33.825  17.234  -4.829  1.00 20.00    -0.264 NA
HETATM   10 BR10 UNL     1     -34.535  16.840  -0.755  1.00 20.00    -0.050 Br
ENDROOT
TORSDOF 0
ENDMDL
MODEL 5
REMARK VINA RESULT:      -4.3     11.959     12.919
REMARK  0 active torsions:
REMARK  status: ('A' for Active; 'I' for Inactive)
ROOT
HETATM    1  C1  UNL     1     -33.657   6.183   3.009  1.00 20.00     0.029 A 
HETATM    2  C2  UNL     1     -32.373   7.584   4.471  1.00 20.00     0.136 A 
HETATM    3  C3  UNL     1     -34.214   5.625   4.143  1.00 20.00    -0.032 A 
HETATM    4  C4  UNL     1     -32.705   7.186   3.176  1.00 20.00     0.029 A 
HETATM    5  C5  UNL     1     -33.818   6.093   5.390  1.00 20.00     0.040 A 
HETATM    6  C6  UNL     1     -35.265   4.574   4.262  1.00 20.00     0.041 C 
HETATM    7  C7  UNL     1     -34.578   5.397   6.484  1.00 20.00     0.060 C 
HETATM    8  C8  UNL     1     -35.101   4.162   5.735  1.00 20.00     0.011 C 
HETATM    9  N9  UNL     1     -32.912   7.062   5.599  1.00 20.00    -0.264 NA
HETATM   10 BR10 UNL     1     -31.888   7.992   1.681  1.00 20.00    -0.050 Br
ENDROOT
TORSDOF 0
ENDMDL
MODEL 6
REMARK VINA RESULT:      -4.3     12.421     13.596
REMARK  0 active torsions:
REMARK  status: ('A' for Active; 'I' for Inactive)
ROOT
HETATM    1  C1  UNL     1     -42.676   4.760  -2.909  1.00 20.00     0.029 A 
HETATM    2  C2  UNL     1     -40.808   3.928  -1.657  1.00 20.00     0.136 A 
HETATM    3  C3  UNL     1     -42.459   5.978  -2.295  1.00 20.00    -0.032 A 
HETATM    4  C4  UNL     1     -41.832   3.703  -2.577  1.00 20.00     0.029 A 
HETATM    5  C5  UNL     1     -41.409   6.102  -1.394  1.00 20.00     0.040 A 
HETATM    6  C6  UNL     1     -43.175   7.273  -2.481  1.00 20.00     0.041 C 
HETATM    7  C7  UNL     1     -41.310   7.512  -0.883  1.00 20.00     0.060 C 
HETATM    8  C8  UNL     1     -42.707   8.048  -1.238  1.00 20.00     0.011 C 
HETATM    9  N9  UNL     1     -40.565   5.115  -1.050  1.00 20.00    -0.264 NA
HETATM   10 BR10 UNL     1     -42.067   2.005  -3.360  1.00 20.00    -0.050 Br
ENDROOT
TORSDOF 0
ENDMDL
MODEL 7
REMARK VINA RESULT:      -4.2      2.477      3.773
REMARK  0 active torsions:
REMARK  status: ('A' for Active; 'I' for Inactive)
ROOT
HETATM    1  C1  UNL     1     -34.602  16.210  -1.381  1.00 20.00     0.029 A 
HETATM    2  C2  UNL     1     -34.005  18.504  -1.744  1.00 20.00     0.136 A 
HETATM    3  C3  UNL     1     -34.212  15.973  -2.684  1.00 20.00    -0.032 A 
HETATM    4  C4  UNL     1     -34.502  17.513  -0.898  1.00 20.00     0.029 A 
HETATM    5  C5  UNL     1     -33.727  17.028  -3.447  1.00 20.00     0.040 A 
HETATM    6  C6  UNL     1     -34.179  14.690  -3.444  1.00 20.00     0.041 C 
HETATM    7  C7  UNL     1     -33.309  16.551  -4.810  1.00 20.00     0.060 C 
HETATM    8  C8  UNL     1     -34.049  15.207  -4.887  1.00 20.00     0.011 C 
HETATM    9  N9  UNL     1     -33.605  18.297  -3.021  1.00 20.00    -0.264 NA
HETATM   10 BR10 UNL     1     -35.023  17.925   0.866  1.00 20.00    -0.050 Br
ENDROOT
TORSDOF 0
ENDMDL
MODEL 8
REMARK VINA RESULT:      -4.2      2.654      4.192
REMARK  0 active torsions:
REMARK  status: ('A' for Active; 'I' for Inactive)
ROOT
HETATM    1  C1  UNL     1     -33.690  16.074  -2.301  1.00 20.00     0.029 A 
HETATM    2  C2  UNL     1     -35.756  17.275  -2.101  1.00 20.00     0.136 A 
HETATM    3  C3  UNL     1     -34.357  15.201  -3.138  1.00 20.00    -0.032 A 
HETATM    4  C4  UNL     1     -34.410  17.137  -1.761  1.00 20.00     0.029 A 
HETATM    5  C5  UNL     1     -35.699  15.425  -3.418  1.00 20.00     0.040 A 
HETATM    6  C6  UNL     1     -33.837  14.012  -3.873  1.00 20.00     0.041 C 
HETATM    7  C7  UNL     1     -36.219  14.400  -4.385  1.00 20.00     0.060 C 
HETATM    8  C8  UNL     1     -35.150  13.305  -4.251  1.00 20.00     0.011 C 
HETATM    9  N9  UNL     1     -36.430  16.441  -2.928  1.00 20.00    -0.264 NA
HETATM   10 BR10 UNL     1     -33.579  18.368  -0.601  1.00 20.00    -0.050 Br
ENDROOT
TORSDOF 0
ENDMDL
MODEL 9
REMARK VINA RESULT:      -4.1      3.182      4.317
REMARK  0 active torsions:
REMARK  status: ('A' for Active; 'I' for Inactive)
ROOT
HETATM    1  C1  UNL     1     -35.706  16.489  -3.143  1.00 20.00     0.029 A 
HETATM    2  C2  UNL     1     -37.707  15.253  -3.611  1.00 20.00     0.136 A 
HETATM    3  C3  UNL     1     -35.003  15.372  -3.550  1.00 20.00    -0.032 A 
HETATM    4  C4  UNL     1     -37.097  16.427  -3.168  1.00 20.00     0.029 A 
HETATM    5  C5  UNL     1     -35.703  14.250  -3.978  1.00 20.00     0.040 A 
HETATM    6  C6  UNL     1     -33.529  15.170  -3.658  1.00 20.00     0.041 C 
HETATM    7  C7  UNL     1     -34.757  13.173  -4.426  1.00 20.00     0.060 C 
HETATM    8  C8  UNL     1     -33.451  13.637  -3.764  1.00 20.00     0.011 C 
HETATM    9  N9  UNL     1     -37.041  14.149  -4.026  1.00 20.00    -0.264 NA
HETATM   10 BR10 UNL     1     -38.134  17.902  -2.618  1.00 20.00    -0.050 Br
ENDROOT
TORSDOF 0
ENDMDL
