MODEL 1
REMARK VINA RESULT:      -4.7      0.000      0.000
REMARK  6 active torsions:
REMARK  status: ('A' for Active; 'I' for Inactive)
REMARK    1  A    between atoms: C1_1  and  C6_6 
REMARK    2  A    between atoms: C1_1  and  C10_10 
REMARK    3  A    between atoms: C7_7  and  C8_8 
REMARK    4  A    between atoms: C8_8  and  C11_11 
REMARK    5  A    between atoms: C9_9  and  C10_10 
REMARK    6  A    between atoms: C9_9  and  C11_11 
ROOT
HETATM    1  C9  UNL     1     -34.760  15.626  -3.126  1.00 20.00     0.016 C 
ENDROOT
BRANCH   1   2
HETATM    2  C10 UNL     1     -34.199  14.219  -3.390  1.00 20.00     0.051 C 
HETATM    3  C4  UNL     1     -32.678  14.198  -3.530  1.00 20.00     0.018 C 
BRANCH   2   4
HETATM    4  C1  UNL     1     -34.846  13.665  -4.663  1.00 20.00     0.130 C 
HETATM    5  O12 UNL     1     -34.892  12.457  -4.891  1.00 20.00    -0.298 OA
BRANCH   4   6
HETATM    6  C6  UNL     1     -35.398  14.694  -5.637  1.00 20.00     0.074 C 
HETATM    7  C2  UNL     1     -34.485  14.923  -6.827  1.00 20.00     0.013 C 
ENDBRANCH   4   6
ENDBRANCH   2   4
ENDBRANCH   1   2
BRANCH   1   8
HETATM    8  C11 UNL     1     -33.718  16.759  -2.974  1.00 20.00    -0.018 C 
HETATM    9  C5  UNL     1     -33.963  17.805  -4.070  1.00 20.00     0.010 C 
BRANCH   8  10
HETATM   10  C8  UNL     1     -33.759  17.387  -1.564  1.00 20.00     0.004 C 
BRANCH  10  11
HETATM   11  C7  UNL     1     -34.710  16.674  -0.599  1.00 20.00    -0.004 C 
HETATM   12  C3  UNL     1     -35.015  17.538   0.616  1.00 20.00     0.005 C 
ENDBRANCH  10  11
ENDBRANCH   8  10
ENDBRANCH   1   8
TORSDOF 6
ENDMDL
MODEL 2
REMARK VINA RESULT:      -4.5      1.031      1.529
REMARK  6 active torsions:
REMARK  status: ('A' for Active; 'I' for Inactive)
REMARK    1  A    between atoms: C1_1  and  C6_6 
REMARK    2  A    between atoms: C1_1  and  C10_10 
REMARK    3  A    between atoms: C7_7  and  C8_8 
REMARK    4  A    between atoms: C8_8  and  C11_11 
REMARK    5  A    between atoms: C9_9  and  C10_10 
REMARK    6  A    between atoms: C9_9  and  C11_11 
ROOT
HETATM    1  C9  UNL     1     -34.436  14.789  -3.030  1.00 20.00     0.016 C 
ENDROOT
BRANCH   1   2
HETATM    2  C10 UNL     1     -35.415  14.879  -4.214  1.00 20.00     0.051 C 
HETATM    3  C4  UNL     1     -36.877  14.739  -3.794  1.00 20.00     0.018 C 
BRANCH   2   4
HETATM    4  C1  UNL     1     -35.058  13.788  -5.228  1.00 20.00     0.130 C 
HETATM    5  O12 UNL     1     -34.764  12.647  -4.873  1.00 20.00    -0.298 OA
BRANCH   4   6
HETATM    6  C6  UNL     1     -35.060  14.206  -6.690  1.00 20.00     0.074 C 
HETATM    7  C2  UNL     1     -34.240  15.457  -6.942  1.00 20.00     0.013 C 
ENDBRANCH   4   6
ENDBRANCH   2   4
ENDBRANCH   1   2
BRANCH   1   8
HETATM    8  C11 UNL     1     -33.946  16.135  -2.448  1.00 20.00    -0.018 C 
HETATM    9  C5  UNL     1     -33.740  17.126  -3.601  1.00 20.00     0.010 C 
BRANCH   8  10
HETATM   10  C8  UNL     1     -34.921  16.687  -1.386  1.00 20.00     0.004 C 
BRANCH  10  11
HETATM   11  C7  UNL     1     -34.233  17.462  -0.259  1.00 20.00    -0.004 C 
HETATM   12  C3  UNL     1     -35.134  17.579   0.962  1.00 20.00     0.005 C 
ENDBRANCH  10  11
ENDBRANCH   8  10
ENDBRANCH   1   8
TORSDOF 6
ENDMDL
MODEL 3
REMARK VINA RESULT:      -4.3      2.110      5.227
REMARK  6 active torsions:
REMARK  status: ('A' for Active; 'I' for Inactive)
REMARK    1  A    between atoms: C1_1  and  C6_6 
REMARK    2  A    between atoms: C1_1  and  C10_10 
REMARK    3  A    between atoms: C7_7  and  C8_8 
REMARK    4  A    between atoms: C8_8  and  C11_11 
REMARK    5  A    between atoms: C9_9  and  C10_10 
REMARK    6  A    between atoms: C9_9  and  C11_11 
ROOT
HETATM    1  C9  UNL     1     -33.980  15.030  -3.259  1.00 20.00     0.016 C 
ENDROOT
BRANCH   1   2
HETATM    2  C10 UNL     1     -34.303  16.522  -3.452  1.00 20.00     0.051 C 
HETATM    3  C4  UNL     1     -33.463  17.180  -4.544  1.00 20.00     0.018 C 
BRANCH   2   4
HETATM    4  C1  UNL     1     -34.085  17.246  -2.120  1.00 20.00     0.130 C 
HETATM    5  O12 UNL     1     -33.484  18.318  -2.059  1.00 20.00    -0.298 OA
BRANCH   4   6
HETATM    6  C6  UNL     1     -34.627  16.550  -0.881  1.00 20.00     0.074 C 
HETATM    7  C2  UNL     1     -34.825  17.502   0.284  1.00 20.00     0.013 C 
ENDBRANCH   4   6
ENDBRANCH   2   4
ENDBRANCH   1   2
BRANCH   1   8
HETATM    8  C11 UNL     1     -35.020  14.030  -3.814  1.00 20.00    -0.018 C 
HETATM    9  C5  UNL     1     -36.406  14.688  -3.780  1.00 20.00     0.010 C 
BRANCH   8  10
HETATM   10  C8  UNL     1     -34.649  13.551  -5.234  1.00 20.00     0.004 C 
BRANCH  10  11
HETATM   11  C7  UNL     1     -35.390  14.295  -6.350  1.00 20.00    -0.004 C 
HETATM   12  C3  UNL     1     -34.417  15.007  -7.279  1.00 20.00     0.005 C 
ENDBRANCH  10  11
ENDBRANCH   8  10
ENDBRANCH   1   8
TORSDOF 6
ENDMDL
MODEL 4
REMARK VINA RESULT:      -4.3      1.982      4.571
REMARK  6 active torsions:
REMARK  status: ('A' for Active; 'I' for Inactive)
REMARK    1  A    between atoms: C1_1  and  C6_6 
REMARK    2  A    between atoms: C1_1  and  C10_10 
REMARK    3  A    between atoms: C7_7  and  C8_8 
REMARK    4  A    between atoms: C8_8  and  C11_11 
REMARK    5  A    between atoms: C9_9  and  C10_10 
REMARK    6  A    between atoms: C9_9  and  C11_11 
ROOT
HETATM    1  C9  UNL     1     -36.112  16.095  -3.266  1.00 20.00     0.016 C 
ENDROOT
BRANCH   1   2
HETATM    2  C10 UNL     1     -34.811  15.737  -2.529  1.00 20.00     0.051 C 
HETATM    3  C4  UNL     1     -34.661  16.460  -1.192  1.00 20.00     0.018 C 
BRANCH   2   4
HETATM    4  C1  UNL     1     -33.625  16.072  -3.438  1.00 20.00     0.130 C 
HETATM    5  O12 UNL     1     -33.500  17.183  -3.953  1.00 20.00    -0.298 OA
BRANCH   4   6
HETATM    6  C6  UNL     1     -32.633  14.947  -3.688  1.00 20.00     0.074 C 
HETATM    7  C2  UNL     1     -33.289  13.579  -3.691  1.00 20.00     0.013 C 
ENDBRANCH   4   6
ENDBRANCH   2   4
ENDBRANCH   1   2
BRANCH   1   8
HETATM    8  C11 UNL     1     -36.681  15.012  -4.212  1.00 20.00    -0.018 C 
HETATM    9  C5  UNL     1     -38.160  14.785  -3.869  1.00 20.00     0.010 C 
BRANCH   8  10
HETATM   10  C8  UNL     1     -36.489  15.392  -5.696  1.00 20.00     0.004 C 
BRANCH  10  11
HETATM   11  C7  UNL     1     -35.517  14.478  -6.447  1.00 20.00    -0.004 C 
HETATM   12  C3  UNL     1     -34.348  15.265  -7.020  1.00 20.00     0.005 C 
ENDBRANCH  10  11
ENDBRANCH   8  10
ENDBRANCH   1   8
TORSDOF 6
ENDMDL
MODEL 5
REMARK VINA RESULT:      -4.2      2.561      5.205
REMARK  6 active torsions:
REMARK  status: ('A' for Active; 'I' for Inactive)
REMARK    1  A    between atoms: C1_1  and  C6_6 
REMARK    2  A    between atoms: C1_1  and  C10_10 
REMARK    3  A    between atoms: C7_7  and  C8_8 
REMARK    4  A    between atoms: C8_8  and  C11_11 
REMARK    5  A    between atoms: C9_9  and  C10_10 
REMARK    6  A    between atoms: C9_9  and  C11_11 
ROOT
HETATM    1  C9  UNL     1     -33.715  16.251  -2.403  1.00 20.00     0.016 C 
ENDROOT
BRANCH   1   2
HETATM    2  C10 UNL     1     -34.931  16.545  -1.508  1.00 20.00     0.051 C 
HETATM    3  C4  UNL     1     -36.024  17.336  -2.224  1.00 20.00     0.018 C 
BRANCH   2   4
HETATM    4  C1  UNL     1     -34.456  17.315  -0.273  1.00 20.00     0.130 C 
HETATM    5  O12 UNL     1     -35.060  17.256   0.797  1.00 20.00    -0.298 OA
BRANCH   4   6
HETATM    6  C6  UNL     1     -33.215  18.176  -0.456  1.00 20.00     0.074 C 
HETATM    7  C2  UNL     1     -32.764  18.833   0.835  1.00 20.00     0.013 C 
ENDBRANCH   4   6
ENDBRANCH   2   4
ENDBRANCH   1   2
BRANCH   1   8
HETATM    8  C11 UNL     1     -34.022  15.645  -3.793  1.00 20.00    -0.018 C 
HETATM    9  C5  UNL     1     -33.169  16.368  -4.844  1.00 20.00     0.010 C 
BRANCH   8  10
HETATM   10  C8  UNL     1     -33.787  14.120  -3.815  1.00 20.00     0.004 C 
BRANCH  10  11
HETATM   11  C7  UNL     1     -35.012  13.313  -4.253  1.00 20.00    -0.004 C 
HETATM   12  C3  UNL     1     -36.278  14.157  -4.199  1.00 20.00     0.005 C 
ENDBRANCH  10  11
ENDBRANCH   8  10
ENDBRANCH   1   8
TORSDOF 6
ENDMDL
MODEL 6
REMARK VINA RESULT:      -4.2      1.744      2.912
REMARK  6 active torsions:
REMARK  status: ('A' for Active; 'I' for Inactive)
REMARK    1  A    between atoms: C1_1  and  C6_6 
REMARK    2  A    between atoms: C1_1  and  C10_10 
REMARK    3  A    between atoms: C7_7  and  C8_8 
REMARK    4  A    between atoms: C8_8  and  C11_11 
REMARK    5  A    between atoms: C9_9  and  C10_10 
REMARK    6  A    between atoms: C9_9  and  C11_11 
ROOT
HETATM    1  C9  UNL     1     -33.260  15.918  -4.123  1.00 20.00     0.016 C 
ENDROOT
BRANCH   1   2
HETATM    2  C10 UNL     1     -33.386  16.923  -5.280  1.00 20.00     0.051 C 
HETATM    3  C4  UNL     1     -33.623  18.355  -4.807  1.00 20.00     0.018 C 
BRANCH   2   4
HETATM    4  C1  UNL     1     -34.535  16.480  -6.190  1.00 20.00     0.130 C 
HETATM    5  O12 UNL     1     -35.632  17.035  -6.162  1.00 20.00    -0.298 OA
BRANCH   4   6
HETATM    6  C6  UNL     1     -34.248  15.298  -7.105  1.00 20.00     0.074 C 
HETATM    7  C2  UNL     1     -35.457  14.402  -7.298  1.00 20.00     0.013 C 
ENDBRANCH   4   6
ENDBRANCH   2   4
ENDBRANCH   1   2
BRANCH   1   8
HETATM    8  C11 UNL     1     -34.565  15.210  -3.689  1.00 20.00    -0.018 C 
HETATM    9  C5  UNL     1     -34.305  13.700  -3.612  1.00 20.00     0.010 C 
BRANCH   8  10
HETATM   10  C8  UNL     1     -35.100  15.768  -2.353  1.00 20.00     0.004 C 
BRANCH  10  11
HETATM   11  C7  UNL     1     -34.085  16.626  -1.592  1.00 20.00    -0.004 C 
HETATM   12  C3  UNL     1     -34.652  17.105  -0.263  1.00 20.00     0.005 C 
ENDBRANCH  10  11
ENDBRANCH   8  10
ENDBRANCH   1   8
TORSDOF 6
ENDMDL
MODEL 7
REMARK VINA RESULT:      -4.1      1.922      2.614
REMARK  6 active torsions:
REMARK  status: ('A' for Active; 'I' for Inactive)
REMARK    1  A    between atoms: C1_1  and  C6_6 
REMARK    2  A    between atoms: C1_1  and  C10_10 
REMARK    3  A    between atoms: C7_7  and  C8_8 
REMARK    4  A    between atoms: C8_8  and  C11_11 
REMARK    5  A    between atoms: C9_9  and  C10_10 
REMARK    6  A    between atoms: C9_9  and  C11_11 
ROOT
HETATM    1  C9  UNL     1     -34.750  15.673  -4.880  1.00 20.00     0.016 C 
ENDROOT
BRANCH   1   2
HETATM    2  C10 UNL     1     -35.470  14.683  -3.949  1.00 20.00     0.051 C 
HETATM    3  C4  UNL     1     -35.255  13.224  -4.345  1.00 20.00     0.018 C 
BRANCH   2   4
HETATM    4  C1  UNL     1     -36.967  15.007  -3.953  1.00 20.00     0.130 C 
HETATM    5  O12 UNL     1     -37.816  14.138  -3.760  1.00 20.00    -0.298 OA
BRANCH   4   6
HETATM    6  C6  UNL     1     -37.339  16.454  -4.239  1.00 20.00     0.074 C 
HETATM    7  C2  UNL     1     -37.560  17.261  -2.973  1.00 20.00     0.013 C 
ENDBRANCH   4   6
ENDBRANCH   2   4
ENDBRANCH   1   2
BRANCH   1   8
HETATM    8  C11 UNL     1     -33.539  16.420  -4.274  1.00 20.00    -0.018 C 
HETATM    9  C5  UNL     1     -33.701  17.922  -4.543  1.00 20.00     0.010 C 
BRANCH   8  10
HETATM   10  C8  UNL     1     -33.379  16.122  -2.768  1.00 20.00     0.004 C 
BRANCH  10  11
HETATM   11  C7  UNL     1     -33.862  17.257  -1.860  1.00 20.00    -0.004 C 
HETATM   12  C3  UNL     1     -34.668  16.721  -0.686  1.00 20.00     0.005 C 
ENDBRANCH  10  11
ENDBRANCH   8  10
ENDBRANCH   1   8
TORSDOF 6
ENDMDL
MODEL 8
REMARK VINA RESULT:      -4.1      1.242      2.662
REMARK  6 active torsions:
REMARK  status: ('A' for Active; 'I' for Inactive)
REMARK    1  A    between atoms: C1_1  and  C6_6 
REMARK    2  A    between atoms: C1_1  and  C10_10 
REMARK    3  A    between atoms: C7_7  and  C8_8 
REMARK    4  A    between atoms: C8_8  and  C11_11 
REMARK    5  A    between atoms: C9_9  and  C10_10 
REMARK    6  A    between atoms: C9_9  and  C11_11 
ROOT
HETATM    1  C9  UNL     1     -35.263  15.106  -2.752  1.00 20.00     0.016 C 
ENDROOT
BRANCH   1   2
HETATM    2  C10 UNL     1     -35.997  14.937  -4.093  1.00 20.00     0.051 C 
HETATM    3  C4  UNL     1     -37.487  14.648  -3.928  1.00 20.00     0.018 C 
BRANCH   2   4
HETATM    4  C1  UNL     1     -35.330  13.803  -4.876  1.00 20.00     0.130 C 
HETATM    5  O12 UNL     1     -35.030  12.737  -4.339  1.00 20.00    -0.298 OA
BRANCH   4   6
HETATM    6  C6  UNL     1     -35.038  14.081  -6.342  1.00 20.00     0.074 C 
HETATM    7  C2  UNL     1     -34.313  15.398  -6.554  1.00 20.00     0.013 C 
ENDBRANCH   4   6
ENDBRANCH   2   4
ENDBRANCH   1   2
BRANCH   1   8
HETATM    8  C11 UNL     1     -34.850  16.549  -2.377  1.00 20.00    -0.018 C 
HETATM    9  C5  UNL     1     -34.615  16.616  -0.862  1.00 20.00     0.010 C 
BRANCH   8  10
HETATM   10  C8  UNL     1     -33.609  17.011  -3.170  1.00 20.00     0.004 C 
BRANCH  10  11
HETATM   11  C7  UNL     1     -33.881  18.187  -4.112  1.00 20.00    -0.004 C 
HETATM   12  C3  UNL     1     -35.325  18.657  -4.006  1.00 20.00     0.005 C 
ENDBRANCH  10  11
ENDBRANCH   8  10
ENDBRANCH   1   8
TORSDOF 6
ENDMDL
MODEL 9
REMARK VINA RESULT:      -4.0      1.579      4.548
REMARK  6 active torsions:
REMARK  status: ('A' for Active; 'I' for Inactive)
REMARK    1  A    between atoms: C1_1  and  C6_6 
REMARK    2  A    between atoms: C1_1  and  C10_10 
REMARK    3  A    between atoms: C7_7  and  C8_8 
REMARK    4  A    between atoms: C8_8  and  C11_11 
REMARK    5  A    between atoms: C9_9  and  C10_10 
REMARK    6  A    between atoms: C9_9  and  C11_11 
ROOT
HETATM    1  C9  UNL     1     -33.061  15.988  -4.618  1.00 20.00     0.016 C 
ENDROOT
BRANCH   1   2
HETATM    2  C10 UNL     1     -33.405  15.127  -3.391  1.00 20.00     0.051 C 
HETATM    3  C4  UNL     1     -33.910  13.734  -3.760  1.00 20.00     0.018 C 
BRANCH   2   4
HETATM    4  C1  UNL     1     -34.461  15.860  -2.559  1.00 20.00     0.130 C 
HETATM    5  O12 UNL     1     -35.662  15.629  -2.691  1.00 20.00    -0.298 OA
BRANCH   4   6
HETATM    6  C6  UNL     1     -33.939  16.907  -1.586  1.00 20.00     0.074 C 
HETATM    7  C2  UNL     1     -34.744  16.962  -0.301  1.00 20.00     0.013 C 
ENDBRANCH   4   6
ENDBRANCH   2   4
ENDBRANCH   1   2
BRANCH   1   8
HETATM    8  C11 UNL     1     -34.127  17.024  -5.045  1.00 20.00    -0.018 C 
HETATM    9  C5  UNL     1     -33.507  18.426  -4.979  1.00 20.00     0.010 C 
BRANCH   8  10
HETATM   10  C8  UNL     1     -34.695  16.715  -6.447  1.00 20.00     0.004 C 
BRANCH  10  11
HETATM   11  C7  UNL     1     -34.244  15.364  -7.011  1.00 20.00    -0.004 C 
HETATM   12  C3  UNL     1     -35.419  14.408  -7.159  1.00 20.00     0.005 C 
ENDBRANCH  10  11
ENDBRANCH   8  10
ENDBRANCH   1   8
TORSDOF 6
ENDMDL
