MODEL 1
REMARK VINA RESULT:      -4.7      0.000      0.000
REMARK  1 active torsions:
REMARK  status: ('A' for Active; 'I' for Inactive)
REMARK    1  A    between atoms: C3_3  and  C4_4 
ROOT
HETATM    1  C1  UNL     1     -32.214   6.973   3.225  1.00 20.00     0.087 C 
HETATM    2  C2  UNL     1     -33.285   6.085   2.932  1.00 20.00     0.093 C 
HETATM    3  C3  UNL     1     -34.179   5.735   3.867  1.00 20.00     0.011 C 
HETATM    4  N7  UNL     1     -31.340   7.699   3.460  1.00 20.00    -0.192 NA
ENDROOT
BRANCH   3   5
HETATM    5  C4  UNL     1     -34.129   6.224   5.226  1.00 20.00    -0.004 C 
HETATM    6  C5  UNL     1     -34.550   5.509   6.280  1.00 20.00    -0.031 C 
HETATM    7  C6  UNL     1     -35.117   4.131   6.172  1.00 20.00     0.036 C 
ENDBRANCH   3   5
TORSDOF 1
ENDMDL
MODEL 2
REMARK VINA RESULT:      -4.7      2.152      3.974
REMARK  1 active torsions:
REMARK  status: ('A' for Active; 'I' for Inactive)
REMARK    1  A    between atoms: C3_3  and  C4_4 
ROOT
HETATM    1  C1  UNL     1     -34.784   5.277   5.092  1.00 20.00     0.087 C 
HETATM    2  C2  UNL     1     -34.813   5.393   3.675  1.00 20.00     0.093 C 
HETATM    3  C3  UNL     1     -33.760   5.861   2.990  1.00 20.00     0.011 C 
HETATM    4  N7  UNL     1     -34.762   5.180   6.248  1.00 20.00    -0.192 NA
ENDROOT
BRANCH   3   5
HETATM    5  C4  UNL     1     -32.530   6.277   3.624  1.00 20.00    -0.004 C 
HETATM    6  C5  UNL     1     -31.808   7.328   3.207  1.00 20.00    -0.031 C 
HETATM    7  C6  UNL     1     -32.189   8.185   2.045  1.00 20.00     0.036 C 
ENDBRANCH   3   5
TORSDOF 1
ENDMDL
MODEL 3
REMARK VINA RESULT:      -4.5      1.411      2.060
REMARK  1 active torsions:
REMARK  status: ('A' for Active; 'I' for Inactive)
REMARK    1  A    between atoms: C3_3  and  C4_4 
ROOT
HETATM    1  C1  UNL     1     -32.049   8.063   2.243  1.00 20.00     0.087 C 
HETATM    2  C2  UNL     1     -31.768   7.232   3.362  1.00 20.00     0.093 C 
HETATM    3  C3  UNL     1     -32.594   6.241   3.723  1.00 20.00     0.011 C 
HETATM    4  N7  UNL     1     -32.276   8.741   1.329  1.00 20.00    -0.192 NA
ENDROOT
BRANCH   3   5
HETATM    5  C4  UNL     1     -33.817   5.938   3.014  1.00 20.00    -0.004 C 
HETATM    6  C5  UNL     1     -34.887   5.383   3.602  1.00 20.00    -0.031 C 
HETATM    7  C6  UNL     1     -34.939   5.012   5.048  1.00 20.00     0.036 C 
ENDBRANCH   3   5
TORSDOF 1
ENDMDL
MODEL 4
REMARK VINA RESULT:      -4.3      1.880      3.414
REMARK  1 active torsions:
REMARK  status: ('A' for Active; 'I' for Inactive)
REMARK    1  A    between atoms: C3_3  and  C4_4 
ROOT
HETATM    1  C1  UNL     1     -34.263   5.953   6.433  1.00 20.00     0.087 C 
HETATM    2  C2  UNL     1     -34.562   4.638   5.983  1.00 20.00     0.093 C 
HETATM    3  C3  UNL     1     -34.991   4.407   4.735  1.00 20.00     0.011 C 
HETATM    4  N7  UNL     1     -34.016   7.025   6.802  1.00 20.00    -0.192 NA
ENDROOT
BRANCH   3   5
HETATM    5  C4  UNL     1     -35.180   5.457   3.760  1.00 20.00    -0.004 C 
HETATM    6  C5  UNL     1     -34.172   6.003   3.065  1.00 20.00    -0.031 C 
HETATM    7  C6  UNL     1     -32.744   5.594   3.218  1.00 20.00     0.036 C 
ENDBRANCH   3   5
TORSDOF 1
ENDMDL
MODEL 5
REMARK VINA RESULT:      -4.2     11.674     12.127
REMARK  1 active torsions:
REMARK  status: ('A' for Active; 'I' for Inactive)
REMARK    1  A    between atoms: C3_3  and  C4_4 
ROOT
HETATM    1  C1  UNL     1     -34.134  13.790  -4.050  1.00 20.00     0.087 C 
HETATM    2  C2  UNL     1     -33.279  14.916  -3.913  1.00 20.00     0.093 C 
HETATM    3  C3  UNL     1     -33.523  15.875  -3.009  1.00 20.00     0.011 C 
HETATM    4  N7  UNL     1     -34.831  12.868  -4.163  1.00 20.00    -0.192 NA
ENDROOT
BRANCH   3   5
HETATM    5  C4  UNL     1     -34.657  15.842  -2.114  1.00 20.00    -0.004 C 
HETATM    6  C5  UNL     1     -34.761  16.628  -1.032  1.00 20.00    -0.031 C 
HETATM    7  C6  UNL     1     -33.723  17.623  -0.628  1.00 20.00     0.036 C 
ENDBRANCH   3   5
TORSDOF 1
ENDMDL
MODEL 6
REMARK VINA RESULT:      -3.7     11.825     12.522
REMARK  1 active torsions:
REMARK  status: ('A' for Active; 'I' for Inactive)
REMARK    1  A    between atoms: C3_3  and  C4_4 
ROOT
HETATM    1  C1  UNL     1     -34.914  14.010  -5.818  1.00 20.00     0.087 C 
HETATM    2  C2  UNL     1     -34.867  13.358  -4.556  1.00 20.00     0.093 C 
HETATM    3  C3  UNL     1     -34.186  13.877  -3.525  1.00 20.00     0.011 C 
HETATM    4  N7  UNL     1     -34.955  14.541  -6.849  1.00 20.00    -0.192 NA
ENDROOT
BRANCH   3   5
HETATM    5  C4  UNL     1     -33.456  15.122  -3.610  1.00 20.00    -0.004 C 
HETATM    6  C5  UNL     1     -33.673  16.157  -2.786  1.00 20.00    -0.031 C 
HETATM    7  C6  UNL     1     -34.688  16.145  -1.690  1.00 20.00     0.036 C 
ENDBRANCH   3   5
TORSDOF 1
ENDMDL
MODEL 7
REMARK VINA RESULT:      -3.7     11.648     12.431
REMARK  1 active torsions:
REMARK  status: ('A' for Active; 'I' for Inactive)
REMARK    1  A    between atoms: C3_3  and  C4_4 
ROOT
HETATM    1  C1  UNL     1     -33.612  17.806  -0.445  1.00 20.00     0.087 C 
HETATM    2  C2  UNL     1     -34.660  16.871  -0.666  1.00 20.00     0.093 C 
HETATM    3  C3  UNL     1     -34.685  16.091  -1.755  1.00 20.00     0.011 C 
HETATM    4  N7  UNL     1     -32.757  18.568  -0.262  1.00 20.00    -0.192 NA
ENDROOT
BRANCH   3   5
HETATM    5  C4  UNL     1     -33.663  16.134  -2.777  1.00 20.00    -0.004 C 
HETATM    6  C5  UNL     1     -33.426  15.119  -3.620  1.00 20.00    -0.031 C 
HETATM    7  C6  UNL     1     -34.184  13.832  -3.601  1.00 20.00     0.036 C 
ENDBRANCH   3   5
TORSDOF 1
ENDMDL
MODEL 8
REMARK VINA RESULT:      -3.6      1.363      2.267
REMARK  1 active torsions:
REMARK  status: ('A' for Active; 'I' for Inactive)
REMARK    1  A    between atoms: C3_3  and  C4_4 
ROOT
HETATM    1  C1  UNL     1     -32.955   6.620   4.610  1.00 20.00     0.087 C 
HETATM    2  C2  UNL     1     -33.653   6.811   5.834  1.00 20.00     0.093 C 
HETATM    3  C3  UNL     1     -34.382   5.830   6.384  1.00 20.00     0.011 C 
HETATM    4  N7  UNL     1     -32.383   6.466   3.612  1.00 20.00    -0.192 NA
ENDROOT
BRANCH   3   5
HETATM    5  C4  UNL     1     -34.515   4.520   5.789  1.00 20.00    -0.004 C 
HETATM    6  C5  UNL     1     -35.194   4.294   4.655  1.00 20.00    -0.031 C 
HETATM    7  C6  UNL     1     -35.889   5.365   3.879  1.00 20.00     0.036 C 
ENDBRANCH   3   5
TORSDOF 1
ENDMDL
MODEL 9
REMARK VINA RESULT:      -3.6     12.249     12.619
REMARK  1 active torsions:
REMARK  status: ('A' for Active; 'I' for Inactive)
REMARK    1  A    between atoms: C3_3  and  C4_4 
ROOT
HETATM    1  C1  UNL     1     -33.640  16.012  -4.019  1.00 20.00     0.087 C 
HETATM    2  C2  UNL     1     -34.536  15.516  -3.033  1.00 20.00     0.093 C 
HETATM    3  C3  UNL     1     -34.603  16.060  -1.811  1.00 20.00     0.011 C 
HETATM    4  N7  UNL     1     -32.910  16.416  -4.825  1.00 20.00    -0.192 NA
ENDROOT
BRANCH   3   5
HETATM    5  C4  UNL     1     -33.784  17.179  -1.401  1.00 20.00    -0.004 C 
HETATM    6  C5  UNL     1     -33.958  17.830  -0.242  1.00 20.00    -0.031 C 
HETATM    7  C6  UNL     1     -35.014  17.480   0.754  1.00 20.00     0.036 C 
ENDBRANCH   3   5
TORSDOF 1
ENDMDL
