MODEL 1
REMARK VINA RESULT:      -4.7      0.000      0.000
REMARK  1 active torsions:
REMARK  status: ('A' for Active; 'I' for Inactive)
REMARK    1  A    between atoms: C3_3  and  C4_4 
ROOT
HETATM    1  C1  UNL     1     -34.360   6.010   6.276  1.00 20.00     0.087 C 
HETATM    2  C2  UNL     1     -34.916   4.953   5.506  1.00 20.00     0.093 C 
HETATM    3  C3  UNL     1     -34.855   4.956   4.167  1.00 20.00     0.011 C 
HETATM    4  N7  UNL     1     -33.907   6.871   6.908  1.00 20.00    -0.192 NA
ENDROOT
BRANCH   3   5
HETATM    5  C4  UNL     1     -34.229   6.016   3.409  1.00 20.00    -0.004 C 
HETATM    6  C5  UNL     1     -32.900   6.198   3.363  1.00 20.00    -0.031 C 
HETATM    7  C6  UNL     1     -32.240   7.288   2.582  1.00 20.00     0.036 C 
ENDBRANCH   3   5
TORSDOF 1
ENDMDL
MODEL 2
REMARK VINA RESULT:      -4.6      1.831      2.123
REMARK  1 active torsions:
REMARK  status: ('A' for Active; 'I' for Inactive)
REMARK    1  A    between atoms: C3_3  and  C4_4 
ROOT
HETATM    1  C1  UNL     1     -34.866   4.341   5.571  1.00 20.00     0.087 C 
HETATM    2  C2  UNL     1     -34.463   5.407   6.420  1.00 20.00     0.093 C 
HETATM    3  C3  UNL     1     -33.927   6.531   5.924  1.00 20.00     0.011 C 
HETATM    4  N7  UNL     1     -35.197   3.469   4.880  1.00 20.00    -0.192 NA
ENDROOT
BRANCH   3   5
HETATM    5  C4  UNL     1     -33.719   6.749   4.510  1.00 20.00    -0.004 C 
HETATM    6  C5  UNL     1     -32.502   6.832   3.953  1.00 20.00    -0.031 C 
HETATM    7  C6  UNL     1     -32.272   7.055   2.494  1.00 20.00     0.036 C 
ENDBRANCH   3   5
TORSDOF 1
ENDMDL
MODEL 3
REMARK VINA RESULT:      -4.2      1.126      1.408
REMARK  1 active torsions:
REMARK  status: ('A' for Active; 'I' for Inactive)
REMARK    1  A    between atoms: C3_3  and  C4_4 
ROOT
HETATM    1  C1  UNL     1     -35.151   5.004   5.464  1.00 20.00     0.087 C 
HETATM    2  C2  UNL     1     -35.553   5.133   4.107  1.00 20.00     0.093 C 
HETATM    3  C3  UNL     1     -34.716   5.601   3.172  1.00 20.00     0.011 C 
HETATM    4  N7  UNL     1     -34.826   4.896   6.573  1.00 20.00    -0.192 NA
ENDROOT
BRANCH   3   5
HETATM    5  C4  UNL     1     -33.359   6.007   3.460  1.00 20.00    -0.004 C 
HETATM    6  C5  UNL     1     -32.767   7.059   2.874  1.00 20.00    -0.031 C 
HETATM    7  C6  UNL     1     -31.366   7.489   3.164  1.00 20.00     0.036 C 
ENDBRANCH   3   5
TORSDOF 1
ENDMDL
MODEL 4
REMARK VINA RESULT:      -4.2      1.730      3.570
REMARK  1 active torsions:
REMARK  status: ('A' for Active; 'I' for Inactive)
REMARK    1  A    between atoms: C3_3  and  C4_4 
ROOT
HETATM    1  C1  UNL     1     -32.128   6.912   3.311  1.00 20.00     0.087 C 
HETATM    2  C2  UNL     1     -32.980   6.107   2.508  1.00 20.00     0.093 C 
HETATM    3  C3  UNL     1     -34.045   5.481   3.027  1.00 20.00     0.011 C 
HETATM    4  N7  UNL     1     -31.430   7.570   3.965  1.00 20.00    -0.192 NA
ENDROOT
BRANCH   3   5
HETATM    5  C4  UNL     1     -34.409   5.572   4.423  1.00 20.00    -0.004 C 
HETATM    6  C5  UNL     1     -34.832   4.520   5.141  1.00 20.00    -0.031 C 
HETATM    7  C6  UNL     1     -35.209   4.599   6.584  1.00 20.00     0.036 C 
ENDBRANCH   3   5
TORSDOF 1
ENDMDL
MODEL 5
REMARK VINA RESULT:      -4.1      2.051      3.199
REMARK  1 active torsions:
REMARK  status: ('A' for Active; 'I' for Inactive)
REMARK    1  A    between atoms: C3_3  and  C4_4 
ROOT
HETATM    1  C1  UNL     1     -34.247   5.372   3.517  1.00 20.00     0.087 C 
HETATM    2  C2  UNL     1     -35.188   4.625   4.276  1.00 20.00     0.093 C 
HETATM    3  C3  UNL     1     -35.169   4.634   5.616  1.00 20.00     0.011 C 
HETATM    4  N7  UNL     1     -33.480   5.981   2.894  1.00 20.00    -0.192 NA
ENDROOT
BRANCH   3   5
HETATM    5  C4  UNL     1     -34.208   5.390   6.387  1.00 20.00    -0.004 C 
HETATM    6  C5  UNL     1     -34.169   6.731   6.397  1.00 20.00    -0.031 C 
HETATM    7  C6  UNL     1     -33.182   7.525   7.189  1.00 20.00     0.036 C 
ENDBRANCH   3   5
TORSDOF 1
ENDMDL
MODEL 6
REMARK VINA RESULT:      -4.0     11.861     12.548
REMARK  1 active torsions:
REMARK  status: ('A' for Active; 'I' for Inactive)
REMARK    1  A    between atoms: C3_3  and  C4_4 
ROOT
HETATM    1  C1  UNL     1     -34.367  13.795  -4.370  1.00 20.00     0.087 C 
HETATM    2  C2  UNL     1     -33.553  14.933  -4.616  1.00 20.00     0.093 C 
HETATM    3  C3  UNL     1     -33.449  15.925  -3.721  1.00 20.00     0.011 C 
HETATM    4  N7  UNL     1     -35.032  12.864  -4.172  1.00 20.00    -0.192 NA
ENDROOT
BRANCH   3   5
HETATM    5  C4  UNL     1     -34.145  15.921  -2.454  1.00 20.00    -0.004 C 
HETATM    6  C5  UNL     1     -34.040  16.911  -1.556  1.00 20.00    -0.031 C 
HETATM    7  C6  UNL     1     -34.755  16.919  -0.244  1.00 20.00     0.036 C 
ENDBRANCH   3   5
TORSDOF 1
ENDMDL
MODEL 7
REMARK VINA RESULT:      -4.0      2.740      4.338
REMARK  1 active torsions:
REMARK  status: ('A' for Active; 'I' for Inactive)
REMARK    1  A    between atoms: C3_3  and  C4_4 
ROOT
HETATM    1  C1  UNL     1     -32.060   8.465   1.824  1.00 20.00     0.087 C 
HETATM    2  C2  UNL     1     -31.423   7.824   2.921  1.00 20.00     0.093 C 
HETATM    3  C3  UNL     1     -32.010   6.814   3.577  1.00 20.00     0.011 C 
HETATM    4  N7  UNL     1     -32.577   8.990   0.927  1.00 20.00    -0.192 NA
ENDROOT
BRANCH   3   5
HETATM    5  C4  UNL     1     -33.316   6.301   3.229  1.00 20.00    -0.004 C 
HETATM    6  C5  UNL     1     -34.225   5.926   4.143  1.00 20.00    -0.031 C 
HETATM    7  C6  UNL     1     -35.578   5.396   3.797  1.00 20.00     0.036 C 
ENDBRANCH   3   5
TORSDOF 1
ENDMDL
MODEL 8
REMARK VINA RESULT:      -4.0     12.135     12.410
REMARK  1 active torsions:
REMARK  status: ('A' for Active; 'I' for Inactive)
REMARK    1  A    between atoms: C3_3  and  C4_4 
ROOT
HETATM    1  C1  UNL     1     -36.381  14.430  -3.881  1.00 20.00     0.087 C 
HETATM    2  C2  UNL     1     -34.976  14.605  -4.003  1.00 20.00     0.093 C 
HETATM    3  C3  UNL     1     -34.274  15.285  -3.086  1.00 20.00     0.011 C 
HETATM    4  N7  UNL     1     -37.528  14.285  -3.784  1.00 20.00    -0.192 NA
ENDROOT
BRANCH   3   5
HETATM    5  C4  UNL     1     -34.876  15.888  -1.919  1.00 20.00    -0.004 C 
HETATM    6  C5  UNL     1     -34.229  16.751  -1.122  1.00 20.00    -0.031 C 
HETATM    7  C6  UNL     1     -34.841  17.382   0.086  1.00 20.00     0.036 C 
ENDBRANCH   3   5
TORSDOF 1
ENDMDL
MODEL 9
REMARK VINA RESULT:      -4.0     12.346     12.863
REMARK  1 active torsions:
REMARK  status: ('A' for Active; 'I' for Inactive)
REMARK    1  A    between atoms: C3_3  and  C4_4 
ROOT
HETATM    1  C1  UNL     1     -32.519  18.868   0.446  1.00 20.00     0.087 C 
HETATM    2  C2  UNL     1     -33.812  18.443   0.854  1.00 20.00     0.093 C 
HETATM    3  C3  UNL     1     -34.516  17.558   0.135  1.00 20.00     0.011 C 
HETATM    4  N7  UNL     1     -31.462  19.217   0.116  1.00 20.00    -0.192 NA
ENDROOT
BRANCH   3   5
HETATM    5  C4  UNL     1     -34.027  16.972  -1.093  1.00 20.00    -0.004 C 
HETATM    6  C5  UNL     1     -34.725  16.077  -1.808  1.00 20.00    -0.031 C 
HETATM    7  C6  UNL     1     -34.232  15.466  -3.078  1.00 20.00     0.036 C 
ENDBRANCH   3   5
TORSDOF 1
ENDMDL
