MODEL 1
REMARK VINA RESULT:      -4.8      0.000      0.000
REMARK  2 active torsions:
REMARK  status: ('A' for Active; 'I' for Inactive)
REMARK    1  A    between atoms: C1_1  and  C6_6 
REMARK    2  A    between atoms: C5_5  and  N7_7 
ROOT
HETATM    1  C1  UNL     1     -34.250   5.745   4.799  1.00 20.00     0.108 C 
HETATM    2  C2  UNL     1     -35.330   5.355   3.820  1.00 20.00     0.075 C 
HETATM    3  N7  UNL     1     -33.135   6.309   4.475  1.00 20.00    -0.285 NA
ENDROOT
BRANCH   1   4
HETATM    4  C6  UNL     1     -34.507   5.464   6.252  1.00 20.00     0.430 C 
HETATM    5  F8  UNL     1     -33.589   4.606   6.767  1.00 20.00    -0.165 F 
HETATM    6  F9  UNL     1     -35.726   4.908   6.473  1.00 20.00    -0.165 F 
HETATM    7  F10 UNL     1     -34.451   6.596   7.000  1.00 20.00    -0.165 F 
ENDBRANCH   1   4
BRANCH   3   8
HETATM    8  C5  UNL     1     -32.886   6.594   3.071  1.00 20.00     0.100 C 
HETATM    9  C3  UNL     1     -32.006   7.831   2.967  1.00 20.00     0.034 C 
HETATM   10  C4  UNL     1     -32.229   5.380   2.430  1.00 20.00     0.034 C 
ENDBRANCH   3   8
TORSDOF 2
ENDMDL
MODEL 2
REMARK VINA RESULT:      -4.3     11.947     12.887
REMARK  2 active torsions:
REMARK  status: ('A' for Active; 'I' for Inactive)
REMARK    1  A    between atoms: C1_1  and  C6_6 
REMARK    2  A    between atoms: C5_5  and  N7_7 
ROOT
HETATM    1  C1  UNL     1     -34.084  15.244  -3.647  1.00 20.00     0.108 C 
HETATM    2  C2  UNL     1     -33.257  16.285  -4.360  1.00 20.00     0.075 C 
HETATM    3  N7  UNL     1     -34.828  15.476  -2.620  1.00 20.00    -0.285 NA
ENDROOT
BRANCH   1   4
HETATM    4  C6  UNL     1     -34.039  13.843  -4.190  1.00 20.00     0.430 C 
HETATM    5  F8  UNL     1     -34.102  13.830  -5.546  1.00 20.00    -0.165 F 
HETATM    6  F9  UNL     1     -35.064  13.072  -3.745  1.00 20.00    -0.165 F 
HETATM    7  F10 UNL     1     -32.891  13.207  -3.843  1.00 20.00    -0.165 F 
ENDBRANCH   1   4
BRANCH   3   8
HETATM    8  C5  UNL     1     -34.884  16.832  -2.097  1.00 20.00     0.100 C 
HETATM    9  C3  UNL     1     -36.250  17.426  -2.410  1.00 20.00     0.034 C 
HETATM   10  C4  UNL     1     -34.615  16.796  -0.600  1.00 20.00     0.034 C 
ENDBRANCH   3   8
TORSDOF 2
ENDMDL
MODEL 3
REMARK VINA RESULT:      -4.3     11.967     12.767
REMARK  2 active torsions:
REMARK  status: ('A' for Active; 'I' for Inactive)
REMARK    1  A    between atoms: C1_1  and  C6_6 
REMARK    2  A    between atoms: C5_5  and  N7_7 
ROOT
HETATM    1  C1  UNL     1     -34.873  15.004  -3.423  1.00 20.00     0.108 C 
HETATM    2  C2  UNL     1     -36.374  15.161  -3.446  1.00 20.00     0.075 C 
HETATM    3  N7  UNL     1     -34.060  15.814  -2.835  1.00 20.00    -0.285 NA
ENDROOT
BRANCH   1   4
HETATM    4  C6  UNL     1     -34.298  13.807  -4.127  1.00 20.00     0.430 C 
HETATM    5  F8  UNL     1     -35.146  12.748  -4.087  1.00 20.00    -0.165 F 
HETATM    6  F9  UNL     1     -33.126  13.390  -3.585  1.00 20.00    -0.165 F 
HETATM    7  F10 UNL     1     -34.054  14.066  -5.437  1.00 20.00    -0.165 F 
ENDBRANCH   1   4
BRANCH   3   8
HETATM    8  C5  UNL     1     -34.611  16.968  -2.142  1.00 20.00     0.100 C 
HETATM    9  C3  UNL     1     -34.594  16.699  -0.645  1.00 20.00     0.034 C 
HETATM   10  C4  UNL     1     -33.792  18.199  -2.503  1.00 20.00     0.034 C 
ENDBRANCH   3   8
TORSDOF 2
ENDMDL
MODEL 4
REMARK VINA RESULT:      -4.3      3.093      4.352
REMARK  2 active torsions:
REMARK  status: ('A' for Active; 'I' for Inactive)
REMARK    1  A    between atoms: C1_1  and  C6_6 
REMARK    2  A    between atoms: C5_5  and  N7_7 
ROOT
HETATM    1  C1  UNL     1     -32.718   6.590   3.306  1.00 20.00     0.108 C 
HETATM    2  C2  UNL     1     -32.157   5.273   2.828  1.00 20.00     0.075 C 
HETATM    3  N7  UNL     1     -33.658   6.712   4.181  1.00 20.00    -0.285 NA
ENDROOT
BRANCH   1   4
HETATM    4  C6  UNL     1     -32.123   7.840   2.723  1.00 20.00     0.430 C 
HETATM    5  F8  UNL     1     -31.152   8.352   3.523  1.00 20.00    -0.165 F 
HETATM    6  F9  UNL     1     -33.039   8.825   2.542  1.00 20.00    -0.165 F 
HETATM    7  F10 UNL     1     -31.554   7.607   1.513  1.00 20.00    -0.165 F 
ENDBRANCH   1   4
BRANCH   3   8
HETATM    8  C5  UNL     1     -34.230   5.505   4.757  1.00 20.00     0.100 C 
HETATM    9  C3  UNL     1     -34.405   5.707   6.255  1.00 20.00     0.034 C 
HETATM   10  C4  UNL     1     -35.556   5.211   4.069  1.00 20.00     0.034 C 
ENDBRANCH   3   8
TORSDOF 2
ENDMDL
MODEL 5
REMARK VINA RESULT:      -4.1     12.490     13.587
REMARK  2 active torsions:
REMARK  status: ('A' for Active; 'I' for Inactive)
REMARK    1  A    between atoms: C1_1  and  C6_6 
REMARK    2  A    between atoms: C5_5  and  N7_7 
ROOT
HETATM    1  C1  UNL     1     -34.329  14.573  -4.658  1.00 20.00     0.108 C 
HETATM    2  C2  UNL     1     -34.922  13.253  -4.230  1.00 20.00     0.075 C 
HETATM    3  N7  UNL     1     -34.728  15.261  -5.674  1.00 20.00    -0.285 NA
ENDROOT
BRANCH   1   4
HETATM    4  C6  UNL     1     -33.202  15.120  -3.827  1.00 20.00     0.430 C 
HETATM    5  F8  UNL     1     -32.274  14.168  -3.554  1.00 20.00    -0.165 F 
HETATM    6  F9  UNL     1     -33.620  15.613  -2.634  1.00 20.00    -0.165 F 
HETATM    7  F10 UNL     1     -32.555  16.130  -4.463  1.00 20.00    -0.165 F 
ENDBRANCH   1   4
BRANCH   3   8
HETATM    8  C5  UNL     1     -35.825  14.741  -6.475  1.00 20.00     0.100 C 
HETATM    9  C3  UNL     1     -37.013  15.684  -6.356  1.00 20.00     0.034 C 
HETATM   10  C4  UNL     1     -35.360  14.601  -7.917  1.00 20.00     0.034 C 
ENDBRANCH   3   8
TORSDOF 2
ENDMDL
MODEL 6
REMARK VINA RESULT:      -4.0     12.442     13.713
REMARK  2 active torsions:
REMARK  status: ('A' for Active; 'I' for Inactive)
REMARK    1  A    between atoms: C1_1  and  C6_6 
REMARK    2  A    between atoms: C5_5  and  N7_7 
ROOT
HETATM    1  C1  UNL     1     -34.067  15.453  -4.755  1.00 20.00     0.108 C 
HETATM    2  C2  UNL     1     -33.373  16.669  -5.318  1.00 20.00     0.075 C 
HETATM    3  N7  UNL     1     -35.095  14.884  -5.287  1.00 20.00    -0.285 NA
ENDROOT
BRANCH   1   4
HETATM    4  C6  UNL     1     -33.503  14.866  -3.492  1.00 20.00     0.430 C 
HETATM    5  F8  UNL     1     -33.706  15.683  -2.427  1.00 20.00    -0.165 F 
HETATM    6  F9  UNL     1     -32.166  14.644  -3.565  1.00 20.00    -0.165 F 
HETATM    7  F10 UNL     1     -34.082  13.675  -3.191  1.00 20.00    -0.165 F 
ENDBRANCH   1   4
BRANCH   3   8
HETATM    8  C5  UNL     1     -35.637  15.441  -6.516  1.00 20.00     0.100 C 
HETATM    9  C3  UNL     1     -35.359  14.478  -7.660  1.00 20.00     0.034 C 
HETATM   10  C4  UNL     1     -37.129  15.682  -6.333  1.00 20.00     0.034 C 
ENDBRANCH   3   8
TORSDOF 2
ENDMDL
MODEL 7
REMARK VINA RESULT:      -4.0      1.525      2.155
REMARK  2 active torsions:
REMARK  status: ('A' for Active; 'I' for Inactive)
REMARK    1  A    between atoms: C1_1  and  C6_6 
REMARK    2  A    between atoms: C5_5  and  N7_7 
ROOT
HETATM    1  C1  UNL     1     -33.945   5.659   3.554  1.00 20.00     0.108 C 
HETATM    2  C2  UNL     1     -33.718   4.947   2.243  1.00 20.00     0.075 C 
HETATM    3  N7  UNL     1     -33.235   6.645   3.986  1.00 20.00    -0.285 NA
ENDROOT
BRANCH   1   4
HETATM    4  C6  UNL     1     -35.091   5.183   4.402  1.00 20.00     0.430 C 
HETATM    5  F8  UNL     1     -35.038   5.707   5.654  1.00 20.00    -0.165 F 
HETATM    6  F9  UNL     1     -35.116   3.834   4.544  1.00 20.00    -0.165 F 
HETATM    7  F10 UNL     1     -36.289   5.544   3.874  1.00 20.00    -0.165 F 
ENDBRANCH   1   4
BRANCH   3   8
HETATM    8  C5  UNL     1     -32.131   7.116   3.164  1.00 20.00     0.100 C 
HETATM    9  C3  UNL     1     -32.650   8.175   2.202  1.00 20.00     0.034 C 
HETATM   10  C4  UNL     1     -31.039   7.665   4.070  1.00 20.00     0.034 C 
ENDBRANCH   3   8
TORSDOF 2
ENDMDL
MODEL 8
REMARK VINA RESULT:      -3.9      2.844      4.193
REMARK  2 active torsions:
REMARK  status: ('A' for Active; 'I' for Inactive)
REMARK    1  A    between atoms: C1_1  and  C6_6 
REMARK    2  A    between atoms: C5_5  and  N7_7 
ROOT
HETATM    1  C1  UNL     1     -33.588   6.043   3.623  1.00 20.00     0.108 C 
HETATM    2  C2  UNL     1     -34.783   5.736   2.754  1.00 20.00     0.075 C 
HETATM    3  N7  UNL     1     -33.552   5.883   4.903  1.00 20.00    -0.285 NA
ENDROOT
BRANCH   1   4
HETATM    4  C6  UNL     1     -32.356   6.559   2.936  1.00 20.00     0.430 C 
HETATM    5  F8  UNL     1     -31.463   7.066   3.824  1.00 20.00    -0.165 F 
HETATM    6  F9  UNL     1     -32.625   7.547   2.045  1.00 20.00    -0.165 F 
HETATM    7  F10 UNL     1     -31.716   5.577   2.251  1.00 20.00    -0.165 F 
ENDBRANCH   1   4
BRANCH   3   8
HETATM    8  C5  UNL     1     -34.738   5.373   5.571  1.00 20.00     0.100 C 
HETATM    9  C3  UNL     1     -34.715   3.852   5.526  1.00 20.00     0.034 C 
HETATM   10  C4  UNL     1     -34.761   5.893   7.001  1.00 20.00     0.034 C 
ENDBRANCH   3   8
TORSDOF 2
ENDMDL
MODEL 9
REMARK VINA RESULT:      -3.9      1.433      2.184
REMARK  2 active torsions:
REMARK  status: ('A' for Active; 'I' for Inactive)
REMARK    1  A    between atoms: C1_1  and  C6_6 
REMARK    2  A    between atoms: C5_5  and  N7_7 
ROOT
HETATM    1  C1  UNL     1     -34.159   5.850   4.790  1.00 20.00     0.108 C 
HETATM    2  C2  UNL     1     -33.681   6.532   6.048  1.00 20.00     0.075 C 
HETATM    3  N7  UNL     1     -33.685   6.070   3.611  1.00 20.00    -0.285 NA
ENDROOT
BRANCH   1   4
HETATM    4  C6  UNL     1     -35.257   4.835   4.936  1.00 20.00     0.430 C 
HETATM    5  F8  UNL     1     -35.656   4.712   6.228  1.00 20.00    -0.165 F 
HETATM    6  F9  UNL     1     -34.888   3.596   4.522  1.00 20.00    -0.165 F 
HETATM    7  F10 UNL     1     -36.356   5.178   4.216  1.00 20.00    -0.165 F 
ENDBRANCH   1   4
BRANCH   3   8
HETATM    8  C5  UNL     1     -32.614   7.043   3.465  1.00 20.00     0.100 C 
HETATM    9  C3  UNL     1     -31.305   6.304   3.225  1.00 20.00     0.034 C 
HETATM   10  C4  UNL     1     -32.951   7.979   2.314  1.00 20.00     0.034 C 
ENDBRANCH   3   8
TORSDOF 2
ENDMDL
