MODEL 1
REMARK VINA RESULT:      -4.6      0.000      0.000
REMARK  1 active torsions:
REMARK  status: ('A' for Active; 'I' for Inactive)
REMARK    1  A    between atoms: C3_3  and  C5_5 
ROOT
HETATM    1  C1  UNL     1     -34.576   5.022   3.663  1.00 20.00     0.025 A 
HETATM    2  C2  UNL     1     -33.941   5.782   2.639  1.00 20.00     0.028 A 
HETATM    3  C3  UNL     1     -34.201   5.435   4.922  1.00 20.00     0.089 A 
HETATM    4  C4  UNL     1     -33.105   6.748   3.154  1.00 20.00     0.052 A 
HETATM    5  S9  UNL     1     -33.087   6.735   4.867  1.00 20.00    -0.078 SA
HETATM    6 BR10 UNL     1     -32.085   7.958   2.105  1.00 20.00    -0.043 Br
ENDROOT
BRANCH   3   7
HETATM    7  C5  UNL     1     -34.635   4.904   6.232  1.00 20.00     0.423 C 
HETATM    8  F6  UNL     1     -35.622   3.957   6.154  1.00 20.00    -0.166 F 
HETATM    9  F7  UNL     1     -33.634   4.302   6.950  1.00 20.00    -0.166 F 
HETATM   10  F8  UNL     1     -35.135   5.871   7.065  1.00 20.00    -0.166 F 
ENDBRANCH   3   7
TORSDOF 1
ENDMDL
MODEL 2
REMARK VINA RESULT:      -4.2     12.985     13.778
REMARK  1 active torsions:
REMARK  status: ('A' for Active; 'I' for Inactive)
REMARK    1  A    between atoms: C3_3  and  C5_5 
ROOT
HETATM    1  C1  UNL     1     -34.491  14.809  -6.301  1.00 20.00     0.025 A 
HETATM    2  C2  UNL     1     -34.418  16.047  -7.002  1.00 20.00     0.028 A 
HETATM    3  C3  UNL     1     -34.173  14.949  -4.968  1.00 20.00     0.089 A 
HETATM    4  C4  UNL     1     -34.046  17.087  -6.179  1.00 20.00     0.052 A 
HETATM    5  S9  UNL     1     -33.787  16.569  -4.567  1.00 20.00    -0.078 SA
HETATM    6 BR10 UNL     1     -33.841  18.887  -6.747  1.00 20.00    -0.043 Br
ENDROOT
BRANCH   3   7
HETATM    7  C5  UNL     1     -34.133  13.910  -3.917  1.00 20.00     0.423 C 
HETATM    8  F6  UNL     1     -35.025  12.887  -4.107  1.00 20.00    -0.166 F 
HETATM    9  F7  UNL     1     -32.917  13.289  -3.791  1.00 20.00    -0.166 F 
HETATM   10  F8  UNL     1     -34.413  14.398  -2.667  1.00 20.00    -0.166 F 
ENDBRANCH   3   7
TORSDOF 1
ENDMDL
MODEL 3
REMARK VINA RESULT:      -4.1     10.133     10.760
REMARK  1 active torsions:
REMARK  status: ('A' for Active; 'I' for Inactive)
REMARK    1  A    between atoms: C3_3  and  C5_5 
ROOT
HETATM    1  C1  UNL     1     -40.779   5.411  -0.841  1.00 20.00     0.025 A 
HETATM    2  C2  UNL     1     -40.743   4.082  -1.356  1.00 20.00     0.028 A 
HETATM    3  C3  UNL     1     -41.742   6.178  -1.459  1.00 20.00     0.089 A 
HETATM    4  C4  UNL     1     -41.680   3.884  -2.346  1.00 20.00     0.052 A 
HETATM    5  S9  UNL     1     -42.598   5.297  -2.653  1.00 20.00    -0.078 SA
HETATM    6 BR10 UNL     1     -41.936   2.247  -3.272  1.00 20.00    -0.043 Br
ENDROOT
BRANCH   3   7
HETATM    7  C5  UNL     1     -42.089   7.594  -1.211  1.00 20.00     0.423 C 
HETATM    8  F6  UNL     1     -41.055   8.346  -0.719  1.00 20.00    -0.166 F 
HETATM    9  F7  UNL     1     -42.508   8.271  -2.326  1.00 20.00    -0.166 F 
HETATM   10  F8  UNL     1     -43.104   7.747  -0.302  1.00 20.00    -0.166 F 
ENDBRANCH   3   7
TORSDOF 1
ENDMDL
MODEL 4
REMARK VINA RESULT:      -4.1     12.453     13.089
REMARK  1 active torsions:
REMARK  status: ('A' for Active; 'I' for Inactive)
REMARK    1  A    between atoms: C3_3  and  C5_5 
ROOT
HETATM    1  C1  UNL     1     -33.661  15.877  -2.692  1.00 20.00     0.025 A 
HETATM    2  C2  UNL     1     -34.337  16.977  -2.090  1.00 20.00     0.028 A 
HETATM    3  C3  UNL     1     -34.518  15.076  -3.415  1.00 20.00     0.089 A 
HETATM    4  C4  UNL     1     -35.685  16.976  -2.375  1.00 20.00     0.052 A 
HETATM    5  S9  UNL     1     -36.131  15.651  -3.365  1.00 20.00    -0.078 SA
HETATM    6 BR10 UNL     1     -36.916  18.279  -1.752  1.00 20.00    -0.043 Br
ENDROOT
BRANCH   3   7
HETATM    7  C5  UNL     1     -34.206  13.849  -4.180  1.00 20.00     0.423 C 
HETATM    8  F6  UNL     1     -35.130  12.848  -4.031  1.00 20.00    -0.166 F 
HETATM    9  F7  UNL     1     -34.120  14.041  -5.534  1.00 20.00    -0.166 F 
HETATM   10  F8  UNL     1     -33.009  13.284  -3.825  1.00 20.00    -0.166 F 
ENDBRANCH   3   7
TORSDOF 1
ENDMDL
MODEL 5
REMARK VINA RESULT:      -4.0     13.119     13.995
REMARK  1 active torsions:
REMARK  status: ('A' for Active; 'I' for Inactive)
REMARK    1  A    between atoms: C3_3  and  C5_5 
ROOT
HETATM    1  C1  UNL     1     -33.484  16.190  -4.375  1.00 20.00     0.025 A 
HETATM    2  C2  UNL     1     -33.638  17.293  -5.264  1.00 20.00     0.028 A 
HETATM    3  C3  UNL     1     -33.917  15.009  -4.936  1.00 20.00     0.089 A 
HETATM    4  C4  UNL     1     -34.183  16.913  -6.471  1.00 20.00     0.052 A 
HETATM    5  S9  UNL     1     -34.506  15.232  -6.529  1.00 20.00    -0.078 SA
HETATM    6 BR10 UNL     1     -34.539  18.099  -7.910  1.00 20.00    -0.043 Br
ENDROOT
BRANCH   3   7
HETATM    7  C5  UNL     1     -33.923  13.655  -4.341  1.00 20.00     0.423 C 
HETATM    8  F6  UNL     1     -32.770  13.330  -3.677  1.00 20.00    -0.166 F 
HETATM    9  F7  UNL     1     -34.920  13.453  -3.422  1.00 20.00    -0.166 F 
HETATM   10  F8  UNL     1     -34.091  12.661  -5.269  1.00 20.00    -0.166 F 
ENDBRANCH   3   7
TORSDOF 1
ENDMDL
MODEL 6
REMARK VINA RESULT:      -4.0      3.928      4.568
REMARK  1 active torsions:
REMARK  status: ('A' for Active; 'I' for Inactive)
REMARK    1  A    between atoms: C3_3  and  C5_5 
ROOT
HETATM    1  C1  UNL     1     -33.858   5.811   2.630  1.00 20.00     0.025 A 
HETATM    2  C2  UNL     1     -34.599   5.013   3.549  1.00 20.00     0.028 A 
HETATM    3  C3  UNL     1     -33.073   6.743   3.271  1.00 20.00     0.089 A 
HETATM    4  C4  UNL     1     -34.352   5.366   4.858  1.00 20.00     0.052 A 
HETATM    5  S9  UNL     1     -33.230   6.655   4.974  1.00 20.00    -0.078 SA
HETATM    6 BR10 UNL     1     -35.152   4.533   6.364  1.00 20.00    -0.043 Br
ENDROOT
BRANCH   3   7
HETATM    7  C5  UNL     1     -32.166   7.748   2.676  1.00 20.00     0.423 C 
HETATM    8  F6  UNL     1     -31.567   7.342   1.512  1.00 20.00    -0.166 F 
HETATM    9  F7  UNL     1     -32.777   8.932   2.355  1.00 20.00    -0.166 F 
HETATM   10  F8  UNL     1     -31.131   8.096   3.504  1.00 20.00    -0.166 F 
ENDBRANCH   3   7
TORSDOF 1
ENDMDL
MODEL 7
REMARK VINA RESULT:      -4.0     12.500     13.273
REMARK  1 active torsions:
REMARK  status: ('A' for Active; 'I' for Inactive)
REMARK    1  A    between atoms: C3_3  and  C5_5 
ROOT
HETATM    1  C1  UNL     1     -34.341  14.301  -3.367  1.00 20.00     0.025 A 
HETATM    2  C2  UNL     1     -34.513  13.843  -4.704  1.00 20.00     0.028 A 
HETATM    3  C3  UNL     1     -34.520  15.663  -3.260  1.00 20.00     0.089 A 
HETATM    4  C4  UNL     1     -34.817  14.871  -5.570  1.00 20.00     0.052 A 
HETATM    5  S9  UNL     1     -34.893  16.383  -4.769  1.00 20.00    -0.078 SA
HETATM    6 BR10 UNL     1     -35.119  14.654  -7.432  1.00 20.00    -0.043 Br
ENDROOT
BRANCH   3   7
HETATM    7  C5  UNL     1     -34.427  16.512  -2.053  1.00 20.00     0.423 C 
HETATM    8  F6  UNL     1     -34.859  15.902  -0.905  1.00 20.00    -0.166 F 
HETATM    9  F7  UNL     1     -33.155  16.934  -1.762  1.00 20.00    -0.166 F 
HETATM   10  F8  UNL     1     -35.168  17.661  -2.145  1.00 20.00    -0.166 F 
ENDBRANCH   3   7
TORSDOF 1
ENDMDL
MODEL 8
REMARK VINA RESULT:      -4.0     13.284     14.144
REMARK  1 active torsions:
REMARK  status: ('A' for Active; 'I' for Inactive)
REMARK    1  A    between atoms: C3_3  and  C5_5 
ROOT
HETATM    1  C1  UNL     1     -33.781  16.553  -4.965  1.00 20.00     0.025 A 
HETATM    2  C2  UNL     1     -33.692  17.102  -3.653  1.00 20.00     0.028 A 
HETATM    3  C3  UNL     1     -34.574  15.427  -5.001  1.00 20.00     0.089 A 
HETATM    4  C4  UNL     1     -34.420  16.375  -2.737  1.00 20.00     0.052 A 
HETATM    5  S9  UNL     1     -35.207  15.036  -3.458  1.00 20.00    -0.078 SA
HETATM    6 BR10 UNL     1     -34.546  16.794  -0.890  1.00 20.00    -0.043 Br
ENDROOT
BRANCH   3   7
HETATM    7  C5  UNL     1     -34.912  14.577  -6.163  1.00 20.00     0.423 C 
HETATM    8  F6  UNL     1     -36.139  14.842  -6.713  1.00 20.00    -0.166 F 
HETATM    9  F7  UNL     1     -34.034  14.685  -7.210  1.00 20.00    -0.166 F 
HETATM   10  F8  UNL     1     -34.940  13.240  -5.861  1.00 20.00    -0.166 F 
ENDBRANCH   3   7
TORSDOF 1
ENDMDL
MODEL 9
REMARK VINA RESULT:      -4.0     10.609     11.321
REMARK  1 active torsions:
REMARK  status: ('A' for Active; 'I' for Inactive)
REMARK    1  A    between atoms: C3_3  and  C5_5 
ROOT
HETATM    1  C1  UNL     1     -40.830   4.054  -1.546  1.00 20.00     0.025 A 
HETATM    2  C2  UNL     1     -40.987   5.354  -0.985  1.00 20.00     0.028 A 
HETATM    3  C3  UNL     1     -41.779   3.788  -2.509  1.00 20.00     0.089 A 
HETATM    4  C4  UNL     1     -42.050   6.033  -1.540  1.00 20.00     0.052 A 
HETATM    5  S9  UNL     1     -42.854   5.102  -2.733  1.00 20.00    -0.078 SA
HETATM    6 BR10 UNL     1     -42.576   7.790  -1.052  1.00 20.00    -0.043 Br
ENDROOT
BRANCH   3   7
HETATM    7  C5  UNL     1     -41.952   2.561  -3.316  1.00 20.00     0.423 C 
HETATM    8  F6  UNL     1     -40.796   2.102  -3.892  1.00 20.00    -0.166 F 
HETATM    9  F7  UNL     1     -42.434   1.490  -2.610  1.00 20.00    -0.166 F 
HETATM   10  F8  UNL     1     -42.828   2.722  -4.358  1.00 20.00    -0.166 F 
ENDBRANCH   3   7
TORSDOF 1
ENDMDL
