MODEL 1
REMARK VINA RESULT:      -3.9      0.000      0.000
REMARK  3 active torsions:
REMARK  status: ('A' for Active; 'I' for Inactive)
REMARK    1  A    between atoms: C1_1  and  C5_5 
REMARK    2  A    between atoms: C5_5  and  C6_6 
REMARK    3  A    between atoms: C5_5  and  O8_8 
ROOT
HETATM    1  C5  UNL     1     -33.757  14.398  -3.530  1.00 20.00     0.186 C 
ENDROOT
BRANCH   1   2
HETATM    2  C1  UNL     1     -34.338  13.635  -4.706  1.00 20.00     0.263 C 
HETATM    3  O7  UNL     1     -34.910  12.553  -4.612  1.00 20.00    -0.304 OA
ENDBRANCH   1   2
BRANCH   1   4
HETATM    4  C6  UNL     1     -34.421  15.782  -3.304  1.00 20.00    -0.019 C 
HETATM    5  C2  UNL     1     -35.855  15.803  -3.864  1.00 20.00     0.017 C 
HETATM    6  C3  UNL     1     -33.602  16.863  -4.045  1.00 20.00     0.017 C 
HETATM    7  C4  UNL     1     -34.456  16.153  -1.809  1.00 20.00     0.017 C 
ENDBRANCH   1   4
BRANCH   1   8
HETATM    8  O8  UNL     1     -32.364  14.555  -3.762  1.00 20.00    -0.388 OA
HETATM    9  H20 UNL     1     -31.931  14.528  -2.893  1.00 20.00     0.210 HD
ENDBRANCH   1   8
TORSDOF 3
ENDMDL
MODEL 2
REMARK VINA RESULT:      -3.8      0.031      1.530
REMARK  3 active torsions:
REMARK  status: ('A' for Active; 'I' for Inactive)
REMARK    1  A    between atoms: C1_1  and  C5_5 
REMARK    2  A    between atoms: C5_5  and  C6_6 
REMARK    3  A    between atoms: C5_5  and  O8_8 
ROOT
HETATM    1  C5  UNL     1     -33.780  14.399  -3.537  1.00 20.00     0.186 C 
ENDROOT
BRANCH   1   2
HETATM    2  C1  UNL     1     -34.366  13.642  -4.716  1.00 20.00     0.263 C 
HETATM    3  O7  UNL     1     -34.916  12.548  -4.629  1.00 20.00    -0.304 OA
ENDBRANCH   1   2
BRANCH   1   4
HETATM    4  C6  UNL     1     -34.416  15.798  -3.325  1.00 20.00    -0.019 C 
HETATM    5  C2  UNL     1     -34.486  16.150  -1.828  1.00 20.00     0.017 C 
HETATM    6  C3  UNL     1     -35.857  15.788  -3.882  1.00 20.00     0.017 C 
HETATM    7  C4  UNL     1     -33.626  16.893  -4.065  1.00 20.00     0.017 C 
ENDBRANCH   1   4
BRANCH   1   8
HETATM    8  O8  UNL     1     -32.382  14.524  -3.756  1.00 20.00    -0.388 OA
HETATM    9  H20 UNL     1     -32.248  14.528  -4.718  1.00 20.00     0.210 HD
ENDBRANCH   1   8
TORSDOF 3
ENDMDL
MODEL 3
REMARK VINA RESULT:      -3.8      0.068      1.548
REMARK  3 active torsions:
REMARK  status: ('A' for Active; 'I' for Inactive)
REMARK    1  A    between atoms: C1_1  and  C5_5 
REMARK    2  A    between atoms: C5_5  and  C6_6 
REMARK    3  A    between atoms: C5_5  and  O8_8 
ROOT
HETATM    1  C5  UNL     1     -33.783  14.410  -3.517  1.00 20.00     0.186 C 
ENDROOT
BRANCH   1   2
HETATM    2  C1  UNL     1     -34.390  13.609  -4.655  1.00 20.00     0.263 C 
HETATM    3  O7  UNL     1     -34.971  12.538  -4.512  1.00 20.00    -0.304 OA
ENDBRANCH   1   2
BRANCH   1   4
HETATM    4  C6  UNL     1     -34.422  15.813  -3.341  1.00 20.00    -0.019 C 
HETATM    5  C2  UNL     1     -33.567  16.897  -4.021  1.00 20.00     0.017 C 
HETATM    6  C3  UNL     1     -34.506  16.144  -1.834  1.00 20.00     0.017 C 
HETATM    7  C4  UNL     1     -35.849  15.858  -3.920  1.00 20.00     0.017 C 
ENDBRANCH   1   4
BRANCH   1   8
HETATM    8  O8  UNL     1     -32.391  14.534  -3.770  1.00 20.00    -0.388 OA
HETATM    9  H20 UNL     1     -32.156  15.459  -3.596  1.00 20.00     0.210 HD
ENDBRANCH   1   8
TORSDOF 3
ENDMDL
MODEL 4
REMARK VINA RESULT:      -3.8      1.782      2.849
REMARK  3 active torsions:
REMARK  status: ('A' for Active; 'I' for Inactive)
REMARK    1  A    between atoms: C1_1  and  C5_5 
REMARK    2  A    between atoms: C5_5  and  C6_6 
REMARK    3  A    between atoms: C5_5  and  O8_8 
ROOT
HETATM    1  C5  UNL     1     -34.503  13.368  -4.893  1.00 20.00     0.186 C 
ENDROOT
BRANCH   1   2
HETATM    2  C1  UNL     1     -33.444  13.748  -3.875  1.00 20.00     0.263 C 
HETATM    3  O7  UNL     1     -32.564  12.990  -3.478  1.00 20.00    -0.304 OA
ENDBRANCH   1   2
BRANCH   1   4
HETATM    4  C6  UNL     1     -35.147  14.591  -5.598  1.00 20.00    -0.019 C 
HETATM    5  C2  UNL     1     -35.352  14.316  -7.099  1.00 20.00     0.017 C 
HETATM    6  C3  UNL     1     -34.208  15.808  -5.458  1.00 20.00     0.017 C 
HETATM    7  C4  UNL     1     -36.502  14.958  -4.962  1.00 20.00     0.017 C 
ENDBRANCH   1   4
BRANCH   1   8
HETATM    8  O8  UNL     1     -35.498  12.611  -4.218  1.00 20.00    -0.388 OA
HETATM    9  H20 UNL     1     -35.751  13.119  -3.430  1.00 20.00     0.210 HD
ENDBRANCH   1   8
TORSDOF 3
ENDMDL
MODEL 5
REMARK VINA RESULT:      -3.8      1.584      2.698
REMARK  3 active torsions:
REMARK  status: ('A' for Active; 'I' for Inactive)
REMARK    1  A    between atoms: C1_1  and  C5_5 
REMARK    2  A    between atoms: C5_5  and  C6_6 
REMARK    3  A    between atoms: C5_5  and  O8_8 
ROOT
HETATM    1  C5  UNL     1     -35.225  13.768  -3.811  1.00 20.00     0.186 C 
ENDROOT
BRANCH   1   2
HETATM    2  C1  UNL     1     -36.551  14.323  -4.300  1.00 20.00     0.263 C 
HETATM    3  O7  UNL     1     -37.611  14.218  -3.690  1.00 20.00    -0.304 OA
ENDBRANCH   1   2
BRANCH   1   4
HETATM    4  C6  UNL     1     -34.093  14.828  -3.764  1.00 20.00    -0.019 C 
HETATM    5  C2  UNL     1     -32.723  14.162  -3.538  1.00 20.00     0.017 C 
HETATM    6  C3  UNL     1     -34.354  15.795  -2.588  1.00 20.00     0.017 C 
HETATM    7  C4  UNL     1     -34.044  15.657  -5.061  1.00 20.00     0.017 C 
ENDBRANCH   1   4
BRANCH   1   8
HETATM    8  O8  UNL     1     -34.861  12.699  -4.673  1.00 20.00    -0.388 OA
HETATM    9  H20 UNL     1     -35.535  12.659  -5.370  1.00 20.00     0.210 HD
ENDBRANCH   1   8
TORSDOF 3
ENDMDL
MODEL 6
REMARK VINA RESULT:      -3.8      1.653      2.528
REMARK  3 active torsions:
REMARK  status: ('A' for Active; 'I' for Inactive)
REMARK    1  A    between atoms: C1_1  and  C5_5 
REMARK    2  A    between atoms: C5_5  and  C6_6 
REMARK    3  A    between atoms: C5_5  and  O8_8 
ROOT
HETATM    1  C5  UNL     1     -35.366  13.883  -3.627  1.00 20.00     0.186 C 
ENDROOT
BRANCH   1   2
HETATM    2  C1  UNL     1     -36.641  14.463  -4.212  1.00 20.00     0.263 C 
HETATM    3  O7  UNL     1     -37.767  14.227  -3.785  1.00 20.00    -0.304 OA
ENDBRANCH   1   2
BRANCH   1   4
HETATM    4  C6  UNL     1     -34.143  14.830  -3.753  1.00 20.00    -0.019 C 
HETATM    5  C2  UNL     1     -34.202  15.949  -2.698  1.00 20.00     0.017 C 
HETATM    6  C3  UNL     1     -34.155  15.488  -5.151  1.00 20.00     0.017 C 
HETATM    7  C4  UNL     1     -32.818  14.060  -3.600  1.00 20.00     0.017 C 
ENDBRANCH   1   4
BRANCH   1   8
HETATM    8  O8  UNL     1     -35.106  12.654  -4.291  1.00 20.00    -0.388 OA
HETATM    9  H20 UNL     1     -35.968  12.249  -4.477  1.00 20.00     0.210 HD
ENDBRANCH   1   8
TORSDOF 3
ENDMDL
MODEL 7
REMARK VINA RESULT:      -3.8      1.567      2.331
REMARK  3 active torsions:
REMARK  status: ('A' for Active; 'I' for Inactive)
REMARK    1  A    between atoms: C1_1  and  C5_5 
REMARK    2  A    between atoms: C5_5  and  C6_6 
REMARK    3  A    between atoms: C5_5  and  O8_8 
ROOT
HETATM    1  C5  UNL     1     -35.167  13.822  -3.778  1.00 20.00     0.186 C 
ENDROOT
BRANCH   1   2
HETATM    2  C1  UNL     1     -36.494  14.352  -4.289  1.00 20.00     0.263 C 
HETATM    3  O7  UNL     1     -37.572  14.171  -3.730  1.00 20.00    -0.304 OA
ENDBRANCH   1   2
BRANCH   1   4
HETATM    4  C6  UNL     1     -34.041  14.888  -3.764  1.00 20.00    -0.019 C 
HETATM    5  C2  UNL     1     -33.974  15.637  -5.108  1.00 20.00     0.017 C 
HETATM    6  C3  UNL     1     -32.683  14.187  -3.540  1.00 20.00     0.017 C 
HETATM    7  C4  UNL     1     -34.245  15.908  -2.628  1.00 20.00     0.017 C 
ENDBRANCH   1   4
BRANCH   1   8
HETATM    8  O8  UNL     1     -34.795  12.725  -4.601  1.00 20.00    -0.388 OA
HETATM    9  H20 UNL     1     -34.338  12.088  -4.028  1.00 20.00     0.210 HD
ENDBRANCH   1   8
TORSDOF 3
ENDMDL
MODEL 8
REMARK VINA RESULT:      -3.7      1.375      2.412
REMARK  3 active torsions:
REMARK  status: ('A' for Active; 'I' for Inactive)
REMARK    1  A    between atoms: C1_1  and  C5_5 
REMARK    2  A    between atoms: C5_5  and  C6_6 
REMARK    3  A    between atoms: C5_5  and  O8_8 
ROOT
HETATM    1  C5  UNL     1     -33.884  14.777  -4.289  1.00 20.00     0.186 C 
ENDROOT
BRANCH   1   2
HETATM    2  C1  UNL     1     -34.171  13.344  -4.698  1.00 20.00     0.263 C 
HETATM    3  O7  UNL     1     -35.119  12.684  -4.284  1.00 20.00    -0.304 OA
ENDBRANCH   1   2
BRANCH   1   4
HETATM    4  C6  UNL     1     -34.326  15.821  -5.348  1.00 20.00    -0.019 C 
HETATM    5  C2  UNL     1     -33.434  17.075  -5.292  1.00 20.00     0.017 C 
HETATM    6  C3  UNL     1     -35.780  16.254  -5.055  1.00 20.00     0.017 C 
HETATM    7  C4  UNL     1     -34.282  15.233  -6.771  1.00 20.00     0.017 C 
ENDBRANCH   1   4
BRANCH   1   8
HETATM    8  O8  UNL     1     -32.488  14.886  -4.046  1.00 20.00    -0.388 OA
HETATM    9  H20 UNL     1     -32.303  14.374  -3.242  1.00 20.00     0.210 HD
ENDBRANCH   1   8
TORSDOF 3
ENDMDL
MODEL 9
REMARK VINA RESULT:      -3.6      1.561      2.342
REMARK  3 active torsions:
REMARK  status: ('A' for Active; 'I' for Inactive)
REMARK    1  A    between atoms: C1_1  and  C5_5 
REMARK    2  A    between atoms: C5_5  and  C6_6 
REMARK    3  A    between atoms: C5_5  and  O8_8 
ROOT
HETATM    1  C5  UNL     1     -35.184  14.057  -4.606  1.00 20.00     0.186 C 
ENDROOT
BRANCH   1   2
HETATM    2  C1  UNL     1     -35.057  14.102  -6.118  1.00 20.00     0.263 C 
HETATM    3  O7  UNL     1     -35.945  14.482  -6.875  1.00 20.00    -0.304 OA
ENDBRANCH   1   2
BRANCH   1   4
HETATM    4  C6  UNL     1     -34.061  14.835  -3.870  1.00 20.00    -0.019 C 
HETATM    5  C2  UNL     1     -34.602  15.510  -2.596  1.00 20.00     0.017 C 
HETATM    6  C3  UNL     1     -33.516  15.940  -4.802  1.00 20.00     0.017 C 
HETATM    7  C4  UNL     1     -32.890  13.909  -3.492  1.00 20.00     0.017 C 
ENDBRANCH   1   4
BRANCH   1   8
HETATM    8  O8  UNL     1     -35.175  12.693  -4.211  1.00 20.00    -0.388 OA
HETATM    9  H20 UNL     1     -34.289  12.349  -4.412  1.00 20.00     0.210 HD
ENDBRANCH   1   8
TORSDOF 3
ENDMDL
