MODEL 1
REMARK VINA RESULT:      -3.2      0.000      0.000
REMARK  2 active torsions:
REMARK  status: ('A' for Active; 'I' for Inactive)
REMARK    1  A    between atoms: C1_1  and  N7_7 
REMARK    2  A    between atoms: N6_6  and  N8_8 
ROOT
HETATM    1  C1  UNL     1     -33.354   6.409   4.314  1.00 20.00     0.220 C 
HETATM    2  N6  UNL     1     -33.128   6.512   3.041  1.00 20.00    -0.195 NA
ENDROOT
BRANCH   1   3
HETATM    3  N7  UNL     1     -34.402   5.761   4.943  1.00 20.00    -0.383 N 
HETATM    4  C2  UNL     1     -34.456   5.654   6.393  1.00 20.00     0.150 C 
HETATM    5  C3  UNL     1     -35.342   4.942   4.190  1.00 20.00     0.150 C 
ENDBRANCH   1   3
BRANCH   2   6
HETATM    6  N8  UNL     1     -31.998   7.214   2.762  1.00 20.00    -0.216 NA
HETATM    7  C4  UNL     1     -32.183   8.355   1.856  1.00 20.00     0.138 C 
HETATM    8  C5  UNL     1     -31.284   7.669   3.959  1.00 20.00     0.138 C 
ENDBRANCH   2   6
TORSDOF 2
ENDMDL
MODEL 2
REMARK VINA RESULT:      -3.0     11.296     12.301
REMARK  2 active torsions:
REMARK  status: ('A' for Active; 'I' for Inactive)
REMARK    1  A    between atoms: C1_1  and  N7_7 
REMARK    2  A    between atoms: N6_6  and  N8_8 
ROOT
HETATM    1  C1  UNL     1     -36.331  14.827  -3.652  1.00 20.00     0.220 C 
HETATM    2  N6  UNL     1     -37.410  14.113  -3.742  1.00 20.00    -0.195 NA
ENDROOT
BRANCH   1   3
HETATM    3  N7  UNL     1     -35.020  14.413  -3.807  1.00 20.00    -0.383 N 
HETATM    4  C2  UNL     1     -33.915  15.215  -3.303  1.00 20.00     0.150 C 
HETATM    5  C3  UNL     1     -34.678  13.312  -4.696  1.00 20.00     0.150 C 
ENDBRANCH   1   3
BRANCH   2   6
HETATM    6  N8  UNL     1     -38.540  14.839  -3.541  1.00 20.00    -0.216 NA
HETATM    7  C4  UNL     1     -38.334  16.289  -3.428  1.00 20.00     0.138 C 
HETATM    8  C5  UNL     1     -39.583  14.585  -4.539  1.00 20.00     0.138 C 
ENDBRANCH   2   6
TORSDOF 2
ENDMDL
MODEL 3
REMARK VINA RESULT:      -3.0     11.312     12.389
REMARK  2 active torsions:
REMARK  status: ('A' for Active; 'I' for Inactive)
REMARK    1  A    between atoms: C1_1  and  N7_7 
REMARK    2  A    between atoms: N6_6  and  N8_8 
ROOT
HETATM    1  C1  UNL     1     -36.438  14.919  -3.692  1.00 20.00     0.220 C 
HETATM    2  N6  UNL     1     -37.485  14.156  -3.742  1.00 20.00    -0.195 NA
ENDROOT
BRANCH   1   3
HETATM    3  N7  UNL     1     -35.113  14.560  -3.870  1.00 20.00    -0.383 N 
HETATM    4  C2  UNL     1     -34.755  13.336  -4.573  1.00 20.00     0.150 C 
HETATM    5  C3  UNL     1     -34.045  15.237  -3.149  1.00 20.00     0.150 C 
ENDBRANCH   1   3
BRANCH   2   6
HETATM    6  N8  UNL     1     -38.642  14.836  -3.528  1.00 20.00    -0.216 NA
HETATM    7  C4  UNL     1     -38.492  16.293  -3.407  1.00 20.00     0.138 C 
HETATM    8  C5  UNL     1     -39.680  14.547  -4.521  1.00 20.00     0.138 C 
ENDBRANCH   2   6
TORSDOF 2
ENDMDL
MODEL 4
REMARK VINA RESULT:      -2.9      0.793      4.126
REMARK  2 active torsions:
REMARK  status: ('A' for Active; 'I' for Inactive)
REMARK    1  A    between atoms: C1_1  and  N7_7 
REMARK    2  A    between atoms: N6_6  and  N8_8 
ROOT
HETATM    1  C1  UNL     1     -32.958   6.425   3.515  1.00 20.00     0.220 C 
HETATM    2  N6  UNL     1     -33.537   6.258   4.664  1.00 20.00    -0.195 NA
ENDROOT
BRANCH   1   3
HETATM    3  N7  UNL     1     -32.016   7.376   3.166  1.00 20.00    -0.383 N 
HETATM    4  C2  UNL     1     -31.023   7.836   4.126  1.00 20.00     0.150 C 
HETATM    5  C3  UNL     1     -32.137   8.139   1.932  1.00 20.00     0.150 C 
ENDBRANCH   1   3
BRANCH   2   6
HETATM    6  N8  UNL     1     -34.411   5.218   4.666  1.00 20.00    -0.216 NA
HETATM    7  C4  UNL     1     -34.904   4.824   5.993  1.00 20.00     0.138 C 
HETATM    8  C5  UNL     1     -35.558   5.417   3.775  1.00 20.00     0.138 C 
ENDBRANCH   2   6
TORSDOF 2
ENDMDL
MODEL 5
REMARK VINA RESULT:      -2.9     11.109     11.742
REMARK  2 active torsions:
REMARK  status: ('A' for Active; 'I' for Inactive)
REMARK    1  A    between atoms: C1_1  and  N7_7 
REMARK    2  A    between atoms: N6_6  and  N8_8 
ROOT
HETATM    1  C1  UNL     1     -34.671  15.512  -2.652  1.00 20.00     0.220 C 
HETATM    2  N6  UNL     1     -33.690  16.360  -2.664  1.00 20.00    -0.195 NA
ENDROOT
BRANCH   1   3
HETATM    3  N7  UNL     1     -35.018  14.598  -3.632  1.00 20.00    -0.383 N 
HETATM    4  C2  UNL     1     -36.407  14.405  -4.020  1.00 20.00     0.150 C 
HETATM    5  C3  UNL     1     -34.059  13.617  -4.120  1.00 20.00     0.150 C 
ENDBRANCH   1   3
BRANCH   2   6
HETATM    6  N8  UNL     1     -33.628  17.108  -1.531  1.00 20.00    -0.216 NA
HETATM    7  C4  UNL     1     -33.604  18.561  -1.747  1.00 20.00     0.138 C 
HETATM    8  C5  UNL     1     -34.682  16.790  -0.564  1.00 20.00     0.138 C 
ENDBRANCH   2   6
TORSDOF 2
ENDMDL
MODEL 6
REMARK VINA RESULT:      -2.9     11.157     11.768
REMARK  2 active torsions:
REMARK  status: ('A' for Active; 'I' for Inactive)
REMARK    1  A    between atoms: C1_1  and  N7_7 
REMARK    2  A    between atoms: N6_6  and  N8_8 
ROOT
HETATM    1  C1  UNL     1     -34.888  15.728  -2.332  1.00 20.00     0.220 C 
HETATM    2  N6  UNL     1     -34.305  15.031  -3.256  1.00 20.00    -0.195 NA
ENDROOT
BRANCH   1   3
HETATM    3  N7  UNL     1     -34.391  16.825  -1.651  1.00 20.00    -0.383 N 
HETATM    4  C2  UNL     1     -34.699  17.039  -0.245  1.00 20.00     0.150 C 
HETATM    5  C3  UNL     1     -33.769  17.934  -2.361  1.00 20.00     0.150 C 
ENDBRANCH   1   3
BRANCH   2   6
HETATM    6  N8  UNL     1     -35.084  14.019  -3.722  1.00 20.00    -0.216 NA
HETATM    7  C4  UNL     1     -36.444  14.412  -4.112  1.00 20.00     0.138 C 
HETATM    8  C5  UNL     1     -34.472  13.273  -4.826  1.00 20.00     0.138 C 
ENDBRANCH   2   6
TORSDOF 2
ENDMDL
MODEL 7
REMARK VINA RESULT:      -2.9     11.355     12.328
REMARK  2 active torsions:
REMARK  status: ('A' for Active; 'I' for Inactive)
REMARK    1  A    between atoms: C1_1  and  N7_7 
REMARK    2  A    between atoms: N6_6  and  N8_8 
ROOT
HETATM    1  C1  UNL     1     -34.174  15.560  -4.278  1.00 20.00     0.220 C 
HETATM    2  N6  UNL     1     -33.744  15.375  -3.069  1.00 20.00    -0.195 NA
ENDROOT
BRANCH   1   3
HETATM    3  N7  UNL     1     -34.346  14.614  -5.274  1.00 20.00    -0.383 N 
HETATM    4  C2  UNL     1     -34.434  15.006  -6.673  1.00 20.00     0.150 C 
HETATM    5  C3  UNL     1     -34.705  13.240  -4.954  1.00 20.00     0.150 C 
ENDBRANCH   1   3
BRANCH   2   6
HETATM    6  N8  UNL     1     -33.705  16.524  -2.344  1.00 20.00    -0.216 NA
HETATM    7  C4  UNL     1     -33.939  17.753  -3.114  1.00 20.00     0.138 C 
HETATM    8  C5  UNL     1     -34.604  16.513  -1.186  1.00 20.00     0.138 C 
ENDBRANCH   2   6
TORSDOF 2
ENDMDL
MODEL 8
REMARK VINA RESULT:      -2.9      9.774     10.935
REMARK  2 active torsions:
REMARK  status: ('A' for Active; 'I' for Inactive)
REMARK    1  A    between atoms: C1_1  and  N7_7 
REMARK    2  A    between atoms: N6_6  and  N8_8 
ROOT
HETATM    1  C1  UNL     1     -41.607   3.924  -2.261  1.00 20.00     0.220 C 
HETATM    2  N6  UNL     1     -42.037   5.142  -2.374  1.00 20.00    -0.195 NA
ENDROOT
BRANCH   1   3
HETATM    3  N7  UNL     1     -42.177   2.769  -2.769  1.00 20.00    -0.383 N 
HETATM    4  C2  UNL     1     -43.395   2.218  -2.195  1.00 20.00     0.150 C 
HETATM    5  C3  UNL     1     -41.454   1.924  -3.709  1.00 20.00     0.150 C 
ENDBRANCH   1   3
BRANCH   2   6
HETATM    6  N8  UNL     1     -41.228   6.044  -1.759  1.00 20.00    -0.216 NA
HETATM    7  C4  UNL     1     -41.811   7.382  -1.584  1.00 20.00     0.138 C 
HETATM    8  C5  UNL     1     -40.711   5.580  -0.469  1.00 20.00     0.138 C 
ENDBRANCH   2   6
TORSDOF 2
ENDMDL
MODEL 9
REMARK VINA RESULT:      -2.9     11.137     12.064
REMARK  2 active torsions:
REMARK  status: ('A' for Active; 'I' for Inactive)
REMARK    1  A    between atoms: C1_1  and  N7_7 
REMARK    2  A    between atoms: N6_6  and  N8_8 
ROOT
HETATM    1  C1  UNL     1     -33.852  16.338  -2.308  1.00 20.00     0.220 C 
HETATM    2  N6  UNL     1     -34.742  16.283  -1.365  1.00 20.00    -0.195 NA
ENDROOT
BRANCH   1   3
HETATM    3  N7  UNL     1     -33.832  15.638  -3.502  1.00 20.00    -0.383 N 
HETATM    4  C2  UNL     1     -34.142  14.216  -3.544  1.00 20.00     0.150 C 
HETATM    5  C3  UNL     1     -33.254  16.219  -4.705  1.00 20.00     0.150 C 
ENDBRANCH   1   3
BRANCH   2   6
HETATM    6  N8  UNL     1     -34.459  17.113  -0.327  1.00 20.00    -0.216 NA
HETATM    7  C4  UNL     1     -33.338  18.034  -0.555  1.00 20.00     0.138 C 
HETATM    8  C5  UNL     1     -35.618  17.882   0.137  1.00 20.00     0.138 C 
ENDBRANCH   2   6
TORSDOF 2
ENDMDL
