MODEL 1
REMARK VINA RESULT:      -5.3      0.000      0.000
REMARK  1 active torsions:
REMARK  status: ('A' for Active; 'I' for Inactive)
REMARK    1  A    between atoms: C2_2  and  C4_4 
ROOT
HETATM    1  C1  UNL     1     -34.033   6.307   6.371  1.00 20.00     0.146 C 
HETATM    2  C4  UNL     1     -34.618   5.076   5.842  1.00 20.00     0.388 C 
HETATM    3  N5  UNL     1     -33.568   7.283   6.794  1.00 20.00    -0.190 NA
HETATM    4  F9  UNL     1     -33.733   4.063   6.039  1.00 20.00    -0.181 F 
HETATM    5  F10 UNL     1     -35.713   4.770   6.590  1.00 20.00    -0.181 F 
ENDROOT
BRANCH   2   6
HETATM    6  C2  UNL     1     -34.935   5.215   4.389  1.00 20.00     0.247 C 
HETATM    7  C3  UNL     1     -34.039   5.461   3.427  1.00 20.00     0.308 C 
HETATM    8  F7  UNL     1     -34.419   5.571   2.137  1.00 20.00    -0.170 F 
HETATM    9  F8  UNL     1     -32.736   5.606   3.752  1.00 20.00    -0.170 F 
HETATM   10  F6  UNL     1     -36.233   5.111   4.016  1.00 20.00    -0.197 F 
ENDBRANCH   2   6
TORSDOF 1
ENDMDL
MODEL 2
REMARK VINA RESULT:      -5.2      1.827      3.337
REMARK  1 active torsions:
REMARK  status: ('A' for Active; 'I' for Inactive)
REMARK    1  A    between atoms: C2_2  and  C4_4 
ROOT
HETATM    1  C1  UNL     1     -33.037   6.133   3.487  1.00 20.00     0.146 C 
HETATM    2  C4  UNL     1     -34.462   5.836   3.625  1.00 20.00     0.388 C 
HETATM    3  N5  UNL     1     -31.907   6.370   3.375  1.00 20.00    -0.190 NA
HETATM    4  F9  UNL     1     -35.135   7.012   3.745  1.00 20.00    -0.181 F 
HETATM    5  F10 UNL     1     -34.895   5.274   2.464  1.00 20.00    -0.181 F 
ENDROOT
BRANCH   2   6
HETATM    6  C2  UNL     1     -34.716   4.968   4.814  1.00 20.00     0.247 C 
HETATM    7  C3  UNL     1     -34.589   5.354   6.088  1.00 20.00     0.308 C 
HETATM    8  F7  UNL     1     -34.840   4.497   7.100  1.00 20.00    -0.170 F 
HETATM    9  F8  UNL     1     -34.199   6.616   6.366  1.00 20.00    -0.170 F 
HETATM   10  F6  UNL     1     -35.077   3.683   4.587  1.00 20.00    -0.197 F 
ENDBRANCH   2   6
TORSDOF 1
ENDMDL
MODEL 3
REMARK VINA RESULT:      -5.2      2.186      3.063
REMARK  1 active torsions:
REMARK  status: ('A' for Active; 'I' for Inactive)
REMARK    1  A    between atoms: C2_2  and  C4_4 
ROOT
HETATM    1  C1  UNL     1     -34.915   4.491   4.739  1.00 20.00     0.146 C 
HETATM    2  C4  UNL     1     -34.556   5.507   3.751  1.00 20.00     0.388 C 
HETATM    3  N5  UNL     1     -35.201   3.683   5.522  1.00 20.00    -0.190 NA
HETATM    4  F9  UNL     1     -34.176   4.876   2.607  1.00 20.00    -0.181 F 
HETATM    5  F10 UNL     1     -35.678   6.209   3.436  1.00 20.00    -0.181 F 
ENDROOT
BRANCH   2   6
HETATM    6  C2  UNL     1     -33.453   6.379   4.254  1.00 20.00     0.247 C 
HETATM    7  C3  UNL     1     -32.449   6.856   3.511  1.00 20.00     0.308 C 
HETATM    8  F7  UNL     1     -31.494   7.639   4.054  1.00 20.00    -0.170 F 
HETATM    9  F8  UNL     1     -32.389   6.547   2.197  1.00 20.00    -0.170 F 
HETATM   10  F6  UNL     1     -33.451   6.690   5.573  1.00 20.00    -0.197 F 
ENDBRANCH   2   6
TORSDOF 1
ENDMDL
MODEL 4
REMARK VINA RESULT:      -5.2      1.868      3.440
REMARK  1 active torsions:
REMARK  status: ('A' for Active; 'I' for Inactive)
REMARK    1  A    between atoms: C2_2  and  C4_4 
ROOT
HETATM    1  C1  UNL     1     -32.795   6.696   3.547  1.00 20.00     0.146 C 
HETATM    2  C4  UNL     1     -34.092   6.047   3.738  1.00 20.00     0.388 C 
HETATM    3  N5  UNL     1     -31.766   7.211   3.393  1.00 20.00    -0.190 NA
HETATM    4  F9  UNL     1     -35.067   6.929   3.388  1.00 20.00    -0.181 F 
HETATM    5  F10 UNL     1     -34.185   5.015   2.856  1.00 20.00    -0.181 F 
ENDROOT
BRANCH   2   6
HETATM    6  C2  UNL     1     -34.269   5.611   5.155  1.00 20.00     0.247 C 
HETATM    7  C3  UNL     1     -34.821   4.455   5.540  1.00 20.00     0.308 C 
HETATM    8  F7  UNL     1     -34.940   4.146   6.848  1.00 20.00    -0.170 F 
HETATM    9  F8  UNL     1     -35.267   3.587   4.608  1.00 20.00    -0.170 F 
HETATM   10  F6  UNL     1     -33.867   6.462   6.129  1.00 20.00    -0.197 F 
ENDBRANCH   2   6
TORSDOF 1
ENDMDL
MODEL 5
REMARK VINA RESULT:      -5.1      2.247      3.451
REMARK  1 active torsions:
REMARK  status: ('A' for Active; 'I' for Inactive)
REMARK    1  A    between atoms: C2_2  and  C4_4 
ROOT
HETATM    1  C1  UNL     1     -32.336   7.554   2.541  1.00 20.00     0.146 C 
HETATM    2  C4  UNL     1     -32.503   6.517   3.559  1.00 20.00     0.388 C 
HETATM    3  N5  UNL     1     -32.201   8.376   1.734  1.00 20.00    -0.190 NA
HETATM    4  F9  UNL     1     -31.511   5.600   3.402  1.00 20.00    -0.181 F 
HETATM    5  F10 UNL     1     -32.300   7.084   4.780  1.00 20.00    -0.181 F 
ENDROOT
BRANCH   2   6
HETATM    6  C2  UNL     1     -33.840   5.863   3.444  1.00 20.00     0.247 C 
HETATM    7  C3  UNL     1     -34.703   5.694   4.451  1.00 20.00     0.308 C 
HETATM    8  F7  UNL     1     -35.892   5.089   4.252  1.00 20.00    -0.170 F 
HETATM    9  F8  UNL     1     -34.379   6.134   5.686  1.00 20.00    -0.170 F 
HETATM   10  F6  UNL     1     -34.198   5.375   2.232  1.00 20.00    -0.197 F 
ENDBRANCH   2   6
TORSDOF 1
ENDMDL
MODEL 6
REMARK VINA RESULT:      -5.1      2.105      3.751
REMARK  1 active torsions:
REMARK  status: ('A' for Active; 'I' for Inactive)
REMARK    1  A    between atoms: C2_2  and  C4_4 
ROOT
HETATM    1  C1  UNL     1     -32.508   7.347   2.720  1.00 20.00     0.146 C 
HETATM    2  C4  UNL     1     -32.906   6.041   3.245  1.00 20.00     0.388 C 
HETATM    3  N5  UNL     1     -32.191   8.381   2.300  1.00 20.00    -0.190 NA
HETATM    4  F9  UNL     1     -33.821   5.500   2.397  1.00 20.00    -0.181 F 
HETATM    5  F10 UNL     1     -31.823   5.218   3.203  1.00 20.00    -0.181 F 
ENDROOT
BRANCH   2   6
HETATM    6  C2  UNL     1     -33.480   6.168   4.618  1.00 20.00     0.247 C 
HETATM    7  C3  UNL     1     -34.493   5.439   5.098  1.00 20.00     0.308 C 
HETATM    8  F7  UNL     1     -34.947   5.625   6.355  1.00 20.00    -0.170 F 
HETATM    9  F8  UNL     1     -35.074   4.507   4.312  1.00 20.00    -0.170 F 
HETATM   10  F6  UNL     1     -32.953   7.112   5.434  1.00 20.00    -0.197 F 
ENDBRANCH   2   6
TORSDOF 1
ENDMDL
MODEL 7
REMARK VINA RESULT:      -5.1      2.103      3.543
REMARK  1 active torsions:
REMARK  status: ('A' for Active; 'I' for Inactive)
REMARK    1  A    between atoms: C2_2  and  C4_4 
ROOT
HETATM    1  C1  UNL     1     -34.910   4.326   4.639  1.00 20.00     0.146 C 
HETATM    2  C4  UNL     1     -34.558   5.583   3.981  1.00 20.00     0.388 C 
HETATM    3  N5  UNL     1     -35.191   3.327   5.159  1.00 20.00    -0.190 NA
HETATM    4  F9  UNL     1     -33.975   5.293   2.787  1.00 20.00    -0.181 F 
HETATM    5  F10 UNL     1     -35.710   6.245   3.685  1.00 20.00    -0.181 F 
ENDROOT
BRANCH   2   6
HETATM    6  C2  UNL     1     -33.632   6.391   4.829  1.00 20.00     0.247 C 
HETATM    7  C3  UNL     1     -33.790   6.620   6.137  1.00 20.00     0.308 C 
HETATM    8  F7  UNL     1     -32.898   7.366   6.823  1.00 20.00    -0.170 F 
HETATM    9  F8  UNL     1     -34.857   6.101   6.780  1.00 20.00    -0.170 F 
HETATM   10  F6  UNL     1     -32.563   6.961   4.223  1.00 20.00    -0.197 F 
ENDBRANCH   2   6
TORSDOF 1
ENDMDL
MODEL 8
REMARK VINA RESULT:      -4.6     12.184     12.902
REMARK  1 active torsions:
REMARK  status: ('A' for Active; 'I' for Inactive)
REMARK    1  A    between atoms: C2_2  and  C4_4 
ROOT
HETATM    1  C1  UNL     1     -37.153  14.740  -3.695  1.00 20.00     0.146 C 
HETATM    2  C4  UNL     1     -35.785  15.238  -3.561  1.00 20.00     0.388 C 
HETATM    3  N5  UNL     1     -38.240  14.347  -3.801  1.00 20.00    -0.190 NA
HETATM    4  F9  UNL     1     -35.582  16.191  -4.511  1.00 20.00    -0.181 F 
HETATM    5  F10 UNL     1     -35.679  15.875  -2.363  1.00 20.00    -0.181 F 
ENDROOT
BRANCH   2   6
HETATM    6  C2  UNL     1     -34.794  14.132  -3.714  1.00 20.00     0.247 C 
HETATM    7  C3  UNL     1     -33.472  14.256  -3.554  1.00 20.00     0.308 C 
HETATM    8  F7  UNL     1     -32.651  13.197  -3.714  1.00 20.00    -0.170 F 
HETATM    9  F8  UNL     1     -32.951  15.459  -3.230  1.00 20.00    -0.170 F 
HETATM   10  F6  UNL     1     -35.264  12.913  -4.071  1.00 20.00    -0.197 F 
ENDBRANCH   2   6
TORSDOF 1
ENDMDL
MODEL 9
REMARK VINA RESULT:      -4.6      2.127      2.697
REMARK  1 active torsions:
REMARK  status: ('A' for Active; 'I' for Inactive)
REMARK    1  A    between atoms: C2_2  and  C4_4 
ROOT
HETATM    1  C1  UNL     1     -34.949   4.515   5.022  1.00 20.00     0.146 C 
HETATM    2  C4  UNL     1     -34.960   5.709   4.178  1.00 20.00     0.388 C 
HETATM    3  N5  UNL     1     -34.944   3.568   5.693  1.00 20.00    -0.190 NA
HETATM    4  F9  UNL     1     -36.162   5.775   3.546  1.00 20.00    -0.181 F 
HETATM    5  F10 UNL     1     -34.901   6.802   4.987  1.00 20.00    -0.181 F 
ENDROOT
BRANCH   2   6
HETATM    6  C2  UNL     1     -33.849   5.670   3.181  1.00 20.00     0.247 C 
HETATM    7  C3  UNL     1     -32.664   6.272   3.327  1.00 20.00     0.308 C 
HETATM    8  F7  UNL     1     -31.718   6.182   2.369  1.00 20.00    -0.170 F 
HETATM    9  F8  UNL     1     -32.411   6.982   4.447  1.00 20.00    -0.170 F 
HETATM   10  F6  UNL     1     -34.066   4.998   2.025  1.00 20.00    -0.197 F 
ENDBRANCH   2   6
TORSDOF 1
ENDMDL
