MODEL 1
REMARK VINA RESULT:      -5.3      0.000      0.000
REMARK  0 active torsions:
REMARK  status: ('A' for Active; 'I' for Inactive)
ROOT
HETATM    1  C1  UNL     1     -36.866  15.079  -3.571  1.00 20.00     0.064 C 
HETATM    2  C2  UNL     1     -33.578  16.713  -4.166  1.00 20.00     0.011 C 
HETATM    3  C3  UNL     1     -33.140  14.411  -3.746  1.00 20.00     0.010 C 
HETATM    4  C4  UNL     1     -35.710  15.973  -3.511  1.00 20.00     0.101 C 
HETATM    5  C5  UNL     1     -33.361  15.741  -3.000  1.00 20.00    -0.009 C 
HETATM    6  C6  UNL     1     -34.764  15.915  -4.731  1.00 20.00     0.007 C 
HETATM    7  C7  UNL     1     -34.064  14.549  -4.972  1.00 20.00    -0.013 C 
HETATM    8  C8  UNL     1     -34.758  15.686  -2.326  1.00 20.00     0.003 C 
HETATM    9  C9  UNL     1     -34.945  13.334  -5.207  1.00 20.00     0.010 C 
HETATM   10  C10 UNL     1     -34.902  16.721  -1.212  1.00 20.00     0.011 C 
HETATM   11  N11 UNL     1     -37.783  14.370  -3.619  1.00 20.00    -0.197 NA
ENDROOT
TORSDOF 0
ENDMDL
MODEL 2
REMARK VINA RESULT:      -5.1      1.005      2.970
REMARK  0 active torsions:
REMARK  status: ('A' for Active; 'I' for Inactive)
ROOT
HETATM    1  C1  UNL     1     -36.347  14.391  -4.031  1.00 20.00     0.064 C 
HETATM    2  C2  UNL     1     -32.677  14.995  -4.001  1.00 20.00     0.011 C 
HETATM    3  C3  UNL     1     -33.725  17.096  -3.616  1.00 20.00     0.010 C 
HETATM    4  C4  UNL     1     -34.927  14.438  -4.382  1.00 20.00     0.101 C 
HETATM    5  C5  UNL     1     -33.291  16.170  -4.769  1.00 20.00    -0.009 C 
HETATM    6  C6  UNL     1     -33.964  14.721  -3.208  1.00 20.00     0.007 C 
HETATM    7  C7  UNL     1     -34.138  16.100  -2.515  1.00 20.00    -0.013 C 
HETATM    8  C8  UNL     1     -34.569  15.551  -5.394  1.00 20.00     0.003 C 
HETATM    9  C9  UNL     1     -35.486  16.412  -1.889  1.00 20.00     0.010 C 
HETATM   10  C10 UNL     1     -34.315  14.993  -6.793  1.00 20.00     0.011 C 
HETATM   11  N11 UNL     1     -37.472  14.354  -3.752  1.00 20.00    -0.197 NA
ENDROOT
TORSDOF 0
ENDMDL
MODEL 3
REMARK VINA RESULT:      -5.0      1.554      2.094
REMARK  0 active torsions:
REMARK  status: ('A' for Active; 'I' for Inactive)
ROOT
HETATM    1  C1  UNL     1     -35.217  13.893  -4.096  1.00 20.00     0.064 C 
HETATM    2  C2  UNL     1     -35.660  17.579  -4.320  1.00 20.00     0.011 C 
HETATM    3  C3  UNL     1     -33.559  17.074  -5.317  1.00 20.00     0.010 C 
HETATM    4  C4  UNL     1     -35.455  15.301  -3.781  1.00 20.00     0.101 C 
HETATM    5  C5  UNL     1     -34.193  17.354  -3.940  1.00 20.00    -0.009 C 
HETATM    6  C6  UNL     1     -35.794  16.202  -4.990  1.00 20.00     0.007 C 
HETATM    7  C7  UNL     1     -34.681  16.328  -6.065  1.00 20.00    -0.013 C 
HETATM    8  C8  UNL     1     -34.236  16.017  -3.152  1.00 20.00     0.003 C 
HETATM    9  C9  UNL     1     -34.211  15.057  -6.750  1.00 20.00     0.010 C 
HETATM   10  C10 UNL     1     -34.413  16.238  -1.652  1.00 20.00     0.011 C 
HETATM   11  N11 UNL     1     -35.027  12.776  -4.346  1.00 20.00    -0.197 NA
ENDROOT
TORSDOF 0
ENDMDL
MODEL 4
REMARK VINA RESULT:      -4.8      1.915      3.565
REMARK  0 active torsions:
REMARK  status: ('A' for Active; 'I' for Inactive)
ROOT
HETATM    1  C1  UNL     1     -35.252  17.237  -5.018  1.00 20.00     0.064 C 
HETATM    2  C2  UNL     1     -35.698  13.615  -4.297  1.00 20.00     0.011 C 
HETATM    3  C3  UNL     1     -33.441  14.152  -3.767  1.00 20.00     0.010 C 
HETATM    4  C4  UNL     1     -35.565  15.812  -5.121  1.00 20.00     0.101 C 
HETATM    5  C5  UNL     1     -34.324  13.746  -4.963  1.00 20.00    -0.009 C 
HETATM    6  C6  UNL     1     -35.686  15.061  -3.776  1.00 20.00     0.007 C 
HETATM    7  C7  UNL     1     -34.394  15.015  -2.916  1.00 20.00    -0.013 C 
HETATM    8  C8  UNL     1     -34.495  14.989  -5.877  1.00 20.00     0.003 C 
HETATM    9  C9  UNL     1     -33.787  16.336  -2.478  1.00 20.00     0.010 C 
HETATM   10  C10 UNL     1     -34.950  14.612  -7.284  1.00 20.00     0.011 C 
HETATM   11  N11 UNL     1     -35.004  18.367  -4.936  1.00 20.00    -0.197 NA
ENDROOT
TORSDOF 0
ENDMDL
MODEL 5
REMARK VINA RESULT:      -4.8      1.584      1.896
REMARK  0 active torsions:
REMARK  status: ('A' for Active; 'I' for Inactive)
ROOT
HETATM    1  C1  UNL     1     -35.731  17.239  -4.665  1.00 20.00     0.064 C 
HETATM    2  C2  UNL     1     -32.886  14.994  -3.828  1.00 20.00     0.011 C 
HETATM    3  C3  UNL     1     -34.770  13.598  -4.235  1.00 20.00     0.010 C 
HETATM    4  C4  UNL     1     -34.591  16.601  -4.007  1.00 20.00     0.101 C 
HETATM    5  C5  UNL     1     -34.107  14.413  -3.107  1.00 20.00    -0.009 C 
HETATM    6  C6  UNL     1     -33.735  15.682  -4.908  1.00 20.00     0.007 C 
HETATM    7  C7  UNL     1     -34.468  14.442  -5.488  1.00 20.00    -0.013 C 
HETATM    8  C8  UNL     1     -34.985  15.665  -2.840  1.00 20.00     0.003 C 
HETATM    9  C9  UNL     1     -35.685  14.685  -6.364  1.00 20.00     0.010 C 
HETATM   10  C10 UNL     1     -34.694  16.293  -1.479  1.00 20.00     0.011 C 
HETATM   11  N11 UNL     1     -36.635  17.745  -5.187  1.00 20.00    -0.197 NA
ENDROOT
TORSDOF 0
ENDMDL
MODEL 6
REMARK VINA RESULT:      -4.8     11.187     12.841
REMARK  0 active torsions:
REMARK  status: ('A' for Active; 'I' for Inactive)
ROOT
HETATM    1  C1  UNL     1     -43.227   6.075  -3.169  1.00 20.00     0.064 C 
HETATM    2  C2  UNL     1     -42.444   4.330   0.022  1.00 20.00     0.011 C 
HETATM    3  C3  UNL     1     -40.633   5.809  -0.419  1.00 20.00     0.010 C 
HETATM    4  C4  UNL     1     -42.989   5.057  -2.146  1.00 20.00     0.101 C 
HETATM    5  C5  UNL     1     -41.127   4.390  -0.760  1.00 20.00    -0.009 C 
HETATM    6  C6  UNL     1     -43.027   5.563  -0.686  1.00 20.00     0.007 C 
HETATM    7  C7  UNL     1     -41.944   6.611  -0.312  1.00 20.00    -0.013 C 
HETATM    8  C8  UNL     1     -41.597   4.388  -2.239  1.00 20.00     0.003 C 
HETATM    9  C9  UNL     1     -41.923   7.916  -1.090  1.00 20.00     0.010 C 
HETATM   10  C10 UNL     1     -41.677   2.978  -2.818  1.00 20.00     0.011 C 
HETATM   11  N11 UNL     1     -43.415   6.882  -3.980  1.00 20.00    -0.197 NA
ENDROOT
TORSDOF 0
ENDMDL
MODEL 7
REMARK VINA RESULT:      -4.7      1.972      3.131
REMARK  0 active torsions:
REMARK  status: ('A' for Active; 'I' for Inactive)
ROOT
HETATM    1  C1  UNL     1     -37.228  14.684  -4.138  1.00 20.00     0.064 C 
HETATM    2  C2  UNL     1     -34.480  16.098  -6.207  1.00 20.00     0.011 C 
HETATM    3  C3  UNL     1     -35.657  14.555  -7.584  1.00 20.00     0.010 C 
HETATM    4  C4  UNL     1     -35.921  15.116  -4.632  1.00 20.00     0.101 C 
HETATM    5  C5  UNL     1     -34.528  14.602  -6.536  1.00 20.00    -0.009 C 
HETATM    6  C6  UNL     1     -35.956  16.146  -5.783  1.00 20.00     0.007 C 
HETATM    7  C7  UNL     1     -36.618  15.657  -7.100  1.00 20.00    -0.013 C 
HETATM    8  C8  UNL     1     -35.065  13.972  -5.223  1.00 20.00     0.003 C 
HETATM    9  C9  UNL     1     -38.070  15.213  -7.040  1.00 20.00     0.010 C 
HETATM   10  C10 UNL     1     -33.939  13.553  -4.281  1.00 20.00     0.011 C 
HETATM   11  N11 UNL     1     -38.265  14.341  -3.746  1.00 20.00    -0.197 NA
ENDROOT
TORSDOF 0
ENDMDL
MODEL 8
REMARK VINA RESULT:      -4.7      1.433      2.637
REMARK  0 active torsions:
REMARK  status: ('A' for Active; 'I' for Inactive)
ROOT
HETATM    1  C1  UNL     1     -35.073  13.596  -4.919  1.00 20.00     0.064 C 
HETATM    2  C2  UNL     1     -35.381  17.231  -4.190  1.00 20.00     0.011 C 
HETATM    3  C3  UNL     1     -34.324  16.235  -2.304  1.00 20.00     0.010 C 
HETATM    4  C4  UNL     1     -35.587  14.952  -4.724  1.00 20.00     0.101 C 
HETATM    5  C5  UNL     1     -35.726  16.508  -2.883  1.00 20.00    -0.009 C 
HETATM    6  C6  UNL     1     -34.520  16.070  -4.712  1.00 20.00     0.007 C 
HETATM    7  C7  UNL     1     -33.476  15.986  -3.566  1.00 20.00    -0.013 C 
HETATM    8  C8  UNL     1     -36.314  15.158  -3.374  1.00 20.00     0.003 C 
HETATM    9  C9  UNL     1     -32.615  14.738  -3.482  1.00 20.00     0.010 C 
HETATM   10  C10 UNL     1     -37.830  15.216  -3.543  1.00 20.00     0.011 C 
HETATM   11  N11 UNL     1     -34.665  12.522  -5.074  1.00 20.00    -0.197 NA
ENDROOT
TORSDOF 0
ENDMDL
MODEL 9
REMARK VINA RESULT:      -4.7      1.730      3.487
REMARK  0 active torsions:
REMARK  status: ('A' for Active; 'I' for Inactive)
ROOT
HETATM    1  C1  UNL     1     -34.610  13.762  -4.915  1.00 20.00     0.064 C 
HETATM    2  C2  UNL     1     -33.505  17.248  -5.594  1.00 20.00     0.011 C 
HETATM    3  C3  UNL     1     -35.383  17.389  -4.138  1.00 20.00     0.010 C 
HETATM    4  C4  UNL     1     -34.212  15.007  -5.571  1.00 20.00     0.101 C 
HETATM    5  C5  UNL     1     -35.037  17.276  -5.635  1.00 20.00    -0.009 C 
HETATM    6  C6  UNL     1     -33.461  16.017  -4.675  1.00 20.00     0.007 C 
HETATM    7  C7  UNL     1     -34.265  16.568  -3.466  1.00 20.00    -0.013 C 
HETATM    8  C8  UNL     1     -35.401  15.841  -6.104  1.00 20.00     0.003 C 
HETATM    9  C9  UNL     1     -34.777  15.570  -2.442  1.00 20.00     0.010 C 
HETATM   10  C10 UNL     1     -35.532  15.746  -7.622  1.00 20.00     0.011 C 
HETATM   11  N11 UNL     1     -34.926  12.774  -4.394  1.00 20.00    -0.197 NA
ENDROOT
TORSDOF 0
ENDMDL
