MODEL 1
REMARK VINA RESULT:      -3.3      0.000      0.000
REMARK  0 active torsions:
REMARK  status: ('A' for Active; 'I' for Inactive)
ROOT
HETATM    1  C1  UNL     1     -35.137   4.699   4.620  1.00 20.00     0.184 C 
HETATM    2  C2  UNL     1     -34.290   5.817   6.125  1.00 20.00     0.184 C 
HETATM    3  C3  UNL     1     -34.556   6.112   4.651  1.00 20.00     0.101 C 
HETATM    4  O4  UNL     1     -35.073   4.601   6.063  1.00 20.00    -0.389 OA
HETATM    5  I5  UNL     1     -32.659   6.429   3.347  1.00 20.00    -0.080 I 
ENDROOT
TORSDOF 0
ENDMDL
MODEL 2
REMARK VINA RESULT:      -3.0      2.877      3.289
REMARK  0 active torsions:
REMARK  status: ('A' for Active; 'I' for Inactive)
ROOT
HETATM    1  C1  UNL     1     -32.879   6.580   4.070  1.00 20.00     0.184 C 
HETATM    2  C2  UNL     1     -33.980   5.419   2.776  1.00 20.00     0.184 C 
HETATM    3  C3  UNL     1     -34.322   6.077   4.111  1.00 20.00     0.101 C 
HETATM    4  O4  UNL     1     -32.723   6.135   2.701  1.00 20.00    -0.389 OA
HETATM    5  I5  UNL     1     -34.806   4.606   5.843  1.00 20.00    -0.080 I 
ENDROOT
TORSDOF 0
ENDMDL
MODEL 3
REMARK VINA RESULT:      -3.0     12.236     12.534
REMARK  0 active torsions:
REMARK  status: ('A' for Active; 'I' for Inactive)
ROOT
HETATM    1  C1  UNL     1     -33.759  13.604  -3.866  1.00 20.00     0.184 C 
HETATM    2  C2  UNL     1     -35.765  13.935  -4.183  1.00 20.00     0.184 C 
HETATM    3  C3  UNL     1     -34.575  14.883  -4.050  1.00 20.00     0.101 C 
HETATM    4  O4  UNL     1     -34.889  12.784  -4.246  1.00 20.00    -0.389 OA
HETATM    5  I5  UNL     1     -34.634  16.292  -2.204  1.00 20.00    -0.080 I 
ENDROOT
TORSDOF 0
ENDMDL
MODEL 4
REMARK VINA RESULT:      -2.8     12.527     12.759
REMARK  0 active torsions:
REMARK  status: ('A' for Active; 'I' for Inactive)
ROOT
HETATM    1  C1  UNL     1     -35.635  14.021  -4.235  1.00 20.00     0.184 C 
HETATM    2  C2  UNL     1     -33.680  13.459  -3.924  1.00 20.00     0.184 C 
HETATM    3  C3  UNL     1     -34.430  14.762  -3.657  1.00 20.00     0.101 C 
HETATM    4  O4  UNL     1     -34.915  12.765  -4.223  1.00 20.00    -0.389 OA
HETATM    5  I5  UNL     1     -33.707  16.590  -4.897  1.00 20.00    -0.080 I 
ENDROOT
TORSDOF 0
ENDMDL
MODEL 5
REMARK VINA RESULT:      -2.7     12.680     12.989
REMARK  0 active torsions:
REMARK  status: ('A' for Active; 'I' for Inactive)
ROOT
HETATM    1  C1  UNL     1     -35.167  13.287  -4.319  1.00 20.00     0.184 C 
HETATM    2  C2  UNL     1     -33.533  14.474  -3.928  1.00 20.00     0.184 C 
HETATM    3  C3  UNL     1     -34.853  14.746  -4.645  1.00 20.00     0.101 C 
HETATM    4  O4  UNL     1     -34.011  13.192  -3.454  1.00 20.00    -0.389 OA
HETATM    5  I5  UNL     1     -34.667  15.236  -6.908  1.00 20.00    -0.080 I 
ENDROOT
TORSDOF 0
ENDMDL
MODEL 6
REMARK VINA RESULT:      -2.6      0.752      1.493
REMARK  0 active torsions:
REMARK  status: ('A' for Active; 'I' for Inactive)
ROOT
HETATM    1  C1  UNL     1     -34.303   5.907   6.324  1.00 20.00     0.184 C 
HETATM    2  C2  UNL     1     -35.033   4.484   5.030  1.00 20.00     0.184 C 
HETATM    3  C3  UNL     1     -33.662   5.142   5.168  1.00 20.00     0.101 C 
HETATM    4  O4  UNL     1     -35.479   5.065   6.279  1.00 20.00    -0.389 OA
HETATM    5  I5  UNL     1     -33.005   6.447   3.362  1.00 20.00    -0.080 I 
ENDROOT
TORSDOF 0
ENDMDL
MODEL 7
REMARK VINA RESULT:      -2.6     13.570     14.022
REMARK  0 active torsions:
REMARK  status: ('A' for Active; 'I' for Inactive)
ROOT
HETATM    1  C1  UNL     1     -33.668  17.105  -4.427  1.00 20.00     0.184 C 
HETATM    2  C2  UNL     1     -33.053  15.287  -3.687  1.00 20.00     0.184 C 
HETATM    3  C3  UNL     1     -34.300  16.131  -3.434  1.00 20.00     0.101 C 
HETATM    4  O4  UNL     1     -32.653  16.138  -4.787  1.00 20.00    -0.389 OA
HETATM    5  I5  UNL     1     -34.527  16.936  -1.267  1.00 20.00    -0.080 I 
ENDROOT
TORSDOF 0
ENDMDL
MODEL 8
REMARK VINA RESULT:      -2.5     12.848     13.113
REMARK  0 active torsions:
REMARK  status: ('A' for Active; 'I' for Inactive)
ROOT
HETATM    1  C1  UNL     1     -34.365  13.271  -5.175  1.00 20.00     0.184 C 
HETATM    2  C2  UNL     1     -35.822  14.169  -4.032  1.00 20.00     0.184 C 
HETATM    3  C3  UNL     1     -35.060  14.628  -5.274  1.00 20.00     0.101 C 
HETATM    4  O4  UNL     1     -35.296  12.826  -4.160  1.00 20.00    -0.389 OA
HETATM    5  I5  UNL     1     -33.680  16.471  -4.961  1.00 20.00    -0.080 I 
ENDROOT
TORSDOF 0
ENDMDL
MODEL 9
REMARK VINA RESULT:      -2.5     13.426     13.750
REMARK  0 active torsions:
REMARK  status: ('A' for Active; 'I' for Inactive)
ROOT
HETATM    1  C1  UNL     1     -33.311  16.538  -4.657  1.00 20.00     0.184 C 
HETATM    2  C2  UNL     1     -33.793  16.202  -2.685  1.00 20.00     0.184 C 
HETATM    3  C3  UNL     1     -33.278  15.281  -3.789  1.00 20.00     0.101 C 
HETATM    4  O4  UNL     1     -33.559  17.374  -3.501  1.00 20.00    -0.389 OA
HETATM    5  I5  UNL     1     -34.743  13.596  -4.433  1.00 20.00    -0.080 I 
ENDROOT
TORSDOF 0
ENDMDL
