MODEL 1
REMARK VINA RESULT:      -5.2      0.000      0.000
REMARK  0 active torsions:
REMARK  status: ('A' for Active; 'I' for Inactive)
ROOT
HETATM    1  C1  UNL     1     -33.715  17.943  -3.394  1.00 20.00     0.013 A 
HETATM    2  C2  UNL     1     -34.065  18.249  -2.079  1.00 20.00     0.043 A 
HETATM    3  C3  UNL     1     -34.565  15.925  -1.675  1.00 20.00     0.050 A 
HETATM    4  C4  UNL     1     -33.782  16.626  -3.882  1.00 20.00    -0.020 A 
HETATM    5  C5  UNL     1     -34.211  15.609  -2.994  1.00 20.00    -0.046 A 
HETATM    6  C6  UNL     1     -34.492  17.241  -1.221  1.00 20.00     0.117 A 
HETATM    7  C7  UNL     1     -34.283  14.175  -3.470  1.00 20.00     0.039 C 
HETATM    8  C8  UNL     1     -35.416  13.888  -4.467  1.00 20.00     0.007 C 
HETATM    9  C9  UNL     1     -35.612  14.923  -5.580  1.00 20.00     0.035 C 
HETATM   10  C10 UNL     1     -33.415  16.319  -5.314  1.00 20.00     0.184 A 
HETATM   11  C11 UNL     1     -34.317  15.420  -6.139  1.00 20.00     0.156 A 
HETATM   12  O12 UNL     1     -34.266  16.832  -6.354  1.00 20.00    -0.370 OA
HETATM   13  F13 UNL     1     -34.831  17.533   0.042  1.00 20.00    -0.206 F 
ENDROOT
TORSDOF 0
ENDMDL
MODEL 2
REMARK VINA RESULT:      -5.1      1.442      1.739
REMARK  0 active torsions:
REMARK  status: ('A' for Active; 'I' for Inactive)
ROOT
HETATM    1  C1  UNL     1     -36.165  17.132  -3.473  1.00 20.00     0.013 A 
HETATM    2  C2  UNL     1     -36.141  17.596  -2.157  1.00 20.00     0.043 A 
HETATM    3  C3  UNL     1     -34.095  16.382  -1.769  1.00 20.00     0.050 A 
HETATM    4  C4  UNL     1     -35.159  16.284  -3.968  1.00 20.00    -0.020 A 
HETATM    5  C5  UNL     1     -34.109  15.915  -3.091  1.00 20.00    -0.046 A 
HETATM    6  C6  UNL     1     -35.108  17.219  -1.306  1.00 20.00     0.117 A 
HETATM    7  C7  UNL     1     -32.996  15.018  -3.584  1.00 20.00     0.039 C 
HETATM    8  C8  UNL     1     -33.411  13.558  -3.824  1.00 20.00     0.007 C 
HETATM    9  C9  UNL     1     -34.746  13.347  -4.545  1.00 20.00     0.035 C 
HETATM   10  C10 UNL     1     -35.212  15.779  -5.390  1.00 20.00     0.184 A 
HETATM   11  C11 UNL     1     -34.952  14.311  -5.670  1.00 20.00     0.156 A 
HETATM   12  O12 UNL     1     -36.267  14.866  -5.743  1.00 20.00    -0.370 OA
HETATM   13  F13 UNL     1     -35.085  17.663  -0.041  1.00 20.00    -0.206 F 
ENDROOT
TORSDOF 0
ENDMDL
MODEL 3
REMARK VINA RESULT:      -5.0      2.931      4.639
REMARK  0 active torsions:
REMARK  status: ('A' for Active; 'I' for Inactive)
ROOT
HETATM    1  C1  UNL     1     -36.037  14.666  -6.895  1.00 20.00     0.013 A 
HETATM    2  C2  UNL     1     -36.573  15.780  -7.542  1.00 20.00     0.043 A 
HETATM    3  C3  UNL     1     -34.991  17.199  -6.404  1.00 20.00     0.050 A 
HETATM    4  C4  UNL     1     -34.970  14.790  -5.989  1.00 20.00    -0.020 A 
HETATM    5  C5  UNL     1     -34.444  16.084  -5.753  1.00 20.00    -0.046 A 
HETATM    6  C6  UNL     1     -36.052  17.046  -7.295  1.00 20.00     0.117 A 
HETATM    7  C7  UNL     1     -33.285  16.264  -4.799  1.00 20.00     0.039 C 
HETATM    8  C8  UNL     1     -33.637  16.055  -3.318  1.00 20.00     0.007 C 
HETATM    9  C9  UNL     1     -34.522  14.845  -3.001  1.00 20.00     0.035 C 
HETATM   10  C10 UNL     1     -34.415  13.574  -5.286  1.00 20.00     0.184 A 
HETATM   11  C11 UNL     1     -34.147  13.633  -3.794  1.00 20.00     0.156 A 
HETATM   12  O12 UNL     1     -35.256  12.907  -4.328  1.00 20.00    -0.370 OA
HETATM   13  F13 UNL     1     -36.567  18.116  -7.914  1.00 20.00    -0.206 F 
ENDROOT
TORSDOF 0
ENDMDL
MODEL 4
REMARK VINA RESULT:      -5.0      2.345      4.098
REMARK  0 active torsions:
REMARK  status: ('A' for Active; 'I' for Inactive)
ROOT
HETATM    1  C1  UNL     1     -35.412  16.105  -5.213  1.00 20.00     0.013 A 
HETATM    2  C2  UNL     1     -34.934  14.833  -5.530  1.00 20.00     0.043 A 
HETATM    3  C3  UNL     1     -34.304  14.498  -3.227  1.00 20.00     0.050 A 
HETATM    4  C4  UNL     1     -35.346  16.604  -3.900  1.00 20.00    -0.020 A 
HETATM    5  C5  UNL     1     -34.785  15.773  -2.899  1.00 20.00    -0.046 A 
HETATM    6  C6  UNL     1     -34.378  14.031  -4.539  1.00 20.00     0.117 A 
HETATM    7  C7  UNL     1     -34.709  16.262  -1.470  1.00 20.00     0.039 C 
HETATM    8  C8  UNL     1     -33.680  17.376  -1.230  1.00 20.00     0.007 C 
HETATM    9  C9  UNL     1     -33.645  18.498  -2.273  1.00 20.00     0.035 C 
HETATM   10  C10 UNL     1     -35.853  17.990  -3.581  1.00 20.00     0.184 A 
HETATM   11  C11 UNL     1     -35.011  18.912  -2.720  1.00 20.00     0.156 A 
HETATM   12  O12 UNL     1     -35.139  19.113  -4.129  1.00 20.00    -0.370 OA
HETATM   13  F13 UNL     1     -33.918  12.810  -4.842  1.00 20.00    -0.206 F 
ENDROOT
TORSDOF 0
ENDMDL
MODEL 5
REMARK VINA RESULT:      -5.0      2.653      3.950
REMARK  0 active torsions:
REMARK  status: ('A' for Active; 'I' for Inactive)
ROOT
HETATM    1  C1  UNL     1     -35.286  13.644  -4.189  1.00 20.00     0.013 A 
HETATM    2  C2  UNL     1     -33.895  13.561  -4.119  1.00 20.00     0.043 A 
HETATM    3  C3  UNL     1     -33.825  15.704  -3.017  1.00 20.00     0.050 A 
HETATM    4  C4  UNL     1     -35.979  14.755  -3.677  1.00 20.00    -0.020 A 
HETATM    5  C5  UNL     1     -35.223  15.793  -3.078  1.00 20.00    -0.046 A 
HETATM    6  C6  UNL     1     -33.165  14.591  -3.536  1.00 20.00     0.117 A 
HETATM    7  C7  UNL     1     -35.927  17.000  -2.500  1.00 20.00     0.039 C 
HETATM    8  C8  UNL     1     -36.539  17.945  -3.545  1.00 20.00     0.007 C 
HETATM    9  C9  UNL     1     -37.297  17.276  -4.697  1.00 20.00     0.035 C 
HETATM   10  C10 UNL     1     -37.484  14.834  -3.777  1.00 20.00     0.184 A 
HETATM   11  C11 UNL     1     -38.134  16.123  -4.242  1.00 20.00     0.156 A 
HETATM   12  O12 UNL     1     -38.067  14.971  -5.086  1.00 20.00    -0.370 OA
HETATM   13  F13 UNL     1     -31.829  14.514  -3.470  1.00 20.00    -0.206 F 
ENDROOT
TORSDOF 0
ENDMDL
MODEL 6
REMARK VINA RESULT:      -4.9      1.694      2.676
REMARK  0 active torsions:
REMARK  status: ('A' for Active; 'I' for Inactive)
ROOT
HETATM    1  C1  UNL     1     -34.772  15.934  -1.936  1.00 20.00     0.013 A 
HETATM    2  C2  UNL     1     -34.016  16.969  -1.385  1.00 20.00     0.043 A 
HETATM    3  C3  UNL     1     -34.020  18.103  -3.512  1.00 20.00     0.050 A 
HETATM    4  C4  UNL     1     -35.169  15.957  -3.285  1.00 20.00    -0.020 A 
HETATM    5  C5  UNL     1     -34.784  17.070  -4.073  1.00 20.00    -0.046 A 
HETATM    6  C6  UNL     1     -33.638  18.051  -2.173  1.00 20.00     0.117 A 
HETATM    7  C7  UNL     1     -35.202  17.145  -5.524  1.00 20.00     0.039 C 
HETATM    8  C8  UNL     1     -34.488  16.147  -6.448  1.00 20.00     0.007 C 
HETATM    9  C9  UNL     1     -34.348  14.717  -5.915  1.00 20.00     0.035 C 
HETATM   10  C10 UNL     1     -35.973  14.819  -3.867  1.00 20.00     0.184 A 
HETATM   11  C11 UNL     1     -35.579  14.241  -5.213  1.00 20.00     0.156 A 
HETATM   12  O12 UNL     1     -35.333  13.536  -3.994  1.00 20.00    -0.370 OA
HETATM   13  F13 UNL     1     -32.911  19.045  -1.645  1.00 20.00    -0.206 F 
ENDROOT
TORSDOF 0
ENDMDL
MODEL 7
REMARK VINA RESULT:      -4.9      2.814      4.660
REMARK  0 active torsions:
REMARK  status: ('A' for Active; 'I' for Inactive)
ROOT
HETATM    1  C1  UNL     1     -34.516  14.179  -3.687  1.00 20.00     0.013 A 
HETATM    2  C2  UNL     1     -34.925  13.584  -4.881  1.00 20.00     0.043 A 
HETATM    3  C3  UNL     1     -34.488  15.644  -6.055  1.00 20.00     0.050 A 
HETATM    4  C4  UNL     1     -34.085  15.517  -3.647  1.00 20.00    -0.020 A 
HETATM    5  C5  UNL     1     -34.070  16.248  -4.861  1.00 20.00    -0.046 A 
HETATM    6  C6  UNL     1     -34.913  14.317  -6.063  1.00 20.00     0.117 A 
HETATM    7  C7  UNL     1     -33.599  17.685  -4.868  1.00 20.00     0.039 C 
HETATM    8  C8  UNL     1     -34.559  18.676  -4.194  1.00 20.00     0.007 C 
HETATM    9  C9  UNL     1     -35.163  18.227  -2.859  1.00 20.00     0.035 C 
HETATM   10  C10 UNL     1     -33.662  16.148  -2.342  1.00 20.00     0.184 A 
HETATM   11  C11 UNL     1     -34.170  17.531  -1.984  1.00 20.00     0.156 A 
HETATM   12  O12 UNL     1     -34.669  16.358  -1.337  1.00 20.00    -0.370 OA
HETATM   13  F13 UNL     1     -35.308  13.747  -7.210  1.00 20.00    -0.206 F 
ENDROOT
TORSDOF 0
ENDMDL
MODEL 8
REMARK VINA RESULT:      -4.9      1.882      2.632
REMARK  0 active torsions:
REMARK  status: ('A' for Active; 'I' for Inactive)
ROOT
HETATM    1  C1  UNL     1     -34.404  15.683  -2.233  1.00 20.00     0.013 A 
HETATM    2  C2  UNL     1     -34.548  17.023  -1.869  1.00 20.00     0.043 A 
HETATM    3  C3  UNL     1     -36.126  17.339  -3.664  1.00 20.00     0.050 A 
HETATM    4  C4  UNL     1     -35.114  15.140  -3.318  1.00 20.00    -0.020 A 
HETATM    5  C5  UNL     1     -35.991  15.992  -4.034  1.00 20.00    -0.046 A 
HETATM    6  C6  UNL     1     -35.406  17.850  -2.586  1.00 20.00     0.117 A 
HETATM    7  C7  UNL     1     -36.787  15.448  -5.198  1.00 20.00     0.039 C 
HETATM    8  C8  UNL     1     -35.954  15.129  -6.449  1.00 20.00     0.007 C 
HETATM    9  C9  UNL     1     -34.628  14.400  -6.207  1.00 20.00     0.035 C 
HETATM   10  C10 UNL     1     -34.931  13.692  -3.706  1.00 20.00     0.184 A 
HETATM   11  C11 UNL     1     -34.740  13.331  -5.167  1.00 20.00     0.156 A 
HETATM   12  O12 UNL     1     -33.655  13.292  -4.237  1.00 20.00    -0.370 OA
HETATM   13  F13 UNL     1     -35.544  19.137  -2.239  1.00 20.00    -0.206 F 
ENDROOT
TORSDOF 0
ENDMDL
MODEL 9
REMARK VINA RESULT:      -4.9      1.562      2.308
REMARK  0 active torsions:
REMARK  status: ('A' for Active; 'I' for Inactive)
ROOT
HETATM    1  C1  UNL     1     -33.429  15.130  -4.160  1.00 20.00     0.013 A 
HETATM    2  C2  UNL     1     -33.314  15.759  -2.920  1.00 20.00     0.043 A 
HETATM    3  C3  UNL     1     -35.713  15.713  -2.679  1.00 20.00     0.050 A 
HETATM    4  C4  UNL     1     -34.683  14.779  -4.690  1.00 20.00    -0.020 A 
HETATM    5  C5  UNL     1     -35.836  15.076  -3.923  1.00 20.00    -0.046 A 
HETATM    6  C6  UNL     1     -34.456  16.052  -2.181  1.00 20.00     0.117 A 
HETATM    7  C7  UNL     1     -37.205  14.703  -4.445  1.00 20.00     0.039 C 
HETATM    8  C8  UNL     1     -37.687  15.545  -5.636  1.00 20.00     0.007 C 
HETATM    9  C9  UNL     1     -36.653  15.810  -6.735  1.00 20.00     0.035 C 
HETATM   10  C10 UNL     1     -34.786  14.114  -6.042  1.00 20.00     0.184 A 
HETATM   11  C11 UNL     1     -35.815  14.609  -7.040  1.00 20.00     0.156 A 
HETATM   12  O12 UNL     1     -34.422  14.884  -7.202  1.00 20.00    -0.370 OA
HETATM   13  F13 UNL     1     -34.348  16.657  -0.991  1.00 20.00    -0.206 F 
ENDROOT
TORSDOF 0
ENDMDL
