MODEL 1
REMARK VINA RESULT:      -4.7      0.000      0.000
REMARK  0 active torsions:
REMARK  status: ('A' for Active; 'I' for Inactive)
ROOT
HETATM    1  C1  UNL     1     -33.734  17.255  -4.174  1.00 20.00     0.009 A 
HETATM    2  C2  UNL     1     -33.811  17.607  -2.826  1.00 20.00     0.024 A 
HETATM    3  C3  UNL     1     -34.834  15.475  -2.326  1.00 20.00     0.033 A 
HETATM    4  C4  UNL     1     -34.213  16.012  -4.609  1.00 20.00    -0.048 A 
HETATM    5  C5  UNL     1     -34.751  15.107  -3.676  1.00 20.00    -0.022 A 
HETATM    6  C6  UNL     1     -34.362  16.719  -1.904  1.00 20.00     0.034 A 
HETATM    7  C7  UNL     1     -34.096  15.623  -6.060  1.00 20.00     0.069 C 
HETATM    8  C8  UNL     1     -35.297  13.775  -4.128  1.00 20.00     0.308 C 
HETATM    9  C9  UNL     1     -34.980  14.429  -6.422  1.00 20.00     0.274 C 
HETATM   10  N10 UNL     1     -34.805  13.356  -5.445  1.00 20.00     0.087 N 
HETATM   11 CL11 UNL     1     -34.460  17.157  -0.242  1.00 20.00    -0.084 Cl
HETATM   12  H21 UNL     1     -33.815  13.120  -5.375  1.00 20.00     0.316 HD
ENDROOT
TORSDOF 0
ENDMDL
MODEL 2
REMARK VINA RESULT:      -4.5      1.150      2.243
REMARK  0 active torsions:
REMARK  status: ('A' for Active; 'I' for Inactive)
ROOT
HETATM    1  C1  UNL     1     -34.771  15.551  -2.200  1.00 20.00     0.009 A 
HETATM    2  C2  UNL     1     -34.341  16.828  -1.839  1.00 20.00     0.024 A 
HETATM    3  C3  UNL     1     -33.740  17.277  -4.136  1.00 20.00     0.033 A 
HETATM    4  C4  UNL     1     -34.682  15.125  -3.531  1.00 20.00    -0.048 A 
HETATM    5  C5  UNL     1     -34.180  16.000  -4.511  1.00 20.00    -0.022 A 
HETATM    6  C6  UNL     1     -33.825  17.689  -2.805  1.00 20.00     0.034 A 
HETATM    7  C7  UNL     1     -35.181  13.757  -3.922  1.00 20.00     0.069 C 
HETATM    8  C8  UNL     1     -34.050  15.551  -5.945  1.00 20.00     0.308 C 
HETATM    9  C9  UNL     1     -34.680  13.320  -5.299  1.00 20.00     0.274 C 
HETATM   10  N10 UNL     1     -34.884  14.390  -6.275  1.00 20.00     0.087 N 
HETATM   11 CL11 UNL     1     -33.290  19.263  -2.357  1.00 20.00    -0.084 Cl
HETATM   12  H21 UNL     1     -35.865  14.668  -6.270  1.00 20.00     0.316 HD
ENDROOT
TORSDOF 0
ENDMDL
MODEL 3
REMARK VINA RESULT:      -4.4      2.920      4.235
REMARK  0 active torsions:
REMARK  status: ('A' for Active; 'I' for Inactive)
ROOT
HETATM    1  C1  UNL     1     -33.545  17.122  -4.608  1.00 20.00     0.009 A 
HETATM    2  C2  UNL     1     -33.732  15.835  -5.112  1.00 20.00     0.024 A 
HETATM    3  C3  UNL     1     -34.453  15.083  -2.931  1.00 20.00     0.033 A 
HETATM    4  C4  UNL     1     -33.804  17.398  -3.259  1.00 20.00    -0.048 A 
HETATM    5  C5  UNL     1     -34.279  16.376  -2.418  1.00 20.00    -0.022 A 
HETATM    6  C6  UNL     1     -34.184  14.816  -4.274  1.00 20.00     0.034 A 
HETATM    7  C7  UNL     1     -33.634  18.798  -2.728  1.00 20.00     0.069 C 
HETATM    8  C8  UNL     1     -34.537  16.646  -0.956  1.00 20.00     0.308 C 
HETATM    9  C9  UNL     1     -33.596  18.847  -1.200  1.00 20.00     0.274 C 
HETATM   10  N10 UNL     1     -34.701  18.069  -0.642  1.00 20.00     0.087 N 
HETATM   11 CL11 UNL     1     -34.410  13.227  -4.897  1.00 20.00    -0.084 Cl
HETATM   12  H21 UNL     1     -35.581  18.402  -1.036  1.00 20.00     0.316 HD
ENDROOT
TORSDOF 0
ENDMDL
MODEL 4
REMARK VINA RESULT:      -4.4      3.048      4.657
REMARK  0 active torsions:
REMARK  status: ('A' for Active; 'I' for Inactive)
ROOT
HETATM    1  C1  UNL     1     -34.733  14.791  -3.198  1.00 20.00     0.009 A 
HETATM    2  C2  UNL     1     -34.662  14.470  -4.554  1.00 20.00     0.024 A 
HETATM    3  C3  UNL     1     -34.008  16.740  -5.060  1.00 20.00     0.033 A 
HETATM    4  C4  UNL     1     -34.449  16.092  -2.764  1.00 20.00    -0.048 A 
HETATM    5  C5  UNL     1     -34.065  17.070  -3.699  1.00 20.00    -0.022 A 
HETATM    6  C6  UNL     1     -34.302  15.443  -5.483  1.00 20.00     0.034 A 
HETATM    7  C7  UNL     1     -34.492  16.425  -1.295  1.00 20.00     0.069 C 
HETATM    8  C8  UNL     1     -33.781  18.484  -3.255  1.00 20.00     0.308 C 
HETATM    9  C9  UNL     1     -34.524  17.932  -1.033  1.00 20.00     0.274 C 
HETATM   10  N10 UNL     1     -33.491  18.603  -1.822  1.00 20.00     0.087 N 
HETATM   11 CL11 UNL     1     -34.220  15.046  -7.157  1.00 20.00    -0.084 Cl
HETATM   12  H21 UNL     1     -32.586  18.176  -1.626  1.00 20.00     0.316 HD
ENDROOT
TORSDOF 0
ENDMDL
MODEL 5
REMARK VINA RESULT:      -4.4      1.800      1.981
REMARK  0 active torsions:
REMARK  status: ('A' for Active; 'I' for Inactive)
ROOT
HETATM    1  C1  UNL     1     -33.696  16.453  -2.293  1.00 20.00     0.009 A 
HETATM    2  C2  UNL     1     -34.476  17.505  -1.814  1.00 20.00     0.024 A 
HETATM    3  C3  UNL     1     -36.437  16.509  -2.816  1.00 20.00     0.033 A 
HETATM    4  C4  UNL     1     -34.279  15.424  -3.044  1.00 20.00    -0.048 A 
HETATM    5  C5  UNL     1     -35.663  15.442  -3.292  1.00 20.00    -0.022 A 
HETATM    6  C6  UNL     1     -35.844  17.534  -2.076  1.00 20.00     0.034 A 
HETATM    7  C7  UNL     1     -33.438  14.272  -3.529  1.00 20.00     0.069 C 
HETATM    8  C8  UNL     1     -36.306  14.358  -4.121  1.00 20.00     0.308 C 
HETATM    9  C9  UNL     1     -34.132  13.454  -4.619  1.00 20.00     0.274 C 
HETATM   10  N10 UNL     1     -35.501  13.135  -4.216  1.00 20.00     0.087 N 
HETATM   11 CL11 UNL     1     -36.805  18.836  -1.489  1.00 20.00    -0.084 Cl
HETATM   12  H21 UNL     1     -35.487  12.671  -3.308  1.00 20.00     0.316 HD
ENDROOT
TORSDOF 0
ENDMDL
MODEL 6
REMARK VINA RESULT:      -4.3      2.759      3.335
REMARK  0 active torsions:
REMARK  status: ('A' for Active; 'I' for Inactive)
ROOT
HETATM    1  C1  UNL     1     -36.056  16.811  -2.849  1.00 20.00     0.009 A 
HETATM    2  C2  UNL     1     -37.432  16.844  -3.073  1.00 20.00     0.024 A 
HETATM    3  C3  UNL     1     -37.328  14.634  -4.044  1.00 20.00     0.033 A 
HETATM    4  C4  UNL     1     -35.304  15.692  -3.228  1.00 20.00    -0.048 A 
HETATM    5  C5  UNL     1     -35.946  14.586  -3.813  1.00 20.00    -0.022 A 
HETATM    6  C6  UNL     1     -38.067  15.757  -3.672  1.00 20.00     0.034 A 
HETATM    7  C7  UNL     1     -33.823  15.648  -2.951  1.00 20.00     0.069 C 
HETATM    8  C8  UNL     1     -35.150  13.383  -4.253  1.00 20.00     0.308 C 
HETATM    9  C9  UNL     1     -33.109  14.551  -3.742  1.00 20.00     0.274 C 
HETATM   10  N10 UNL     1     -33.832  13.286  -3.617  1.00 20.00     0.087 N 
HETATM   11 CL11 UNL     1     -39.765  15.800  -3.952  1.00 20.00    -0.084 Cl
HETATM   12  H21 UNL     1     -33.951  13.062  -2.629  1.00 20.00     0.316 HD
ENDROOT
TORSDOF 0
ENDMDL
MODEL 7
REMARK VINA RESULT:      -4.3      4.488      5.823
REMARK  0 active torsions:
REMARK  status: ('A' for Active; 'I' for Inactive)
ROOT
HETATM    1  C1  UNL     1     -31.868  18.940   0.604  1.00 20.00     0.009 A 
HETATM    2  C2  UNL     1     -31.544  19.094   1.952  1.00 20.00     0.024 A 
HETATM    3  C3  UNL     1     -33.777  18.406   2.569  1.00 20.00     0.033 A 
HETATM    4  C4  UNL     1     -33.152  18.525   0.228  1.00 20.00    -0.048 A 
HETATM    5  C5  UNL     1     -34.109  18.237   1.217  1.00 20.00    -0.022 A 
HETATM    6  C6  UNL     1     -32.498  18.829   2.933  1.00 20.00     0.034 A 
HETATM    7  C7  UNL     1     -33.485  18.326  -1.229  1.00 20.00     0.069 C 
HETATM    8  C8  UNL     1     -35.505  17.815   0.832  1.00 20.00     0.308 C 
HETATM    9  C9  UNL     1     -34.991  18.238  -1.481  1.00 20.00     0.274 C 
HETATM   10  N10 UNL     1     -35.607  17.304  -0.539  1.00 20.00     0.087 N 
HETATM   11 CL11 UNL     1     -32.098  19.025   4.596  1.00 20.00    -0.084 Cl
HETATM   12  H21 UNL     1     -35.133  16.403  -0.598  1.00 20.00     0.316 HD
ENDROOT
TORSDOF 0
ENDMDL
MODEL 8
REMARK VINA RESULT:      -4.3      2.793      3.756
REMARK  0 active torsions:
REMARK  status: ('A' for Active; 'I' for Inactive)
ROOT
HETATM    1  C1  UNL     1     -35.384  15.550  -6.855  1.00 20.00     0.009 A 
HETATM    2  C2  UNL     1     -35.137  16.863  -7.256  1.00 20.00     0.024 A 
HETATM    3  C3  UNL     1     -33.527  17.108  -5.471  1.00 20.00     0.033 A 
HETATM    4  C4  UNL     1     -34.709  15.008  -5.753  1.00 20.00    -0.048 A 
HETATM    5  C5  UNL     1     -33.760  15.786  -5.067  1.00 20.00    -0.022 A 
HETATM    6  C6  UNL     1     -34.210  17.641  -6.564  1.00 20.00     0.034 A 
HETATM    7  C7  UNL     1     -34.954  13.578  -5.345  1.00 20.00     0.069 C 
HETATM    8  C8  UNL     1     -33.042  15.231  -3.861  1.00 20.00     0.308 C 
HETATM    9  C9  UNL     1     -34.436  13.271  -3.939  1.00 20.00     0.274 C 
HETATM   10  N10 UNL     1     -33.069  13.766  -3.785  1.00 20.00     0.087 N 
HETATM   11 CL11 UNL     1     -33.910  19.263  -7.058  1.00 20.00    -0.084 Cl
HETATM   12  H21 UNL     1     -32.484  13.380  -4.526  1.00 20.00     0.316 HD
ENDROOT
TORSDOF 0
ENDMDL
MODEL 9
REMARK VINA RESULT:      -4.2      2.793      3.547
REMARK  0 active torsions:
REMARK  status: ('A' for Active; 'I' for Inactive)
ROOT
HETATM    1  C1  UNL     1     -33.296  17.108  -4.667  1.00 20.00     0.009 A 
HETATM    2  C2  UNL     1     -33.785  17.927  -5.685  1.00 20.00     0.024 A 
HETATM    3  C3  UNL     1     -34.990  16.052  -6.618  1.00 20.00     0.033 A 
HETATM    4  C4  UNL     1     -33.645  15.752  -4.622  1.00 20.00    -0.048 A 
HETATM    5  C5  UNL     1     -34.513  15.223  -5.594  1.00 20.00    -0.022 A 
HETATM    6  C6  UNL     1     -34.630  17.399  -6.660  1.00 20.00     0.034 A 
HETATM    7  C7  UNL     1     -33.142  14.879  -3.501  1.00 20.00     0.069 C 
HETATM    8  C8  UNL     1     -34.879  13.759  -5.579  1.00 20.00     0.308 C 
HETATM    9  C9  UNL     1     -33.302  13.388  -3.799  1.00 20.00     0.274 C 
HETATM   10  N10 UNL     1     -34.654  13.111  -4.282  1.00 20.00     0.087 N 
HETATM   11 CL11 UNL     1     -35.228  18.411  -7.918  1.00 20.00    -0.084 Cl
HETATM   12  H21 UNL     1     -35.333  13.465  -3.607  1.00 20.00     0.316 HD
ENDROOT
TORSDOF 0
ENDMDL
