MODEL 1
REMARK VINA RESULT:      -3.6      0.000      0.000
REMARK  1 active torsions:
REMARK  status: ('A' for Active; 'I' for Inactive)
REMARK    1  A    between atoms: C3_3  and  C4_4 
ROOT
HETATM    1  C1  UNL     1     -35.826  15.855  -4.612  1.00 20.00     0.087 A 
HETATM    2  C2  UNL     1     -37.972  15.105  -3.814  1.00 20.00     0.166 A 
HETATM    3  C3  UNL     1     -35.896  14.532  -4.228  1.00 20.00     0.125 A 
HETATM    4  N5  UNL     1     -37.125  14.101  -3.771  1.00 20.00    -0.249 NA
HETATM    5  S7  UNL     1     -37.358  16.598  -4.396  1.00 20.00    -0.092 SA
ENDROOT
BRANCH   3   6
HETATM    6  C4  UNL     1     -34.785  13.625  -4.284  1.00 20.00     0.271 C 
HETATM    7  O6  UNL     1     -34.938  12.479  -4.778  1.00 20.00    -0.272 OA
HETATM    8 CL8  UNL     1     -33.173  14.076  -3.670  1.00 20.00    -0.037 Cl
ENDBRANCH   3   6
TORSDOF 1
ENDMDL
MODEL 2
REMARK VINA RESULT:      -3.5      2.573      2.746
REMARK  1 active torsions:
REMARK  status: ('A' for Active; 'I' for Inactive)
REMARK    1  A    between atoms: C3_3  and  C4_4 
ROOT
HETATM    1  C1  UNL     1     -34.182  15.803  -5.771  1.00 20.00     0.087 A 
HETATM    2  C2  UNL     1     -35.326  15.046  -7.752  1.00 20.00     0.166 A 
HETATM    3  C3  UNL     1     -34.577  14.482  -5.770  1.00 20.00     0.125 A 
HETATM    4  N5  UNL     1     -35.234  14.047  -6.903  1.00 20.00    -0.249 NA
HETATM    5  S7  UNL     1     -34.643  16.540  -7.251  1.00 20.00    -0.092 SA
ENDROOT
BRANCH   3   6
HETATM    6  C4  UNL     1     -34.344  13.580  -4.677  1.00 20.00     0.271 C 
HETATM    7  O6  UNL     1     -35.159  12.649  -4.451  1.00 20.00    -0.272 OA
HETATM    8 CL8  UNL     1     -32.918  13.737  -3.618  1.00 20.00    -0.037 Cl
ENDBRANCH   3   6
TORSDOF 1
ENDMDL
MODEL 3
REMARK VINA RESULT:      -3.4      2.466      2.770
REMARK  1 active torsions:
REMARK  status: ('A' for Active; 'I' for Inactive)
REMARK    1  A    between atoms: C3_3  and  C4_4 
ROOT
HETATM    1  C1  UNL     1     -35.863  15.417  -3.329  1.00 20.00     0.087 A 
HETATM    2  C2  UNL     1     -33.671  16.179  -2.679  1.00 20.00     0.166 A 
HETATM    3  C3  UNL     1     -34.801  14.812  -3.969  1.00 20.00     0.125 A 
HETATM    4  N5  UNL     1     -33.545  15.248  -3.599  1.00 20.00    -0.249 NA
HETATM    5  S7  UNL     1     -35.274  16.580  -2.213  1.00 20.00    -0.092 SA
ENDROOT
BRANCH   3   6
HETATM    6  C4  UNL     1     -34.948  13.790  -4.966  1.00 20.00     0.271 C 
HETATM    7  O6  UNL     1     -34.860  12.579  -4.637  1.00 20.00    -0.272 OA
HETATM    8 CL8  UNL     1     -35.259  14.184  -6.677  1.00 20.00    -0.037 Cl
ENDBRANCH   3   6
TORSDOF 1
ENDMDL
MODEL 4
REMARK VINA RESULT:      -3.4      3.235      3.484
REMARK  1 active torsions:
REMARK  status: ('A' for Active; 'I' for Inactive)
REMARK    1  A    between atoms: C3_3  and  C4_4 
ROOT
HETATM    1  C1  UNL     1     -33.736  14.558  -3.749  1.00 20.00     0.087 A 
HETATM    2  C2  UNL     1     -36.067  14.087  -4.133  1.00 20.00     0.166 A 
HETATM    3  C3  UNL     1     -34.630  15.409  -3.134  1.00 20.00     0.125 A 
HETATM    4  N5  UNL     1     -35.966  15.141  -3.353  1.00 20.00    -0.249 NA
HETATM    5  S7  UNL     1     -34.593  13.368  -4.640  1.00 20.00    -0.092 SA
ENDROOT
BRANCH   3   6
HETATM    6  C4  UNL     1     -34.239  16.517  -2.310  1.00 20.00     0.271 C 
HETATM    7  O6  UNL     1     -33.591  17.471  -2.813  1.00 20.00    -0.272 OA
HETATM    8 CL8  UNL     1     -34.648  16.591  -0.576  1.00 20.00    -0.037 Cl
ENDBRANCH   3   6
TORSDOF 1
ENDMDL
MODEL 5
REMARK VINA RESULT:      -3.4      3.497      3.922
REMARK  1 active torsions:
REMARK  status: ('A' for Active; 'I' for Inactive)
REMARK    1  A    between atoms: C3_3  and  C4_4 
ROOT
HETATM    1  C1  UNL     1     -35.567  15.024  -3.391  1.00 20.00     0.087 A 
HETATM    2  C2  UNL     1     -33.663  13.745  -4.127  1.00 20.00     0.166 A 
HETATM    3  C3  UNL     1     -34.334  15.500  -2.995  1.00 20.00     0.125 A 
HETATM    4  N5  UNL     1     -33.242  14.768  -3.416  1.00 20.00    -0.249 NA
HETATM    5  S7  UNL     1     -35.361  13.603  -4.330  1.00 20.00    -0.092 SA
ENDROOT
BRANCH   3   6
HETATM    6  C4  UNL     1     -34.152  16.677  -2.195  1.00 20.00     0.271 C 
HETATM    7  O6  UNL     1     -33.641  17.707  -2.705  1.00 20.00    -0.272 OA
HETATM    8 CL8  UNL     1     -34.636  16.731  -0.479  1.00 20.00    -0.037 Cl
ENDBRANCH   3   6
TORSDOF 1
ENDMDL
MODEL 6
REMARK VINA RESULT:      -3.3      2.855      3.127
REMARK  1 active torsions:
REMARK  status: ('A' for Active; 'I' for Inactive)
REMARK    1  A    between atoms: C3_3  and  C4_4 
ROOT
HETATM    1  C1  UNL     1     -35.154  14.009  -5.995  1.00 20.00     0.087 A 
HETATM    2  C2  UNL     1     -34.184  16.047  -6.839  1.00 20.00     0.166 A 
HETATM    3  C3  UNL     1     -34.463  14.772  -5.076  1.00 20.00     0.125 A 
HETATM    4  N5  UNL     1     -33.906  15.939  -5.559  1.00 20.00    -0.249 NA
HETATM    5  S7  UNL     1     -35.113  14.779  -7.528  1.00 20.00    -0.092 SA
ENDROOT
BRANCH   3   6
HETATM    6  C4  UNL     1     -34.306  14.410  -3.696  1.00 20.00     0.271 C 
HETATM    7  O6  UNL     1     -34.047  13.218  -3.388  1.00 20.00    -0.272 OA
HETATM    8 CL8  UNL     1     -34.466  15.609  -2.386  1.00 20.00    -0.037 Cl
ENDBRANCH   3   6
TORSDOF 1
ENDMDL
MODEL 7
REMARK VINA RESULT:      -3.3      3.061      3.293
REMARK  1 active torsions:
REMARK  status: ('A' for Active; 'I' for Inactive)
REMARK    1  A    between atoms: C3_3  and  C4_4 
ROOT
HETATM    1  C1  UNL     1     -34.110  16.116  -2.684  1.00 20.00     0.087 A 
HETATM    2  C2  UNL     1     -33.426  17.396  -4.608  1.00 20.00     0.166 A 
HETATM    3  C3  UNL     1     -33.798  15.386  -3.812  1.00 20.00     0.125 A 
HETATM    4  N5  UNL     1     -33.407  16.118  -4.915  1.00 20.00    -0.249 NA
HETATM    5  S7  UNL     1     -33.906  17.789  -3.007  1.00 20.00    -0.092 SA
ENDROOT
BRANCH   3   6
HETATM    6  C4  UNL     1     -33.864  13.954  -3.880  1.00 20.00     0.271 C 
HETATM    7  O6  UNL     1     -32.856  13.267  -3.574  1.00 20.00    -0.272 OA
HETATM    8 CL8  UNL     1     -35.348  13.104  -4.386  1.00 20.00    -0.037 Cl
ENDBRANCH   3   6
TORSDOF 1
ENDMDL
MODEL 8
REMARK VINA RESULT:      -3.3     11.381     11.695
REMARK  1 active torsions:
REMARK  status: ('A' for Active; 'I' for Inactive)
REMARK    1  A    between atoms: C3_3  and  C4_4 
ROOT
HETATM    1  C1  UNL     1     -42.061   6.374  -2.324  1.00 20.00     0.087 A 
HETATM    2  C2  UNL     1     -40.773   5.792  -0.372  1.00 20.00     0.166 A 
HETATM    3  C3  UNL     1     -41.849   5.025  -2.123  1.00 20.00     0.125 A 
HETATM    4  N5  UNL     1     -41.111   4.690  -1.006  1.00 20.00    -0.249 NA
HETATM    5  S7  UNL     1     -41.311   7.267  -1.066  1.00 20.00    -0.092 SA
ENDROOT
BRANCH   3   6
HETATM    6  C4  UNL     1     -42.345   4.001  -2.998  1.00 20.00     0.271 C 
HETATM    7  O6  UNL     1     -43.417   4.185  -3.630  1.00 20.00    -0.272 OA
HETATM    8 CL8  UNL     1     -41.481   2.458  -3.223  1.00 20.00    -0.037 Cl
ENDBRANCH   3   6
TORSDOF 1
ENDMDL
MODEL 9
REMARK VINA RESULT:      -3.3     12.228     12.717
REMARK  1 active torsions:
REMARK  status: ('A' for Active; 'I' for Inactive)
REMARK    1  A    between atoms: C3_3  and  C4_4 
ROOT
HETATM    1  C1  UNL     1     -34.763   4.617   4.735  1.00 20.00     0.087 A 
HETATM    2  C2  UNL     1     -34.247   6.126   6.541  1.00 20.00     0.166 A 
HETATM    3  C3  UNL     1     -33.982   5.706   4.405  1.00 20.00     0.125 A 
HETATM    4  N5  UNL     1     -33.686   6.572   5.438  1.00 20.00    -0.249 NA
HETATM    5  S7  UNL     1     -35.146   4.670   6.406  1.00 20.00    -0.092 SA
ENDROOT
BRANCH   3   6
HETATM    6  C4  UNL     1     -33.488   5.962   3.082  1.00 20.00     0.271 C 
HETATM    7  O6  UNL     1     -33.912   5.278   2.114  1.00 20.00    -0.272 OA
HETATM    8 CL8  UNL     1     -32.281   7.234   2.758  1.00 20.00    -0.037 Cl
ENDBRANCH   3   6
TORSDOF 1
ENDMDL
