MODEL 1
REMARK VINA RESULT:      -4.1      0.000      0.000
REMARK  1 active torsions:
REMARK  status: ('A' for Active; 'I' for Inactive)
REMARK    1  A    between atoms: C1_1  and  C2_2 
ROOT
HETATM    1  C1  UNL     1     -34.790   5.380   4.208  1.00 20.00     0.346 C 
HETATM    2  O3  UNL     1     -33.979   5.678   3.343  1.00 20.00    -0.255 OA
HETATM    3  F4  UNL     1     -36.084   5.392   3.860  1.00 20.00    -0.160 F 
ENDROOT
BRANCH   1   4
HETATM    4  C2  UNL     1     -34.447   5.057   5.625  1.00 20.00     0.369 C 
HETATM    5  F5  UNL     1     -35.485   4.462   6.267  1.00 20.00    -0.222 F 
HETATM    6 CL6  UNL     1     -34.031   6.565   6.448  1.00 20.00    -0.078 Cl
ENDBRANCH   1   4
TORSDOF 1
ENDMDL
MODEL 2
REMARK VINA RESULT:      -4.0      1.752      2.210
REMARK  1 active torsions:
REMARK  status: ('A' for Active; 'I' for Inactive)
REMARK    1  A    between atoms: C1_1  and  C2_2 
ROOT
HETATM    1  C1  UNL     1     -33.945   6.149   4.684  1.00 20.00     0.346 C 
HETATM    2  O3  UNL     1     -33.126   6.592   3.892  1.00 20.00    -0.255 OA
HETATM    3  F4  UNL     1     -33.993   6.724   5.895  1.00 20.00    -0.160 F 
ENDROOT
BRANCH   1   4
HETATM    4  C2  UNL     1     -34.849   4.991   4.420  1.00 20.00     0.369 C 
HETATM    5  F5  UNL     1     -36.050   5.396   3.930  1.00 20.00    -0.222 F 
HETATM    6 CL6  UNL     1     -35.095   4.126   5.941  1.00 20.00    -0.078 Cl
ENDBRANCH   1   4
TORSDOF 1
ENDMDL
MODEL 3
REMARK VINA RESULT:      -4.0      2.176      2.661
REMARK  1 active torsions:
REMARK  status: ('A' for Active; 'I' for Inactive)
REMARK    1  A    between atoms: C1_1  and  C2_2 
ROOT
HETATM    1  C1  UNL     1     -34.459   5.380   6.073  1.00 20.00     0.346 C 
HETATM    2  O3  UNL     1     -34.223   6.542   6.369  1.00 20.00    -0.255 OA
HETATM    3  F4  UNL     1     -33.995   4.434   6.902  1.00 20.00    -0.160 F 
ENDROOT
BRANCH   1   4
HETATM    4  C2  UNL     1     -35.172   4.941   4.836  1.00 20.00     0.369 C 
HETATM    5  F5  UNL     1     -35.194   3.588   4.726  1.00 20.00    -0.222 F 
HETATM    6 CL6  UNL     1     -34.336   5.634   3.443  1.00 20.00    -0.078 Cl
ENDBRANCH   1   4
TORSDOF 1
ENDMDL
MODEL 4
REMARK VINA RESULT:      -4.0      1.991      1.991
REMARK  1 active torsions:
REMARK  status: ('A' for Active; 'I' for Inactive)
REMARK    1  A    between atoms: C1_1  and  C2_2 
ROOT
HETATM    1  C1  UNL     1     -35.095   4.796   4.743  1.00 20.00     0.346 C 
HETATM    2  O3  UNL     1     -35.180   3.612   5.032  1.00 20.00    -0.255 OA
HETATM    3  F4  UNL     1     -36.067   5.307   3.974  1.00 20.00    -0.160 F 
ENDROOT
BRANCH   1   4
HETATM    4  C2  UNL     1     -33.967   5.693   5.138  1.00 20.00     0.369 C 
HETATM    5  F5  UNL     1     -34.340   6.564   6.111  1.00 20.00    -0.222 F 
HETATM    6 CL6  UNL     1     -33.452   6.592   3.707  1.00 20.00    -0.078 Cl
ENDBRANCH   1   4
TORSDOF 1
ENDMDL
MODEL 5
REMARK VINA RESULT:      -3.9      1.815      2.563
REMARK  1 active torsions:
REMARK  status: ('A' for Active; 'I' for Inactive)
REMARK    1  A    between atoms: C1_1  and  C2_2 
ROOT
HETATM    1  C1  UNL     1     -34.924   4.803   5.093  1.00 20.00     0.346 C 
HETATM    2  O3  UNL     1     -35.137   3.601   5.021  1.00 20.00    -0.255 OA
HETATM    3  F4  UNL     1     -34.983   5.360   6.311  1.00 20.00    -0.160 F 
ENDROOT
BRANCH   1   4
HETATM    4  C2  UNL     1     -34.659   5.695   3.925  1.00 20.00     0.369 C 
HETATM    5  F5  UNL     1     -34.598   4.992   2.764  1.00 20.00    -0.222 F 
HETATM    6 CL6  UNL     1     -33.119   6.517   4.199  1.00 20.00    -0.078 Cl
ENDBRANCH   1   4
TORSDOF 1
ENDMDL
MODEL 6
REMARK VINA RESULT:      -3.9      1.744      1.903
REMARK  1 active torsions:
REMARK  status: ('A' for Active; 'I' for Inactive)
REMARK    1  A    between atoms: C1_1  and  C2_2 
ROOT
HETATM    1  C1  UNL     1     -35.199   5.059   4.424  1.00 20.00     0.346 C 
HETATM    2  O3  UNL     1     -35.139   3.905   4.823  1.00 20.00    -0.255 OA
HETATM    3  F4  UNL     1     -36.278   5.399   3.704  1.00 20.00    -0.160 F 
ENDROOT
BRANCH   1   4
HETATM    4  C2  UNL     1     -34.140   6.091   4.634  1.00 20.00     0.369 C 
HETATM    5  F5  UNL     1     -32.942   5.686   4.139  1.00 20.00    -0.222 F 
HETATM    6 CL6  UNL     1     -33.993   6.384   6.370  1.00 20.00    -0.078 Cl
ENDBRANCH   1   4
TORSDOF 1
ENDMDL
MODEL 7
REMARK VINA RESULT:      -3.9      2.148      2.373
REMARK  1 active torsions:
REMARK  status: ('A' for Active; 'I' for Inactive)
REMARK    1  A    between atoms: C1_1  and  C2_2 
ROOT
HETATM    1  C1  UNL     1     -34.947   4.428   5.688  1.00 20.00     0.346 C 
HETATM    2  O3  UNL     1     -35.095   3.571   4.829  1.00 20.00    -0.255 OA
HETATM    3  F4  UNL     1     -35.667   4.294   6.811  1.00 20.00    -0.160 F 
ENDROOT
BRANCH   1   4
HETATM    4  C2  UNL     1     -34.069   5.629   5.555  1.00 20.00     0.369 C 
HETATM    5  F5  UNL     1     -34.380   6.578   6.476  1.00 20.00    -0.222 F 
HETATM    6 CL6  UNL     1     -34.284   6.291   3.931  1.00 20.00    -0.078 Cl
ENDBRANCH   1   4
TORSDOF 1
ENDMDL
MODEL 8
REMARK VINA RESULT:      -3.9      1.839      1.839
REMARK  1 active torsions:
REMARK  status: ('A' for Active; 'I' for Inactive)
REMARK    1  A    between atoms: C1_1  and  C2_2 
ROOT
HETATM    1  C1  UNL     1     -33.929   5.877   4.161  1.00 20.00     0.346 C 
HETATM    2  O3  UNL     1     -32.880   6.472   3.965  1.00 20.00    -0.255 OA
HETATM    3  F4  UNL     1     -34.539   5.349   3.090  1.00 20.00    -0.160 F 
ENDROOT
BRANCH   1   4
HETATM    4  C2  UNL     1     -34.600   5.742   5.488  1.00 20.00     0.369 C 
HETATM    5  F5  UNL     1     -33.850   6.282   6.484  1.00 20.00    -0.222 F 
HETATM    6 CL6  UNL     1     -34.853   4.023   5.806  1.00 20.00    -0.078 Cl
ENDBRANCH   1   4
TORSDOF 1
ENDMDL
MODEL 9
REMARK VINA RESULT:      -3.8      1.397      1.579
REMARK  1 active torsions:
REMARK  status: ('A' for Active; 'I' for Inactive)
REMARK    1  A    between atoms: C1_1  and  C2_2 
ROOT
HETATM    1  C1  UNL     1     -33.746   5.765   3.782  1.00 20.00     0.346 C 
HETATM    2  O3  UNL     1     -32.908   6.632   3.988  1.00 20.00    -0.255 OA
HETATM    3  F4  UNL     1     -33.964   5.421   2.505  1.00 20.00    -0.160 F 
ENDROOT
BRANCH   1   4
HETATM    4  C2  UNL     1     -34.573   5.109   4.838  1.00 20.00     0.369 C 
HETATM    5  F5  UNL     1     -35.890   5.098   4.505  1.00 20.00    -0.222 F 
HETATM    6 CL6  UNL     1     -34.353   6.003   6.346  1.00 20.00    -0.078 Cl
ENDBRANCH   1   4
TORSDOF 1
ENDMDL
