MODEL 1
REMARK VINA RESULT:      -5.3      0.000      0.000
REMARK  1 active torsions:
REMARK  status: ('A' for Active; 'I' for Inactive)
REMARK    1  A    between atoms: C10_10  and  O11_11 
ROOT
HETATM    1  C1  UNL     1     -35.553  16.793  -1.570  1.00 20.00    -0.030 C 
HETATM    2  C2  UNL     1     -34.253  16.420  -1.610  1.00 20.00    -0.025 C 
HETATM    3  C3  UNL     1     -36.239  16.590  -2.924  1.00 20.00     0.032 C 
HETATM    4  C4  UNL     1     -33.635  15.585  -5.234  1.00 20.00     0.013 C 
HETATM    5  C5  UNL     1     -33.234  13.749  -3.743  1.00 20.00     0.037 C 
HETATM    6  C6  UNL     1     -33.928  16.141  -3.030  1.00 20.00     0.017 C 
HETATM    7  C7  UNL     1     -35.283  15.538  -3.433  1.00 20.00     0.003 C 
HETATM    8  C8  UNL     1     -32.979  15.271  -3.859  1.00 20.00    -0.004 C 
HETATM    9  C9  UNL     1     -34.997  14.981  -4.842  1.00 20.00     0.020 C 
HETATM   10  C10 UNL     1     -34.490  13.527  -4.630  1.00 20.00     0.123 C 
ENDROOT
BRANCH  10  11
HETATM   11  O11 UNL     1     -35.431  12.675  -4.009  1.00 20.00    -0.395 OA
HETATM   12  H25 UNL     1     -35.180  11.761  -4.227  1.00 20.00     0.210 HD
ENDBRANCH  10  11
TORSDOF 1
ENDMDL
MODEL 2
REMARK VINA RESULT:      -5.1      1.897      3.656
REMARK  1 active torsions:
REMARK  status: ('A' for Active; 'I' for Inactive)
REMARK    1  A    between atoms: C10_10  and  O11_11 
ROOT
HETATM    1  C1  UNL     1     -34.868  15.505  -7.656  1.00 20.00    -0.030 C 
HETATM    2  C2  UNL     1     -35.144  14.320  -7.065  1.00 20.00    -0.025 C 
HETATM    3  C3  UNL     1     -34.615  16.604  -6.622  1.00 20.00     0.032 C 
HETATM    4  C4  UNL     1     -35.331  15.133  -3.389  1.00 20.00     0.013 C 
HETATM    5  C5  UNL     1     -33.653  13.507  -3.929  1.00 20.00     0.037 C 
HETATM    6  C6  UNL     1     -35.297  14.587  -5.614  1.00 20.00     0.017 C 
HETATM    7  C7  UNL     1     -34.222  15.679  -5.495  1.00 20.00     0.003 C 
HETATM    8  C8  UNL     1     -35.117  13.871  -4.273  1.00 20.00    -0.004 C 
HETATM    9  C9  UNL     1     -34.114  15.877  -3.970  1.00 20.00     0.020 C 
HETATM   10  C10 UNL     1     -33.041  14.863  -3.484  1.00 20.00     0.123 C 
ENDROOT
BRANCH  10  11
HETATM   11  O11 UNL     1     -31.759  15.072  -4.042  1.00 20.00    -0.395 OA
HETATM   12  H25 UNL     1     -31.108  14.736  -3.402  1.00 20.00     0.210 HD
ENDBRANCH  10  11
TORSDOF 1
ENDMDL
MODEL 3
REMARK VINA RESULT:      -4.8      1.361      2.065
REMARK  1 active torsions:
REMARK  status: ('A' for Active; 'I' for Inactive)
REMARK    1  A    between atoms: C10_10  and  O11_11 
ROOT
HETATM    1  C1  UNL     1     -33.850  17.283  -2.390  1.00 20.00    -0.030 C 
HETATM    2  C2  UNL     1     -33.994  17.463  -3.723  1.00 20.00    -0.025 C 
HETATM    3  C3  UNL     1     -34.598  16.037  -1.906  1.00 20.00     0.032 C 
HETATM    4  C4  UNL     1     -36.446  14.797  -4.765  1.00 20.00     0.013 C 
HETATM    5  C5  UNL     1     -34.325  14.637  -5.873  1.00 20.00     0.037 C 
HETATM    6  C6  UNL     1     -35.004  16.480  -4.185  1.00 20.00     0.017 C 
HETATM    7  C7  UNL     1     -34.615  15.331  -3.241  1.00 20.00     0.003 C 
HETATM    8  C8  UNL     1     -35.372  15.693  -5.445  1.00 20.00    -0.004 C 
HETATM    9  C9  UNL     1     -35.444  14.153  -3.789  1.00 20.00     0.020 C 
HETATM   10  C10 UNL     1     -34.557  13.474  -4.870  1.00 20.00     0.123 C 
ENDROOT
BRANCH  10  11
HETATM   11  O11 UNL     1     -33.340  12.955  -4.372  1.00 20.00    -0.395 OA
HETATM   12  H25 UNL     1     -32.759  13.713  -4.187  1.00 20.00     0.210 HD
ENDBRANCH  10  11
TORSDOF 1
ENDMDL
MODEL 4
REMARK VINA RESULT:      -4.8      1.664      2.342
REMARK  1 active torsions:
REMARK  status: ('A' for Active; 'I' for Inactive)
REMARK    1  A    between atoms: C10_10  and  O11_11 
ROOT
HETATM    1  C1  UNL     1     -33.778  17.947  -0.767  1.00 20.00    -0.030 C 
HETATM    2  C2  UNL     1     -33.629  18.504  -1.990  1.00 20.00    -0.025 C 
HETATM    3  C3  UNL     1     -34.509  16.604  -0.844  1.00 20.00     0.032 C 
HETATM    4  C4  UNL     1     -35.549  16.217  -4.292  1.00 20.00     0.013 C 
HETATM    5  C5  UNL     1     -33.226  16.417  -4.854  1.00 20.00     0.037 C 
HETATM    6  C6  UNL     1     -34.422  17.682  -2.937  1.00 20.00     0.017 C 
HETATM    7  C7  UNL     1     -34.163  16.314  -2.285  1.00 20.00     0.003 C 
HETATM    8  C8  UNL     1     -34.427  17.288  -4.417  1.00 20.00    -0.004 C 
HETATM    9  C9  UNL     1     -34.745  15.333  -3.321  1.00 20.00     0.020 C 
HETATM   10  C10 UNL     1     -33.581  15.010  -4.301  1.00 20.00     0.123 C 
ENDROOT
BRANCH  10  11
HETATM   11  O11 UNL     1     -32.470  14.387  -3.688  1.00 20.00    -0.395 OA
HETATM   12  H25 UNL     1     -31.892  15.094  -3.354  1.00 20.00     0.210 HD
ENDBRANCH  10  11
TORSDOF 1
ENDMDL
MODEL 5
REMARK VINA RESULT:      -4.7      1.690      2.981
REMARK  1 active torsions:
REMARK  status: ('A' for Active; 'I' for Inactive)
REMARK    1  A    between atoms: C10_10  and  O11_11 
ROOT
HETATM    1  C1  UNL     1     -33.604  17.605  -5.696  1.00 20.00    -0.030 C 
HETATM    2  C2  UNL     1     -34.419  16.757  -6.363  1.00 20.00    -0.025 C 
HETATM    3  C3  UNL     1     -33.606  17.324  -4.191  1.00 20.00     0.032 C 
HETATM    4  C4  UNL     1     -36.127  14.778  -3.646  1.00 20.00     0.013 C 
HETATM    5  C5  UNL     1     -34.869  13.424  -5.175  1.00 20.00     0.037 C 
HETATM    6  C6  UNL     1     -35.173  15.991  -5.341  1.00 20.00     0.017 C 
HETATM    7  C7  UNL     1     -34.050  15.884  -4.298  1.00 20.00     0.003 C 
HETATM    8  C8  UNL     1     -35.844  14.625  -5.168  1.00 20.00    -0.004 C 
HETATM    9  C9  UNL     1     -34.637  14.894  -3.273  1.00 20.00     0.020 C 
HETATM   10  C10 UNL     1     -34.223  13.478  -3.764  1.00 20.00     0.123 C 
ENDROOT
BRANCH  10  11
HETATM   11  O11 UNL     1     -32.825  13.273  -3.814  1.00 20.00    -0.395 OA
HETATM   12  H25 UNL     1     -32.403  14.143  -3.706  1.00 20.00     0.210 HD
ENDBRANCH  10  11
TORSDOF 1
ENDMDL
MODEL 6
REMARK VINA RESULT:      -4.7      1.417      3.137
REMARK  1 active torsions:
REMARK  status: ('A' for Active; 'I' for Inactive)
REMARK    1  A    between atoms: C10_10  and  O11_11 
ROOT
HETATM    1  C1  UNL     1     -34.408  16.505  -7.230  1.00 20.00    -0.030 C 
HETATM    2  C2  UNL     1     -34.069  17.002  -6.019  1.00 20.00    -0.025 C 
HETATM    3  C3  UNL     1     -34.501  14.977  -7.206  1.00 20.00     0.032 C 
HETATM    4  C4  UNL     1     -33.362  13.949  -3.924  1.00 20.00     0.013 C 
HETATM    5  C5  UNL     1     -35.121  15.326  -3.051  1.00 20.00     0.037 C 
HETATM    6  C6  UNL     1     -33.713  15.845  -5.162  1.00 20.00     0.017 C 
HETATM    7  C7  UNL     1     -34.745  14.853  -5.721  1.00 20.00     0.003 C 
HETATM    8  C8  UNL     1     -33.714  15.445  -3.684  1.00 20.00    -0.004 C 
HETATM    9  C9  UNL     1     -34.638  13.669  -4.740  1.00 20.00     0.020 C 
HETATM   10  C10 UNL     1     -35.647  13.971  -3.597  1.00 20.00     0.123 C 
ENDROOT
BRANCH  10  11
HETATM   11  O11 UNL     1     -36.991  14.060  -4.026  1.00 20.00    -0.395 OA
HETATM   12  H25 UNL     1     -37.338  14.912  -3.711  1.00 20.00     0.210 HD
ENDBRANCH  10  11
TORSDOF 1
ENDMDL
MODEL 7
REMARK VINA RESULT:      -4.7      1.801      3.622
REMARK  1 active torsions:
REMARK  status: ('A' for Active; 'I' for Inactive)
REMARK    1  A    between atoms: C10_10  and  O11_11 
ROOT
HETATM    1  C1  UNL     1     -35.119  13.319  -4.302  1.00 20.00    -0.030 C 
HETATM    2  C2  UNL     1     -35.896  14.373  -4.641  1.00 20.00    -0.025 C 
HETATM    3  C3  UNL     1     -33.812  13.770  -3.646  1.00 20.00     0.032 C 
HETATM    4  C4  UNL     1     -33.760  17.385  -3.880  1.00 20.00     0.013 C 
HETATM    5  C5  UNL     1     -35.826  17.340  -2.662  1.00 20.00     0.037 C 
HETATM    6  C6  UNL     1     -35.082  15.595  -4.425  1.00 20.00     0.017 C 
HETATM    7  C7  UNL     1     -34.320  15.114  -3.181  1.00 20.00     0.003 C 
HETATM    8  C8  UNL     1     -35.271  17.075  -4.082  1.00 20.00    -0.004 C 
HETATM    9  C9  UNL     1     -33.604  16.395  -2.711  1.00 20.00     0.020 C 
HETATM   10  C10 UNL     1     -34.594  17.106  -1.745  1.00 20.00     0.123 C 
ENDROOT
BRANCH  10  11
HETATM   11  O11 UNL     1     -34.924  16.348  -0.600  1.00 20.00    -0.395 OA
HETATM   12  H25 UNL     1     -35.594  15.696  -0.869  1.00 20.00     0.210 HD
ENDBRANCH  10  11
TORSDOF 1
ENDMDL
MODEL 8
REMARK VINA RESULT:      -4.6      1.636      3.443
REMARK  1 active torsions:
REMARK  status: ('A' for Active; 'I' for Inactive)
REMARK    1  A    between atoms: C10_10  and  O11_11 
ROOT
HETATM    1  C1  UNL     1     -35.139  15.221  -7.350  1.00 20.00    -0.030 C 
HETATM    2  C2  UNL     1     -34.478  16.292  -6.854  1.00 20.00    -0.025 C 
HETATM    3  C3  UNL     1     -35.105  14.038  -6.378  1.00 20.00     0.032 C 
HETATM    4  C4  UNL     1     -32.931  15.032  -3.655  1.00 20.00     0.013 C 
HETATM    5  C5  UNL     1     -34.430  16.877  -3.336  1.00 20.00     0.037 C 
HETATM    6  C6  UNL     1     -33.788  15.840  -5.621  1.00 20.00     0.017 C 
HETATM    7  C7  UNL     1     -34.866  14.859  -5.133  1.00 20.00     0.003 C 
HETATM    8  C8  UNL     1     -33.302  16.406  -4.284  1.00 20.00    -0.004 C 
HETATM    9  C9  UNL     1     -34.372  14.493  -3.720  1.00 20.00     0.020 C 
HETATM   10  C10 UNL     1     -34.997  15.548  -2.764  1.00 20.00     0.123 C 
ENDROOT
BRANCH  10  11
HETATM   11  O11 UNL     1     -36.410  15.542  -2.746  1.00 20.00    -0.395 OA
HETATM   12  H25 UNL     1     -36.709  15.445  -3.666  1.00 20.00     0.210 HD
ENDBRANCH  10  11
TORSDOF 1
ENDMDL
MODEL 9
REMARK VINA RESULT:      -4.6      1.612      2.576
REMARK  1 active torsions:
REMARK  status: ('A' for Active; 'I' for Inactive)
REMARK    1  A    between atoms: C10_10  and  O11_11 
ROOT
HETATM    1  C1  UNL     1     -34.847  17.101  -2.160  1.00 20.00    -0.030 C 
HETATM    2  C2  UNL     1     -36.008  16.682  -2.713  1.00 20.00    -0.025 C 
HETATM    3  C3  UNL     1     -33.700  16.130  -2.455  1.00 20.00     0.032 C 
HETATM    4  C4  UNL     1     -35.191  13.288  -4.136  1.00 20.00     0.013 C 
HETATM    5  C5  UNL     1     -35.960  14.858  -5.778  1.00 20.00     0.037 C 
HETATM    6  C6  UNL     1     -35.768  15.315  -3.236  1.00 20.00     0.017 C 
HETATM    7  C7  UNL     1     -34.316  15.524  -3.693  1.00 20.00     0.003 C 
HETATM    8  C8  UNL     1     -36.276  14.383  -4.340  1.00 20.00    -0.004 C 
HETATM    9  C9  UNL     1     -34.022  14.231  -4.480  1.00 20.00     0.020 C 
HETATM   10  C10 UNL     1     -34.454  14.518  -5.946  1.00 20.00     0.123 C 
ENDROOT
BRANCH  10  11
HETATM   11  O11 UNL     1     -33.739  15.572  -6.559  1.00 20.00    -0.395 OA
HETATM   12  H25 UNL     1     -33.767  15.418  -7.519  1.00 20.00     0.210 HD
ENDBRANCH  10  11
TORSDOF 1
ENDMDL
