MODEL 1
REMARK VINA RESULT:      -3.3      0.000      0.000
REMARK  0 active torsions:
REMARK  status: ('A' for Active; 'I' for Inactive)
ROOT
HETATM    1  C1  UNL     1     -33.255   5.813   3.967  1.00 20.00     0.101 C 
HETATM    2  C2  UNL     1     -34.309   4.026   5.313  1.00 20.00     0.067 C 
HETATM    3  C3  UNL     1     -34.381   5.474   4.843  1.00 20.00     0.197 C 
HETATM    4  N4  UNL     1     -32.363   6.078   3.275  1.00 20.00    -0.194 NA
HETATM    5 CL5  UNL     1     -34.340   6.568   6.250  1.00 20.00    -0.085 Cl
HETATM    6 CL6  UNL     1     -35.892   5.738   3.932  1.00 20.00    -0.085 Cl
ENDROOT
TORSDOF 0
ENDMDL
MODEL 2
REMARK VINA RESULT:      -3.3     12.164     12.672
REMARK  0 active torsions:
REMARK  status: ('A' for Active; 'I' for Inactive)
ROOT
HETATM    1  C1  UNL     1     -34.532  13.690  -4.200  1.00 20.00     0.101 C 
HETATM    2  C2  UNL     1     -34.565  15.601  -2.633  1.00 20.00     0.067 C 
HETATM    3  C3  UNL     1     -33.898  14.964  -3.845  1.00 20.00     0.197 C 
HETATM    4  N4  UNL     1     -35.035  12.682  -4.478  1.00 20.00    -0.194 NA
HETATM    5 CL5  UNL     1     -32.178  14.650  -3.493  1.00 20.00    -0.085 Cl
HETATM    6 CL6  UNL     1     -34.026  16.057  -5.249  1.00 20.00    -0.085 Cl
ENDROOT
TORSDOF 0
ENDMDL
MODEL 3
REMARK VINA RESULT:      -3.2     12.110     12.718
REMARK  0 active torsions:
REMARK  status: ('A' for Active; 'I' for Inactive)
ROOT
HETATM    1  C1  UNL     1     -34.545  13.709  -4.246  1.00 20.00     0.101 C 
HETATM    2  C2  UNL     1     -33.999  15.968  -5.091  1.00 20.00     0.067 C 
HETATM    3  C3  UNL     1     -33.911  14.992  -3.924  1.00 20.00     0.197 C 
HETATM    4  N4  UNL     1     -35.048  12.696  -4.504  1.00 20.00    -0.194 NA
HETATM    5 CL5  UNL     1     -34.737  15.677  -2.500  1.00 20.00    -0.085 Cl
HETATM    6 CL6  UNL     1     -32.201  14.680  -3.525  1.00 20.00    -0.085 Cl
ENDROOT
TORSDOF 0
ENDMDL
MODEL 4
REMARK VINA RESULT:      -3.2     12.055     12.695
REMARK  0 active torsions:
REMARK  status: ('A' for Active; 'I' for Inactive)
ROOT
HETATM    1  C1  UNL     1     -34.507  13.707  -4.180  1.00 20.00     0.101 C 
HETATM    2  C2  UNL     1     -32.345  14.740  -3.570  1.00 20.00     0.067 C 
HETATM    3  C3  UNL     1     -33.826  14.964  -3.849  1.00 20.00     0.197 C 
HETATM    4  N4  UNL     1     -35.042  12.712  -4.442  1.00 20.00    -0.194 NA
HETATM    5 CL5  UNL     1     -34.020  16.080  -5.225  1.00 20.00    -0.085 Cl
HETATM    6 CL6  UNL     1     -34.615  15.658  -2.407  1.00 20.00    -0.085 Cl
ENDROOT
TORSDOF 0
ENDMDL
MODEL 5
REMARK VINA RESULT:      -3.1     13.065     13.729
REMARK  0 active torsions:
REMARK  status: ('A' for Active; 'I' for Inactive)
ROOT
HETATM    1  C1  UNL     1     -34.759  13.817  -4.878  1.00 20.00     0.101 C 
HETATM    2  C2  UNL     1     -35.844  16.014  -5.211  1.00 20.00     0.067 C 
HETATM    3  C3  UNL     1     -34.597  15.165  -5.432  1.00 20.00     0.197 C 
HETATM    4  N4  UNL     1     -34.889  12.752  -4.438  1.00 20.00    -0.194 NA
HETATM    5 CL5  UNL     1     -33.197  15.930  -4.635  1.00 20.00    -0.085 Cl
HETATM    6 CL6  UNL     1     -34.273  15.011  -7.179  1.00 20.00    -0.085 Cl
ENDROOT
TORSDOF 0
ENDMDL
MODEL 6
REMARK VINA RESULT:      -3.1     12.183     12.846
REMARK  0 active torsions:
REMARK  status: ('A' for Active; 'I' for Inactive)
ROOT
HETATM    1  C1  UNL     1     -36.589  14.634  -3.721  1.00 20.00     0.101 C 
HETATM    2  C2  UNL     1     -34.284  13.740  -3.695  1.00 20.00     0.067 C 
HETATM    3  C3  UNL     1     -35.166  14.981  -3.640  1.00 20.00     0.197 C 
HETATM    4  N4  UNL     1     -37.713  14.356  -3.785  1.00 20.00    -0.194 NA
HETATM    5 CL5  UNL     1     -34.778  16.058  -5.008  1.00 20.00    -0.085 Cl
HETATM    6 CL6  UNL     1     -34.893  15.849  -2.106  1.00 20.00    -0.085 Cl
ENDROOT
TORSDOF 0
ENDMDL
MODEL 7
REMARK VINA RESULT:      -3.1      2.450      2.706
REMARK  0 active torsions:
REMARK  status: ('A' for Active; 'I' for Inactive)
ROOT
HETATM    1  C1  UNL     1     -34.178   6.205   5.716  1.00 20.00     0.101 C 
HETATM    2  C2  UNL     1     -35.760   5.762   3.868  1.00 20.00     0.067 C 
HETATM    3  C3  UNL     1     -34.469   5.347   4.562  1.00 20.00     0.197 C 
HETATM    4  N4  UNL     1     -33.950   6.884   6.628  1.00 20.00    -0.194 NA
HETATM    5 CL5  UNL     1     -33.104   5.470   3.421  1.00 20.00    -0.085 Cl
HETATM    6 CL6  UNL     1     -34.607   3.666   5.141  1.00 20.00    -0.085 Cl
ENDROOT
TORSDOF 0
ENDMDL
MODEL 8
REMARK VINA RESULT:      -3.1     13.128     13.881
REMARK  0 active torsions:
REMARK  status: ('A' for Active; 'I' for Inactive)
ROOT
HETATM    1  C1  UNL     1     -34.730  13.810  -5.027  1.00 20.00     0.101 C 
HETATM    2  C2  UNL     1     -34.417  15.014  -7.164  1.00 20.00     0.067 C 
HETATM    3  C3  UNL     1     -34.643  15.130  -5.661  1.00 20.00     0.197 C 
HETATM    4  N4  UNL     1     -34.799  12.765  -4.529  1.00 20.00    -0.194 NA
HETATM    5 CL5  UNL     1     -36.167  16.000  -5.345  1.00 20.00    -0.085 Cl
HETATM    6 CL6  UNL     1     -33.288  16.016  -4.913  1.00 20.00    -0.085 Cl
ENDROOT
TORSDOF 0
ENDMDL
MODEL 9
REMARK VINA RESULT:      -3.0     12.416     12.795
REMARK  0 active torsions:
REMARK  status: ('A' for Active; 'I' for Inactive)
ROOT
HETATM    1  C1  UNL     1     -36.504  14.674  -3.690  1.00 20.00     0.101 C 
HETATM    2  C2  UNL     1     -34.728  16.061  -4.707  1.00 20.00     0.067 C 
HETATM    3  C3  UNL     1     -35.108  15.109  -3.580  1.00 20.00     0.197 C 
HETATM    4  N4  UNL     1     -37.609  14.333  -3.779  1.00 20.00    -0.194 NA
HETATM    5 CL5  UNL     1     -34.901  15.922  -2.007  1.00 20.00    -0.085 Cl
HETATM    6 CL6  UNL     1     -34.070  13.659  -3.638  1.00 20.00    -0.085 Cl
ENDROOT
TORSDOF 0
ENDMDL
