MODEL 1
REMARK VINA RESULT:      -4.6      0.000      0.000
REMARK  0 active torsions:
REMARK  status: ('A' for Active; 'I' for Inactive)
ROOT
HETATM    1  C1  UNL     1     -34.403  15.539  -2.292  1.00 20.00     0.015 A 
HETATM    2  C2  UNL     1     -34.066  16.898  -2.280  1.00 20.00     0.025 A 
HETATM    3  C3  UNL     1     -34.839  13.538  -3.908  1.00 20.00     0.031 A 
HETATM    4  C4  UNL     1     -33.961  16.948  -4.708  1.00 20.00     0.054 A 
HETATM    5  C5  UNL     1     -34.803  13.473  -5.281  1.00 20.00     0.091 A 
HETATM    6  C6  UNL     1     -34.522  14.871  -3.528  1.00 20.00    -0.008 A 
HETATM    7  C7  UNL     1     -34.299  15.591  -4.705  1.00 20.00     0.045 A 
HETATM    8  C8  UNL     1     -33.849  17.589  -3.471  1.00 20.00     0.036 A 
HETATM    9  C9  UNL     1     -34.340  15.045  -7.156  1.00 20.00     0.155 C 
HETATM   10  N10 UNL     1     -34.477  14.716  -5.753  1.00 20.00    -0.360 N 
HETATM   11 CL11 UNL     1     -33.433  19.262  -3.419  1.00 20.00    -0.084 Cl
ENDROOT
TORSDOF 0
ENDMDL
MODEL 2
REMARK VINA RESULT:      -4.5      2.350      3.767
REMARK  0 active torsions:
REMARK  status: ('A' for Active; 'I' for Inactive)
ROOT
HETATM    1  C1  UNL     1     -34.714  14.368  -3.411  1.00 20.00     0.015 A 
HETATM    2  C2  UNL     1     -34.668  14.145  -4.792  1.00 20.00     0.025 A 
HETATM    3  C3  UNL     1     -34.411  16.235  -1.614  1.00 20.00     0.031 A 
HETATM    4  C4  UNL     1     -34.104  16.473  -5.205  1.00 20.00     0.054 A 
HETATM    5  C5  UNL     1     -34.095  17.566  -1.752  1.00 20.00     0.091 A 
HETATM    6  C6  UNL     1     -34.451  15.661  -2.915  1.00 20.00    -0.008 A 
HETATM    7  C7  UNL     1     -34.153  16.682  -3.822  1.00 20.00     0.045 A 
HETATM    8  C8  UNL     1     -34.367  15.183  -5.673  1.00 20.00     0.036 A 
HETATM    9  C9  UNL     1     -33.606  19.125  -3.632  1.00 20.00     0.155 C 
HETATM   10  N10 UNL     1     -33.941  17.826  -3.088  1.00 20.00    -0.360 N 
HETATM   11 CL11 UNL     1     -34.321  14.872  -7.369  1.00 20.00    -0.084 Cl
ENDROOT
TORSDOF 0
ENDMDL
MODEL 3
REMARK VINA RESULT:      -4.5      1.441      2.511
REMARK  0 active torsions:
REMARK  status: ('A' for Active; 'I' for Inactive)
ROOT
HETATM    1  C1  UNL     1     -33.766  17.865  -4.153  1.00 20.00     0.015 A 
HETATM    2  C2  UNL     1     -33.937  17.899  -2.764  1.00 20.00     0.025 A 
HETATM    3  C3  UNL     1     -33.933  16.271  -6.212  1.00 20.00     0.031 A 
HETATM    4  C4  UNL     1     -34.581  15.555  -2.732  1.00 20.00     0.054 A 
HETATM    5  C5  UNL     1     -34.286  14.944  -6.289  1.00 20.00     0.091 A 
HETATM    6  C6  UNL     1     -34.005  16.660  -4.845  1.00 20.00    -0.008 A 
HETATM    7  C7  UNL     1     -34.406  15.536  -4.119  1.00 20.00     0.045 A 
HETATM    8  C8  UNL     1     -34.338  16.761  -2.067  1.00 20.00     0.036 A 
HETATM    9  C9  UNL     1     -34.981  13.161  -4.696  1.00 20.00     0.155 C 
HETATM   10  N10 UNL     1     -34.569  14.509  -5.021  1.00 20.00    -0.360 N 
HETATM   11 CL11 UNL     1     -34.541  16.839  -0.356  1.00 20.00    -0.084 Cl
ENDROOT
TORSDOF 0
ENDMDL
MODEL 4
REMARK VINA RESULT:      -4.4     12.238     13.653
REMARK  0 active torsions:
REMARK  status: ('A' for Active; 'I' for Inactive)
ROOT
HETATM    1  C1  UNL     1     -40.900   4.159  -1.455  1.00 20.00     0.015 A 
HETATM    2  C2  UNL     1     -41.564   3.314  -2.351  1.00 20.00     0.025 A 
HETATM    3  C3  UNL     1     -40.828   6.629  -0.618  1.00 20.00     0.031 A 
HETATM    4  C4  UNL     1     -42.967   5.144  -3.121  1.00 20.00     0.054 A 
HETATM    5  C5  UNL     1     -41.576   7.721  -0.991  1.00 20.00     0.091 A 
HETATM    6  C6  UNL     1     -41.271   5.517  -1.386  1.00 20.00    -0.008 A 
HETATM    7  C7  UNL     1     -42.294   5.977  -2.220  1.00 20.00     0.045 A 
HETATM    8  C8  UNL     1     -42.581   3.801  -3.170  1.00 20.00     0.036 A 
HETATM    9  C9  UNL     1     -43.417   8.191  -2.600  1.00 20.00     0.155 C 
HETATM   10  N10 UNL     1     -42.457   7.318  -1.958  1.00 20.00    -0.360 N 
HETATM   11 CL11 UNL     1     -43.380   2.732  -4.262  1.00 20.00    -0.084 Cl
ENDROOT
TORSDOF 0
ENDMDL
MODEL 5
REMARK VINA RESULT:      -4.4      1.793      3.421
REMARK  0 active torsions:
REMARK  status: ('A' for Active; 'I' for Inactive)
ROOT
HETATM    1  C1  UNL     1     -34.989  14.360  -7.003  1.00 20.00     0.015 A 
HETATM    2  C2  UNL     1     -34.868  15.570  -7.696  1.00 20.00     0.025 A 
HETATM    3  C3  UNL     1     -34.750  13.314  -4.625  1.00 20.00     0.031 A 
HETATM    4  C4  UNL     1     -34.231  16.734  -5.661  1.00 20.00     0.054 A 
HETATM    5  C5  UNL     1     -34.399  13.890  -3.426  1.00 20.00     0.091 A 
HETATM    6  C6  UNL     1     -34.728  14.332  -5.618  1.00 20.00    -0.008 A 
HETATM    7  C7  UNL     1     -34.355  15.518  -4.980  1.00 20.00     0.045 A 
HETATM    8  C8  UNL     1     -34.495  16.737  -7.033  1.00 20.00     0.036 A 
HETATM    9  C9  UNL     1     -33.769  16.161  -2.625  1.00 20.00     0.155 C 
HETATM   10  N10 UNL     1     -34.162  15.219  -3.651  1.00 20.00    -0.360 N 
HETATM   11 CL11 UNL     1     -34.357  18.211  -7.918  1.00 20.00    -0.084 Cl
ENDROOT
TORSDOF 0
ENDMDL
MODEL 6
REMARK VINA RESULT:      -4.4     11.887     13.297
REMARK  0 active torsions:
REMARK  status: ('A' for Active; 'I' for Inactive)
ROOT
HETATM    1  C1  UNL     1     -34.199   5.043   2.970  1.00 20.00     0.015 A 
HETATM    2  C2  UNL     1     -33.378   5.875   2.200  1.00 20.00     0.025 A 
HETATM    3  C3  UNL     1     -35.073   4.688   5.402  1.00 20.00     0.031 A 
HETATM    4  C4  UNL     1     -32.838   7.231   4.143  1.00 20.00     0.054 A 
HETATM    5  C5  UNL     1     -34.824   5.398   6.554  1.00 20.00     0.091 A 
HETATM    6  C6  UNL     1     -34.344   5.304   4.347  1.00 20.00    -0.008 A 
HETATM    7  C7  UNL     1     -33.662   6.391   4.901  1.00 20.00     0.045 A 
HETATM    8  C8  UNL     1     -32.709   6.951   2.780  1.00 20.00     0.036 A 
HETATM    9  C9  UNL     1     -33.480   7.393   7.196  1.00 20.00     0.155 C 
HETATM   10  N10 UNL     1     -33.972   6.423   6.241  1.00 20.00    -0.360 N 
HETATM   11 CL11 UNL     1     -31.707   7.957   1.801  1.00 20.00    -0.084 Cl
ENDROOT
TORSDOF 0
ENDMDL
MODEL 7
REMARK VINA RESULT:      -4.3      1.776      2.783
REMARK  0 active torsions:
REMARK  status: ('A' for Active; 'I' for Inactive)
ROOT
HETATM    1  C1  UNL     1     -34.431  13.919  -4.734  1.00 20.00     0.015 A 
HETATM    2  C2  UNL     1     -34.438  14.339  -3.398  1.00 20.00     0.025 A 
HETATM    3  C3  UNL     1     -34.610  14.815  -7.177  1.00 20.00     0.031 A 
HETATM    4  C4  UNL     1     -34.727  16.656  -4.072  1.00 20.00     0.054 A 
HETATM    5  C5  UNL     1     -34.773  16.097  -7.650  1.00 20.00     0.091 A 
HETATM    6  C6  UNL     1     -34.573  14.878  -5.757  1.00 20.00    -0.008 A 
HETATM    7  C7  UNL     1     -34.718  16.222  -5.402  1.00 20.00     0.045 A 
HETATM    8  C8  UNL     1     -34.584  15.687  -3.076  1.00 20.00     0.036 A 
HETATM    9  C9  UNL     1     -35.004  18.373  -6.667  1.00 20.00     0.155 C 
HETATM   10  N10 UNL     1     -34.837  16.938  -6.572  1.00 20.00    -0.360 N 
HETATM   11 CL11 UNL     1     -34.587  16.169  -1.420  1.00 20.00    -0.084 Cl
ENDROOT
TORSDOF 0
ENDMDL
MODEL 8
REMARK VINA RESULT:      -4.3      2.585      3.835
REMARK  0 active torsions:
REMARK  status: ('A' for Active; 'I' for Inactive)
ROOT
HETATM    1  C1  UNL     1     -34.236  14.199  -3.444  1.00 20.00     0.015 A 
HETATM    2  C2  UNL     1     -34.377  13.880  -4.799  1.00 20.00     0.025 A 
HETATM    3  C3  UNL     1     -34.657  16.114  -1.723  1.00 20.00     0.031 A 
HETATM    4  C4  UNL     1     -35.337  16.062  -5.270  1.00 20.00     0.054 A 
HETATM    5  C5  UNL     1     -35.191  17.371  -1.896  1.00 20.00     0.091 A 
HETATM    6  C6  UNL     1     -34.651  15.468  -2.990  1.00 20.00    -0.008 A 
HETATM    7  C7  UNL     1     -35.191  16.368  -3.913  1.00 20.00     0.045 A 
HETATM    8  C8  UNL     1     -34.919  14.799  -5.696  1.00 20.00     0.036 A 
HETATM    9  C9  UNL     1     -36.098  18.707  -3.791  1.00 20.00     0.155 C 
HETATM   10  N10 UNL     1     -35.509  17.514  -3.220  1.00 20.00    -0.360 N 
HETATM   11 CL11 UNL     1     -35.079  14.371  -7.359  1.00 20.00    -0.084 Cl
ENDROOT
TORSDOF 0
ENDMDL
MODEL 9
REMARK VINA RESULT:      -4.1      6.094      8.165
REMARK  0 active torsions:
REMARK  status: ('A' for Active; 'I' for Inactive)
ROOT
HETATM    1  C1  UNL     1     -31.729  18.871   0.561  1.00 20.00     0.015 A 
HETATM    2  C2  UNL     1     -32.874  18.506  -0.157  1.00 20.00     0.025 A 
HETATM    3  C3  UNL     1     -30.855  19.263   2.987  1.00 20.00     0.031 A 
HETATM    4  C4  UNL     1     -34.152  18.270   1.897  1.00 20.00     0.054 A 
HETATM    5  C5  UNL     1     -31.499  19.154   4.198  1.00 20.00     0.091 A 
HETATM    6  C6  UNL     1     -31.792  18.938   1.967  1.00 20.00    -0.008 A 
HETATM    7  C7  UNL     1     -33.000  18.636   2.602  1.00 20.00     0.045 A 
HETATM    8  C8  UNL     1     -34.065  18.211   0.504  1.00 20.00     0.036 A 
HETATM    9  C9  UNL     1     -33.784  18.557   4.986  1.00 20.00     0.155 C 
HETATM   10  N10 UNL     1     -32.792  18.777   3.955  1.00 20.00    -0.360 N 
HETATM   11 CL11 UNL     1     -35.456  17.763  -0.412  1.00 20.00    -0.084 Cl
ENDROOT
TORSDOF 0
ENDMDL
