MODEL 1
REMARK VINA RESULT:      -4.5      0.000      0.000
REMARK  3 active torsions:
REMARK  status: ('A' for Active; 'I' for Inactive)
REMARK    1  A    between atoms: C1_1  and  C3_3 
REMARK    2  A    between atoms: C3_3  and  O9_9 
REMARK    3  A    between atoms: C7_7  and  O9_9 
ROOT
HETATM    1  C3  UNL     1     -33.623   5.920   3.249  1.00 20.00     0.282 C 
HETATM    2  O8  UNL     1     -34.085   5.321   2.290  1.00 20.00    -0.260 OA
ENDROOT
BRANCH   1   3
HETATM    3  C1  UNL     1     -32.195   6.255   3.444  1.00 20.00     0.077 C 
HETATM    4  C2  UNL     1     -31.688   7.364   2.892  1.00 20.00    -0.025 C 
HETATM    5  C4  UNL     1     -32.493   8.314   2.067  1.00 20.00     0.036 C 
ENDBRANCH   1   3
BRANCH   1   6
HETATM    6  O9  UNL     1     -34.307   6.395   4.324  1.00 20.00    -0.314 OA
BRANCH   6   7
HETATM    7  C7  UNL     1     -33.993   5.776   5.576  1.00 20.00     0.124 C 
HETATM    8  C5  UNL     1     -33.939   6.841   6.661  1.00 20.00     0.040 C 
HETATM    9  C6  UNL     1     -35.032   4.708   5.881  1.00 20.00     0.040 C 
ENDBRANCH   6   7
ENDBRANCH   1   6
TORSDOF 3
ENDMDL
MODEL 2
REMARK VINA RESULT:      -4.0      1.055      3.849
REMARK  3 active torsions:
REMARK  status: ('A' for Active; 'I' for Inactive)
REMARK    1  A    between atoms: C1_1  and  C3_3 
REMARK    2  A    between atoms: C3_3  and  O9_9 
REMARK    3  A    between atoms: C7_7  and  O9_9 
ROOT
HETATM    1  C3  UNL     1     -33.861   5.880   3.773  1.00 20.00     0.282 C 
HETATM    2  O8  UNL     1     -34.732   5.360   3.093  1.00 20.00    -0.260 OA
ENDROOT
BRANCH   1   3
HETATM    3  C1  UNL     1     -34.022   6.337   5.170  1.00 20.00     0.077 C 
HETATM    4  C2  UNL     1     -34.479   5.490   6.102  1.00 20.00    -0.025 C 
HETATM    5  C4  UNL     1     -34.848   4.071   5.813  1.00 20.00     0.036 C 
ENDBRANCH   1   3
BRANCH   1   6
HETATM    6  O9  UNL     1     -32.582   6.147   3.399  1.00 20.00    -0.314 OA
BRANCH   6   7
HETATM    7  C7  UNL     1     -32.234   7.535   3.341  1.00 20.00     0.124 C 
HETATM    8  C5  UNL     1     -30.951   7.763   4.125  1.00 20.00     0.040 C 
HETATM    9  C6  UNL     1     -32.093   7.956   1.886  1.00 20.00     0.040 C 
ENDBRANCH   6   7
ENDBRANCH   1   6
TORSDOF 3
ENDMDL
MODEL 3
REMARK VINA RESULT:      -3.9     11.343     12.859
REMARK  3 active torsions:
REMARK  status: ('A' for Active; 'I' for Inactive)
REMARK    1  A    between atoms: C1_1  and  C3_3 
REMARK    2  A    between atoms: C3_3  and  O9_9 
REMARK    3  A    between atoms: C7_7  and  O9_9 
ROOT
HETATM    1  C3  UNL     1     -35.352  13.902  -4.453  1.00 20.00     0.282 C 
HETATM    2  O8  UNL     1     -35.046  12.720  -4.446  1.00 20.00    -0.260 OA
ENDROOT
BRANCH   1   3
HETATM    3  C1  UNL     1     -35.316  14.804  -3.281  1.00 20.00     0.077 C 
HETATM    4  C2  UNL     1     -34.152  15.327  -2.876  1.00 20.00    -0.025 C 
HETATM    5  C4  UNL     1     -32.848  15.052  -3.551  1.00 20.00     0.036 C 
ENDBRANCH   1   3
BRANCH   1   6
HETATM    6  O9  UNL     1     -35.784  14.628  -5.518  1.00 20.00    -0.314 OA
BRANCH   6   7
HETATM    7  C7  UNL     1     -34.937  14.592  -6.672  1.00 20.00     0.124 C 
HETATM    8  C5  UNL     1     -35.792  14.394  -7.914  1.00 20.00     0.040 C 
HETATM    9  C6  UNL     1     -34.129  15.879  -6.739  1.00 20.00     0.040 C 
ENDBRANCH   6   7
ENDBRANCH   1   6
TORSDOF 3
ENDMDL
MODEL 4
REMARK VINA RESULT:      -3.9     11.379     12.341
REMARK  3 active torsions:
REMARK  status: ('A' for Active; 'I' for Inactive)
REMARK    1  A    between atoms: C1_1  and  C3_3 
REMARK    2  A    between atoms: C3_3  and  O9_9 
REMARK    3  A    between atoms: C7_7  and  O9_9 
ROOT
HETATM    1  C3  UNL     1     -33.294  16.051  -4.108  1.00 20.00     0.282 C 
HETATM    2  O8  UNL     1     -32.917  16.561  -5.152  1.00 20.00    -0.260 OA
ENDROOT
BRANCH   1   3
HETATM    3  C1  UNL     1     -32.793  14.777  -3.546  1.00 20.00     0.077 C 
HETATM    4  C2  UNL     1     -33.426  13.630  -3.824  1.00 20.00    -0.025 C 
HETATM    5  C4  UNL     1     -34.640  13.550  -4.691  1.00 20.00     0.036 C 
ENDBRANCH   1   3
BRANCH   1   6
HETATM    6  O9  UNL     1     -34.237  16.534  -3.256  1.00 20.00    -0.314 OA
BRANCH   6   7
HETATM    7  C7  UNL     1     -33.743  17.016  -2.001  1.00 20.00     0.124 C 
HETATM    8  C5  UNL     1     -33.606  18.529  -2.066  1.00 20.00     0.040 C 
HETATM    9  C6  UNL     1     -34.687  16.579  -0.891  1.00 20.00     0.040 C 
ENDBRANCH   6   7
ENDBRANCH   1   6
TORSDOF 3
ENDMDL
MODEL 5
REMARK VINA RESULT:      -3.8     11.144     12.008
REMARK  3 active torsions:
REMARK  status: ('A' for Active; 'I' for Inactive)
REMARK    1  A    between atoms: C1_1  and  C3_3 
REMARK    2  A    between atoms: C3_3  and  O9_9 
REMARK    3  A    between atoms: C7_7  and  O9_9 
ROOT
HETATM    1  C3  UNL     1     -33.994  14.117  -3.690  1.00 20.00     0.282 C 
HETATM    2  O8  UNL     1     -32.794  13.903  -3.615  1.00 20.00    -0.260 OA
ENDROOT
BRANCH   1   3
HETATM    3  C1  UNL     1     -34.932  13.428  -4.604  1.00 20.00     0.077 C 
HETATM    4  C2  UNL     1     -35.104  13.882  -5.852  1.00 20.00    -0.025 C 
HETATM    5  C4  UNL     1     -34.388  15.074  -6.399  1.00 20.00     0.036 C 
ENDBRANCH   1   3
BRANCH   1   6
HETATM    6  O9  UNL     1     -34.712  15.017  -2.967  1.00 20.00    -0.314 OA
BRANCH   6   7
HETATM    7  C7  UNL     1     -33.959  16.104  -2.418  1.00 20.00     0.124 C 
HETATM    8  C5  UNL     1     -33.921  17.244  -3.424  1.00 20.00     0.040 C 
HETATM    9  C6  UNL     1     -34.586  16.532  -1.099  1.00 20.00     0.040 C 
ENDBRANCH   6   7
ENDBRANCH   1   6
TORSDOF 3
ENDMDL
MODEL 6
REMARK VINA RESULT:      -3.8      1.563      2.255
REMARK  3 active torsions:
REMARK  status: ('A' for Active; 'I' for Inactive)
REMARK    1  A    between atoms: C1_1  and  C3_3 
REMARK    2  A    between atoms: C3_3  and  O9_9 
REMARK    3  A    between atoms: C7_7  and  O9_9 
ROOT
HETATM    1  C3  UNL     1     -32.104   7.502   3.217  1.00 20.00     0.282 C 
HETATM    2  O8  UNL     1     -31.224   7.661   4.049  1.00 20.00    -0.260 OA
ENDROOT
BRANCH   1   3
HETATM    3  C1  UNL     1     -31.925   7.596   1.752  1.00 20.00     0.077 C 
HETATM    4  C2  UNL     1     -32.141   8.760   1.126  1.00 20.00    -0.025 C 
HETATM    5  C4  UNL     1     -32.563  10.007   1.831  1.00 20.00     0.036 C 
ENDBRANCH   1   3
BRANCH   1   6
HETATM    6  O9  UNL     1     -33.411   7.213   3.454  1.00 20.00    -0.314 OA
BRANCH   6   7
HETATM    7  C7  UNL     1     -33.651   6.011   4.195  1.00 20.00     0.124 C 
HETATM    8  C5  UNL     1     -33.925   6.365   5.648  1.00 20.00     0.040 C 
HETATM    9  C6  UNL     1     -34.813   5.258   3.565  1.00 20.00     0.040 C 
ENDBRANCH   6   7
ENDBRANCH   1   6
TORSDOF 3
ENDMDL
MODEL 7
REMARK VINA RESULT:      -3.7     11.368     12.160
REMARK  3 active torsions:
REMARK  status: ('A' for Active; 'I' for Inactive)
REMARK    1  A    between atoms: C1_1  and  C3_3 
REMARK    2  A    between atoms: C3_3  and  O9_9 
REMARK    3  A    between atoms: C7_7  and  O9_9 
ROOT
HETATM    1  C3  UNL     1     -35.218  13.658  -4.400  1.00 20.00     0.282 C 
HETATM    2  O8  UNL     1     -34.807  12.593  -4.835  1.00 20.00    -0.260 OA
ENDROOT
BRANCH   1   3
HETATM    3  C1  UNL     1     -36.166  14.558  -5.092  1.00 20.00     0.077 C 
HETATM    4  C2  UNL     1     -35.834  15.101  -6.270  1.00 20.00    -0.025 C 
HETATM    5  C4  UNL     1     -34.528  14.851  -6.951  1.00 20.00     0.036 C 
ENDBRANCH   1   3
BRANCH   1   6
HETATM    6  O9  UNL     1     -34.896  14.236  -3.212  1.00 20.00    -0.314 OA
BRANCH   6   7
HETATM    7  C7  UNL     1     -34.157  15.459  -3.302  1.00 20.00     0.124 C 
HETATM    8  C5  UNL     1     -34.292  16.222  -1.994  1.00 20.00     0.040 C 
HETATM    9  C6  UNL     1     -32.705  15.143  -3.628  1.00 20.00     0.040 C 
ENDBRANCH   6   7
ENDBRANCH   1   6
TORSDOF 3
ENDMDL
MODEL 8
REMARK VINA RESULT:      -3.7      1.444      4.022
REMARK  3 active torsions:
REMARK  status: ('A' for Active; 'I' for Inactive)
REMARK    1  A    between atoms: C1_1  and  C3_3 
REMARK    2  A    between atoms: C3_3  and  O9_9 
REMARK    3  A    between atoms: C7_7  and  O9_9 
ROOT
HETATM    1  C3  UNL     1     -33.772   6.553   5.238  1.00 20.00     0.282 C 
HETATM    2  O8  UNL     1     -33.947   6.825   6.416  1.00 20.00    -0.260 OA
ENDROOT
BRANCH   1   3
HETATM    3  C1  UNL     1     -34.783   5.958   4.336  1.00 20.00     0.077 C 
HETATM    4  C2  UNL     1     -35.276   4.741   4.596  1.00 20.00    -0.025 C 
HETATM    5  C4  UNL     1     -34.860   3.919   5.773  1.00 20.00     0.036 C 
ENDBRANCH   1   3
BRANCH   1   6
HETATM    6  O9  UNL     1     -32.634   6.734   4.517  1.00 20.00    -0.314 OA
BRANCH   6   7
HETATM    7  C7  UNL     1     -32.797   6.715   3.094  1.00 20.00     0.124 C 
HETATM    8  C5  UNL     1     -32.155   7.958   2.500  1.00 20.00     0.040 C 
HETATM    9  C6  UNL     1     -32.184   5.438   2.538  1.00 20.00     0.040 C 
ENDBRANCH   6   7
ENDBRANCH   1   6
TORSDOF 3
ENDMDL
MODEL 9
REMARK VINA RESULT:      -3.6      0.983      3.962
REMARK  3 active torsions:
REMARK  status: ('A' for Active; 'I' for Inactive)
REMARK    1  A    between atoms: C1_1  and  C3_3 
REMARK    2  A    between atoms: C3_3  and  O9_9 
REMARK    3  A    between atoms: C7_7  and  O9_9 
ROOT
HETATM    1  C3  UNL     1     -33.983   6.191   3.968  1.00 20.00     0.282 C 
HETATM    2  O8  UNL     1     -34.329   5.211   3.326  1.00 20.00    -0.260 OA
ENDROOT
BRANCH   1   3
HETATM    3  C1  UNL     1     -34.020   6.307   5.442  1.00 20.00     0.077 C 
HETATM    4  C2  UNL     1     -34.501   5.299   6.180  1.00 20.00    -0.025 C 
HETATM    5  C4  UNL     1     -35.021   4.026   5.594  1.00 20.00     0.036 C 
ENDBRANCH   1   3
BRANCH   1   6
HETATM    6  O9  UNL     1     -33.502   7.363   3.475  1.00 20.00    -0.314 OA
BRANCH   6   7
HETATM    7  C7  UNL     1     -32.193   7.296   2.897  1.00 20.00     0.124 C 
HETATM    8  C5  UNL     1     -32.115   8.261   1.724  1.00 20.00     0.040 C 
HETATM    9  C6  UNL     1     -31.158   7.617   3.966  1.00 20.00     0.040 C 
ENDBRANCH   6   7
ENDBRANCH   1   6
TORSDOF 3
ENDMDL
