MODEL 1
REMARK VINA RESULT:      -4.2      0.000      0.000
REMARK  3 active torsions:
REMARK  status: ('A' for Active; 'I' for Inactive)
REMARK    1  A    between atoms: C3_3  and  C6_6 
REMARK    2  A    between atoms: C4_4  and  C7_7 
REMARK    3  A    between atoms: C5_5  and  C8_8 
ROOT
HETATM    1  C1  UNL     1     -35.720   5.045   4.461  1.00 20.00     0.012 C 
HETATM    2  C2  UNL     1     -34.579   5.885   6.335  1.00 20.00     0.012 C 
HETATM    3  C3  UNL     1     -34.724   6.145   4.834  1.00 20.00    -0.005 C 
HETATM    4  C4  UNL     1     -34.772   3.926   4.878  1.00 20.00     0.022 C 
HETATM    5  C5  UNL     1     -34.012   4.486   6.126  1.00 20.00     0.022 C 
ENDROOT
BRANCH   3   6
HETATM    6  C6  UNL     1     -33.385   5.596   4.266  1.00 20.00     0.048 C 
HETATM    7  C7  UNL     1     -32.470   6.830   4.022  1.00 20.00     0.133 C 
HETATM    8  O9  UNL     1     -32.088   6.270   2.725  1.00 20.00    -0.379 OA
HETATM    9  C8  UNL     1     -33.458   5.760   2.721  1.00 20.00     0.133 C 
ENDBRANCH   3   6
TORSDOF 3
ENDMDL
MODEL 2
REMARK VINA RESULT:      -4.1     11.687     13.013
REMARK  3 active torsions:
REMARK  status: ('A' for Active; 'I' for Inactive)
REMARK    1  A    between atoms: C3_3  and  C6_6 
REMARK    2  A    between atoms: C4_4  and  C7_7 
REMARK    3  A    between atoms: C5_5  and  C8_8 
ROOT
HETATM    1  C1  UNL     1     -33.696  16.362  -2.480  1.00 20.00     0.012 C 
HETATM    2  C2  UNL     1     -35.964  16.470  -3.087  1.00 20.00     0.012 C 
HETATM    3  C3  UNL     1     -34.895  15.440  -2.712  1.00 20.00    -0.005 C 
HETATM    4  C4  UNL     1     -33.693  16.864  -3.919  1.00 20.00     0.022 C 
HETATM    5  C5  UNL     1     -35.204  16.936  -4.324  1.00 20.00     0.022 C 
ENDROOT
BRANCH   3   6
HETATM    6  C6  UNL     1     -34.560  14.788  -4.084  1.00 20.00     0.048 C 
HETATM    7  C7  UNL     1     -35.546  13.599  -4.261  1.00 20.00     0.133 C 
HETATM    8  O9  UNL     1     -34.436  12.768  -4.729  1.00 20.00    -0.379 OA
HETATM    9  C8  UNL     1     -33.653  13.561  -3.781  1.00 20.00     0.133 C 
ENDBRANCH   3   6
TORSDOF 3
ENDMDL
MODEL 3
REMARK VINA RESULT:      -4.1     11.663     12.857
REMARK  3 active torsions:
REMARK  status: ('A' for Active; 'I' for Inactive)
REMARK    1  A    between atoms: C3_3  and  C6_6 
REMARK    2  A    between atoms: C4_4  and  C7_7 
REMARK    3  A    between atoms: C5_5  and  C8_8 
ROOT
HETATM    1  C1  UNL     1     -35.317  16.923  -4.189  1.00 20.00     0.012 C 
HETATM    2  C2  UNL     1     -33.602  16.433  -2.658  1.00 20.00     0.012 C 
HETATM    3  C3  UNL     1     -34.137  15.964  -4.013  1.00 20.00    -0.005 C 
HETATM    4  C4  UNL     1     -36.035  16.405  -2.948  1.00 20.00     0.022 C 
HETATM    5  C5  UNL     1     -34.893  16.078  -1.929  1.00 20.00     0.022 C 
ENDROOT
BRANCH   3   6
HETATM    6  C6  UNL     1     -34.841  14.625  -3.652  1.00 20.00     0.048 C 
HETATM    7  C7  UNL     1     -33.774  13.506  -3.822  1.00 20.00     0.133 C 
HETATM    8  O9  UNL     1     -34.771  12.683  -4.509  1.00 20.00    -0.379 OA
HETATM    9  C8  UNL     1     -35.264  13.970  -4.998  1.00 20.00     0.133 C 
ENDBRANCH   3   6
TORSDOF 3
ENDMDL
MODEL 4
REMARK VINA RESULT:      -3.9     12.351     13.951
REMARK  3 active torsions:
REMARK  status: ('A' for Active; 'I' for Inactive)
REMARK    1  A    between atoms: C3_3  and  C6_6 
REMARK    2  A    between atoms: C4_4  and  C7_7 
REMARK    3  A    between atoms: C5_5  and  C8_8 
ROOT
HETATM    1  C1  UNL     1     -35.364  16.671  -5.700  1.00 20.00     0.012 C 
HETATM    2  C2  UNL     1     -35.901  14.770  -6.974  1.00 20.00     0.012 C 
HETATM    3  C3  UNL     1     -35.802  15.217  -5.513  1.00 20.00    -0.005 C 
HETATM    4  C4  UNL     1     -34.062  16.280  -6.391  1.00 20.00     0.022 C 
HETATM    5  C5  UNL     1     -34.420  15.014  -7.239  1.00 20.00     0.022 C 
ENDROOT
BRANCH   3   6
HETATM    6  C6  UNL     1     -34.491  14.527  -5.038  1.00 20.00     0.048 C 
HETATM    7  C7  UNL     1     -34.881  13.082  -4.614  1.00 20.00     0.133 C 
HETATM    8  O9  UNL     1     -34.052  13.227  -3.417  1.00 20.00    -0.379 OA
HETATM    9  C8  UNL     1     -34.477  14.625  -3.486  1.00 20.00     0.133 C 
ENDBRANCH   3   6
TORSDOF 3
ENDMDL
MODEL 5
REMARK VINA RESULT:      -3.9     12.270     13.471
REMARK  3 active torsions:
REMARK  status: ('A' for Active; 'I' for Inactive)
REMARK    1  A    between atoms: C3_3  and  C6_6 
REMARK    2  A    between atoms: C4_4  and  C7_7 
REMARK    3  A    between atoms: C5_5  and  C8_8 
ROOT
HETATM    1  C1  UNL     1     -34.903  13.248  -4.244  1.00 20.00     0.012 C 
HETATM    2  C2  UNL     1     -35.408  15.300  -3.216  1.00 20.00     0.012 C 
HETATM    3  C3  UNL     1     -35.489  14.620  -4.585  1.00 20.00    -0.005 C 
HETATM    4  C4  UNL     1     -33.552  13.829  -3.843  1.00 20.00     0.022 C 
HETATM    5  C5  UNL     1     -33.889  15.196  -3.159  1.00 20.00     0.022 C 
ENDROOT
BRANCH   3   6
HETATM    6  C6  UNL     1     -34.330  15.299  -5.368  1.00 20.00     0.048 C 
HETATM    7  C7  UNL     1     -34.904  16.621  -5.951  1.00 20.00     0.133 C 
HETATM    8  O9  UNL     1     -34.251  16.325  -7.225  1.00 20.00    -0.379 OA
HETATM    9  C8  UNL     1     -34.534  14.936  -6.866  1.00 20.00     0.133 C 
ENDBRANCH   3   6
TORSDOF 3
ENDMDL
MODEL 6
REMARK VINA RESULT:      -3.8     12.341     13.561
REMARK  3 active torsions:
REMARK  status: ('A' for Active; 'I' for Inactive)
REMARK    1  A    between atoms: C3_3  and  C6_6 
REMARK    2  A    between atoms: C4_4  and  C7_7 
REMARK    3  A    between atoms: C5_5  and  C8_8 
ROOT
HETATM    1  C1  UNL     1     -34.194  15.045  -3.054  1.00 20.00     0.012 C 
HETATM    2  C2  UNL     1     -35.063  13.257  -4.308  1.00 20.00     0.012 C 
HETATM    3  C3  UNL     1     -34.051  14.399  -4.434  1.00 20.00    -0.005 C 
HETATM    4  C4  UNL     1     -35.660  15.397  -3.275  1.00 20.00     0.022 C 
HETATM    5  C5  UNL     1     -36.239  14.206  -4.111  1.00 20.00     0.022 C 
ENDROOT
BRANCH   3   6
HETATM    6  C6  UNL     1     -34.793  15.407  -5.358  1.00 20.00     0.048 C 
HETATM    7  C7  UNL     1     -34.463  14.992  -6.820  1.00 20.00     0.133 C 
HETATM    8  O9  UNL     1     -34.236  16.399  -7.151  1.00 20.00    -0.379 OA
HETATM    9  C8  UNL     1     -33.746  16.479  -5.775  1.00 20.00     0.133 C 
ENDBRANCH   3   6
TORSDOF 3
ENDMDL
MODEL 7
REMARK VINA RESULT:      -3.8      9.432     10.641
REMARK  3 active torsions:
REMARK  status: ('A' for Active; 'I' for Inactive)
REMARK    1  A    between atoms: C3_3  and  C6_6 
REMARK    2  A    between atoms: C4_4  and  C7_7 
REMARK    3  A    between atoms: C5_5  and  C8_8 
ROOT
HETATM    1  C1  UNL     1     -41.918   7.669  -1.059  1.00 20.00     0.012 C 
HETATM    2  C2  UNL     1     -40.982   5.723  -0.132  1.00 20.00     0.012 C 
HETATM    3  C3  UNL     1     -41.373   6.307  -1.492  1.00 20.00    -0.005 C 
HETATM    4  C4  UNL     1     -43.037   7.054  -0.227  1.00 20.00     0.022 C 
HETATM    5  C5  UNL     1     -42.414   5.757   0.390  1.00 20.00     0.022 C 
ENDROOT
BRANCH   3   6
HETATM    6  C6  UNL     1     -42.668   5.518  -1.838  1.00 20.00     0.048 C 
HETATM    7  C7  UNL     1     -42.222   4.267  -2.646  1.00 20.00     0.133 C 
HETATM    8  O9  UNL     1     -43.316   4.505  -3.588  1.00 20.00    -0.379 OA
HETATM    9  C8  UNL     1     -43.053   5.913  -3.293  1.00 20.00     0.133 C 
ENDBRANCH   3   6
TORSDOF 3
ENDMDL
MODEL 8
REMARK VINA RESULT:      -3.8     12.270     13.230
REMARK  3 active torsions:
REMARK  status: ('A' for Active; 'I' for Inactive)
REMARK    1  A    between atoms: C3_3  and  C6_6 
REMARK    2  A    between atoms: C4_4  and  C7_7 
REMARK    3  A    between atoms: C5_5  and  C8_8 
ROOT
HETATM    1  C1  UNL     1     -32.787  15.093  -3.661  1.00 20.00     0.012 C 
HETATM    2  C2  UNL     1     -34.007  16.732  -2.499  1.00 20.00     0.012 C 
HETATM    3  C3  UNL     1     -34.089  15.249  -2.872  1.00 20.00    -0.005 C 
HETATM    4  C4  UNL     1     -33.212  16.096  -4.728  1.00 20.00     0.022 C 
HETATM    5  C5  UNL     1     -34.025  17.187  -3.953  1.00 20.00     0.022 C 
ENDROOT
BRANCH   3   6
HETATM    6  C6  UNL     1     -35.167  15.243  -3.993  1.00 20.00     0.048 C 
HETATM    7  C7  UNL     1     -36.547  15.170  -3.279  1.00 20.00     0.133 C 
HETATM    8  O9  UNL     1     -36.977  14.161  -4.247  1.00 20.00    -0.379 OA
HETATM    9  C8  UNL     1     -35.571  13.757  -4.211  1.00 20.00     0.133 C 
ENDBRANCH   3   6
TORSDOF 3
ENDMDL
MODEL 9
REMARK VINA RESULT:      -3.8     12.400     13.488
REMARK  3 active torsions:
REMARK  status: ('A' for Active; 'I' for Inactive)
REMARK    1  A    between atoms: C3_3  and  C6_6 
REMARK    2  A    between atoms: C4_4  and  C7_7 
REMARK    3  A    between atoms: C5_5  and  C8_8 
ROOT
HETATM    1  C1  UNL     1     -35.999  14.020  -4.146  1.00 20.00     0.012 C 
HETATM    2  C2  UNL     1     -34.176  15.056  -3.084  1.00 20.00     0.012 C 
HETATM    3  C3  UNL     1     -35.226  15.341  -4.161  1.00 20.00    -0.005 C 
HETATM    4  C4  UNL     1     -34.783  13.204  -4.569  1.00 20.00     0.022 C 
HETATM    5  C5  UNL     1     -33.568  13.895  -3.862  1.00 20.00     0.022 C 
ENDROOT
BRANCH   3   6
HETATM    6  C6  UNL     1     -34.400  15.235  -5.474  1.00 20.00     0.048 C 
HETATM    7  C7  UNL     1     -33.834  16.656  -5.755  1.00 20.00     0.133 C 
HETATM    8  O9  UNL     1     -34.207  16.508  -7.162  1.00 20.00    -0.379 OA
HETATM    9  C8  UNL     1     -35.324  15.736  -6.620  1.00 20.00     0.133 C 
ENDBRANCH   3   6
TORSDOF 3
ENDMDL
