MODEL 1
REMARK VINA RESULT:      -4.1      0.000      0.000
REMARK  3 active torsions:
REMARK  status: ('A' for Active; 'I' for Inactive)
REMARK    1  A    between atoms: C3_3  and  C7_7 
REMARK    2  A    between atoms: C4_4  and  C5_5 
REMARK    3  A    between atoms: C7_7  and  O9_9 
ROOT
HETATM    1  C1  UNL     1     -34.396  15.152  -3.069  1.00 20.00     0.031 A 
HETATM    2  C2  UNL     1     -33.591  17.138  -3.971  1.00 20.00     0.060 A 
HETATM    3  C3  UNL     1     -33.899  16.463  -2.810  1.00 20.00    -0.027 A 
HETATM    4  C4  UNL     1     -34.450  14.877  -4.418  1.00 20.00     0.043 A 
HETATM    5  S10 UNL     1     -33.901  16.194  -5.365  1.00 20.00    -0.098 SA
ENDROOT
BRANCH   3   6
HETATM    6  C7  UNL     1     -33.733  17.030  -1.452  1.00 20.00     0.206 C 
BRANCH   6   7
HETATM    7  O9  UNL     1     -34.731  16.501  -0.583  1.00 20.00    -0.391 OA
HETATM    8  C6  UNL     1     -35.059  17.419   0.450  1.00 20.00     0.201 C 
ENDBRANCH   6   7
ENDBRANCH   3   6
BRANCH   4   9
HETATM    9  C5  UNL     1     -34.884  13.685  -5.071  1.00 20.00     0.277 C 
HETATM   10  O8  UNL     1     -34.922  12.561  -4.527  1.00 20.00    -0.301 OA
ENDBRANCH   4   9
TORSDOF 3
ENDMDL
MODEL 2
REMARK VINA RESULT:      -3.7      1.883      2.226
REMARK  3 active torsions:
REMARK  status: ('A' for Active; 'I' for Inactive)
REMARK    1  A    between atoms: C3_3  and  C7_7 
REMARK    2  A    between atoms: C4_4  and  C5_5 
REMARK    3  A    between atoms: C7_7  and  O9_9 
ROOT
HETATM    1  C1  UNL     1     -34.162  15.865  -4.912  1.00 20.00     0.031 A 
HETATM    2  C2  UNL     1     -34.344  14.083  -3.429  1.00 20.00     0.060 A 
HETATM    3  C3  UNL     1     -34.099  15.434  -3.555  1.00 20.00    -0.027 A 
HETATM    4  C4  UNL     1     -34.453  14.829  -5.771  1.00 20.00     0.043 A 
HETATM    5  S10 UNL     1     -34.649  13.343  -4.943  1.00 20.00    -0.098 SA
ENDROOT
BRANCH   3   6
HETATM    6  C7  UNL     1     -33.803  16.332  -2.415  1.00 20.00     0.206 C 
BRANCH   6   7
HETATM    7  O9  UNL     1     -34.770  16.139  -1.386  1.00 20.00    -0.391 OA
HETATM    8  C6  UNL     1     -34.586  17.062  -0.322  1.00 20.00     0.201 C 
ENDBRANCH   6   7
ENDBRANCH   3   6
BRANCH   4   9
HETATM    9  C5  UNL     1     -34.602  14.858  -7.190  1.00 20.00     0.277 C 
HETATM   10  O8  UNL     1     -35.486  14.236  -7.816  1.00 20.00    -0.301 OA
ENDBRANCH   4   9
TORSDOF 3
ENDMDL
MODEL 3
REMARK VINA RESULT:      -3.6      1.480      4.271
REMARK  3 active torsions:
REMARK  status: ('A' for Active; 'I' for Inactive)
REMARK    1  A    between atoms: C3_3  and  C7_7 
REMARK    2  A    between atoms: C4_4  and  C5_5 
REMARK    3  A    between atoms: C7_7  and  O9_9 
ROOT
HETATM    1  C1  UNL     1     -34.365  15.922  -1.972  1.00 20.00     0.031 A 
HETATM    2  C2  UNL     1     -33.610  16.932  -3.926  1.00 20.00     0.060 A 
HETATM    3  C3  UNL     1     -33.712  15.748  -3.228  1.00 20.00    -0.027 A 
HETATM    4  C4  UNL     1     -34.736  17.231  -1.759  1.00 20.00     0.043 A 
HETATM    5  S10 UNL     1     -34.299  18.244  -3.069  1.00 20.00    -0.098 SA
ENDROOT
BRANCH   3   6
HETATM    6  C7  UNL     1     -33.204  14.448  -3.722  1.00 20.00     0.206 C 
BRANCH   6   7
HETATM    7  O9  UNL     1     -34.144  13.419  -3.425  1.00 20.00    -0.391 OA
HETATM    8  C6  UNL     1     -35.098  13.272  -4.467  1.00 20.00     0.201 C 
ENDBRANCH   6   7
ENDBRANCH   3   6
BRANCH   4   9
HETATM    9  C5  UNL     1     -35.406  17.799  -0.635  1.00 20.00     0.277 C 
HETATM   10  O8  UNL     1     -35.261  17.404   0.541  1.00 20.00    -0.301 OA
ENDBRANCH   4   9
TORSDOF 3
ENDMDL
MODEL 4
REMARK VINA RESULT:      -3.6     11.535     12.176
REMARK  3 active torsions:
REMARK  status: ('A' for Active; 'I' for Inactive)
REMARK    1  A    between atoms: C3_3  and  C7_7 
REMARK    2  A    between atoms: C4_4  and  C5_5 
REMARK    3  A    between atoms: C7_7  and  O9_9 
ROOT
HETATM    1  C1  UNL     1     -33.116   6.566   4.799  1.00 20.00     0.031 A 
HETATM    2  C2  UNL     1     -33.818   5.952   2.669  1.00 20.00     0.060 A 
HETATM    3  C3  UNL     1     -32.902   6.682   3.394  1.00 20.00    -0.027 A 
HETATM    4  C4  UNL     1     -34.187   5.752   5.093  1.00 20.00     0.043 A 
HETATM    5  S10 UNL     1     -34.929   5.131   3.681  1.00 20.00    -0.098 SA
ENDROOT
BRANCH   3   6
HETATM    6  C7  UNL     1     -31.821   7.493   2.788  1.00 20.00     0.206 C 
BRANCH   6   7
HETATM    7  O9  UNL     1     -32.370   8.676   2.214  1.00 20.00    -0.391 OA
HETATM    8  C6  UNL     1     -31.937   8.851   0.873  1.00 20.00     0.201 C 
ENDBRANCH   6   7
ENDBRANCH   3   6
BRANCH   4   9
HETATM    9  C5  UNL     1     -34.712   5.391   6.369  1.00 20.00     0.277 C 
HETATM   10  O8  UNL     1     -35.342   4.336   6.596  1.00 20.00    -0.301 OA
ENDBRANCH   4   9
TORSDOF 3
ENDMDL
MODEL 5
REMARK VINA RESULT:      -3.6      2.588      4.198
REMARK  3 active torsions:
REMARK  status: ('A' for Active; 'I' for Inactive)
REMARK    1  A    between atoms: C3_3  and  C7_7 
REMARK    2  A    between atoms: C4_4  and  C5_5 
REMARK    3  A    between atoms: C7_7  and  O9_9 
ROOT
HETATM    1  C1  UNL     1     -33.263  16.438  -4.806  1.00 20.00     0.031 A 
HETATM    2  C2  UNL     1     -33.788  16.236  -2.550  1.00 20.00     0.060 A 
HETATM    3  C3  UNL     1     -33.366  15.570  -3.680  1.00 20.00    -0.027 A 
HETATM    4  C4  UNL     1     -33.611  17.733  -4.493  1.00 20.00     0.043 A 
HETATM    5  S10 UNL     1     -34.058  17.900  -2.849  1.00 20.00    -0.098 SA
ENDROOT
BRANCH   3   6
HETATM    6  C7  UNL     1     -33.055  14.122  -3.722  1.00 20.00     0.206 C 
BRANCH   6   7
HETATM    7  O9  UNL     1     -34.207  13.370  -3.350  1.00 20.00    -0.391 OA
HETATM    8  C6  UNL     1     -35.110  13.235  -4.437  1.00 20.00     0.201 C 
ENDBRANCH   6   7
ENDBRANCH   3   6
BRANCH   4   9
HETATM    9  C5  UNL     1     -33.637  18.882  -5.339  1.00 20.00     0.277 C 
HETATM   10  O8  UNL     1     -33.524  18.840  -6.583  1.00 20.00    -0.301 OA
ENDBRANCH   4   9
TORSDOF 3
ENDMDL
MODEL 6
REMARK VINA RESULT:      -3.5      2.182      4.285
REMARK  3 active torsions:
REMARK  status: ('A' for Active; 'I' for Inactive)
REMARK    1  A    between atoms: C3_3  and  C7_7 
REMARK    2  A    between atoms: C4_4  and  C5_5 
REMARK    3  A    between atoms: C7_7  and  O9_9 
ROOT
HETATM    1  C1  UNL     1     -35.700  15.787  -2.766  1.00 20.00     0.031 A 
HETATM    2  C2  UNL     1     -34.403  14.835  -4.445  1.00 20.00     0.060 A 
HETATM    3  C3  UNL     1     -35.683  15.022  -3.969  1.00 20.00    -0.027 A 
HETATM    4  C4  UNL     1     -34.433  16.154  -2.369  1.00 20.00     0.043 A 
HETATM    5  S10 UNL     1     -33.231  15.580  -3.445  1.00 20.00    -0.098 SA
ENDROOT
BRANCH   3   6
HETATM    6  C7  UNL     1     -36.898  14.491  -4.627  1.00 20.00     0.206 C 
BRANCH   6   7
HETATM    7  O9  UNL     1     -37.912  14.258  -3.653  1.00 20.00    -0.391 OA
HETATM    8  C6  UNL     1     -39.139  14.869  -4.025  1.00 20.00     0.201 C 
ENDBRANCH   6   7
ENDBRANCH   3   6
BRANCH   4   9
HETATM    9  C5  UNL     1     -34.039  16.917  -1.230  1.00 20.00     0.277 C 
HETATM   10  O8  UNL     1     -34.613  16.871  -0.122  1.00 20.00    -0.301 OA
ENDBRANCH   4   9
TORSDOF 3
ENDMDL
MODEL 7
REMARK VINA RESULT:      -3.4      2.248      5.065
REMARK  3 active torsions:
REMARK  status: ('A' for Active; 'I' for Inactive)
REMARK    1  A    between atoms: C3_3  and  C7_7 
REMARK    2  A    between atoms: C4_4  and  C5_5 
REMARK    3  A    between atoms: C7_7  and  O9_9 
ROOT
HETATM    1  C1  UNL     1     -34.245  15.936  -5.068  1.00 20.00     0.031 A 
HETATM    2  C2  UNL     1     -34.586  13.648  -5.302  1.00 20.00     0.060 A 
HETATM    3  C3  UNL     1     -34.486  14.854  -5.963  1.00 20.00    -0.027 A 
HETATM    4  C4  UNL     1     -34.170  15.517  -3.758  1.00 20.00     0.043 A 
HETATM    5  S10 UNL     1     -34.389  13.826  -3.611  1.00 20.00    -0.098 SA
ENDROOT
BRANCH   3   6
HETATM    6  C7  UNL     1     -34.614  15.008  -7.430  1.00 20.00     0.206 C 
BRANCH   6   7
HETATM    7  O9  UNL     1     -35.721  14.242  -7.901  1.00 20.00    -0.391 OA
HETATM    8  C6  UNL     1     -36.929  14.987  -7.841  1.00 20.00     0.201 C 
ENDBRANCH   6   7
ENDBRANCH   3   6
BRANCH   4   9
HETATM    9  C5  UNL     1     -33.942  16.293  -2.582  1.00 20.00     0.277 C 
HETATM   10  O8  UNL     1     -34.541  16.120  -1.500  1.00 20.00    -0.301 OA
ENDBRANCH   4   9
TORSDOF 3
ENDMDL
MODEL 8
REMARK VINA RESULT:      -3.4      1.632      1.702
REMARK  3 active torsions:
REMARK  status: ('A' for Active; 'I' for Inactive)
REMARK    1  A    between atoms: C3_3  and  C7_7 
REMARK    2  A    between atoms: C4_4  and  C5_5 
REMARK    3  A    between atoms: C7_7  and  O9_9 
ROOT
HETATM    1  C1  UNL     1     -35.652  15.509  -2.788  1.00 20.00     0.031 A 
HETATM    2  C2  UNL     1     -33.510  16.391  -2.596  1.00 20.00     0.060 A 
HETATM    3  C3  UNL     1     -34.824  16.506  -2.196  1.00 20.00    -0.027 A 
HETATM    4  C4  UNL     1     -34.940  14.671  -3.618  1.00 20.00     0.043 A 
HETATM    5  S10 UNL     1     -33.280  15.086  -3.679  1.00 20.00    -0.098 SA
ENDROOT
BRANCH   3   6
HETATM    6  C7  UNL     1     -35.318  17.543  -1.261  1.00 20.00     0.206 C 
BRANCH   6   7
HETATM    7  O9  UNL     1     -36.660  17.890  -1.593  1.00 20.00    -0.391 OA
HETATM    8  C6  UNL     1     -37.205  18.807  -0.655  1.00 20.00     0.201 C 
ENDBRANCH   6   7
ENDBRANCH   3   6
BRANCH   4   9
HETATM    9  C5  UNL     1     -35.407  13.561  -4.383  1.00 20.00     0.277 C 
HETATM   10  O8  UNL     1     -34.682  12.620  -4.769  1.00 20.00    -0.301 OA
ENDBRANCH   4   9
TORSDOF 3
ENDMDL
MODEL 9
REMARK VINA RESULT:      -3.4      2.383      4.976
REMARK  3 active torsions:
REMARK  status: ('A' for Active; 'I' for Inactive)
REMARK    1  A    between atoms: C3_3  and  C7_7 
REMARK    2  A    between atoms: C4_4  and  C5_5 
REMARK    3  A    between atoms: C7_7  and  O9_9 
ROOT
HETATM    1  C1  UNL     1     -34.599  16.575  -0.799  1.00 20.00     0.031 A 
HETATM    2  C2  UNL     1     -33.685  18.289  -2.077  1.00 20.00     0.060 A 
HETATM    3  C3  UNL     1     -33.944  16.937  -2.012  1.00 20.00    -0.027 A 
HETATM    4  C4  UNL     1     -34.815  17.664   0.016  1.00 20.00     0.043 A 
HETATM    5  S10 UNL     1     -34.231  19.115  -0.680  1.00 20.00    -0.098 SA
ENDROOT
BRANCH   3   6
HETATM    6  C7  UNL     1     -33.585  15.972  -3.077  1.00 20.00     0.206 C 
BRANCH   6   7
HETATM    7  O9  UNL     1     -34.660  15.060  -3.284  1.00 20.00    -0.391 OA
HETATM    8  C6  UNL     1     -34.185  13.773  -3.649  1.00 20.00     0.201 C 
ENDBRANCH   6   7
ENDBRANCH   3   6
BRANCH   4   9
HETATM    9  C5  UNL     1     -35.437  17.710   1.300  1.00 20.00     0.277 C 
HETATM   10  O8  UNL     1     -34.814  17.822   2.377  1.00 20.00    -0.301 OA
ENDBRANCH   4   9
TORSDOF 3
ENDMDL
