MODEL 1
REMARK VINA RESULT:      -5.0      0.000      0.000
REMARK  3 active torsions:
REMARK  status: ('A' for Active; 'I' for Inactive)
REMARK    1  A    between atoms: C3_3  and  C5_5 
REMARK    2  A    between atoms: C4_4  and  C6_6 
REMARK    3  A    between atoms: C5_5  and  C6_6 
ROOT
HETATM    1  C1  UNL     1     -34.277   6.004   6.419  1.00 20.00     0.087 C 
HETATM    2  C3  UNL     1     -34.898   4.772   6.076  1.00 20.00     0.093 C 
HETATM    3  N7  UNL     1     -33.770   7.008   6.703  1.00 20.00    -0.192 NA
ENDROOT
BRANCH   2   4
HETATM    4  C5  UNL     1     -35.168   4.455   4.802  1.00 20.00     0.011 C 
BRANCH   4   5
HETATM    5  C6  UNL     1     -35.065   5.405   3.716  1.00 20.00     0.011 C 
BRANCH   5   6
HETATM    6  C4  UNL     1     -34.008   5.459   2.892  1.00 20.00     0.093 C 
HETATM    7  C2  UNL     1     -32.905   6.314   3.155  1.00 20.00     0.087 C 
HETATM    8  N8  UNL     1     -32.001   7.012   3.367  1.00 20.00    -0.192 NA
ENDBRANCH   5   6
ENDBRANCH   4   5
ENDBRANCH   2   4
TORSDOF 3
ENDMDL
MODEL 2
REMARK VINA RESULT:      -5.0      0.012      3.182
REMARK  3 active torsions:
REMARK  status: ('A' for Active; 'I' for Inactive)
REMARK    1  A    between atoms: C3_3  and  C5_5 
REMARK    2  A    between atoms: C4_4  and  C6_6 
REMARK    3  A    between atoms: C5_5  and  C6_6 
ROOT
HETATM    1  C1  UNL     1     -32.913   6.310   3.150  1.00 20.00     0.087 C 
HETATM    2  C3  UNL     1     -34.021   5.458   2.892  1.00 20.00     0.093 C 
HETATM    3  N7  UNL     1     -32.006   7.003   3.357  1.00 20.00    -0.192 NA
ENDROOT
BRANCH   2   4
HETATM    4  C5  UNL     1     -35.072   5.406   3.721  1.00 20.00     0.011 C 
BRANCH   4   5
HETATM    5  C6  UNL     1     -35.175   4.452   4.804  1.00 20.00     0.011 C 
BRANCH   5   6
HETATM    6  C4  UNL     1     -34.903   4.763   6.079  1.00 20.00     0.093 C 
HETATM    7  C2  UNL     1     -34.283   5.993   6.427  1.00 20.00     0.087 C 
HETATM    8  N8  UNL     1     -33.777   6.997   6.715  1.00 20.00    -0.192 NA
ENDBRANCH   5   6
ENDBRANCH   4   5
ENDBRANCH   2   4
TORSDOF 3
ENDMDL
MODEL 3
REMARK VINA RESULT:      -4.5      1.748      4.072
REMARK  3 active torsions:
REMARK  status: ('A' for Active; 'I' for Inactive)
REMARK    1  A    between atoms: C3_3  and  C5_5 
REMARK    2  A    between atoms: C4_4  and  C6_6 
REMARK    3  A    between atoms: C5_5  and  C6_6 
ROOT
HETATM    1  C1  UNL     1     -32.057   8.058   2.199  1.00 20.00     0.087 C 
HETATM    2  C3  UNL     1     -31.905   7.053   3.192  1.00 20.00     0.093 C 
HETATM    3  N7  UNL     1     -32.175   8.880   1.388  1.00 20.00    -0.192 NA
ENDROOT
BRANCH   2   4
HETATM    4  C5  UNL     1     -32.964   6.530   3.825  1.00 20.00     0.011 C 
BRANCH   4   5
HETATM    5  C6  UNL     1     -33.990   5.767   3.147  1.00 20.00     0.011 C 
BRANCH   5   6
HETATM    6  C4  UNL     1     -35.110   5.349   3.754  1.00 20.00     0.093 C 
HETATM    7  C2  UNL     1     -35.072   4.711   5.022  1.00 20.00     0.087 C 
HETATM    8  N8  UNL     1     -35.046   4.190   6.059  1.00 20.00    -0.192 NA
ENDBRANCH   5   6
ENDBRANCH   4   5
ENDBRANCH   2   4
TORSDOF 3
ENDMDL
MODEL 4
REMARK VINA RESULT:      -4.5      1.749      2.519
REMARK  3 active torsions:
REMARK  status: ('A' for Active; 'I' for Inactive)
REMARK    1  A    between atoms: C3_3  and  C5_5 
REMARK    2  A    between atoms: C4_4  and  C6_6 
REMARK    3  A    between atoms: C5_5  and  C6_6 
ROOT
HETATM    1  C1  UNL     1     -35.085   4.744   5.033  1.00 20.00     0.087 C 
HETATM    2  C3  UNL     1     -35.098   5.359   3.752  1.00 20.00     0.093 C 
HETATM    3  N7  UNL     1     -35.079   4.242   6.079  1.00 20.00    -0.192 NA
ENDROOT
BRANCH   2   4
HETATM    4  C5  UNL     1     -33.966   5.745   3.149  1.00 20.00     0.011 C 
BRANCH   4   5
HETATM    5  C6  UNL     1     -32.954   6.542   3.809  1.00 20.00     0.011 C 
BRANCH   5   6
HETATM    6  C4  UNL     1     -31.905   7.070   3.163  1.00 20.00     0.093 C 
HETATM    7  C2  UNL     1     -32.070   8.083   2.181  1.00 20.00     0.087 C 
HETATM    8  N8  UNL     1     -32.202   8.911   1.378  1.00 20.00    -0.192 NA
ENDBRANCH   5   6
ENDBRANCH   4   5
ENDBRANCH   2   4
TORSDOF 3
ENDMDL
MODEL 5
REMARK VINA RESULT:      -4.5      1.941      2.400
REMARK  3 active torsions:
REMARK  status: ('A' for Active; 'I' for Inactive)
REMARK    1  A    between atoms: C3_3  and  C5_5 
REMARK    2  A    between atoms: C4_4  and  C6_6 
REMARK    3  A    between atoms: C5_5  and  C6_6 
ROOT
HETATM    1  C1  UNL     1     -34.832   4.575   5.624  1.00 20.00     0.087 C 
HETATM    2  C3  UNL     1     -34.390   5.836   6.108  1.00 20.00     0.093 C 
HETATM    3  N7  UNL     1     -35.194   3.544   5.233  1.00 20.00    -0.192 NA
ENDROOT
BRANCH   2   4
HETATM    4  C5  UNL     1     -33.659   6.661   5.346  1.00 20.00     0.011 C 
BRANCH   4   5
HETATM    5  C6  UNL     1     -33.355   6.388   3.958  1.00 20.00     0.011 C 
BRANCH   5   6
HETATM    6  C4  UNL     1     -32.198   6.743   3.381  1.00 20.00     0.093 C 
HETATM    7  C2  UNL     1     -32.134   7.801   2.435  1.00 20.00     0.087 C 
HETATM    8  N8  UNL     1     -32.078   8.665   1.661  1.00 20.00    -0.192 NA
ENDBRANCH   5   6
ENDBRANCH   4   5
ENDBRANCH   2   4
TORSDOF 3
ENDMDL
MODEL 6
REMARK VINA RESULT:      -4.5      1.935      4.134
REMARK  3 active torsions:
REMARK  status: ('A' for Active; 'I' for Inactive)
REMARK    1  A    between atoms: C3_3  and  C5_5 
REMARK    2  A    between atoms: C4_4  and  C6_6 
REMARK    3  A    between atoms: C5_5  and  C6_6 
ROOT
HETATM    1  C1  UNL     1     -32.135   7.798   2.399  1.00 20.00     0.087 C 
HETATM    2  C3  UNL     1     -32.181   6.701   3.301  1.00 20.00     0.093 C 
HETATM    3  N7  UNL     1     -32.093   8.694   1.663  1.00 20.00    -0.192 NA
ENDROOT
BRANCH   2   4
HETATM    4  C5  UNL     1     -33.320   6.341   3.909  1.00 20.00     0.011 C 
BRANCH   4   5
HETATM    5  C6  UNL     1     -33.602   6.643   5.295  1.00 20.00     0.011 C 
BRANCH   5   6
HETATM    6  C4  UNL     1     -34.332   5.841   6.083  1.00 20.00     0.093 C 
HETATM    7  C2  UNL     1     -34.838   4.599   5.612  1.00 20.00     0.087 C 
HETATM    8  N8  UNL     1     -35.252   3.584   5.232  1.00 20.00    -0.192 NA
ENDBRANCH   5   6
ENDBRANCH   4   5
ENDBRANCH   2   4
TORSDOF 3
ENDMDL
MODEL 7
REMARK VINA RESULT:      -4.0     11.842     12.443
REMARK  3 active torsions:
REMARK  status: ('A' for Active; 'I' for Inactive)
REMARK    1  A    between atoms: C3_3  and  C5_5 
REMARK    2  A    between atoms: C4_4  and  C6_6 
REMARK    3  A    between atoms: C5_5  and  C6_6 
ROOT
HETATM    1  C1  UNL     1     -33.677  17.669  -0.793  1.00 20.00     0.087 C 
HETATM    2  C3  UNL     1     -34.620  16.612  -0.906  1.00 20.00     0.093 C 
HETATM    3  N7  UNL     1     -32.908  18.533  -0.697  1.00 20.00    -0.192 NA
ENDROOT
BRANCH   2   4
HETATM    4  C5  UNL     1     -34.729  15.888  -2.028  1.00 20.00     0.011 C 
BRANCH   4   5
HETATM    5  C6  UNL     1     -33.713  15.876  -3.059  1.00 20.00     0.011 C 
BRANCH   5   6
HETATM    6  C4  UNL     1     -33.272  14.750  -3.636  1.00 20.00     0.093 C 
HETATM    7  C2  UNL     1     -34.162  13.704  -4.000  1.00 20.00     0.087 C 
HETATM    8  N8  UNL     1     -34.887  12.848  -4.299  1.00 20.00    -0.192 NA
ENDBRANCH   5   6
ENDBRANCH   4   5
ENDBRANCH   2   4
TORSDOF 3
ENDMDL
MODEL 8
REMARK VINA RESULT:      -4.0     11.855     12.703
REMARK  3 active torsions:
REMARK  status: ('A' for Active; 'I' for Inactive)
REMARK    1  A    between atoms: C3_3  and  C5_5 
REMARK    2  A    between atoms: C4_4  and  C6_6 
REMARK    3  A    between atoms: C5_5  and  C6_6 
ROOT
HETATM    1  C1  UNL     1     -34.088  13.731  -4.010  1.00 20.00     0.087 C 
HETATM    2  C3  UNL     1     -33.202  14.791  -3.675  1.00 20.00     0.093 C 
HETATM    3  N7  UNL     1     -34.808  12.864  -4.286  1.00 20.00    -0.192 NA
ENDROOT
BRANCH   2   4
HETATM    4  C5  UNL     1     -33.633  15.887  -3.035  1.00 20.00     0.011 C 
BRANCH   4   5
HETATM    5  C6  UNL     1     -34.693  15.858  -2.051  1.00 20.00     0.011 C 
BRANCH   5   6
HETATM    6  C4  UNL     1     -34.670  16.596  -0.932  1.00 20.00     0.093 C 
HETATM    7  C2  UNL     1     -33.714  17.629  -0.743  1.00 20.00     0.087 C 
HETATM    8  N8  UNL     1     -32.935  18.475  -0.586  1.00 20.00    -0.192 NA
ENDBRANCH   5   6
ENDBRANCH   4   5
ENDBRANCH   2   4
TORSDOF 3
ENDMDL
MODEL 9
REMARK VINA RESULT:      -3.9     11.789     12.266
REMARK  3 active torsions:
REMARK  status: ('A' for Active; 'I' for Inactive)
REMARK    1  A    between atoms: C3_3  and  C5_5 
REMARK    2  A    between atoms: C4_4  and  C6_6 
REMARK    3  A    between atoms: C5_5  and  C6_6 
ROOT
HETATM    1  C1  UNL     1     -34.794  16.966  -0.316  1.00 20.00     0.087 C 
HETATM    2  C3  UNL     1     -34.635  16.242  -1.529  1.00 20.00     0.093 C 
HETATM    3  N7  UNL     1     -34.928  17.554   0.675  1.00 20.00    -0.192 NA
ENDROOT
BRANCH   2   4
HETATM    4  C5  UNL     1     -33.641  16.518  -2.384  1.00 20.00     0.011 C 
BRANCH   4   5
HETATM    5  C6  UNL     1     -33.451  15.805  -3.628  1.00 20.00     0.011 C 
BRANCH   5   6
HETATM    6  C4  UNL     1     -33.185  14.492  -3.684  1.00 20.00     0.093 C 
HETATM    7  C2  UNL     1     -34.165  13.554  -4.105  1.00 20.00     0.087 C 
HETATM    8  N8  UNL     1     -34.963  12.784  -4.449  1.00 20.00    -0.192 NA
ENDBRANCH   5   6
ENDBRANCH   4   5
ENDBRANCH   2   4
TORSDOF 3
ENDMDL
