MODEL 1
REMARK VINA RESULT:      -5.2      0.000      0.000
REMARK  3 active torsions:
REMARK  status: ('A' for Active; 'I' for Inactive)
REMARK    1  A    between atoms: C3_3  and  C8_8 
REMARK    2  A    between atoms: C7_7  and  C8_8 
REMARK    3  A    between atoms: N9_9  and  O10_10 
ROOT
HETATM    1  C1  UNL     1     -34.139   5.943   5.664  1.00 20.00     0.043 C 
HETATM    2  C4  UNL     1     -35.018   4.726   5.633  1.00 20.00     0.057 C 
HETATM    3  C5  UNL     1     -35.602   4.820   4.231  1.00 20.00     0.006 C 
HETATM    4  C6  UNL     1     -34.488   5.445   3.398  1.00 20.00     0.011 C 
HETATM    5  C7  UNL     1     -33.896   6.538   4.298  1.00 20.00     0.039 C 
HETATM    6  N9  UNL     1     -33.674   6.422   6.768  1.00 20.00    -0.145 NA
ENDROOT
BRANCH   5   7
HETATM    7  C8  UNL     1     -32.434   6.805   3.996  1.00 20.00     0.036 C 
BRANCH   7   8
HETATM    8  C3  UNL     1     -32.220   7.097   2.542  1.00 20.00    -0.036 C 
HETATM    9  C2  UNL     1     -32.098   8.329   2.036  1.00 20.00     0.007 C 
ENDBRANCH   7   8
ENDBRANCH   5   7
BRANCH   6  10
HETATM   10  O10 UNL     1     -32.900   7.544   6.468  1.00 20.00    -0.266 OA
HETATM   11  H23 UNL     1     -33.544   8.263   6.588  1.00 20.00     0.247 HD
ENDBRANCH   6  10
TORSDOF 3
ENDMDL
MODEL 2
REMARK VINA RESULT:      -4.8     11.732     12.992
REMARK  3 active torsions:
REMARK  status: ('A' for Active; 'I' for Inactive)
REMARK    1  A    between atoms: C3_3  and  C8_8 
REMARK    2  A    between atoms: C7_7  and  C8_8 
REMARK    3  A    between atoms: N9_9  and  O10_10 
ROOT
HETATM    1  C1  UNL     1     -34.776  14.233  -5.440  1.00 20.00     0.043 C 
HETATM    2  C4  UNL     1     -34.401  14.897  -6.733  1.00 20.00     0.057 C 
HETATM    3  C5  UNL     1     -34.923  16.309  -6.503  1.00 20.00     0.006 C 
HETATM    4  C6  UNL     1     -34.741  16.539  -5.005  1.00 20.00     0.011 C 
HETATM    5  C7  UNL     1     -35.155  15.212  -4.355  1.00 20.00     0.039 C 
HETATM    6  N9  UNL     1     -34.787  12.950  -5.310  1.00 20.00    -0.145 NA
ENDROOT
BRANCH   5   7
HETATM    7  C8  UNL     1     -34.447  14.971  -3.036  1.00 20.00     0.036 C 
BRANCH   7   8
HETATM    8  C3  UNL     1     -34.159  16.258  -2.325  1.00 20.00    -0.036 C 
HETATM    9  C2  UNL     1     -34.585  16.542  -1.090  1.00 20.00     0.007 C 
ENDBRANCH   7   8
ENDBRANCH   5   7
BRANCH   6  10
HETATM   10  O10 UNL     1     -35.174  12.645  -4.003  1.00 20.00    -0.266 OA
HETATM   11  H23 UNL     1     -35.468  11.723  -4.097  1.00 20.00     0.247 HD
ENDBRANCH   6  10
TORSDOF 3
ENDMDL
MODEL 3
REMARK VINA RESULT:      -4.6     12.059     12.927
REMARK  3 active torsions:
REMARK  status: ('A' for Active; 'I' for Inactive)
REMARK    1  A    between atoms: C3_3  and  C8_8 
REMARK    2  A    between atoms: C7_7  and  C8_8 
REMARK    3  A    between atoms: N9_9  and  O10_10 
ROOT
HETATM    1  C1  UNL     1     -34.128  15.432  -5.264  1.00 20.00     0.043 C 
HETATM    2  C4  UNL     1     -35.031  14.320  -5.711  1.00 20.00     0.057 C 
HETATM    3  C5  UNL     1     -34.612  13.201  -4.767  1.00 20.00     0.006 C 
HETATM    4  C6  UNL     1     -34.238  13.919  -3.474  1.00 20.00     0.011 C 
HETATM    5  C7  UNL     1     -33.472  15.168  -3.929  1.00 20.00     0.039 C 
HETATM    6  N9  UNL     1     -33.933  16.485  -5.983  1.00 20.00    -0.145 NA
ENDROOT
BRANCH   5   7
HETATM    7  C8  UNL     1     -33.600  16.315  -2.945  1.00 20.00     0.036 C 
BRANCH   7   8
HETATM    8  C3  UNL     1     -34.639  16.029  -1.904  1.00 20.00    -0.036 C 
HETATM    9  C2  UNL     1     -34.708  16.655  -0.725  1.00 20.00     0.007 C 
ENDBRANCH   7   8
ENDBRANCH   5   7
BRANCH   6  10
HETATM   10  O10 UNL     1     -33.051  17.326  -5.301  1.00 20.00    -0.266 OA
HETATM   11  H23 UNL     1     -33.255  17.112  -4.375  1.00 20.00     0.247 HD
ENDBRANCH   6  10
TORSDOF 3
ENDMDL
MODEL 4
REMARK VINA RESULT:      -4.5     11.650     12.365
REMARK  3 active torsions:
REMARK  status: ('A' for Active; 'I' for Inactive)
REMARK    1  A    between atoms: C3_3  and  C8_8 
REMARK    2  A    between atoms: C7_7  and  C8_8 
REMARK    3  A    between atoms: N9_9  and  O10_10 
ROOT
HETATM    1  C1  UNL     1     -35.107  13.953  -4.054  1.00 20.00     0.043 C 
HETATM    2  C4  UNL     1     -36.564  14.266  -4.235  1.00 20.00     0.057 C 
HETATM    3  C5  UNL     1     -36.779  15.311  -3.149  1.00 20.00     0.006 C 
HETATM    4  C6  UNL     1     -35.451  16.058  -3.076  1.00 20.00     0.011 C 
HETATM    5  C7  UNL     1     -34.382  14.964  -3.198  1.00 20.00     0.039 C 
HETATM    6  N9  UNL     1     -34.564  12.903  -4.570  1.00 20.00    -0.145 NA
ENDROOT
BRANCH   5   7
HETATM    7  C8  UNL     1     -33.096  15.480  -3.815  1.00 20.00     0.036 C 
BRANCH   7   8
HETATM    8  C3  UNL     1     -33.360  16.600  -4.774  1.00 20.00    -0.036 C 
HETATM    9  C2  UNL     1     -33.625  16.425  -6.073  1.00 20.00     0.007 C 
ENDBRANCH   7   8
ENDBRANCH   5   7
BRANCH   6  10
HETATM   10  O10 UNL     1     -33.211  12.893  -4.226  1.00 20.00    -0.266 OA
HETATM   11  H23 UNL     1     -32.796  13.173  -5.059  1.00 20.00     0.247 HD
ENDBRANCH   6  10
TORSDOF 3
ENDMDL
MODEL 5
REMARK VINA RESULT:      -4.5     11.726     12.597
REMARK  3 active torsions:
REMARK  status: ('A' for Active; 'I' for Inactive)
REMARK    1  A    between atoms: C3_3  and  C8_8 
REMARK    2  A    between atoms: C7_7  and  C8_8 
REMARK    3  A    between atoms: N9_9  and  O10_10 
ROOT
HETATM    1  C1  UNL     1     -35.779  15.411  -3.352  1.00 20.00     0.043 C 
HETATM    2  C4  UNL     1     -35.114  16.706  -2.986  1.00 20.00     0.057 C 
HETATM    3  C5  UNL     1     -33.731  16.221  -2.573  1.00 20.00     0.006 C 
HETATM    4  C6  UNL     1     -33.469  15.017  -3.472  1.00 20.00     0.011 C 
HETATM    5  C7  UNL     1     -34.807  14.267  -3.517  1.00 20.00     0.039 C 
HETATM    6  N9  UNL     1     -37.059  15.312  -3.479  1.00 20.00    -0.145 NA
ENDROOT
BRANCH   5   7
HETATM    7  C8  UNL     1     -34.989  13.488  -4.806  1.00 20.00     0.036 C 
BRANCH   7   8
HETATM    8  C3  UNL     1     -34.609  14.310  -6.000  1.00 20.00    -0.036 C 
HETATM    9  C2  UNL     1     -35.412  14.520  -7.049  1.00 20.00     0.007 C 
ENDBRANCH   7   8
ENDBRANCH   5   7
BRANCH   6  10
HETATM   10  O10 UNL     1     -37.366  13.994  -3.821  1.00 20.00    -0.266 OA
HETATM   11  H23 UNL     1     -36.494  13.651  -4.079  1.00 20.00     0.247 HD
ENDBRANCH   6  10
TORSDOF 3
ENDMDL
MODEL 6
REMARK VINA RESULT:      -4.4     12.116     12.688
REMARK  3 active torsions:
REMARK  status: ('A' for Active; 'I' for Inactive)
REMARK    1  A    between atoms: C3_3  and  C8_8 
REMARK    2  A    between atoms: C7_7  and  C8_8 
REMARK    3  A    between atoms: N9_9  and  O10_10 
ROOT
HETATM    1  C1  UNL     1     -32.750  18.774   1.599  1.00 20.00     0.043 C 
HETATM    2  C4  UNL     1     -33.199  18.518   3.007  1.00 20.00     0.057 C 
HETATM    3  C5  UNL     1     -34.712  18.595   2.853  1.00 20.00     0.006 C 
HETATM    4  C6  UNL     1     -34.977  18.050   1.453  1.00 20.00     0.011 C 
HETATM    5  C7  UNL     1     -33.863  18.650   0.586  1.00 20.00     0.039 C 
HETATM    6  N9  UNL     1     -31.532  19.091   1.317  1.00 20.00    -0.145 NA
ENDROOT
BRANCH   5   7
HETATM    7  C8  UNL     1     -33.518  17.770  -0.601  1.00 20.00     0.036 C 
BRANCH   7   8
HETATM    8  C3  UNL     1     -34.557  16.712  -0.818  1.00 20.00    -0.036 C 
HETATM    9  C2  UNL     1     -34.692  16.019  -1.953  1.00 20.00     0.007 C 
ENDBRANCH   7   8
ENDBRANCH   5   7
BRANCH   6  10
HETATM   10  O10 UNL     1     -31.430  19.263  -0.065  1.00 20.00    -0.266 OA
HETATM   11  H23 UNL     1     -32.363  19.213  -0.336  1.00 20.00     0.247 HD
ENDBRANCH   6  10
TORSDOF 3
ENDMDL
MODEL 7
REMARK VINA RESULT:      -4.4     11.792     12.897
REMARK  3 active torsions:
REMARK  status: ('A' for Active; 'I' for Inactive)
REMARK    1  A    between atoms: C3_3  and  C8_8 
REMARK    2  A    between atoms: C7_7  and  C8_8 
REMARK    3  A    between atoms: N9_9  and  O10_10 
ROOT
HETATM    1  C1  UNL     1     -34.146  14.356  -4.134  1.00 20.00     0.043 C 
HETATM    2  C4  UNL     1     -33.040  15.308  -3.783  1.00 20.00     0.057 C 
HETATM    3  C5  UNL     1     -33.187  16.350  -4.883  1.00 20.00     0.006 C 
HETATM    4  C6  UNL     1     -34.686  16.393  -5.165  1.00 20.00     0.011 C 
HETATM    5  C7  UNL     1     -35.131  14.925  -5.126  1.00 20.00     0.039 C 
HETATM    6  N9  UNL     1     -34.204  13.165  -3.639  1.00 20.00    -0.145 NA
ENDROOT
BRANCH   5   7
HETATM    7  C8  UNL     1     -36.581  14.772  -4.706  1.00 20.00     0.036 C 
BRANCH   7   8
HETATM    8  C3  UNL     1     -36.909  15.653  -3.539  1.00 20.00    -0.036 C 
HETATM    9  C2  UNL     1     -38.027  16.379  -3.441  1.00 20.00     0.007 C 
ENDBRANCH   7   8
ENDBRANCH   5   7
BRANCH   6  10
HETATM   10  O10 UNL     1     -35.337  12.532  -4.154  1.00 20.00    -0.266 OA
HETATM   11  H23 UNL     1     -35.036  11.609  -4.207  1.00 20.00     0.247 HD
ENDBRANCH   6  10
TORSDOF 3
ENDMDL
MODEL 8
REMARK VINA RESULT:      -4.4     12.062     12.745
REMARK  3 active torsions:
REMARK  status: ('A' for Active; 'I' for Inactive)
REMARK    1  A    between atoms: C3_3  and  C8_8 
REMARK    2  A    between atoms: C7_7  and  C8_8 
REMARK    3  A    between atoms: N9_9  and  O10_10 
ROOT
HETATM    1  C1  UNL     1     -36.178  14.617  -4.236  1.00 20.00     0.043 C 
HETATM    2  C4  UNL     1     -35.144  13.834  -4.992  1.00 20.00     0.057 C 
HETATM    3  C5  UNL     1     -34.370  14.952  -5.677  1.00 20.00     0.006 C 
HETATM    4  C6  UNL     1     -34.427  16.112  -4.688  1.00 20.00     0.011 C 
HETATM    5  C7  UNL     1     -35.862  16.091  -4.146  1.00 20.00     0.039 C 
HETATM    6  N9  UNL     1     -37.233  14.059  -3.747  1.00 20.00    -0.145 NA
ENDROOT
BRANCH   5   7
HETATM    7  C8  UNL     1     -35.958  16.653  -2.741  1.00 20.00     0.036 C 
BRANCH   7   8
HETATM    8  C3  UNL     1     -34.825  16.178  -1.883  1.00 20.00    -0.036 C 
HETATM    9  C2  UNL     1     -34.468  16.752  -0.730  1.00 20.00     0.007 C 
ENDBRANCH   7   8
ENDBRANCH   5   7
BRANCH   6  10
HETATM   10  O10 UNL     1     -37.993  15.041  -3.108  1.00 20.00    -0.266 OA
HETATM   11  H23 UNL     1     -38.881  14.859  -3.458  1.00 20.00     0.247 HD
ENDBRANCH   6  10
TORSDOF 3
ENDMDL
MODEL 9
REMARK VINA RESULT:      -4.3     12.004     13.360
REMARK  3 active torsions:
REMARK  status: ('A' for Active; 'I' for Inactive)
REMARK    1  A    between atoms: C3_3  and  C8_8 
REMARK    2  A    between atoms: C7_7  and  C8_8 
REMARK    3  A    between atoms: N9_9  and  O10_10 
ROOT
HETATM    1  C1  UNL     1     -34.086  15.964  -5.409  1.00 20.00     0.043 C 
HETATM    2  C4  UNL     1     -35.096  16.717  -6.224  1.00 20.00     0.057 C 
HETATM    3  C5  UNL     1     -36.129  15.632  -6.492  1.00 20.00     0.006 C 
HETATM    4  C6  UNL     1     -36.093  14.759  -5.241  1.00 20.00     0.011 C 
HETATM    5  C7  UNL     1     -34.604  14.643  -4.892  1.00 20.00     0.039 C 
HETATM    6  N9  UNL     1     -32.894  16.415  -5.210  1.00 20.00    -0.145 NA
ENDROOT
BRANCH   5   7
HETATM    7  C8  UNL     1     -34.373  14.433  -3.407  1.00 20.00     0.036 C 
BRANCH   7   8
HETATM    8  C3  UNL     1     -35.147  15.422  -2.589  1.00 20.00    -0.036 C 
HETATM    9  C2  UNL     1     -34.588  16.275  -1.725  1.00 20.00     0.007 C 
ENDBRANCH   7   8
ENDBRANCH   5   7
BRANCH   6  10
HETATM   10  O10 UNL     1     -32.202  15.495  -4.422  1.00 20.00    -0.266 OA
HETATM   11  H23 UNL     1     -31.352  15.949  -4.292  1.00 20.00     0.247 HD
ENDBRANCH   6  10
TORSDOF 3
ENDMDL
