MODEL 1
REMARK VINA RESULT:      -4.9      0.000      0.000
REMARK  0 active torsions:
REMARK  status: ('A' for Active; 'I' for Inactive)
ROOT
HETATM    1  C1  UNL     1     -34.474  16.357  -2.320  1.00 20.00     0.086 C 
HETATM    2  C2  UNL     1     -34.349  14.931  -5.760  1.00 20.00     0.017 C 
HETATM    3  C3  UNL     1     -35.857  16.210  -4.425  1.00 20.00     0.049 C 
HETATM    4  C4  UNL     1     -35.806  14.902  -5.259  1.00 20.00     0.020 C 
HETATM    5  C5  UNL     1     -33.773  14.969  -4.326  1.00 20.00     0.055 C 
HETATM    6  C6  UNL     1     -35.811  13.738  -4.280  1.00 20.00     0.155 A 
HETATM    7  C7  UNL     1     -34.452  13.768  -3.667  1.00 20.00     0.158 A 
HETATM    8  C8  UNL     1     -34.438  16.270  -3.784  1.00 20.00     0.132 C 
HETATM    9  N9  UNL     1     -34.503  16.426  -1.163  1.00 20.00    -0.195 NA
HETATM   10  O10 UNL     1     -34.870  12.683  -4.502  1.00 20.00    -0.374 OA
HETATM   11 CL11 UNL     1     -33.547  17.720  -4.350  1.00 20.00    -0.102 Cl
ENDROOT
TORSDOF 0
ENDMDL
MODEL 2
REMARK VINA RESULT:      -4.8      2.639      3.451
REMARK  0 active torsions:
REMARK  status: ('A' for Active; 'I' for Inactive)
ROOT
HETATM    1  C1  UNL     1     -36.569  14.505  -4.156  1.00 20.00     0.086 C 
HETATM    2  C2  UNL     1     -33.274  16.139  -4.753  1.00 20.00     0.017 C 
HETATM    3  C3  UNL     1     -34.101  14.109  -3.812  1.00 20.00     0.049 C 
HETATM    4  C4  UNL     1     -33.196  15.318  -3.452  1.00 20.00     0.020 C 
HETATM    5  C5  UNL     1     -34.814  16.262  -4.677  1.00 20.00     0.055 C 
HETATM    6  C6  UNL     1     -33.959  16.176  -2.455  1.00 20.00     0.155 A 
HETATM    7  C7  UNL     1     -35.030  16.821  -3.270  1.00 20.00     0.158 A 
HETATM    8  C8  UNL     1     -35.221  14.758  -4.678  1.00 20.00     0.132 C 
HETATM    9  N9  UNL     1     -37.633  14.304  -3.742  1.00 20.00    -0.195 NA
HETATM   10  O10 UNL     1     -33.977  17.590  -2.677  1.00 20.00    -0.374 OA
HETATM   11 CL11 UNL     1     -35.198  14.097  -6.345  1.00 20.00    -0.102 Cl
ENDROOT
TORSDOF 0
ENDMDL
MODEL 3
REMARK VINA RESULT:      -4.8      2.078      2.446
REMARK  0 active torsions:
REMARK  status: ('A' for Active; 'I' for Inactive)
ROOT
HETATM    1  C1  UNL     1     -37.303  14.967  -3.732  1.00 20.00     0.086 C 
HETATM    2  C2  UNL     1     -33.657  15.727  -3.869  1.00 20.00     0.017 C 
HETATM    3  C3  UNL     1     -35.552  15.866  -5.312  1.00 20.00     0.049 C 
HETATM    4  C4  UNL     1     -34.123  15.261  -5.262  1.00 20.00     0.020 C 
HETATM    5  C5  UNL     1     -34.833  15.022  -3.152  1.00 20.00     0.055 C 
HETATM    6  C6  UNL     1     -34.273  13.757  -5.091  1.00 20.00     0.155 A 
HETATM    7  C7  UNL     1     -34.730  13.591  -3.680  1.00 20.00     0.158 A 
HETATM    8  C8  UNL     1     -36.046  15.716  -3.842  1.00 20.00     0.132 C 
HETATM    9  N9  UNL     1     -38.296  14.376  -3.647  1.00 20.00    -0.195 NA
HETATM   10  O10 UNL     1     -33.449  13.118  -4.111  1.00 20.00    -0.374 OA
HETATM   11 CL11 UNL     1     -36.356  17.324  -3.110  1.00 20.00    -0.102 Cl
ENDROOT
TORSDOF 0
ENDMDL
MODEL 4
REMARK VINA RESULT:      -4.7      1.757      2.131
REMARK  0 active torsions:
REMARK  status: ('A' for Active; 'I' for Inactive)
ROOT
HETATM    1  C1  UNL     1     -33.959  16.798  -3.540  1.00 20.00     0.086 C 
HETATM    2  C2  UNL     1     -34.956  13.288  -4.295  1.00 20.00     0.017 C 
HETATM    3  C3  UNL     1     -34.243  15.225  -5.492  1.00 20.00     0.049 C 
HETATM    4  C4  UNL     1     -35.405  14.196  -5.456  1.00 20.00     0.020 C 
HETATM    5  C5  UNL     1     -34.916  14.461  -3.288  1.00 20.00     0.055 C 
HETATM    6  C6  UNL     1     -36.624  14.907  -4.887  1.00 20.00     0.155 A 
HETATM    7  C7  UNL     1     -36.309  15.071  -3.438  1.00 20.00     0.158 A 
HETATM    8  C8  UNL     1     -33.888  15.402  -3.986  1.00 20.00     0.132 C 
HETATM    9  N9  UNL     1     -34.016  17.901  -3.189  1.00 20.00    -0.195 NA
HETATM   10  O10 UNL     1     -37.376  14.224  -3.880  1.00 20.00    -0.374 OA
HETATM   11 CL11 UNL     1     -32.210  14.858  -3.661  1.00 20.00    -0.102 Cl
ENDROOT
TORSDOF 0
ENDMDL
MODEL 5
REMARK VINA RESULT:      -4.5      2.530      3.422
REMARK  0 active torsions:
REMARK  status: ('A' for Active; 'I' for Inactive)
ROOT
HETATM    1  C1  UNL     1     -34.629  13.782  -4.794  1.00 20.00     0.086 C 
HETATM    2  C2  UNL     1     -34.660  17.473  -4.288  1.00 20.00     0.017 C 
HETATM    3  C3  UNL     1     -33.081  15.686  -4.207  1.00 20.00     0.049 C 
HETATM    4  C4  UNL     1     -33.627  16.847  -3.332  1.00 20.00     0.020 C 
HETATM    5  C5  UNL     1     -35.454  16.153  -4.424  1.00 20.00     0.055 C 
HETATM    6  C6  UNL     1     -34.493  16.227  -2.246  1.00 20.00     0.155 A 
HETATM    7  C7  UNL     1     -35.720  15.778  -2.966  1.00 20.00     0.158 A 
HETATM    8  C8  UNL     1     -34.347  15.209  -4.982  1.00 20.00     0.132 C 
HETATM    9  N9  UNL     1     -34.851  12.654  -4.645  1.00 20.00    -0.195 NA
HETATM   10  O10 UNL     1     -35.767  16.828  -1.993  1.00 20.00    -0.374 OA
HETATM   11 CL11 UNL     1     -34.139  15.451  -6.747  1.00 20.00    -0.102 Cl
ENDROOT
TORSDOF 0
ENDMDL
MODEL 6
REMARK VINA RESULT:      -4.5      2.561      3.322
REMARK  0 active torsions:
REMARK  status: ('A' for Active; 'I' for Inactive)
ROOT
HETATM    1  C1  UNL     1     -34.527  13.701  -4.222  1.00 20.00     0.086 C 
HETATM    2  C2  UNL     1     -33.752  17.344  -4.104  1.00 20.00     0.017 C 
HETATM    3  C3  UNL     1     -34.577  15.658  -2.631  1.00 20.00     0.049 C 
HETATM    4  C4  UNL     1     -34.955  17.059  -3.184  1.00 20.00     0.020 C 
HETATM    5  C5  UNL     1     -33.997  16.074  -4.952  1.00 20.00     0.055 C 
HETATM    6  C6  UNL     1     -36.102  16.865  -4.164  1.00 20.00     0.155 A 
HETATM    7  C7  UNL     1     -35.465  16.223  -5.351  1.00 20.00     0.158 A 
HETATM    8  C8  UNL     1     -33.895  14.973  -3.853  1.00 20.00     0.132 C 
HETATM    9  N9  UNL     1     -35.026  12.696  -4.513  1.00 20.00    -0.195 NA
HETATM   10  O10 UNL     1     -36.018  17.542  -5.422  1.00 20.00    -0.374 OA
HETATM   11 CL11 UNL     1     -32.179  14.594  -3.493  1.00 20.00    -0.102 Cl
ENDROOT
TORSDOF 0
ENDMDL
MODEL 7
REMARK VINA RESULT:      -4.5      2.258      2.955
REMARK  0 active torsions:
REMARK  status: ('A' for Active; 'I' for Inactive)
ROOT
HETATM    1  C1  UNL     1     -34.617  16.377  -6.491  1.00 20.00     0.086 C 
HETATM    2  C2  UNL     1     -34.986  15.080  -3.017  1.00 20.00     0.017 C 
HETATM    3  C3  UNL     1     -33.249  15.921  -4.421  1.00 20.00     0.049 C 
HETATM    4  C4  UNL     1     -33.599  14.680  -3.556  1.00 20.00     0.020 C 
HETATM    5  C5  UNL     1     -35.580  15.239  -4.437  1.00 20.00     0.055 C 
HETATM    6  C6  UNL     1     -33.915  13.537  -4.508  1.00 20.00     0.155 A 
HETATM    7  C7  UNL     1     -35.242  13.897  -5.086  1.00 20.00     0.158 A 
HETATM    8  C8  UNL     1     -34.628  16.324  -5.025  1.00 20.00     0.132 C 
HETATM    9  N9  UNL     1     -34.608  16.419  -7.650  1.00 20.00    -0.195 NA
HETATM   10  O10 UNL     1     -35.082  12.754  -4.238  1.00 20.00    -0.374 OA
HETATM   11 CL11 UNL     1     -35.111  17.959  -4.468  1.00 20.00    -0.102 Cl
ENDROOT
TORSDOF 0
ENDMDL
MODEL 8
REMARK VINA RESULT:      -4.5      2.285      2.746
REMARK  0 active torsions:
REMARK  status: ('A' for Active; 'I' for Inactive)
ROOT
HETATM    1  C1  UNL     1     -36.631  14.865  -3.778  1.00 20.00     0.086 C 
HETATM    2  C2  UNL     1     -33.350  16.113  -5.029  1.00 20.00     0.017 C 
HETATM    3  C3  UNL     1     -35.515  16.993  -4.549  1.00 20.00     0.049 C 
HETATM    4  C4  UNL     1     -34.480  16.915  -5.703  1.00 20.00     0.020 C 
HETATM    5  C5  UNL     1     -34.276  14.912  -4.723  1.00 20.00     0.055 C 
HETATM    6  C6  UNL     1     -35.025  15.941  -6.737  1.00 20.00     0.155 A 
HETATM    7  C7  UNL     1     -34.876  14.603  -6.095  1.00 20.00     0.158 A 
HETATM    8  C8  UNL     1     -35.367  15.607  -3.853  1.00 20.00     0.132 C 
HETATM    9  N9  UNL     1     -37.630  14.281  -3.718  1.00 20.00    -0.195 NA
HETATM   10  O10 UNL     1     -34.125  14.960  -7.260  1.00 20.00    -0.374 OA
HETATM   11 CL11 UNL     1     -34.799  15.802  -2.163  1.00 20.00    -0.102 Cl
ENDROOT
TORSDOF 0
ENDMDL
MODEL 9
REMARK VINA RESULT:      -4.5      1.573      1.980
REMARK  0 active torsions:
REMARK  status: ('A' for Active; 'I' for Inactive)
ROOT
HETATM    1  C1  UNL     1     -36.320  16.259  -3.207  1.00 20.00     0.086 C 
HETATM    2  C2  UNL     1     -33.176  14.340  -3.770  1.00 20.00     0.017 C 
HETATM    3  C3  UNL     1     -34.266  16.261  -4.673  1.00 20.00     0.049 C 
HETATM    4  C4  UNL     1     -33.669  14.899  -5.119  1.00 20.00     0.020 C 
HETATM    5  C5  UNL     1     -34.585  14.408  -3.137  1.00 20.00     0.055 C 
HETATM    6  C6  UNL     1     -34.833  13.985  -5.467  1.00 20.00     0.155 A 
HETATM    7  C7  UNL     1     -35.438  13.641  -4.148  1.00 20.00     0.158 A 
HETATM    8  C8  UNL     1     -34.893  15.929  -3.286  1.00 20.00     0.132 C 
HETATM    9  N9  UNL     1     -37.448  16.521  -3.147  1.00 20.00    -0.195 NA
HETATM   10  O10 UNL     1     -34.799  12.648  -4.958  1.00 20.00    -0.374 OA
HETATM   11 CL11 UNL     1     -34.089  16.868  -1.985  1.00 20.00    -0.102 Cl
ENDROOT
TORSDOF 0
ENDMDL
