MODEL 1
REMARK VINA RESULT:      -4.7      0.000      0.000
REMARK  0 active torsions:
REMARK  status: ('A' for Active; 'I' for Inactive)
ROOT
HETATM    1  C1  UNL     1     -33.562  14.298  -3.511  1.00 20.00     0.179 A 
HETATM    2  C2  UNL     1     -33.860  14.918  -4.695  1.00 20.00    -0.007 A 
HETATM    3  C3  UNL     1     -34.652  13.970  -5.383  1.00 20.00     0.070 A 
HETATM    4  C4  UNL     1     -33.486  16.240  -5.251  1.00 20.00     0.043 C 
HETATM    5  C5  UNL     1     -35.243  14.205  -6.724  1.00 20.00     0.062 C 
HETATM    6  C6  UNL     1     -34.377  16.599  -6.456  1.00 20.00     0.005 C 
HETATM    7  C7  UNL     1     -34.569  15.407  -7.414  1.00 20.00     0.006 C 
HETATM    8  N8  UNL     1     -34.837  12.853  -4.675  1.00 20.00    -0.133 NA
HETATM    9  O9  UNL     1     -34.140  13.066  -3.487  1.00 20.00    -0.225 OA
ENDROOT
TORSDOF 0
ENDMDL
MODEL 2
REMARK VINA RESULT:      -4.7     11.755     13.236
REMARK  0 active torsions:
REMARK  status: ('A' for Active; 'I' for Inactive)
ROOT
HETATM    1  C1  UNL     1     -32.463   6.726   2.795  1.00 20.00     0.179 A 
HETATM    2  C2  UNL     1     -33.427   6.115   3.552  1.00 20.00    -0.007 A 
HETATM    3  C3  UNL     1     -33.192   6.603   4.857  1.00 20.00     0.070 A 
HETATM    4  C4  UNL     1     -34.492   5.142   3.213  1.00 20.00     0.043 C 
HETATM    5  C5  UNL     1     -34.015   6.236   6.036  1.00 20.00     0.062 C 
HETATM    6  C6  UNL     1     -35.531   5.051   4.348  1.00 20.00     0.005 C 
HETATM    7  C7  UNL     1     -34.870   4.989   5.739  1.00 20.00     0.006 C 
HETATM    8  N8  UNL     1     -32.167   7.457   4.903  1.00 20.00    -0.133 NA
HETATM    9  O9  UNL     1     -31.706   7.530   3.590  1.00 20.00    -0.225 OA
ENDROOT
TORSDOF 0
ENDMDL
MODEL 3
REMARK VINA RESULT:      -4.6      1.118      2.426
REMARK  0 active torsions:
REMARK  status: ('A' for Active; 'I' for Inactive)
ROOT
HETATM    1  C1  UNL     1     -34.853  13.487  -5.643  1.00 20.00     0.179 A 
HETATM    2  C2  UNL     1     -34.406  14.732  -5.292  1.00 20.00    -0.007 A 
HETATM    3  C3  UNL     1     -34.018  14.583  -3.941  1.00 20.00     0.070 A 
HETATM    4  C4  UNL     1     -34.321  16.009  -6.040  1.00 20.00     0.043 C 
HETATM    5  C5  UNL     1     -33.436  15.678  -3.124  1.00 20.00     0.062 C 
HETATM    6  C6  UNL     1     -33.408  17.013  -5.308  1.00 20.00     0.005 C 
HETATM    7  C7  UNL     1     -33.678  17.045  -3.791  1.00 20.00     0.006 C 
HETATM    8  N8  UNL     1     -34.204  13.340  -3.492  1.00 20.00    -0.133 NA
HETATM    9  O9  UNL     1     -34.737  12.647  -4.578  1.00 20.00    -0.225 OA
ENDROOT
TORSDOF 0
ENDMDL
MODEL 4
REMARK VINA RESULT:      -4.6      2.380      2.806
REMARK  0 active torsions:
REMARK  status: ('A' for Active; 'I' for Inactive)
ROOT
HETATM    1  C1  UNL     1     -33.488  13.599  -3.902  1.00 20.00     0.179 A 
HETATM    2  C2  UNL     1     -34.261  14.628  -3.435  1.00 20.00    -0.007 A 
HETATM    3  C3  UNL     1     -35.571  14.268  -3.823  1.00 20.00     0.070 A 
HETATM    4  C4  UNL     1     -33.928  15.878  -2.712  1.00 20.00     0.043 C 
HETATM    5  C5  UNL     1     -36.776  15.077  -3.511  1.00 20.00     0.062 C 
HETATM    6  C6  UNL     1     -35.193  16.510  -2.100  1.00 20.00     0.005 C 
HETATM    7  C7  UNL     1     -36.381  16.503  -3.082  1.00 20.00     0.006 C 
HETATM    8  N8  UNL     1     -35.607  13.103  -4.473  1.00 20.00    -0.133 NA
HETATM    9  O9  UNL     1     -34.279  12.683  -4.522  1.00 20.00    -0.225 OA
ENDROOT
TORSDOF 0
ENDMDL
MODEL 5
REMARK VINA RESULT:      -4.6     11.755     12.763
REMARK  0 active torsions:
REMARK  status: ('A' for Active; 'I' for Inactive)
ROOT
HETATM    1  C1  UNL     1     -42.358   3.668  -2.868  1.00 20.00     0.179 A 
HETATM    2  C2  UNL     1     -41.839   4.656  -2.075  1.00 20.00    -0.007 A 
HETATM    3  C3  UNL     1     -42.520   5.820  -2.497  1.00 20.00     0.070 A 
HETATM    4  C4  UNL     1     -40.799   4.644  -1.019  1.00 20.00     0.043 C 
HETATM    5  C5  UNL     1     -42.309   7.162  -1.899  1.00 20.00     0.062 C 
HETATM    6  C6  UNL     1     -40.849   5.941  -0.187  1.00 20.00     0.005 C 
HETATM    7  C7  UNL     1     -41.010   7.193  -1.071  1.00 20.00     0.006 C 
HETATM    8  N8  UNL     1     -43.398   5.570  -3.471  1.00 20.00    -0.133 NA
HETATM    9  O9  UNL     1     -43.289   4.201  -3.705  1.00 20.00    -0.225 OA
ENDROOT
TORSDOF 0
ENDMDL
MODEL 6
REMARK VINA RESULT:      -4.5     12.286     13.119
REMARK  0 active torsions:
REMARK  status: ('A' for Active; 'I' for Inactive)
ROOT
HETATM    1  C1  UNL     1     -32.144   7.514   4.678  1.00 20.00     0.179 A 
HETATM    2  C2  UNL     1     -33.196   6.664   4.888  1.00 20.00    -0.007 A 
HETATM    3  C3  UNL     1     -33.454   6.124   3.608  1.00 20.00     0.070 A 
HETATM    4  C4  UNL     1     -33.978   6.326   6.101  1.00 20.00     0.043 C 
HETATM    5  C5  UNL     1     -34.509   5.115   3.335  1.00 20.00     0.062 C 
HETATM    6  C6  UNL     1     -34.810   5.048   5.876  1.00 20.00     0.005 C 
HETATM    7  C7  UNL     1     -35.511   5.044   4.504  1.00 20.00     0.006 C 
HETATM    8  N8  UNL     1     -32.620   6.596   2.679  1.00 20.00    -0.133 NA
HETATM    9  O9  UNL     1     -31.791   7.482   3.364  1.00 20.00    -0.225 OA
ENDROOT
TORSDOF 0
ENDMDL
MODEL 7
REMARK VINA RESULT:      -4.4     11.401     12.425
REMARK  0 active torsions:
REMARK  status: ('A' for Active; 'I' for Inactive)
ROOT
HETATM    1  C1  UNL     1     -42.464   7.579  -3.154  1.00 20.00     0.179 A 
HETATM    2  C2  UNL     1     -41.982   6.828  -2.116  1.00 20.00    -0.007 A 
HETATM    3  C3  UNL     1     -42.465   5.528  -2.388  1.00 20.00     0.070 A 
HETATM    4  C4  UNL     1     -41.167   7.176  -0.928  1.00 20.00     0.043 C 
HETATM    5  C5  UNL     1     -42.174   4.345  -1.539  1.00 20.00     0.062 C 
HETATM    6  C6  UNL     1     -40.592   5.906  -0.269  1.00 20.00     0.005 C 
HETATM    7  C7  UNL     1     -41.639   4.781  -0.161  1.00 20.00     0.006 C 
HETATM    8  N8  UNL     1     -43.185   5.477  -3.511  1.00 20.00    -0.133 NA
HETATM    9  O9  UNL     1     -43.183   6.784  -3.993  1.00 20.00    -0.225 OA
ENDROOT
TORSDOF 0
ENDMDL
MODEL 8
REMARK VINA RESULT:      -4.3      2.313      3.387
REMARK  0 active torsions:
REMARK  status: ('A' for Active; 'I' for Inactive)
ROOT
HETATM    1  C1  UNL     1     -35.215  13.280  -4.489  1.00 20.00     0.179 A 
HETATM    2  C2  UNL     1     -35.402  14.436  -3.780  1.00 20.00    -0.007 A 
HETATM    3  C3  UNL     1     -34.102  14.783  -3.349  1.00 20.00     0.070 A 
HETATM    4  C4  UNL     1     -36.618  15.218  -3.451  1.00 20.00     0.043 C 
HETATM    5  C5  UNL     1     -33.792  15.998  -2.555  1.00 20.00     0.062 C 
HETATM    6  C6  UNL     1     -36.243  16.625  -2.944  1.00 20.00     0.005 C 
HETATM    7  C7  UNL     1     -35.075  16.590  -1.940  1.00 20.00     0.006 C 
HETATM    8  N8  UNL     1     -33.179  13.912  -3.766  1.00 20.00    -0.133 NA
HETATM    9  O9  UNL     1     -33.893  12.957  -4.488  1.00 20.00    -0.225 OA
ENDROOT
TORSDOF 0
ENDMDL
MODEL 9
REMARK VINA RESULT:      -4.3      2.654      3.128
REMARK  0 active torsions:
REMARK  status: ('A' for Active; 'I' for Inactive)
ROOT
HETATM    1  C1  UNL     1     -36.663  16.067  -2.979  1.00 20.00     0.179 A 
HETATM    2  C2  UNL     1     -35.441  15.499  -3.219  1.00 20.00    -0.007 A 
HETATM    3  C3  UNL     1     -35.756  14.291  -3.883  1.00 20.00     0.070 A 
HETATM    4  C4  UNL     1     -34.060  15.927  -2.893  1.00 20.00     0.043 C 
HETATM    5  C5  UNL     1     -34.737  13.329  -4.374  1.00 20.00     0.062 C 
HETATM    6  C6  UNL     1     -33.030  15.115  -3.703  1.00 20.00     0.005 C 
HETATM    7  C7  UNL     1     -33.365  13.611  -3.731  1.00 20.00     0.006 C 
HETATM    8  N8  UNL     1     -37.070  14.128  -4.047  1.00 20.00    -0.133 NA
HETATM    9  O9  UNL     1     -37.643  15.260  -3.469  1.00 20.00    -0.225 OA
ENDROOT
TORSDOF 0
ENDMDL
