MODEL 1
REMARK VINA RESULT:      -5.1      0.000      0.000
REMARK  3 active torsions:
REMARK  status: ('A' for Active; 'I' for Inactive)
REMARK    1  A    between atoms: C2_2  and  C7_7 
REMARK    2  A    between atoms: C3_3  and  C8_8 
REMARK    3  A    between atoms: C8_8  and  C9_9 
ROOT
HETATM    1  C1  UNL     1     -33.739   6.673   5.868  1.00 20.00     0.095 C 
HETATM    2  C2  UNL     1     -34.019   5.944   4.665  1.00 20.00     0.024 C 
HETATM    3  C3  UNL     1     -33.305   6.180   3.537  1.00 20.00    -0.067 C 
HETATM    4  C4  UNL     1     -33.534   5.458   2.226  1.00 20.00     0.044 C 
HETATM    5  N10 UNL     1     -33.524   7.254   6.849  1.00 20.00    -0.192 NA
ENDROOT
BRANCH   2   6
HETATM    6  C7  UNL     1     -35.170   4.956   4.745  1.00 20.00     0.046 C 
HETATM    7  C5  UNL     1     -35.092   4.084   5.991  1.00 20.00     0.011 C 
ENDBRANCH   2   6
BRANCH   3   8
HETATM    8  C8  UNL     1     -32.210   7.230   3.451  1.00 20.00     0.034 C 
BRANCH   8   9
HETATM    9  C9  UNL     1     -31.977   7.706   2.015  1.00 20.00    -0.000 C 
HETATM   10  C6  UNL     1     -32.390   9.160   1.838  1.00 20.00     0.005 C 
ENDBRANCH   8   9
ENDBRANCH   3   8
TORSDOF 3
ENDMDL
MODEL 2
REMARK VINA RESULT:      -4.7     11.721     12.229
REMARK  3 active torsions:
REMARK  status: ('A' for Active; 'I' for Inactive)
REMARK    1  A    between atoms: C2_2  and  C7_7 
REMARK    2  A    between atoms: C3_3  and  C8_8 
REMARK    3  A    between atoms: C8_8  and  C9_9 
ROOT
HETATM    1  C1  UNL     1     -36.737  14.386  -3.956  1.00 20.00     0.095 C 
HETATM    2  C2  UNL     1     -35.322  14.413  -4.190  1.00 20.00     0.024 C 
HETATM    3  C3  UNL     1     -34.502  15.104  -3.361  1.00 20.00    -0.067 C 
HETATM    4  C4  UNL     1     -33.000  15.186  -3.535  1.00 20.00     0.044 C 
HETATM    5  N10 UNL     1     -37.883  14.355  -3.778  1.00 20.00    -0.192 NA
ENDROOT
BRANCH   2   6
HETATM    6  C7  UNL     1     -34.844  13.672  -5.426  1.00 20.00     0.046 C 
HETATM    7  C5  UNL     1     -35.012  14.501  -6.693  1.00 20.00     0.011 C 
ENDBRANCH   2   6
BRANCH   3   8
HETATM    8  C8  UNL     1     -35.005  15.909  -2.174  1.00 20.00     0.034 C 
BRANCH   8   9
HETATM    9  C9  UNL     1     -33.924  16.825  -1.596  1.00 20.00    -0.000 C 
HETATM   10  C6  UNL     1     -34.341  17.394  -0.248  1.00 20.00     0.005 C 
ENDBRANCH   8   9
ENDBRANCH   3   8
TORSDOF 3
ENDMDL
MODEL 3
REMARK VINA RESULT:      -4.7     11.606     12.978
REMARK  3 active torsions:
REMARK  status: ('A' for Active; 'I' for Inactive)
REMARK    1  A    between atoms: C2_2  and  C7_7 
REMARK    2  A    between atoms: C3_3  and  C8_8 
REMARK    3  A    between atoms: C8_8  and  C9_9 
ROOT
HETATM    1  C1  UNL     1     -34.586  13.661  -4.952  1.00 20.00     0.095 C 
HETATM    2  C2  UNL     1     -34.230  14.965  -5.429  1.00 20.00     0.024 C 
HETATM    3  C3  UNL     1     -33.803  15.920  -4.565  1.00 20.00    -0.067 C 
HETATM    4  C4  UNL     1     -33.408  17.320  -4.982  1.00 20.00     0.044 C 
HETATM    5  N10 UNL     1     -34.877  12.601  -4.581  1.00 20.00    -0.192 NA
ENDROOT
BRANCH   2   6
HETATM    6  C7  UNL     1     -34.407  15.195  -6.919  1.00 20.00     0.046 C 
HETATM    7  C5  UNL     1     -35.781  14.752  -7.408  1.00 20.00     0.011 C 
ENDBRANCH   2   6
BRANCH   3   8
HETATM    8  C8  UNL     1     -33.709  15.699  -3.064  1.00 20.00     0.034 C 
BRANCH   8   9
HETATM    9  C9  UNL     1     -34.945  16.218  -2.325  1.00 20.00    -0.000 C 
HETATM   10  C6  UNL     1     -34.607  16.626  -0.898  1.00 20.00     0.005 C 
ENDBRANCH   8   9
ENDBRANCH   3   8
TORSDOF 3
ENDMDL
MODEL 4
REMARK VINA RESULT:      -4.3      0.752      3.999
REMARK  3 active torsions:
REMARK  status: ('A' for Active; 'I' for Inactive)
REMARK    1  A    between atoms: C2_2  and  C7_7 
REMARK    2  A    between atoms: C3_3  and  C8_8 
REMARK    3  A    between atoms: C8_8  and  C9_9 
ROOT
HETATM    1  C1  UNL     1     -33.311   6.863   5.409  1.00 20.00     0.095 C 
HETATM    2  C2  UNL     1     -33.213   6.410   4.052  1.00 20.00     0.024 C 
HETATM    3  C3  UNL     1     -34.193   5.645   3.511  1.00 20.00    -0.067 C 
HETATM    4  C4  UNL     1     -34.170   5.125   2.089  1.00 20.00     0.044 C 
HETATM    5  N10 UNL     1     -33.377   7.237   6.505  1.00 20.00    -0.192 NA
ENDROOT
BRANCH   2   6
HETATM    6  C7  UNL     1     -31.946   6.804   3.315  1.00 20.00     0.046 C 
HETATM    7  C5  UNL     1     -32.157   8.018   2.419  1.00 20.00     0.011 C 
ENDBRANCH   2   6
BRANCH   3   8
HETATM    8  C8  UNL     1     -35.418   5.191   4.288  1.00 20.00     0.034 C 
BRANCH   8   9
HETATM    9  C9  UNL     1     -35.144   3.932   5.113  1.00 20.00    -0.000 C 
HETATM   10  C6  UNL     1     -35.173   4.229   6.605  1.00 20.00     0.005 C 
ENDBRANCH   8   9
ENDBRANCH   3   8
TORSDOF 3
ENDMDL
MODEL 5
REMARK VINA RESULT:      -4.2     11.520     13.192
REMARK  3 active torsions:
REMARK  status: ('A' for Active; 'I' for Inactive)
REMARK    1  A    between atoms: C2_2  and  C7_7 
REMARK    2  A    between atoms: C3_3  and  C8_8 
REMARK    3  A    between atoms: C8_8  and  C9_9 
ROOT
HETATM    1  C1  UNL     1     -34.432  13.799  -4.483  1.00 20.00     0.095 C 
HETATM    2  C2  UNL     1     -34.024  15.172  -4.433  1.00 20.00     0.024 C 
HETATM    3  C3  UNL     1     -33.978  15.917  -5.566  1.00 20.00    -0.067 C 
HETATM    4  C4  UNL     1     -33.559  17.371  -5.603  1.00 20.00     0.044 C 
HETATM    5  N10 UNL     1     -34.762  12.686  -4.508  1.00 20.00    -0.192 NA
ENDROOT
BRANCH   2   6
HETATM    6  C7  UNL     1     -33.618  15.691  -3.065  1.00 20.00     0.046 C 
HETATM    7  C5  UNL     1     -34.824  15.958  -2.172  1.00 20.00     0.011 C 
ENDBRANCH   2   6
BRANCH   3   8
HETATM    8  C8  UNL     1     -34.309  15.360  -6.940  1.00 20.00     0.034 C 
BRANCH   8   9
HETATM    9  C9  UNL     1     -35.572  15.992  -7.531  1.00 20.00    -0.000 C 
HETATM   10  C6  UNL     1     -36.827  15.461  -6.854  1.00 20.00     0.005 C 
ENDBRANCH   8   9
ENDBRANCH   3   8
TORSDOF 3
ENDMDL
MODEL 6
REMARK VINA RESULT:      -4.2     11.589     13.242
REMARK  3 active torsions:
REMARK  status: ('A' for Active; 'I' for Inactive)
REMARK    1  A    between atoms: C2_2  and  C7_7 
REMARK    2  A    between atoms: C3_3  and  C8_8 
REMARK    3  A    between atoms: C8_8  and  C9_9 
ROOT
HETATM    1  C1  UNL     1     -33.756  17.047  -5.572  1.00 20.00     0.095 C 
HETATM    2  C2  UNL     1     -34.041  15.652  -5.408  1.00 20.00     0.024 C 
HETATM    3  C3  UNL     1     -34.007  15.084  -4.177  1.00 20.00    -0.067 C 
HETATM    4  C4  UNL     1     -34.294  13.620  -3.915  1.00 20.00     0.044 C 
HETATM    5  N10 UNL     1     -33.528  18.175  -5.720  1.00 20.00    -0.192 NA
ENDROOT
BRANCH   2   6
HETATM    6  C7  UNL     1     -34.328  14.883  -6.685  1.00 20.00     0.046 C 
HETATM    7  C5  UNL     1     -35.804  14.929  -7.063  1.00 20.00     0.011 C 
ENDBRANCH   2   6
BRANCH   3   8
HETATM    8  C8  UNL     1     -33.637  15.850  -2.918  1.00 20.00     0.034 C 
BRANCH   8   9
HETATM    9  C9  UNL     1     -34.829  16.017  -1.973  1.00 20.00    -0.000 C 
HETATM   10  C6  UNL     1     -34.447  16.814  -0.734  1.00 20.00     0.005 C 
ENDBRANCH   8   9
ENDBRANCH   3   8
TORSDOF 3
ENDMDL
MODEL 7
REMARK VINA RESULT:      -4.2     11.469     12.848
REMARK  3 active torsions:
REMARK  status: ('A' for Active; 'I' for Inactive)
REMARK    1  A    between atoms: C2_2  and  C7_7 
REMARK    2  A    between atoms: C3_3  and  C8_8 
REMARK    3  A    between atoms: C8_8  and  C9_9 
ROOT
HETATM    1  C1  UNL     1     -33.744  14.295  -4.106  1.00 20.00     0.095 C 
HETATM    2  C2  UNL     1     -34.123  15.616  -4.518  1.00 20.00     0.024 C 
HETATM    3  C3  UNL     1     -34.692  16.473  -3.634  1.00 20.00    -0.067 C 
HETATM    4  C4  UNL     1     -35.122  17.882  -3.983  1.00 20.00     0.044 C 
HETATM    5  N10 UNL     1     -33.432  13.224  -3.788  1.00 20.00    -0.192 NA
ENDROOT
BRANCH   2   6
HETATM    6  C7  UNL     1     -33.885  15.945  -5.980  1.00 20.00     0.046 C 
HETATM    7  C5  UNL     1     -34.522  14.919  -6.910  1.00 20.00     0.011 C 
ENDBRANCH   2   6
BRANCH   3   8
HETATM    8  C8  UNL     1     -34.998  16.100  -2.194  1.00 20.00     0.034 C 
BRANCH   8   9
HETATM    9  C9  UNL     1     -34.096  16.837  -1.201  1.00 20.00    -0.000 C 
HETATM   10  C6  UNL     1     -34.848  17.196   0.072  1.00 20.00     0.005 C 
ENDBRANCH   8   9
ENDBRANCH   3   8
TORSDOF 3
ENDMDL
MODEL 8
REMARK VINA RESULT:      -4.1     11.406     12.446
REMARK  3 active torsions:
REMARK  status: ('A' for Active; 'I' for Inactive)
REMARK    1  A    between atoms: C2_2  and  C7_7 
REMARK    2  A    between atoms: C3_3  and  C8_8 
REMARK    3  A    between atoms: C8_8  and  C9_9 
ROOT
HETATM    1  C1  UNL     1     -35.552  13.771  -4.152  1.00 20.00     0.095 C 
HETATM    2  C2  UNL     1     -36.342  14.941  -3.904  1.00 20.00     0.024 C 
HETATM    3  C3  UNL     1     -35.904  15.897  -3.047  1.00 20.00    -0.067 C 
HETATM    4  C4  UNL     1     -36.674  17.161  -2.728  1.00 20.00     0.044 C 
HETATM    5  N10 UNL     1     -34.922  12.819  -4.364  1.00 20.00    -0.192 NA
ENDROOT
BRANCH   2   6
HETATM    6  C7  UNL     1     -37.681  14.997  -4.618  1.00 20.00     0.046 C 
HETATM    7  C5  UNL     1     -37.528  15.323  -6.099  1.00 20.00     0.011 C 
ENDBRANCH   2   6
BRANCH   3   8
HETATM    8  C8  UNL     1     -34.599  15.787  -2.277  1.00 20.00     0.034 C 
BRANCH   8   9
HETATM    9  C9  UNL     1     -34.620  16.606  -0.984  1.00 20.00    -0.000 C 
HETATM   10  C6  UNL     1     -33.490  17.625  -0.953  1.00 20.00     0.005 C 
ENDBRANCH   8   9
ENDBRANCH   3   8
TORSDOF 3
ENDMDL
MODEL 9
REMARK VINA RESULT:      -4.1     11.734     12.829
REMARK  3 active torsions:
REMARK  status: ('A' for Active; 'I' for Inactive)
REMARK    1  A    between atoms: C2_2  and  C7_7 
REMARK    2  A    between atoms: C3_3  and  C8_8 
REMARK    3  A    between atoms: C8_8  and  C9_9 
ROOT
HETATM    1  C1  UNL     1     -36.648  14.934  -3.729  1.00 20.00     0.095 C 
HETATM    2  C2  UNL     1     -35.448  15.719  -3.757  1.00 20.00     0.024 C 
HETATM    3  C3  UNL     1     -34.466  15.441  -4.650  1.00 20.00    -0.067 C 
HETATM    4  C4  UNL     1     -33.170  16.217  -4.748  1.00 20.00     0.044 C 
HETATM    5  N10 UNL     1     -37.625  14.309  -3.696  1.00 20.00    -0.192 NA
ENDROOT
BRANCH   2   6
HETATM    6  C7  UNL     1     -35.352  16.814  -2.710  1.00 20.00     0.046 C 
HETATM    7  C5  UNL     1     -34.720  16.317  -1.416  1.00 20.00     0.011 C 
ENDBRANCH   2   6
BRANCH   3   8
HETATM    8  C8  UNL     1     -34.543  14.289  -5.638  1.00 20.00     0.034 C 
BRANCH   8   9
HETATM    9  C9  UNL     1     -34.707  14.774  -7.081  1.00 20.00    -0.000 C 
HETATM   10  C6  UNL     1     -36.169  14.770  -7.504  1.00 20.00     0.005 C 
ENDBRANCH   8   9
ENDBRANCH   3   8
TORSDOF 3
ENDMDL
