MODEL 1
REMARK VINA RESULT:      -4.9      0.000      0.000
REMARK  1 active torsions:
REMARK  status: ('A' for Active; 'I' for Inactive)
REMARK    1  A    between atoms: C10_10  and  O12_12 
ROOT
HETATM    1  C1  UNL     1     -33.886  16.764  -3.288  1.00 20.00     0.005 C 
HETATM    2  C2  UNL     1     -34.618  15.644  -2.537  1.00 20.00     0.005 C 
HETATM    3  C3  UNL     1     -35.177  16.354  -6.044  1.00 20.00     0.008 C 
HETATM    4  C4  UNL     1     -36.455  16.009  -5.290  1.00 20.00     0.033 C 
HETATM    5  C5  UNL     1     -32.752  14.718  -3.652  1.00 20.00     0.010 C 
HETATM    6  C6  UNL     1     -33.139  16.005  -4.397  1.00 20.00    -0.010 C 
HETATM    7  C7  UNL     1     -34.208  14.378  -3.306  1.00 20.00    -0.007 C 
HETATM    8  C8  UNL     1     -34.092  15.440  -5.477  1.00 20.00    -0.004 C 
HETATM    9  C9  UNL     1     -34.820  14.302  -4.725  1.00 20.00     0.023 C 
HETATM   10  C10 UNL     1     -36.311  14.527  -4.957  1.00 20.00     0.125 C 
ENDROOT
BRANCH  10  11
HETATM   11  O12 UNL     1     -37.097  14.141  -3.849  1.00 20.00    -0.390 OA
HETATM   12  C11 UNL     1     -38.295  14.905  -3.757  1.00 20.00     0.202 C 
ENDBRANCH  10  11
TORSDOF 1
ENDMDL
MODEL 2
REMARK VINA RESULT:      -4.7      1.130      2.011
REMARK  1 active torsions:
REMARK  status: ('A' for Active; 'I' for Inactive)
REMARK    1  A    between atoms: C10_10  and  O12_12 
ROOT
HETATM    1  C1  UNL     1     -33.302  16.291  -4.829  1.00 20.00     0.005 C 
HETATM    2  C2  UNL     1     -34.673  16.934  -4.579  1.00 20.00     0.005 C 
HETATM    3  C3  UNL     1     -34.172  13.349  -4.686  1.00 20.00     0.008 C 
HETATM    4  C4  UNL     1     -35.463  13.795  -5.360  1.00 20.00     0.033 C 
HETATM    5  C5  UNL     1     -33.696  16.392  -2.497  1.00 20.00     0.010 C 
HETATM    6  C6  UNL     1     -33.069  15.468  -3.552  1.00 20.00    -0.010 C 
HETATM    7  C7  UNL     1     -35.065  16.400  -3.192  1.00 20.00    -0.007 C 
HETATM    8  C8  UNL     1     -34.007  14.240  -3.456  1.00 20.00    -0.004 C 
HETATM    9  C9  UNL     1     -35.386  14.887  -3.190  1.00 20.00     0.023 C 
HETATM   10  C10 UNL     1     -36.342  14.280  -4.211  1.00 20.00     0.125 C 
ENDROOT
BRANCH  10  11
HETATM   11  O12 UNL     1     -37.334  15.191  -4.635  1.00 20.00    -0.390 OA
HETATM   12  C11 UNL     1     -38.585  14.948  -3.999  1.00 20.00     0.202 C 
ENDBRANCH  10  11
TORSDOF 1
ENDMDL
MODEL 3
REMARK VINA RESULT:      -4.7      1.855      3.663
REMARK  1 active torsions:
REMARK  status: ('A' for Active; 'I' for Inactive)
REMARK    1  A    between atoms: C10_10  and  O12_12 
ROOT
HETATM    1  C1  UNL     1     -36.558  14.824  -4.591  1.00 20.00     0.005 C 
HETATM    2  C2  UNL     1     -35.787  15.381  -5.795  1.00 20.00     0.005 C 
HETATM    3  C3  UNL     1     -34.678  15.820  -2.376  1.00 20.00     0.008 C 
HETATM    4  C4  UNL     1     -34.470  17.059  -3.239  1.00 20.00     0.033 C 
HETATM    5  C5  UNL     1     -34.847  13.300  -5.186  1.00 20.00     0.010 C 
HETATM    6  C6  UNL     1     -35.541  13.872  -3.941  1.00 20.00    -0.010 C 
HETATM    7  C7  UNL     1     -34.420  14.686  -5.690  1.00 20.00    -0.007 C 
HETATM    8  C8  UNL     1     -34.365  14.623  -3.272  1.00 20.00    -0.004 C 
HETATM    9  C9  UNL     1     -33.580  15.172  -4.486  1.00 20.00     0.023 C 
HETATM   10  C10 UNL     1     -33.370  16.659  -4.217  1.00 20.00     0.125 C 
ENDROOT
BRANCH  10  11
HETATM   11  O12 UNL     1     -33.388  17.432  -5.398  1.00 20.00    -0.390 OA
HETATM   12  C11 UNL     1     -33.590  18.816  -5.125  1.00 20.00     0.202 C 
ENDBRANCH  10  11
TORSDOF 1
ENDMDL
MODEL 4
REMARK VINA RESULT:      -4.7      1.004      1.419
REMARK  1 active torsions:
REMARK  status: ('A' for Active; 'I' for Inactive)
REMARK    1  A    between atoms: C10_10  and  O12_12 
ROOT
HETATM    1  C1  UNL     1     -34.752  17.521  -4.156  1.00 20.00     0.005 C 
HETATM    2  C2  UNL     1     -35.814  17.021  -3.166  1.00 20.00     0.005 C 
HETATM    3  C3  UNL     1     -34.475  14.957  -5.824  1.00 20.00     0.008 C 
HETATM    4  C4  UNL     1     -35.973  14.771  -5.615  1.00 20.00     0.033 C 
HETATM    5  C5  UNL     1     -33.681  16.347  -2.402  1.00 20.00     0.010 C 
HETATM    6  C6  UNL     1     -33.579  16.557  -3.919  1.00 20.00    -0.010 C 
HETATM    7  C7  UNL     1     -35.124  15.829  -2.484  1.00 20.00    -0.007 C 
HETATM    8  C8  UNL     1     -33.871  15.126  -4.431  1.00 20.00    -0.004 C 
HETATM    9  C9  UNL     1     -34.930  14.617  -3.425  1.00 20.00     0.023 C 
HETATM   10  C10 UNL     1     -36.083  14.073  -4.263  1.00 20.00     0.125 C 
ENDROOT
BRANCH  10  11
HETATM   11  O12 UNL     1     -37.339  14.272  -3.651  1.00 20.00    -0.390 OA
HETATM   12  C11 UNL     1     -38.302  14.786  -4.567  1.00 20.00     0.202 C 
ENDBRANCH  10  11
TORSDOF 1
ENDMDL
MODEL 5
REMARK VINA RESULT:      -4.7      1.481      2.114
REMARK  1 active torsions:
REMARK  status: ('A' for Active; 'I' for Inactive)
REMARK    1  A    between atoms: C10_10  and  O12_12 
ROOT
HETATM    1  C1  UNL     1     -34.572  15.608  -2.698  1.00 20.00     0.005 C 
HETATM    2  C2  UNL     1     -35.605  14.786  -3.481  1.00 20.00     0.005 C 
HETATM    3  C3  UNL     1     -33.638  17.427  -4.988  1.00 20.00     0.008 C 
HETATM    4  C4  UNL     1     -35.083  17.405  -5.471  1.00 20.00     0.033 C 
HETATM    5  C5  UNL     1     -33.466  13.840  -3.817  1.00 20.00     0.010 C 
HETATM    6  C6  UNL     1     -33.261  15.315  -3.444  1.00 20.00    -0.010 C 
HETATM    7  C7  UNL     1     -34.764  14.125  -4.585  1.00 20.00    -0.007 C 
HETATM    8  C8  UNL     1     -33.216  15.966  -4.847  1.00 20.00    -0.004 C 
HETATM    9  C9  UNL     1     -34.246  15.129  -5.641  1.00 20.00     0.023 C 
HETATM   10  C10 UNL     1     -35.184  16.132  -6.306  1.00 20.00     0.125 C 
ENDROOT
BRANCH  10  11
HETATM   11  O12 UNL     1     -36.508  15.653  -6.406  1.00 20.00    -0.390 OA
HETATM   12  C11 UNL     1     -36.741  14.990  -7.645  1.00 20.00     0.202 C 
ENDBRANCH  10  11
TORSDOF 1
ENDMDL
MODEL 6
REMARK VINA RESULT:      -4.6     11.717     12.966
REMARK  1 active torsions:
REMARK  status: ('A' for Active; 'I' for Inactive)
REMARK    1  A    between atoms: C10_10  and  O12_12 
ROOT
HETATM    1  C1  UNL     1     -43.099   6.598  -0.016  1.00 20.00     0.005 C 
HETATM    2  C2  UNL     1     -42.929   5.122   0.368  1.00 20.00     0.005 C 
HETATM    3  C3  UNL     1     -42.687   6.308  -3.045  1.00 20.00     0.008 C 
HETATM    4  C4  UNL     1     -43.417   4.976  -2.922  1.00 20.00     0.033 C 
HETATM    5  C5  UNL     1     -40.793   6.120   0.218  1.00 20.00     0.010 C 
HETATM    6  C6  UNL     1     -41.746   6.945  -0.659  1.00 20.00    -0.010 C 
HETATM    7  C7  UNL     1     -41.503   4.797  -0.104  1.00 20.00    -0.007 C 
HETATM    8  C8  UNL     1     -41.546   6.259  -2.031  1.00 20.00    -0.004 C 
HETATM    9  C9  UNL     1     -41.361   4.774  -1.644  1.00 20.00     0.023 C 
HETATM   10  C10 UNL     1     -42.332   3.985  -2.516  1.00 20.00     0.125 C 
ENDROOT
BRANCH  10  11
HETATM   11  O12 UNL     1     -42.853   2.849  -1.858  1.00 20.00    -0.390 OA
HETATM   12  C11 UNL     1     -43.047   1.758  -2.753  1.00 20.00     0.202 C 
ENDBRANCH  10  11
TORSDOF 1
ENDMDL
MODEL 7
REMARK VINA RESULT:      -4.5      1.976      3.293
REMARK  1 active torsions:
REMARK  status: ('A' for Active; 'I' for Inactive)
REMARK    1  A    between atoms: C10_10  and  O12_12 
ROOT
HETATM    1  C1  UNL     1     -34.252  15.366  -5.566  1.00 20.00     0.005 C 
HETATM    2  C2  UNL     1     -33.178  16.031  -4.694  1.00 20.00     0.005 C 
HETATM    3  C3  UNL     1     -36.680  15.941  -3.775  1.00 20.00     0.008 C 
HETATM    4  C4  UNL     1     -36.007  17.269  -3.449  1.00 20.00     0.033 C 
HETATM    5  C5  UNL     1     -33.547  13.834  -3.906  1.00 20.00     0.010 C 
HETATM    6  C6  UNL     1     -34.819  14.275  -4.643  1.00 20.00    -0.010 C 
HETATM    7  C7  UNL     1     -33.260  15.245  -3.375  1.00 20.00    -0.007 C 
HETATM    8  C8  UNL     1     -35.646  14.857  -3.472  1.00 20.00    -0.004 C 
HETATM    9  C9  UNL     1     -34.563  15.514  -2.586  1.00 20.00     0.023 C 
HETATM   10  C10 UNL     1     -35.043  16.936  -2.314  1.00 20.00     0.125 C 
ENDROOT
BRANCH  10  11
HETATM   11  O12 UNL     1     -33.979  17.860  -2.218  1.00 20.00    -0.390 OA
HETATM   12  C11 UNL     1     -33.501  17.981  -0.882  1.00 20.00     0.202 C 
ENDBRANCH  10  11
TORSDOF 1
ENDMDL
MODEL 8
REMARK VINA RESULT:      -4.5      1.634      2.845
REMARK  1 active torsions:
REMARK  status: ('A' for Active; 'I' for Inactive)
REMARK    1  A    between atoms: C10_10  and  O12_12 
ROOT
HETATM    1  C1  UNL     1     -32.936  15.281  -3.785  1.00 20.00     0.005 C 
HETATM    2  C2  UNL     1     -33.530  16.614  -4.261  1.00 20.00     0.005 C 
HETATM    3  C3  UNL     1     -34.889  13.398  -5.224  1.00 20.00     0.008 C 
HETATM    4  C4  UNL     1     -34.882  14.413  -6.361  1.00 20.00     0.033 C 
HETATM    5  C5  UNL     1     -34.741  15.871  -2.372  1.00 20.00     0.010 C 
HETATM    6  C6  UNL     1     -34.105  14.635  -3.023  1.00 20.00    -0.010 C 
HETATM    7  C7  UNL     1     -34.968  16.571  -3.720  1.00 20.00    -0.007 C 
HETATM    8  C8  UNL     1     -35.247  14.180  -3.962  1.00 20.00    -0.004 C 
HETATM    9  C9  UNL     1     -35.856  15.522  -4.430  1.00 20.00     0.023 C 
HETATM   10  C10 UNL     1     -35.927  15.446  -5.952  1.00 20.00     0.125 C 
ENDROOT
BRANCH  10  11
HETATM   11  O12 UNL     1     -35.719  16.700  -6.568  1.00 20.00    -0.390 OA
HETATM   12  C11 UNL     1     -34.906  16.591  -7.733  1.00 20.00     0.202 C 
ENDBRANCH  10  11
TORSDOF 1
ENDMDL
MODEL 9
REMARK VINA RESULT:      -4.5      1.151      2.908
REMARK  1 active torsions:
REMARK  status: ('A' for Active; 'I' for Inactive)
REMARK    1  A    between atoms: C10_10  and  O12_12 
ROOT
HETATM    1  C1  UNL     1     -34.517  14.788  -7.043  1.00 20.00     0.005 C 
HETATM    2  C2  UNL     1     -36.039  14.878  -6.863  1.00 20.00     0.005 C 
HETATM    3  C3  UNL     1     -33.754  14.408  -4.093  1.00 20.00     0.008 C 
HETATM    4  C4  UNL     1     -35.030  13.583  -3.966  1.00 20.00     0.033 C 
HETATM    5  C5  UNL     1     -35.099  17.011  -6.477  1.00 20.00     0.010 C 
HETATM    6  C6  UNL     1     -34.001  15.972  -6.209  1.00 20.00    -0.010 C 
HETATM    7  C7  UNL     1     -36.213  16.099  -5.945  1.00 20.00    -0.007 C 
HETATM    8  C8  UNL     1     -34.175  15.750  -4.688  1.00 20.00    -0.004 C 
HETATM    9  C9  UNL     1     -35.707  15.855  -4.504  1.00 20.00     0.023 C 
HETATM   10  C10 UNL     1     -36.125  14.616  -3.718  1.00 20.00     0.125 C 
ENDROOT
BRANCH  10  11
HETATM   11  O12 UNL     1     -37.405  14.147  -4.085  1.00 20.00    -0.390 OA
HETATM   12  C11 UNL     1     -38.443  14.953  -3.535  1.00 20.00     0.202 C 
ENDBRANCH  10  11
TORSDOF 1
ENDMDL
