MODEL 1
REMARK VINA RESULT:      -2.8      0.000      0.000
REMARK  0 active torsions:
REMARK  status: ('A' for Active; 'I' for Inactive)
ROOT
HETATM    1  C1  UNL     1     -34.057   6.072   4.439  1.00 20.00     0.096 C 
HETATM    2  C2  UNL     1     -33.274   6.093   3.363  1.00 20.00     0.096 C 
HETATM    3 CL3  UNL     1     -35.305   4.918   4.654  1.00 20.00    -0.096 Cl
HETATM    4 CL4  UNL     1     -32.027   7.247   3.149  1.00 20.00    -0.096 Cl
ENDROOT
TORSDOF 0
ENDMDL
MODEL 2
REMARK VINA RESULT:      -2.8      0.942      3.189
REMARK  0 active torsions:
REMARK  status: ('A' for Active; 'I' for Inactive)
ROOT
HETATM    1  C1  UNL     1     -33.717   5.905   3.920  1.00 20.00     0.096 C 
HETATM    2  C2  UNL     1     -33.987   6.023   5.217  1.00 20.00     0.096 C 
HETATM    3 CL3  UNL     1     -32.679   6.985   3.088  1.00 20.00    -0.096 Cl
HETATM    4 CL4  UNL     1     -35.026   4.944   6.048  1.00 20.00    -0.096 Cl
ENDROOT
TORSDOF 0
ENDMDL
MODEL 3
REMARK VINA RESULT:      -2.8      2.549      2.653
REMARK  0 active torsions:
REMARK  status: ('A' for Active; 'I' for Inactive)
ROOT
HETATM    1  C1  UNL     1     -34.709   5.191   6.130  1.00 20.00     0.096 C 
HETATM    2  C2  UNL     1     -33.981   6.255   5.803  1.00 20.00     0.096 C 
HETATM    3 CL3  UNL     1     -35.178   4.004   4.988  1.00 20.00    -0.096 Cl
HETATM    4 CL4  UNL     1     -33.513   7.442   6.946  1.00 20.00    -0.096 Cl
ENDROOT
TORSDOF 0
ENDMDL
MODEL 4
REMARK VINA RESULT:      -2.8      2.554      3.581
REMARK  0 active torsions:
REMARK  status: ('A' for Active; 'I' for Inactive)
ROOT
HETATM    1  C1  UNL     1     -33.980   6.260   5.813  1.00 20.00     0.096 C 
HETATM    2  C2  UNL     1     -34.694   5.187   6.145  1.00 20.00     0.096 C 
HETATM    3 CL3  UNL     1     -33.494   7.439   6.956  1.00 20.00    -0.096 Cl
HETATM    4 CL4  UNL     1     -35.180   4.009   5.001  1.00 20.00    -0.096 Cl
ENDROOT
TORSDOF 0
ENDMDL
MODEL 5
REMARK VINA RESULT:      -2.6      1.973      2.183
REMARK  0 active torsions:
REMARK  status: ('A' for Active; 'I' for Inactive)
ROOT
HETATM    1  C1  UNL     1     -34.288   5.806   5.186  1.00 20.00     0.096 C 
HETATM    2  C2  UNL     1     -33.813   6.146   3.990  1.00 20.00     0.096 C 
HETATM    3 CL3  UNL     1     -33.944   6.700   6.606  1.00 20.00    -0.096 Cl
HETATM    4 CL4  UNL     1     -34.156   5.251   2.570  1.00 20.00    -0.096 Cl
ENDROOT
TORSDOF 0
ENDMDL
MODEL 6
REMARK VINA RESULT:      -2.4      2.515      3.127
REMARK  0 active torsions:
REMARK  status: ('A' for Active; 'I' for Inactive)
ROOT
HETATM    1  C1  UNL     1     -32.566   7.510   2.750  1.00 20.00     0.096 C 
HETATM    2  C2  UNL     1     -31.958   8.216   1.800  1.00 20.00     0.096 C 
HETATM    3 CL3  UNL     1     -32.111   5.907   3.145  1.00 20.00    -0.096 Cl
HETATM    4 CL4  UNL     1     -32.415   9.819   1.404  1.00 20.00    -0.096 Cl
ENDROOT
TORSDOF 0
ENDMDL
MODEL 7
REMARK VINA RESULT:      -2.4      2.538      4.008
REMARK  0 active torsions:
REMARK  status: ('A' for Active; 'I' for Inactive)
ROOT
HETATM    1  C1  UNL     1     -31.961   8.241   1.779  1.00 20.00     0.096 C 
HETATM    2  C2  UNL     1     -32.533   7.546   2.759  1.00 20.00     0.096 C 
HETATM    3 CL3  UNL     1     -32.404   9.854   1.408  1.00 20.00    -0.096 Cl
HETATM    4 CL4  UNL     1     -32.091   5.933   3.129  1.00 20.00    -0.096 Cl
ENDROOT
TORSDOF 0
ENDMDL
MODEL 8
REMARK VINA RESULT:      -2.2      9.108      9.720
REMARK  0 active torsions:
REMARK  status: ('A' for Active; 'I' for Inactive)
ROOT
HETATM    1  C1  UNL     1     -40.770   4.681  -0.993  1.00 20.00     0.096 C 
HETATM    2  C2  UNL     1     -41.617   4.428  -1.986  1.00 20.00     0.096 C 
HETATM    3 CL3  UNL     1     -40.794   6.147  -0.106  1.00 20.00    -0.096 Cl
HETATM    4 CL4  UNL     1     -41.592   2.963  -2.873  1.00 20.00    -0.096 Cl
ENDROOT
TORSDOF 0
ENDMDL
MODEL 9
REMARK VINA RESULT:      -2.2      9.096      9.567
REMARK  0 active torsions:
REMARK  status: ('A' for Active; 'I' for Inactive)
ROOT
HETATM    1  C1  UNL     1     -41.606   4.389  -1.975  1.00 20.00     0.096 C 
HETATM    2  C2  UNL     1     -40.733   4.674  -1.013  1.00 20.00     0.096 C 
HETATM    3 CL3  UNL     1     -41.544   2.935  -2.881  1.00 20.00    -0.096 Cl
HETATM    4 CL4  UNL     1     -40.795   6.128  -0.110  1.00 20.00    -0.096 Cl
ENDROOT
TORSDOF 0
ENDMDL
