MODEL 1
REMARK VINA RESULT:      -4.7      0.000      0.000
REMARK  0 active torsions:
REMARK  status: ('A' for Active; 'I' for Inactive)
ROOT
HETATM    1  C1  UNL     1     -36.623  14.489  -4.130  1.00 20.00     0.086 C 
HETATM    2  C2  UNL     1     -34.053  16.117  -2.390  1.00 20.00    -0.025 C 
HETATM    3  C3  UNL     1     -34.990  16.728  -3.130  1.00 20.00    -0.023 C 
HETATM    4  C4  UNL     1     -33.302  16.111  -4.572  1.00 20.00     0.020 C 
HETATM    5  C5  UNL     1     -34.165  14.044  -3.743  1.00 20.00     0.050 C 
HETATM    6  C6  UNL     1     -33.261  15.230  -3.320  1.00 20.00     0.011 C 
HETATM    7  C7  UNL     1     -34.834  16.230  -4.555  1.00 20.00     0.046 C 
HETATM    8  C8  UNL     1     -35.260  14.736  -4.617  1.00 20.00     0.133 C 
HETATM    9  N9  UNL     1     -37.700  14.295  -3.745  1.00 20.00    -0.195 NA
HETATM   10 CL10 UNL     1     -35.203  14.132  -6.302  1.00 20.00    -0.102 Cl
ENDROOT
TORSDOF 0
ENDMDL
MODEL 2
REMARK VINA RESULT:      -4.7      1.613      1.883
REMARK  0 active torsions:
REMARK  status: ('A' for Active; 'I' for Inactive)
ROOT
HETATM    1  C1  UNL     1     -34.566  13.761  -4.865  1.00 20.00     0.086 C 
HETATM    2  C2  UNL     1     -34.647  15.980  -2.155  1.00 20.00    -0.025 C 
HETATM    3  C3  UNL     1     -35.711  15.623  -2.890  1.00 20.00    -0.023 C 
HETATM    4  C4  UNL     1     -34.701  17.376  -3.991  1.00 20.00     0.020 C 
HETATM    5  C5  UNL     1     -33.075  15.627  -4.038  1.00 20.00     0.050 C 
HETATM    6  C6  UNL     1     -33.684  16.684  -3.080  1.00 20.00     0.011 C 
HETATM    7  C7  UNL     1     -35.444  16.070  -4.315  1.00 20.00     0.046 C 
HETATM    8  C8  UNL     1     -34.300  15.204  -4.911  1.00 20.00     0.133 C 
HETATM    9  N9  UNL     1     -34.777  12.621  -4.828  1.00 20.00    -0.195 NA
HETATM   10 CL10 UNL     1     -34.025  15.617  -6.632  1.00 20.00    -0.102 Cl
ENDROOT
TORSDOF 0
ENDMDL
MODEL 3
REMARK VINA RESULT:      -4.6      1.868      2.731
REMARK  0 active torsions:
REMARK  status: ('A' for Active; 'I' for Inactive)
ROOT
HETATM    1  C1  UNL     1     -36.969  14.873  -3.536  1.00 20.00     0.086 C 
HETATM    2  C2  UNL     1     -34.516  14.303  -5.972  1.00 20.00    -0.025 C 
HETATM    3  C3  UNL     1     -34.812  13.466  -4.966  1.00 20.00    -0.023 C 
HETATM    4  C4  UNL     1     -33.298  14.991  -4.137  1.00 20.00     0.020 C 
HETATM    5  C5  UNL     1     -35.223  16.297  -4.681  1.00 20.00     0.050 C 
HETATM    6  C6  UNL     1     -34.018  15.585  -5.351  1.00 20.00     0.011 C 
HETATM    7  C7  UNL     1     -34.532  14.203  -3.670  1.00 20.00     0.046 C 
HETATM    8  C8  UNL     1     -35.578  15.340  -3.499  1.00 20.00     0.133 C 
HETATM    9  N9  UNL     1     -38.068  14.504  -3.566  1.00 20.00    -0.195 NA
HETATM   10 CL10 UNL     1     -35.360  16.167  -1.925  1.00 20.00    -0.102 Cl
ENDROOT
TORSDOF 0
ENDMDL
MODEL 4
REMARK VINA RESULT:      -4.5      2.075      2.827
REMARK  0 active torsions:
REMARK  status: ('A' for Active; 'I' for Inactive)
ROOT
HETATM    1  C1  UNL     1     -34.715  15.207  -6.560  1.00 20.00     0.086 C 
HETATM    2  C2  UNL     1     -33.255  13.793  -3.705  1.00 20.00    -0.025 C 
HETATM    3  C3  UNL     1     -34.492  13.526  -4.151  1.00 20.00    -0.023 C 
HETATM    4  C4  UNL     1     -34.651  15.417  -2.844  1.00 20.00     0.020 C 
HETATM    5  C5  UNL     1     -33.267  16.073  -4.678  1.00 20.00     0.050 C 
HETATM    6  C6  UNL     1     -33.216  15.262  -3.357  1.00 20.00     0.011 C 
HETATM    7  C7  UNL     1     -35.272  14.827  -4.120  1.00 20.00     0.046 C 
HETATM    8  C8  UNL     1     -34.707  15.781  -5.209  1.00 20.00     0.133 C 
HETATM    9  N9  UNL     1     -34.721  14.752  -7.627  1.00 20.00    -0.195 NA
HETATM   10 CL10 UNL     1     -35.671  17.289  -5.290  1.00 20.00    -0.102 Cl
ENDROOT
TORSDOF 0
ENDMDL
MODEL 5
REMARK VINA RESULT:      -4.5     10.863     12.058
REMARK  0 active torsions:
REMARK  status: ('A' for Active; 'I' for Inactive)
ROOT
HETATM    1  C1  UNL     1     -42.506   7.387  -2.774  1.00 20.00     0.086 C 
HETATM    2  C2  UNL     1     -40.845   4.687  -1.280  1.00 20.00    -0.025 C 
HETATM    3  C3  UNL     1     -42.102   4.655  -1.747  1.00 20.00    -0.023 C 
HETATM    4  C4  UNL     1     -42.213   5.472   0.405  1.00 20.00     0.020 C 
HETATM    5  C5  UNL     1     -40.958   7.115  -0.794  1.00 20.00     0.050 C 
HETATM    6  C6  UNL     1     -40.810   5.704  -0.165  1.00 20.00     0.011 C 
HETATM    7  C7  UNL     1     -42.902   5.672  -0.954  1.00 20.00     0.046 C 
HETATM    8  C8  UNL     1     -42.424   7.101  -1.336  1.00 20.00     0.133 C 
HETATM    9  N9  UNL     1     -42.571   7.612  -3.910  1.00 20.00    -0.195 NA
HETATM   10 CL10 UNL     1     -43.417   8.342  -0.511  1.00 20.00    -0.102 Cl
ENDROOT
TORSDOF 0
ENDMDL
MODEL 6
REMARK VINA RESULT:      -4.5      2.148      2.880
REMARK  0 active torsions:
REMARK  status: ('A' for Active; 'I' for Inactive)
ROOT
HETATM    1  C1  UNL     1     -34.817  16.291  -1.943  1.00 20.00     0.086 C 
HETATM    2  C2  UNL     1     -33.452  13.680  -3.839  1.00 20.00    -0.025 C 
HETATM    3  C3  UNL     1     -32.860  14.863  -3.618  1.00 20.00    -0.023 C 
HETATM    4  C4  UNL     1     -34.245  15.144  -5.437  1.00 20.00     0.020 C 
HETATM    5  C5  UNL     1     -35.726  14.643  -3.631  1.00 20.00     0.050 C 
HETATM    6  C6  UNL     1     -34.727  13.957  -4.598  1.00 20.00     0.011 C 
HETATM    7  C7  UNL     1     -33.755  15.933  -4.213  1.00 20.00     0.046 C 
HETATM    8  C8  UNL     1     -35.056  16.030  -3.368  1.00 20.00     0.133 C 
HETATM    9  N9  UNL     1     -34.628  16.497  -0.817  1.00 20.00    -0.195 NA
HETATM   10 CL10 UNL     1     -36.098  17.361  -3.962  1.00 20.00    -0.102 Cl
ENDROOT
TORSDOF 0
ENDMDL
MODEL 7
REMARK VINA RESULT:      -4.4      2.170      2.894
REMARK  0 active torsions:
REMARK  status: ('A' for Active; 'I' for Inactive)
ROOT
HETATM    1  C1  UNL     1     -33.873  17.158  -5.482  1.00 20.00     0.086 C 
HETATM    2  C2  UNL     1     -34.841  15.822  -2.391  1.00 20.00    -0.025 C 
HETATM    3  C3  UNL     1     -33.585  15.842  -2.862  1.00 20.00    -0.023 C 
HETATM    4  C4  UNL     1     -34.588  13.956  -3.725  1.00 20.00     0.020 C 
HETATM    5  C5  UNL     1     -35.823  15.771  -4.667  1.00 20.00     0.050 C 
HETATM    6  C6  UNL     1     -35.659  14.981  -3.342  1.00 20.00     0.011 C 
HETATM    7  C7  UNL     1     -33.572  15.031  -4.144  1.00 20.00     0.046 C 
HETATM    8  C8  UNL     1     -34.368  15.798  -5.237  1.00 20.00     0.133 C 
HETATM    9  N9  UNL     1     -33.481  18.233  -5.676  1.00 20.00    -0.195 NA
HETATM   10 CL10 UNL     1     -34.284  14.934  -6.803  1.00 20.00    -0.102 Cl
ENDROOT
TORSDOF 0
ENDMDL
MODEL 8
REMARK VINA RESULT:      -4.4      2.599      3.691
REMARK  0 active torsions:
REMARK  status: ('A' for Active; 'I' for Inactive)
ROOT
HETATM    1  C1  UNL     1     -34.718  13.768  -4.942  1.00 20.00     0.086 C 
HETATM    2  C2  UNL     1     -36.546  15.192  -7.570  1.00 20.00    -0.025 C 
HETATM    3  C3  UNL     1     -35.440  14.447  -7.716  1.00 20.00    -0.023 C 
HETATM    4  C4  UNL     1     -34.740  16.610  -7.345  1.00 20.00     0.020 C 
HETATM    5  C5  UNL     1     -35.859  15.990  -5.327  1.00 20.00     0.050 C 
HETATM    6  C6  UNL     1     -36.154  16.421  -6.788  1.00 20.00     0.011 C 
HETATM    7  C7  UNL     1     -34.312  15.173  -7.007  1.00 20.00     0.046 C 
HETATM    8  C8  UNL     1     -34.565  15.127  -5.475  1.00 20.00     0.133 C 
HETATM    9  N9  UNL     1     -34.840  12.693  -4.521  1.00 20.00    -0.195 NA
HETATM   10 CL10 UNL     1     -33.200  15.872  -4.586  1.00 20.00    -0.102 Cl
ENDROOT
TORSDOF 0
ENDMDL
MODEL 9
REMARK VINA RESULT:      -4.4      1.790      2.489
REMARK  0 active torsions:
REMARK  status: ('A' for Active; 'I' for Inactive)
ROOT
HETATM    1  C1  UNL     1     -35.295  13.679  -4.323  1.00 20.00     0.086 C 
HETATM    2  C2  UNL     1     -33.589  16.703  -3.851  1.00 20.00    -0.025 C 
HETATM    3  C3  UNL     1     -33.778  15.770  -2.906  1.00 20.00    -0.023 C 
HETATM    4  C4  UNL     1     -35.657  17.103  -2.908  1.00 20.00     0.020 C 
HETATM    5  C5  UNL     1     -35.656  16.070  -5.062  1.00 20.00     0.050 C 
HETATM    6  C6  UNL     1     -34.953  17.199  -4.265  1.00 20.00     0.011 C 
HETATM    7  C7  UNL     1     -35.275  15.628  -2.707  1.00 20.00     0.046 C 
HETATM    8  C8  UNL     1     -35.894  14.973  -3.974  1.00 20.00     0.133 C 
HETATM    9  N9  UNL     1     -34.821  12.657  -4.598  1.00 20.00    -0.195 NA
HETATM   10 CL10 UNL     1     -37.645  14.679  -3.742  1.00 20.00    -0.102 Cl
ENDROOT
TORSDOF 0
ENDMDL
