MODEL 1
REMARK VINA RESULT:      -5.0      0.000      0.000
REMARK  0 active torsions:
REMARK  status: ('A' for Active; 'I' for Inactive)
ROOT
HETATM    1  C1  UNL     1     -34.029  15.875  -5.445  1.00 20.00     0.014 A 
HETATM    2  C2  UNL     1     -34.330  14.584  -5.638  1.00 20.00     0.075 A 
HETATM    3  C3  UNL     1     -34.061  16.471  -4.126  1.00 20.00    -0.035 A 
HETATM    4  C4  UNL     1     -34.392  15.709  -3.067  1.00 20.00     0.018 A 
HETATM    5  C5  UNL     1     -34.705  13.737  -4.472  1.00 20.00     0.245 A 
HETATM    6  C6  UNL     1     -33.728  17.934  -4.008  1.00 20.00     0.040 C 
HETATM    7  C7  UNL     1     -34.433  16.233  -1.660  1.00 20.00     0.057 C 
HETATM    8  C8  UNL     1     -34.122  18.530  -2.654  1.00 20.00     0.005 C 
HETATM    9  C9  UNL     1     -33.748  17.594  -1.509  1.00 20.00     0.006 C 
HETATM   10  N10 UNL     1     -34.705  14.377  -3.244  1.00 20.00    -0.327 N 
HETATM   11  O11 UNL     1     -34.986  12.552  -4.631  1.00 20.00    -0.268 OA
HETATM   12  H22 UNL     1     -34.951  13.832  -2.423  1.00 20.00     0.169 HD
ENDROOT
TORSDOF 0
ENDMDL
MODEL 2
REMARK VINA RESULT:      -5.0     11.788     13.036
REMARK  0 active torsions:
REMARK  status: ('A' for Active; 'I' for Inactive)
ROOT
HETATM    1  C1  UNL     1     -33.941   5.318   2.622  1.00 20.00     0.014 A 
HETATM    2  C2  UNL     1     -33.097   6.182   2.044  1.00 20.00     0.075 A 
HETATM    3  C3  UNL     1     -34.182   5.333   4.050  1.00 20.00    -0.035 A 
HETATM    4  C4  UNL     1     -33.549   6.242   4.814  1.00 20.00     0.018 A 
HETATM    5  C5  UNL     1     -32.387   7.186   2.885  1.00 20.00     0.245 A 
HETATM    6  C6  UNL     1     -35.131   4.311   4.613  1.00 20.00     0.040 C 
HETATM    7  C7  UNL     1     -33.749   6.348   6.299  1.00 20.00     0.057 C 
HETATM    8  C8  UNL     1     -35.048   4.193   6.137  1.00 20.00     0.005 C 
HETATM    9  C9  UNL     1     -34.969   5.567   6.795  1.00 20.00     0.006 C 
HETATM   10  N10 UNL     1     -32.674   7.142   4.239  1.00 20.00    -0.327 N 
HETATM   11  O11 UNL     1     -31.606   7.984   2.372  1.00 20.00    -0.268 OA
HETATM   12  H22 UNL     1     -32.213   7.813   4.846  1.00 20.00     0.169 HD
ENDROOT
TORSDOF 0
ENDMDL
MODEL 3
REMARK VINA RESULT:      -4.7     12.302     13.716
REMARK  0 active torsions:
REMARK  status: ('A' for Active; 'I' for Inactive)
ROOT
HETATM    1  C1  UNL     1     -43.412   4.493  -3.380  1.00 20.00     0.014 A 
HETATM    2  C2  UNL     1     -43.079   3.242  -3.720  1.00 20.00     0.075 A 
HETATM    3  C3  UNL     1     -42.656   5.235  -2.392  1.00 20.00    -0.035 A 
HETATM    4  C4  UNL     1     -41.590   4.658  -1.809  1.00 20.00     0.018 A 
HETATM    5  C5  UNL     1     -41.905   2.593  -3.073  1.00 20.00     0.245 A 
HETATM    6  C6  UNL     1     -43.116   6.629  -2.058  1.00 20.00     0.040 C 
HETATM    7  C7  UNL     1     -40.734   5.355  -0.789  1.00 20.00     0.057 C 
HETATM    8  C8  UNL     1     -42.473   7.181  -0.782  1.00 20.00     0.005 C 
HETATM    9  C9  UNL     1     -40.982   6.864  -0.734  1.00 20.00     0.006 C 
HETATM   10  N10 UNL     1     -41.230   3.369  -2.145  1.00 20.00    -0.327 N 
HETATM   11  O11 UNL     1     -41.588   1.444  -3.372  1.00 20.00    -0.268 OA
HETATM   12  H22 UNL     1     -40.420   2.964  -1.685  1.00 20.00     0.169 HD
ENDROOT
TORSDOF 0
ENDMDL
MODEL 4
REMARK VINA RESULT:      -4.7      2.622      4.273
REMARK  0 active torsions:
REMARK  status: ('A' for Active; 'I' for Inactive)
ROOT
HETATM    1  C1  UNL     1     -33.651  16.624  -2.118  1.00 20.00     0.014 A 
HETATM    2  C2  UNL     1     -34.402  17.503  -1.443  1.00 20.00     0.075 A 
HETATM    3  C3  UNL     1     -34.248  15.612  -2.966  1.00 20.00    -0.035 A 
HETATM    4  C4  UNL     1     -35.587  15.560  -3.085  1.00 20.00     0.018 A 
HETATM    5  C5  UNL     1     -35.885  17.446  -1.564  1.00 20.00     0.245 A 
HETATM    6  C6  UNL     1     -33.327  14.653  -3.670  1.00 20.00     0.040 C 
HETATM    7  C7  UNL     1     -36.295  14.560  -3.956  1.00 20.00     0.057 C 
HETATM    8  C8  UNL     1     -34.056  13.438  -4.249  1.00 20.00     0.005 C 
HETATM    9  C9  UNL     1     -35.357  13.849  -4.933  1.00 20.00     0.006 C 
HETATM   10  N10 UNL     1     -36.379  16.457  -2.398  1.00 20.00    -0.327 N 
HETATM   11  O11 UNL     1     -36.589  18.244  -0.950  1.00 20.00    -0.268 OA
HETATM   12  H22 UNL     1     -37.386  16.388  -2.511  1.00 20.00     0.169 HD
ENDROOT
TORSDOF 0
ENDMDL
MODEL 5
REMARK VINA RESULT:      -4.7      1.610      3.039
REMARK  0 active torsions:
REMARK  status: ('A' for Active; 'I' for Inactive)
ROOT
HETATM    1  C1  UNL     1     -33.802  15.726  -3.603  1.00 20.00     0.014 A 
HETATM    2  C2  UNL     1     -34.027  14.408  -3.553  1.00 20.00     0.075 A 
HETATM    3  C3  UNL     1     -33.971  16.478  -4.829  1.00 20.00    -0.035 A 
HETATM    4  C4  UNL     1     -34.373  15.838  -5.943  1.00 20.00     0.018 A 
HETATM    5  C5  UNL     1     -34.463  13.692  -4.784  1.00 20.00     0.245 A 
HETATM    6  C6  UNL     1     -33.675  17.953  -4.796  1.00 20.00     0.040 C 
HETATM    7  C7  UNL     1     -34.595  16.536  -7.255  1.00 20.00     0.057 C 
HETATM    8  C8  UNL     1     -33.553  18.571  -6.191  1.00 20.00     0.005 C 
HETATM    9  C9  UNL     1     -34.650  18.059  -7.120  1.00 20.00     0.006 C 
HETATM   10  N10 UNL     1     -34.610  14.479  -5.913  1.00 20.00    -0.327 N 
HETATM   11  O11 UNL     1     -34.672  12.481  -4.757  1.00 20.00    -0.268 OA
HETATM   12  H22 UNL     1     -34.911  14.029  -6.773  1.00 20.00     0.169 HD
ENDROOT
TORSDOF 0
ENDMDL
MODEL 6
REMARK VINA RESULT:      -4.6     11.897     13.359
REMARK  0 active torsions:
REMARK  status: ('A' for Active; 'I' for Inactive)
ROOT
HETATM    1  C1  UNL     1     -41.197   3.822  -1.806  1.00 20.00     0.014 A 
HETATM    2  C2  UNL     1     -41.792   3.044  -2.720  1.00 20.00     0.075 A 
HETATM    3  C3  UNL     1     -41.569   5.211  -1.637  1.00 20.00    -0.035 A 
HETATM    4  C4  UNL     1     -42.541   5.731  -2.409  1.00 20.00     0.018 A 
HETATM    5  C5  UNL     1     -42.862   3.615  -3.584  1.00 20.00     0.245 A 
HETATM    6  C6  UNL     1     -40.833   6.015  -0.599  1.00 20.00     0.040 C 
HETATM    7  C7  UNL     1     -43.008   7.155  -2.293  1.00 20.00     0.057 C 
HETATM    8  C8  UNL     1     -41.057   7.522  -0.739  1.00 20.00     0.005 C 
HETATM    9  C9  UNL     1     -42.523   7.840  -1.013  1.00 20.00     0.006 C 
HETATM   10  N10 UNL     1     -43.166   4.947  -3.357  1.00 20.00    -0.327 N 
HETATM   11  O11 UNL     1     -43.416   2.917  -4.429  1.00 20.00    -0.268 OA
HETATM   12  H22 UNL     1     -43.894   5.373  -3.923  1.00 20.00     0.169 HD
ENDROOT
TORSDOF 0
ENDMDL
MODEL 7
REMARK VINA RESULT:      -4.5      1.408      2.277
REMARK  0 active torsions:
REMARK  status: ('A' for Active; 'I' for Inactive)
ROOT
HETATM    1  C1  UNL     1     -34.796  14.483  -3.425  1.00 20.00     0.014 A 
HETATM    2  C2  UNL     1     -34.753  14.101  -4.708  1.00 20.00     0.075 A 
HETATM    3  C3  UNL     1     -34.447  15.830  -3.024  1.00 20.00    -0.035 A 
HETATM    4  C4  UNL     1     -34.078  16.721  -3.962  1.00 20.00     0.018 A 
HETATM    5  C5  UNL     1     -34.337  15.080  -5.750  1.00 20.00     0.245 A 
HETATM    6  C6  UNL     1     -34.505  16.164  -1.557  1.00 20.00     0.040 C 
HETATM    7  C7  UNL     1     -33.717  18.145  -3.645  1.00 20.00     0.057 C 
HETATM    8  C8  UNL     1     -33.799  17.478  -1.214  1.00 20.00     0.005 C 
HETATM    9  C9  UNL     1     -34.130  18.565  -2.232  1.00 20.00     0.006 C 
HETATM   10  N10 UNL     1     -34.026  16.348  -5.289  1.00 20.00    -0.327 N 
HETATM   11  O11 UNL     1     -34.289  14.745  -6.932  1.00 20.00    -0.268 OA
HETATM   12  H22 UNL     1     -33.742  17.046  -5.970  1.00 20.00     0.169 HD
ENDROOT
TORSDOF 0
ENDMDL
MODEL 8
REMARK VINA RESULT:      -4.5      2.557      4.462
REMARK  0 active torsions:
REMARK  status: ('A' for Active; 'I' for Inactive)
ROOT
HETATM    1  C1  UNL     1     -34.661  15.906  -1.910  1.00 20.00     0.014 A 
HETATM    2  C2  UNL     1     -34.200  17.064  -1.422  1.00 20.00     0.075 A 
HETATM    3  C3  UNL     1     -34.669  15.633  -3.332  1.00 20.00    -0.035 A 
HETATM    4  C4  UNL     1     -34.195  16.561  -4.183  1.00 20.00     0.018 A 
HETATM    5  C5  UNL     1     -33.682  18.100  -2.359  1.00 20.00     0.245 A 
HETATM    6  C6  UNL     1     -35.224  14.311  -3.791  1.00 20.00     0.040 C 
HETATM    7  C7  UNL     1     -34.144  16.360  -5.672  1.00 20.00     0.057 C 
HETATM    8  C8  UNL     1     -35.500  14.268  -5.296  1.00 20.00     0.005 C 
HETATM    9  C9  UNL     1     -34.360  14.903  -6.086  1.00 20.00     0.006 C 
HETATM   10  N10 UNL     1     -33.716  17.762  -3.701  1.00 20.00    -0.327 N 
HETATM   11  O11 UNL     1     -33.258  19.170  -1.928  1.00 20.00    -0.268 OA
HETATM   12  H22 UNL     1     -33.366  18.440  -4.372  1.00 20.00     0.169 HD
ENDROOT
TORSDOF 0
ENDMDL
MODEL 9
REMARK VINA RESULT:      -4.4      2.293      3.909
REMARK  0 active torsions:
REMARK  status: ('A' for Active; 'I' for Inactive)
ROOT
HETATM    1  C1  UNL     1     -33.382  15.981  -3.949  1.00 20.00     0.014 A 
HETATM    2  C2  UNL     1     -33.438  16.249  -2.638  1.00 20.00     0.075 A 
HETATM    3  C3  UNL     1     -34.559  15.584  -4.692  1.00 20.00    -0.035 A 
HETATM    4  C4  UNL     1     -35.740  15.489  -4.053  1.00 20.00     0.018 A 
HETATM    5  C5  UNL     1     -34.740  16.139  -1.923  1.00 20.00     0.245 A 
HETATM    6  C6  UNL     1     -34.397  15.283  -6.158  1.00 20.00     0.040 C 
HETATM    7  C7  UNL     1     -37.018  15.104  -4.743  1.00 20.00     0.057 C 
HETATM    8  C8  UNL     1     -35.602  14.553  -6.756  1.00 20.00     0.005 C 
HETATM    9  C9  UNL     1     -36.914  15.162  -6.269  1.00 20.00     0.006 C 
HETATM   10  N10 UNL     1     -35.820  15.761  -2.703  1.00 20.00    -0.327 N 
HETATM   11  O11 UNL     1     -34.810  16.378  -0.720  1.00 20.00    -0.268 OA
HETATM   12  H22 UNL     1     -36.727  15.678  -2.253  1.00 20.00     0.169 HD
ENDROOT
TORSDOF 0
ENDMDL
