MODEL 1
REMARK VINA RESULT:      -5.1      0.000      0.000
REMARK  5 active torsions:
REMARK  status: ('A' for Active; 'I' for Inactive)
REMARK    1  A    between atoms: C2_2  and  C4_4 
REMARK    2  A    between atoms: C4_4  and  C6_6 
REMARK    3  A    between atoms: C5_5  and  C6_6 
REMARK    4  A    between atoms: C5_5  and  C7_7 
REMARK    5  A    between atoms: C6_6  and  O8_8 
ROOT
HETATM    1  C6  UNL     1     -33.006   6.475   3.584  1.00 20.00     0.130 C 
ENDROOT
BRANCH   1   2
HETATM    2  C4  UNL     1     -34.289   5.702   3.925  1.00 20.00     0.065 C 
BRANCH   2   3
HETATM    3  C2  UNL     1     -34.442   5.418   5.403  1.00 20.00    -0.091 C 
HETATM    4  C1  UNL     1     -34.988   4.273   5.845  1.00 20.00     0.014 C 
HETATM    5  C3  UNL     1     -33.995   6.489   6.356  1.00 20.00     0.042 C 
ENDBRANCH   2   3
ENDBRANCH   1   2
BRANCH   1   6
HETATM    6  C5  UNL     1     -33.271   7.490   2.464  1.00 20.00     0.149 C 
BRANCH   6   7
HETATM    7  C7  UNL     1     -32.096   8.414   2.208  1.00 20.00     0.390 C 
HETATM    8  F9  UNL     1     -32.491   9.695   2.054  1.00 20.00    -0.171 F 
HETATM    9  F10 UNL     1     -31.232   8.376   3.247  1.00 20.00    -0.171 F 
HETATM   10  F11 UNL     1     -31.419   8.048   1.100  1.00 20.00    -0.171 F 
ENDBRANCH   6   7
ENDBRANCH   1   6
BRANCH   1  11
HETATM   11  O8  UNL     1     -32.021   5.536   3.156  1.00 20.00    -0.395 OA
HETATM   12  H22 UNL     1     -32.071   5.509   2.188  1.00 20.00     0.210 HD
ENDBRANCH   1  11
TORSDOF 5
ENDMDL
MODEL 2
REMARK VINA RESULT:      -5.0      1.345      1.660
REMARK  5 active torsions:
REMARK  status: ('A' for Active; 'I' for Inactive)
REMARK    1  A    between atoms: C2_2  and  C4_4 
REMARK    2  A    between atoms: C4_4  and  C6_6 
REMARK    3  A    between atoms: C5_5  and  C6_6 
REMARK    4  A    between atoms: C5_5  and  C7_7 
REMARK    5  A    between atoms: C6_6  and  O8_8 
ROOT
HETATM    1  C6  UNL     1     -34.012   5.541   3.364  1.00 20.00     0.130 C 
ENDROOT
BRANCH   1   2
HETATM    2  C4  UNL     1     -35.211   5.454   4.320  1.00 20.00     0.065 C 
BRANCH   2   3
HETATM    3  C2  UNL     1     -34.813   5.226   5.761  1.00 20.00    -0.091 C 
HETATM    4  C1  UNL     1     -35.097   4.076   6.395  1.00 20.00     0.014 C 
HETATM    5  C3  UNL     1     -34.123   6.357   6.468  1.00 20.00     0.042 C 
ENDBRANCH   2   3
ENDBRANCH   1   2
BRANCH   1   6
HETATM    6  C5  UNL     1     -33.503   6.986   3.270  1.00 20.00     0.149 C 
BRANCH   6   7
HETATM    7  C7  UNL     1     -31.996   7.078   3.122  1.00 20.00     0.390 C 
HETATM    8  F9  UNL     1     -31.448   7.866   4.070  1.00 20.00    -0.171 F 
HETATM    9  F10 UNL     1     -31.436   5.853   3.235  1.00 20.00    -0.171 F 
HETATM   10  F11 UNL     1     -31.653   7.574   1.914  1.00 20.00    -0.171 F 
ENDBRANCH   6   7
ENDBRANCH   1   6
BRANCH   1  11
HETATM   11  O8  UNL     1     -34.435   5.099   2.076  1.00 20.00    -0.395 OA
HETATM   12  H22 UNL     1     -35.402   5.041   2.110  1.00 20.00     0.210 HD
ENDBRANCH   1  11
TORSDOF 5
ENDMDL
MODEL 3
REMARK VINA RESULT:      -4.9      1.754      2.240
REMARK  5 active torsions:
REMARK  status: ('A' for Active; 'I' for Inactive)
REMARK    1  A    between atoms: C2_2  and  C4_4 
REMARK    2  A    between atoms: C4_4  and  C6_6 
REMARK    3  A    between atoms: C5_5  and  C6_6 
REMARK    4  A    between atoms: C5_5  and  C7_7 
REMARK    5  A    between atoms: C6_6  and  O8_8 
ROOT
HETATM    1  C6  UNL     1     -32.205   7.724   3.041  1.00 20.00     0.130 C 
ENDROOT
BRANCH   1   2
HETATM    2  C4  UNL     1     -32.625   6.248   3.099  1.00 20.00     0.065 C 
BRANCH   2   3
HETATM    3  C2  UNL     1     -33.855   6.007   3.946  1.00 20.00    -0.091 C 
HETATM    4  C1  UNL     1     -34.971   5.471   3.427  1.00 20.00     0.014 C 
HETATM    5  C3  UNL     1     -33.790   6.434   5.385  1.00 20.00     0.042 C 
ENDBRANCH   2   3
ENDBRANCH   1   2
BRANCH   1   6
HETATM    6  C5  UNL     1     -31.839   8.123   1.605  1.00 20.00     0.149 C 
BRANCH   6   7
HETATM    7  C7  UNL     1     -32.525   9.396   1.148  1.00 20.00     0.390 C 
HETATM    8  F9  UNL     1     -31.665  10.434   1.091  1.00 20.00    -0.171 F 
HETATM    9  F10 UNL     1     -33.049   9.233  -0.087  1.00 20.00    -0.171 F 
HETATM   10  F11 UNL     1     -33.534   9.733   1.979  1.00 20.00    -0.171 F 
ENDBRANCH   6   7
ENDBRANCH   1   6
BRANCH   1  11
HETATM   11  O8  UNL     1     -31.072   7.898   3.889  1.00 20.00    -0.395 OA
HETATM   12  H22 UNL     1     -30.763   8.807   3.752  1.00 20.00     0.210 HD
ENDBRANCH   1  11
TORSDOF 5
ENDMDL
MODEL 4
REMARK VINA RESULT:      -4.9      3.343      4.859
REMARK  5 active torsions:
REMARK  status: ('A' for Active; 'I' for Inactive)
REMARK    1  A    between atoms: C2_2  and  C4_4 
REMARK    2  A    between atoms: C4_4  and  C6_6 
REMARK    3  A    between atoms: C5_5  and  C6_6 
REMARK    4  A    between atoms: C5_5  and  C7_7 
REMARK    5  A    between atoms: C6_6  and  O8_8 
ROOT
HETATM    1  C6  UNL     1     -34.236   6.013   3.868  1.00 20.00     0.130 C 
ENDROOT
BRANCH   1   2
HETATM    2  C4  UNL     1     -33.022   6.010   2.927  1.00 20.00     0.065 C 
BRANCH   2   3
HETATM    3  C2  UNL     1     -32.184   7.266   3.025  1.00 20.00    -0.091 C 
HETATM    4  C1  UNL     1     -31.490   7.561   4.136  1.00 20.00     0.014 C 
HETATM    5  C3  UNL     1     -32.196   8.190   1.841  1.00 20.00     0.042 C 
ENDBRANCH   2   3
ENDBRANCH   1   2
BRANCH   1   6
HETATM    6  C5  UNL     1     -34.195   4.798   4.805  1.00 20.00     0.149 C 
BRANCH   6   7
HETATM    7  C7  UNL     1     -34.469   5.153   6.253  1.00 20.00     0.390 C 
HETATM    8  F9  UNL     1     -34.359   6.480   6.472  1.00 20.00    -0.171 F 
HETATM    9  F10 UNL     1     -35.723   4.786   6.599  1.00 20.00    -0.171 F 
HETATM   10  F11 UNL     1     -33.613   4.520   7.082  1.00 20.00    -0.171 F 
ENDBRANCH   6   7
ENDBRANCH   1   6
BRANCH   1  11
HETATM   11  O8  UNL     1     -35.418   5.963   3.071  1.00 20.00    -0.395 OA
HETATM   12  H22 UNL     1     -35.231   5.353   2.341  1.00 20.00     0.210 HD
ENDBRANCH   1  11
TORSDOF 5
ENDMDL
MODEL 5
REMARK VINA RESULT:      -4.9      3.658      4.997
REMARK  5 active torsions:
REMARK  status: ('A' for Active; 'I' for Inactive)
REMARK    1  A    between atoms: C2_2  and  C4_4 
REMARK    2  A    between atoms: C4_4  and  C6_6 
REMARK    3  A    between atoms: C5_5  and  C6_6 
REMARK    4  A    between atoms: C5_5  and  C7_7 
REMARK    5  A    between atoms: C6_6  and  O8_8 
ROOT
HETATM    1  C6  UNL     1     -33.411   6.389   5.719  1.00 20.00     0.130 C 
ENDROOT
BRANCH   1   2
HETATM    2  C4  UNL     1     -33.732   7.035   4.363  1.00 20.00     0.065 C 
BRANCH   2   3
HETATM    3  C2  UNL     1     -32.700   6.738   3.298  1.00 20.00    -0.091 C 
HETATM    4  C1  UNL     1     -32.272   5.487   3.064  1.00 20.00     0.014 C 
HETATM    5  C3  UNL     1     -32.141   7.909   2.541  1.00 20.00     0.042 C 
ENDBRANCH   2   3
ENDBRANCH   1   2
BRANCH   1   6
HETATM    6  C5  UNL     1     -34.669   5.751   6.323  1.00 20.00     0.149 C 
BRANCH   6   7
HETATM    7  C7  UNL     1     -34.909   4.334   5.839  1.00 20.00     0.390 C 
HETATM    8  F9  UNL     1     -35.392   4.312   4.579  1.00 20.00    -0.171 F 
HETATM    9  F10 UNL     1     -33.754   3.632   5.845  1.00 20.00    -0.171 F 
HETATM   10  F11 UNL     1     -35.785   3.687   6.635  1.00 20.00    -0.171 F 
ENDBRANCH   6   7
ENDBRANCH   1   6
BRANCH   1  11
HETATM   11  O8  UNL     1     -32.924   7.406   6.593  1.00 20.00    -0.395 OA
HETATM   12  H22 UNL     1     -33.664   8.012   6.747  1.00 20.00     0.210 HD
ENDBRANCH   1  11
TORSDOF 5
ENDMDL
MODEL 6
REMARK VINA RESULT:      -4.8      3.479      4.927
REMARK  5 active torsions:
REMARK  status: ('A' for Active; 'I' for Inactive)
REMARK    1  A    between atoms: C2_2  and  C4_4 
REMARK    2  A    between atoms: C4_4  and  C6_6 
REMARK    3  A    between atoms: C5_5  and  C6_6 
REMARK    4  A    between atoms: C5_5  and  C7_7 
REMARK    5  A    between atoms: C6_6  and  O8_8 
ROOT
HETATM    1  C6  UNL     1     -33.767   6.002   3.448  1.00 20.00     0.130 C 
ENDROOT
BRANCH   1   2
HETATM    2  C4  UNL     1     -32.298   6.118   3.016  1.00 20.00     0.065 C 
BRANCH   2   3
HETATM    3  C2  UNL     1     -31.778   7.538   3.034  1.00 20.00    -0.091 C 
HETATM    4  C1  UNL     1     -31.157   8.045   4.111  1.00 20.00     0.014 C 
HETATM    5  C3  UNL     1     -32.024   8.373   1.810  1.00 20.00     0.042 C 
ENDBRANCH   2   3
ENDBRANCH   1   2
BRANCH   1   6
HETATM    6  C5  UNL     1     -33.864   5.542   4.909  1.00 20.00     0.149 C 
BRANCH   6   7
HETATM    7  C7  UNL     1     -35.132   4.767   5.206  1.00 20.00     0.390 C 
HETATM    8  F9  UNL     1     -34.960   3.440   5.030  1.00 20.00    -0.171 F 
HETATM    9  F10 UNL     1     -35.515   4.961   6.488  1.00 20.00    -0.171 F 
HETATM   10  F11 UNL     1     -36.148   5.166   4.412  1.00 20.00    -0.171 F 
ENDBRANCH   6   7
ENDBRANCH   1   6
BRANCH   1  11
HETATM   11  O8  UNL     1     -34.406   5.048   2.603  1.00 20.00    -0.395 OA
HETATM   12  H22 UNL     1     -35.324   5.341   2.502  1.00 20.00     0.210 HD
ENDBRANCH   1  11
TORSDOF 5
ENDMDL
MODEL 7
REMARK VINA RESULT:      -4.8      2.919      4.712
REMARK  5 active torsions:
REMARK  status: ('A' for Active; 'I' for Inactive)
REMARK    1  A    between atoms: C2_2  and  C4_4 
REMARK    2  A    between atoms: C4_4  and  C6_6 
REMARK    3  A    between atoms: C5_5  and  C6_6 
REMARK    4  A    between atoms: C5_5  and  C7_7 
REMARK    5  A    between atoms: C6_6  and  O8_8 
ROOT
HETATM    1  C6  UNL     1     -32.728   6.557   2.932  1.00 20.00     0.130 C 
ENDROOT
BRANCH   1   2
HETATM    2  C4  UNL     1     -32.000   7.905   3.048  1.00 20.00     0.065 C 
BRANCH   2   3
HETATM    3  C2  UNL     1     -32.134   8.766   1.810  1.00 20.00    -0.091 C 
HETATM    4  C1  UNL     1     -31.645   8.371   0.624  1.00 20.00     0.014 C 
HETATM    5  C3  UNL     1     -32.801  10.101   1.975  1.00 20.00     0.042 C 
ENDBRANCH   2   3
ENDBRANCH   1   2
BRANCH   1   6
HETATM    6  C5  UNL     1     -33.896   6.490   3.926  1.00 20.00     0.149 C 
BRANCH   6   7
HETATM    7  C7  UNL     1     -34.875   5.375   3.617  1.00 20.00     0.390 C 
HETATM    8  F9  UNL     1     -36.141   5.833   3.525  1.00 20.00    -0.171 F 
HETATM    9  F10 UNL     1     -34.567   4.789   2.439  1.00 20.00    -0.171 F 
HETATM   10  F11 UNL     1     -34.844   4.419   4.570  1.00 20.00    -0.171 F 
ENDBRANCH   6   7
ENDBRANCH   1   6
BRANCH   1  11
HETATM   11  O8  UNL     1     -31.793   5.520   3.223  1.00 20.00    -0.395 OA
HETATM   12  H22 UNL     1     -32.304   4.785   3.594  1.00 20.00     0.210 HD
ENDBRANCH   1  11
TORSDOF 5
ENDMDL
MODEL 8
REMARK VINA RESULT:      -4.6     11.242     11.924
REMARK  5 active torsions:
REMARK  status: ('A' for Active; 'I' for Inactive)
REMARK    1  A    between atoms: C2_2  and  C4_4 
REMARK    2  A    between atoms: C4_4  and  C6_6 
REMARK    3  A    between atoms: C5_5  and  C6_6 
REMARK    4  A    between atoms: C5_5  and  C7_7 
REMARK    5  A    between atoms: C6_6  and  O8_8 
ROOT
HETATM    1  C6  UNL     1     -33.810  14.114  -4.293  1.00 20.00     0.130 C 
ENDROOT
BRANCH   1   2
HETATM    2  C4  UNL     1     -34.609  14.610  -3.080  1.00 20.00     0.065 C 
BRANCH   2   3
HETATM    3  C2  UNL     1     -34.276  16.032  -2.684  1.00 20.00    -0.091 C 
HETATM    4  C1  UNL     1     -33.694  16.883  -3.545  1.00 20.00     0.014 C 
HETATM    5  C3  UNL     1     -34.587  16.441  -1.273  1.00 20.00     0.042 C 
ENDBRANCH   2   3
ENDBRANCH   1   2
BRANCH   1   6
HETATM    6  C5  UNL     1     -34.754  13.564  -5.371  1.00 20.00     0.149 C 
BRANCH   6   7
HETATM    7  C7  UNL     1     -35.019  14.553  -6.490  1.00 20.00     0.390 C 
HETATM    8  F9  UNL     1     -35.474  13.939  -7.602  1.00 20.00    -0.171 F 
HETATM    9  F10 UNL     1     -35.952  15.454  -6.111  1.00 20.00    -0.171 F 
HETATM   10  F11 UNL     1     -33.900  15.235  -6.815  1.00 20.00    -0.171 F 
ENDBRANCH   6   7
ENDBRANCH   1   6
BRANCH   1  11
HETATM   11  O8  UNL     1     -32.931  13.079  -3.855  1.00 20.00    -0.395 OA
HETATM   12  H22 UNL     1     -33.464  12.476  -3.315  1.00 20.00     0.210 HD
ENDBRANCH   1  11
TORSDOF 5
ENDMDL
MODEL 9
REMARK VINA RESULT:      -4.6     11.038     11.957
REMARK  5 active torsions:
REMARK  status: ('A' for Active; 'I' for Inactive)
REMARK    1  A    between atoms: C2_2  and  C4_4 
REMARK    2  A    between atoms: C4_4  and  C6_6 
REMARK    3  A    between atoms: C5_5  and  C6_6 
REMARK    4  A    between atoms: C5_5  and  C7_7 
REMARK    5  A    between atoms: C6_6  and  O8_8 
ROOT
HETATM    1  C6  UNL     1     -33.249  15.231  -3.818  1.00 20.00     0.130 C 
ENDROOT
BRANCH   1   2
HETATM    2  C4  UNL     1     -33.821  15.648  -5.181  1.00 20.00     0.065 C 
BRANCH   2   3
HETATM    3  C2  UNL     1     -34.552  14.530  -5.891  1.00 20.00    -0.091 C 
HETATM    4  C1  UNL     1     -35.004  14.673  -7.148  1.00 20.00     0.014 C 
HETATM    5  C3  UNL     1     -34.788  13.265  -5.116  1.00 20.00     0.042 C 
ENDBRANCH   2   3
ENDBRANCH   1   2
BRANCH   1   6
HETATM    6  C5  UNL     1     -33.505  16.323  -2.770  1.00 20.00     0.149 C 
BRANCH   6   7
HETATM    7  C7  UNL     1     -34.840  16.170  -2.067  1.00 20.00     0.390 C 
HETATM    8  F9  UNL     1     -34.696  16.128  -0.726  1.00 20.00    -0.171 F 
HETATM    9  F10 UNL     1     -35.648  17.214  -2.357  1.00 20.00    -0.171 F 
HETATM   10  F11 UNL     1     -35.472  15.043  -2.456  1.00 20.00    -0.171 F 
ENDBRANCH   6   7
ENDBRANCH   1   6
BRANCH   1  11
HETATM   11  O8  UNL     1     -31.844  15.032  -3.967  1.00 20.00    -0.395 OA
HETATM   12  H22 UNL     1     -31.611  14.285  -3.395  1.00 20.00     0.210 HD
ENDBRANCH   1  11
TORSDOF 5
ENDMDL
