MODEL 1
REMARK VINA RESULT:      -4.5      0.000      0.000
REMARK  1 active torsions:
REMARK  status: ('A' for Active; 'I' for Inactive)
REMARK    1  A    between atoms: C1_1  and  C3_3 
ROOT
HETATM    1  C2  UNL     1     -33.267  16.164  -5.006  1.00 20.00     0.019 C 
HETATM    2  C3  UNL     1     -35.250  15.537  -4.343  1.00 20.00     0.070 C 
HETATM    3  C4  UNL     1     -34.624  15.936  -5.724  1.00 20.00    -0.036 C 
HETATM    4  C5  UNL     1     -33.806  15.449  -3.739  1.00 20.00    -0.036 C 
HETATM    5  C7  UNL     1     -35.221  17.223  -6.296  1.00 20.00     0.015 C 
HETATM    6  C8  UNL     1     -34.564  14.850  -6.799  1.00 20.00     0.015 C 
HETATM    7  C9  UNL     1     -33.643  16.284  -2.467  1.00 20.00     0.015 C 
HETATM    8  C10 UNL     1     -33.220  14.051  -3.538  1.00 20.00     0.015 C 
ENDROOT
BRANCH   2   9
HETATM    9  C1  UNL     1     -36.168  14.314  -4.264  1.00 20.00     0.128 C 
HETATM   10  C6  UNL     1     -37.635  14.580  -4.062  1.00 20.00     0.091 C 
HETATM   11  O11 UNL     1     -35.728  13.169  -4.365  1.00 20.00    -0.298 OA
ENDBRANCH   2   9
TORSDOF 1
ENDMDL
MODEL 2
REMARK VINA RESULT:      -4.4      1.854      3.300
REMARK  1 active torsions:
REMARK  status: ('A' for Active; 'I' for Inactive)
REMARK    1  A    between atoms: C1_1  and  C3_3 
ROOT
HETATM    1  C2  UNL     1     -36.161  17.154  -2.648  1.00 20.00     0.019 C 
HETATM    2  C3  UNL     1     -34.711  15.540  -2.893  1.00 20.00     0.070 C 
HETATM    3  C4  UNL     1     -35.997  15.994  -3.666  1.00 20.00    -0.036 C 
HETATM    4  C5  UNL     1     -34.726  16.901  -2.116  1.00 20.00    -0.036 C 
HETATM    5  C7  UNL     1     -37.130  14.968  -3.589  1.00 20.00     0.015 C 
HETATM    6  C8  UNL     1     -35.809  16.475  -5.106  1.00 20.00     0.015 C 
HETATM    7  C9  UNL     1     -34.676  16.717  -0.597  1.00 20.00     0.015 C 
HETATM    8  C10 UNL     1     -33.720  17.965  -2.557  1.00 20.00     0.015 C 
ENDROOT
BRANCH   2   9
HETATM    9  C1  UNL     1     -33.462  15.147  -3.687  1.00 20.00     0.128 C 
HETATM   10  C6  UNL     1     -33.114  13.683  -3.721  1.00 20.00     0.091 C 
HETATM   11  O11 UNL     1     -32.778  15.986  -4.271  1.00 20.00    -0.298 OA
ENDBRANCH   2   9
TORSDOF 1
ENDMDL
MODEL 3
REMARK VINA RESULT:      -4.4      1.378      2.628
REMARK  1 active torsions:
REMARK  status: ('A' for Active; 'I' for Inactive)
REMARK    1  A    between atoms: C1_1  and  C3_3 
ROOT
HETATM    1  C2  UNL     1     -36.065  16.644  -3.766  1.00 20.00     0.019 C 
HETATM    2  C3  UNL     1     -35.358  14.609  -3.417  1.00 20.00     0.070 C 
HETATM    3  C4  UNL     1     -36.452  15.254  -4.337  1.00 20.00    -0.036 C 
HETATM    4  C5  UNL     1     -34.783  16.039  -3.136  1.00 20.00    -0.036 C 
HETATM    5  C7  UNL     1     -37.872  14.828  -3.959  1.00 20.00     0.015 C 
HETATM    6  C8  UNL     1     -36.245  15.142  -5.848  1.00 20.00     0.015 C 
HETATM    7  C9  UNL     1     -34.652  16.342  -1.641  1.00 20.00     0.015 C 
HETATM    8  C10 UNL     1     -33.502  16.431  -3.874  1.00 20.00     0.015 C 
ENDROOT
BRANCH   2   9
HETATM    9  C1  UNL     1     -34.435  13.533  -3.997  1.00 20.00     0.128 C 
HETATM   10  C6  UNL     1     -32.983  13.604  -3.608  1.00 20.00     0.091 C 
HETATM   11  O11 UNL     1     -34.860  12.651  -4.742  1.00 20.00    -0.298 OA
ENDBRANCH   2   9
TORSDOF 1
ENDMDL
MODEL 4
REMARK VINA RESULT:      -4.3      1.689      3.123
REMARK  1 active torsions:
REMARK  status: ('A' for Active; 'I' for Inactive)
REMARK    1  A    between atoms: C1_1  and  C3_3 
ROOT
HETATM    1  C2  UNL     1     -33.356  15.952  -2.997  1.00 20.00     0.019 C 
HETATM    2  C3  UNL     1     -35.484  15.472  -3.085  1.00 20.00     0.070 C 
HETATM    3  C4  UNL     1     -34.636  16.605  -2.409  1.00 20.00    -0.036 C 
HETATM    4  C5  UNL     1     -34.225  15.060  -3.922  1.00 20.00    -0.036 C 
HETATM    5  C7  UNL     1     -34.686  16.553  -0.881  1.00 20.00     0.015 C 
HETATM    6  C8  UNL     1     -34.867  18.034  -2.903  1.00 20.00     0.015 C 
HETATM    7  C9  UNL     1     -33.893  13.570  -3.799  1.00 20.00     0.015 C 
HETATM    8  C10 UNL     1     -34.191  15.495  -5.388  1.00 20.00     0.015 C 
ENDROOT
BRANCH   2   9
HETATM    9  C1  UNL     1     -36.778  15.843  -3.816  1.00 20.00     0.128 C 
HETATM   10  C6  UNL     1     -37.873  14.810  -3.820  1.00 20.00     0.091 C 
HETATM   11  O11 UNL     1     -36.917  16.933  -4.369  1.00 20.00    -0.298 OA
ENDBRANCH   2   9
TORSDOF 1
ENDMDL
MODEL 5
REMARK VINA RESULT:      -4.3      1.361      1.910
REMARK  1 active torsions:
REMARK  status: ('A' for Active; 'I' for Inactive)
REMARK    1  A    between atoms: C1_1  and  C3_3 
ROOT
HETATM    1  C2  UNL     1     -33.529  15.544  -4.252  1.00 20.00     0.019 C 
HETATM    2  C3  UNL     1     -35.686  15.799  -4.470  1.00 20.00     0.070 C 
HETATM    3  C4  UNL     1     -34.640  14.758  -4.999  1.00 20.00    -0.036 C 
HETATM    4  C5  UNL     1     -34.606  16.345  -3.474  1.00 20.00    -0.036 C 
HETATM    5  C7  UNL     1     -34.479  14.798  -6.520  1.00 20.00     0.015 C 
HETATM    6  C8  UNL     1     -34.789  13.315  -4.514  1.00 20.00     0.015 C 
HETATM    7  C9  UNL     1     -34.415  17.860  -3.578  1.00 20.00     0.015 C 
HETATM    8  C10 UNL     1     -34.733  15.923  -2.009  1.00 20.00     0.015 C 
ENDROOT
BRANCH   2   9
HETATM    9  C1  UNL     1     -37.025  15.299  -3.919  1.00 20.00     0.128 C 
HETATM   10  C6  UNL     1     -38.069  16.342  -3.627  1.00 20.00     0.091 C 
HETATM   11  O11 UNL     1     -37.237  14.102  -3.728  1.00 20.00    -0.298 OA
ENDBRANCH   2   9
TORSDOF 1
ENDMDL
MODEL 6
REMARK VINA RESULT:      -4.3      1.302      3.195
REMARK  1 active torsions:
REMARK  status: ('A' for Active; 'I' for Inactive)
REMARK    1  A    between atoms: C1_1  and  C3_3 
ROOT
HETATM    1  C2  UNL     1     -36.418  16.258  -5.600  1.00 20.00     0.019 C 
HETATM    2  C3  UNL     1     -34.836  15.178  -4.553  1.00 20.00     0.070 C 
HETATM    3  C4  UNL     1     -36.290  15.634  -4.185  1.00 20.00    -0.036 C 
HETATM    4  C5  UNL     1     -35.135  15.513  -6.054  1.00 20.00    -0.036 C 
HETATM    5  C7  UNL     1     -36.320  16.678  -3.067  1.00 20.00     0.015 C 
HETATM    6  C8  UNL     1     -37.315  14.532  -3.914  1.00 20.00     0.015 C 
HETATM    7  C9  UNL     1     -34.091  16.446  -6.674  1.00 20.00     0.015 C 
HETATM    8  C10 UNL     1     -35.418  14.334  -6.987  1.00 20.00     0.015 C 
ENDROOT
BRANCH   2   9
HETATM    9  C1  UNL     1     -34.378  13.765  -4.180  1.00 20.00     0.128 C 
HETATM   10  C6  UNL     1     -33.006  13.635  -3.575  1.00 20.00     0.091 C 
HETATM   11  O11 UNL     1     -35.098  12.785  -4.362  1.00 20.00    -0.298 OA
ENDBRANCH   2   9
TORSDOF 1
ENDMDL
MODEL 7
REMARK VINA RESULT:      -4.3      1.964      3.702
REMARK  1 active torsions:
REMARK  status: ('A' for Active; 'I' for Inactive)
REMARK    1  A    between atoms: C1_1  and  C3_3 
ROOT
HETATM    1  C2  UNL     1     -35.297  14.890  -4.997  1.00 20.00     0.019 C 
HETATM    2  C3  UNL     1     -34.965  15.562  -2.947  1.00 20.00     0.070 C 
HETATM    3  C4  UNL     1     -34.042  15.023  -4.093  1.00 20.00    -0.036 C 
HETATM    4  C5  UNL     1     -36.123  15.732  -3.990  1.00 20.00    -0.036 C 
HETATM    5  C7  UNL     1     -33.402  13.674  -3.757  1.00 20.00     0.015 C 
HETATM    6  C8  UNL     1     -32.994  15.987  -4.652  1.00 20.00     0.015 C 
HETATM    7  C9  UNL     1     -37.418  15.041  -3.556  1.00 20.00     0.015 C 
HETATM    8  C10 UNL     1     -36.414  17.151  -4.481  1.00 20.00     0.015 C 
ENDROOT
BRANCH   2   9
HETATM    9  C1  UNL     1     -34.512  16.775  -2.130  1.00 20.00     0.128 C 
HETATM   10  C6  UNL     1     -34.680  16.688  -0.637  1.00 20.00     0.091 C 
HETATM   11  O11 UNL     1     -34.030  17.772  -2.668  1.00 20.00    -0.298 OA
ENDBRANCH   2   9
TORSDOF 1
ENDMDL
MODEL 8
REMARK VINA RESULT:      -4.2      1.649      2.727
REMARK  1 active torsions:
REMARK  status: ('A' for Active; 'I' for Inactive)
REMARK    1  A    between atoms: C1_1  and  C3_3 
ROOT
HETATM    1  C2  UNL     1     -34.293  15.241  -5.600  1.00 20.00     0.019 C 
HETATM    2  C3  UNL     1     -34.324  16.040  -3.569  1.00 20.00     0.070 C 
HETATM    3  C4  UNL     1     -34.515  16.654  -4.998  1.00 20.00    -0.036 C 
HETATM    4  C5  UNL     1     -34.448  14.607  -4.192  1.00 20.00    -0.036 C 
HETATM    5  C7  UNL     1     -33.409  17.643  -5.373  1.00 20.00     0.015 C 
HETATM    6  C8  UNL     1     -35.889  17.241  -5.325  1.00 20.00     0.015 C 
HETATM    7  C9  UNL     1     -33.278  13.694  -3.817  1.00 20.00     0.015 C 
HETATM    8  C10 UNL     1     -35.778  13.878  -4.000  1.00 20.00     0.015 C 
ENDROOT
BRANCH   2   9
HETATM    9  C1  UNL     1     -35.280  16.451  -2.445  1.00 20.00     0.128 C 
HETATM   10  C6  UNL     1     -34.703  16.523  -1.057  1.00 20.00     0.091 C 
HETATM   11  O11 UNL     1     -36.462  16.712  -2.667  1.00 20.00    -0.298 OA
ENDBRANCH   2   9
TORSDOF 1
ENDMDL
MODEL 9
REMARK VINA RESULT:      -4.2      2.158      3.623
REMARK  1 active torsions:
REMARK  status: ('A' for Active; 'I' for Inactive)
REMARK    1  A    between atoms: C1_1  and  C3_3 
ROOT
HETATM    1  C2  UNL     1     -34.158  15.349  -5.619  1.00 20.00     0.019 C 
HETATM    2  C3  UNL     1     -34.784  16.163  -3.693  1.00 20.00     0.070 C 
HETATM    3  C4  UNL     1     -33.997  14.885  -4.146  1.00 20.00    -0.036 C 
HETATM    4  C5  UNL     1     -34.620  16.749  -5.137  1.00 20.00    -0.036 C 
HETATM    5  C7  UNL     1     -34.749  13.587  -3.844  1.00 20.00     0.015 C 
HETATM    6  C8  UNL     1     -32.538  14.774  -3.702  1.00 20.00     0.015 C 
HETATM    7  C9  UNL     1     -35.952  17.183  -5.756  1.00 20.00     0.015 C 
HETATM    8  C10 UNL     1     -33.562  17.836  -5.331  1.00 20.00     0.015 C 
ENDROOT
BRANCH   2   9
HETATM    9  C1  UNL     1     -34.272  16.971  -2.497  1.00 20.00     0.128 C 
HETATM   10  C6  UNL     1     -34.663  16.478  -1.129  1.00 20.00     0.091 C 
HETATM   11  O11 UNL     1     -33.572  17.972  -2.646  1.00 20.00    -0.298 OA
ENDBRANCH   2   9
TORSDOF 1
ENDMDL
