MODEL 1
REMARK VINA RESULT:      -3.9      0.000      0.000
REMARK  4 active torsions:
REMARK  status: ('A' for Active; 'I' for Inactive)
REMARK    1  A    between atoms: C1_1  and  O10_10 
REMARK    2  A    between atoms: C1_1  and  O11_11 
REMARK    3  A    between atoms: C7_7  and  O10_10 
REMARK    4  A    between atoms: C8_8  and  O11_11 
ROOT
HETATM    1  C1  UNL     1     -33.601  16.226  -4.053  1.00 20.00     0.407 C 
HETATM    2  O9  UNL     1     -32.744  16.313  -4.922  1.00 20.00    -0.229 OA
ENDROOT
BRANCH   1   3
HETATM    3  O10 UNL     1     -33.397  16.351  -2.712  1.00 20.00    -0.293 OA
BRANCH   3   4
HETATM    4  C7  UNL     1     -34.258  17.277  -2.039  1.00 20.00     0.126 C 
HETATM    5  C2  UNL     1     -34.647  16.704  -0.685  1.00 20.00     0.040 C 
HETATM    6  C3  UNL     1     -33.548  18.615  -1.907  1.00 20.00     0.040 C 
ENDBRANCH   3   4
ENDBRANCH   1   3
BRANCH   1   7
HETATM    7  O11 UNL     1     -34.928  15.990  -4.261  1.00 20.00    -0.288 OA
BRANCH   7   8
HETATM    8  C8  UNL     1     -35.285  14.629  -4.502  1.00 20.00     0.062 C 
HETATM    9  C4  UNL     1     -34.343  13.730  -3.702  1.00 20.00     0.046 C 
HETATM   10  C5  UNL     1     -36.729  14.444  -4.039  1.00 20.00     0.046 C 
HETATM   11  C6  UNL     1     -35.161  14.352  -5.999  1.00 20.00     0.046 C 
ENDBRANCH   7   8
ENDBRANCH   1   7
TORSDOF 4
ENDMDL
MODEL 2
REMARK VINA RESULT:      -3.9      0.015      1.311
REMARK  4 active torsions:
REMARK  status: ('A' for Active; 'I' for Inactive)
REMARK    1  A    between atoms: C1_1  and  O10_10 
REMARK    2  A    between atoms: C1_1  and  O11_11 
REMARK    3  A    between atoms: C7_7  and  O10_10 
REMARK    4  A    between atoms: C8_8  and  O11_11 
ROOT
HETATM    1  C1  UNL     1     -33.603  16.230  -4.054  1.00 20.00     0.407 C 
HETATM    2  O9  UNL     1     -32.744  16.313  -4.922  1.00 20.00    -0.229 OA
ENDROOT
BRANCH   1   3
HETATM    3  O10 UNL     1     -33.399  16.348  -2.712  1.00 20.00    -0.293 OA
BRANCH   3   4
HETATM    4  C7  UNL     1     -34.256  17.276  -2.037  1.00 20.00     0.126 C 
HETATM    5  C2  UNL     1     -34.649  16.701  -0.685  1.00 20.00     0.040 C 
HETATM    6  C3  UNL     1     -33.540  18.611  -1.899  1.00 20.00     0.040 C 
ENDBRANCH   3   4
ENDBRANCH   1   3
BRANCH   1   7
HETATM    7  O11 UNL     1     -34.931  16.004  -4.264  1.00 20.00    -0.288 OA
BRANCH   7   8
HETATM    8  C8  UNL     1     -35.300  14.644  -4.491  1.00 20.00     0.062 C 
HETATM    9  C4  UNL     1     -36.743  14.448  -4.030  1.00 20.00     0.046 C 
HETATM   10  C5  UNL     1     -35.173  14.378  -5.990  1.00 20.00     0.046 C 
HETATM   11  C6  UNL     1     -34.349  13.744  -3.704  1.00 20.00     0.046 C 
ENDBRANCH   7   8
ENDBRANCH   1   7
TORSDOF 4
ENDMDL
MODEL 3
REMARK VINA RESULT:      -3.8      1.933      4.421
REMARK  4 active torsions:
REMARK  status: ('A' for Active; 'I' for Inactive)
REMARK    1  A    between atoms: C1_1  and  O10_10 
REMARK    2  A    between atoms: C1_1  and  O11_11 
REMARK    3  A    between atoms: C7_7  and  O10_10 
REMARK    4  A    between atoms: C8_8  and  O11_11 
ROOT
HETATM    1  C1  UNL     1     -35.525  14.022  -4.452  1.00 20.00     0.407 C 
HETATM    2  O9  UNL     1     -35.041  12.898  -4.459  1.00 20.00    -0.229 OA
ENDROOT
BRANCH   1   3
HETATM    3  O10 UNL     1     -35.995  14.698  -5.538  1.00 20.00    -0.293 OA
BRANCH   3   4
HETATM    4  C7  UNL     1     -35.393  14.351  -6.790  1.00 20.00     0.126 C 
HETATM    5  C2  UNL     1     -36.392  14.601  -7.910  1.00 20.00     0.040 C 
HETATM    6  C3  UNL     1     -34.119  15.159  -6.975  1.00 20.00     0.040 C 
ENDBRANCH   3   4
ENDBRANCH   1   3
BRANCH   1   7
HETATM    7  O11 UNL     1     -35.687  14.814  -3.355  1.00 20.00    -0.288 OA
BRANCH   7   8
HETATM    8  C8  UNL     1     -34.644  15.758  -3.112  1.00 20.00     0.062 C 
HETATM    9  C4  UNL     1     -33.311  15.120  -3.498  1.00 20.00     0.046 C 
HETATM   10  C5  UNL     1     -34.924  16.986  -3.977  1.00 20.00     0.046 C 
HETATM   11  C6  UNL     1     -34.661  16.130  -1.630  1.00 20.00     0.046 C 
ENDBRANCH   7   8
ENDBRANCH   1   7
TORSDOF 4
ENDMDL
MODEL 4
REMARK VINA RESULT:      -3.8      1.805      4.400
REMARK  4 active torsions:
REMARK  status: ('A' for Active; 'I' for Inactive)
REMARK    1  A    between atoms: C1_1  and  O10_10 
REMARK    2  A    between atoms: C1_1  and  O11_11 
REMARK    3  A    between atoms: C7_7  and  O10_10 
REMARK    4  A    between atoms: C8_8  and  O11_11 
ROOT
HETATM    1  C1  UNL     1     -34.834  13.999  -4.793  1.00 20.00     0.407 C 
HETATM    2  O9  UNL     1     -34.921  12.887  -4.291  1.00 20.00    -0.229 OA
ENDROOT
BRANCH   1   3
HETATM    3  O10 UNL     1     -34.436  14.273  -6.067  1.00 20.00    -0.293 OA
BRANCH   3   4
HETATM    4  C7  UNL     1     -35.290  15.156  -6.804  1.00 20.00     0.126 C 
HETATM    5  C2  UNL     1     -34.464  16.314  -7.345  1.00 20.00     0.040 C 
HETATM    6  C3  UNL     1     -35.973  14.378  -7.918  1.00 20.00     0.040 C 
ENDBRANCH   3   4
ENDBRANCH   1   3
BRANCH   1   7
HETATM    7  O11 UNL     1     -35.120  15.180  -4.175  1.00 20.00    -0.288 OA
BRANCH   7   8
HETATM    8  C8  UNL     1     -34.061  15.750  -3.406  1.00 20.00     0.062 C 
HETATM    9  C4  UNL     1     -33.713  17.116  -3.995  1.00 20.00     0.046 C 
HETATM   10  C5  UNL     1     -34.561  15.895  -1.970  1.00 20.00     0.046 C 
HETATM   11  C6  UNL     1     -32.859  14.809  -3.463  1.00 20.00     0.046 C 
ENDBRANCH   7   8
ENDBRANCH   1   7
TORSDOF 4
ENDMDL
MODEL 5
REMARK VINA RESULT:      -3.7     11.371     12.550
REMARK  4 active torsions:
REMARK  status: ('A' for Active; 'I' for Inactive)
REMARK    1  A    between atoms: C1_1  and  O10_10 
REMARK    2  A    between atoms: C1_1  and  O11_11 
REMARK    3  A    between atoms: C7_7  and  O10_10 
REMARK    4  A    between atoms: C8_8  and  O11_11 
ROOT
HETATM    1  C1  UNL     1     -33.531   5.793   3.089  1.00 20.00     0.407 C 
HETATM    2  O9  UNL     1     -33.891   5.116   2.135  1.00 20.00    -0.229 OA
ENDROOT
BRANCH   1   3
HETATM    3  O10 UNL     1     -33.277   7.131   3.071  1.00 20.00    -0.293 OA
BRANCH   3   4
HETATM    4  C7  UNL     1     -31.957   7.504   2.658  1.00 20.00     0.126 C 
HETATM    5  C2  UNL     1     -32.052   8.617   1.626  1.00 20.00     0.040 C 
HETATM    6  C3  UNL     1     -31.152   7.927   3.877  1.00 20.00     0.040 C 
ENDBRANCH   3   4
ENDBRANCH   1   3
BRANCH   1   7
HETATM    7  O11 UNL     1     -33.316   5.337   4.355  1.00 20.00    -0.288 OA
BRANCH   7   8
HETATM    8  C8  UNL     1     -34.472   5.255   5.189  1.00 20.00     0.062 C 
HETATM    9  C4  UNL     1     -34.531   3.858   5.804  1.00 20.00     0.046 C 
HETATM   10  C5  UNL     1     -34.329   6.318   6.278  1.00 20.00     0.046 C 
HETATM   11  C6  UNL     1     -35.709   5.526   4.333  1.00 20.00     0.046 C 
ENDBRANCH   7   8
ENDBRANCH   1   7
TORSDOF 4
ENDMDL
MODEL 6
REMARK VINA RESULT:      -3.7      1.755      4.607
REMARK  4 active torsions:
REMARK  status: ('A' for Active; 'I' for Inactive)
REMARK    1  A    between atoms: C1_1  and  O10_10 
REMARK    2  A    between atoms: C1_1  and  O11_11 
REMARK    3  A    between atoms: C7_7  and  O10_10 
REMARK    4  A    between atoms: C8_8  and  O11_11 
ROOT
HETATM    1  C1  UNL     1     -36.404  14.627  -4.511  1.00 20.00     0.407 C 
HETATM    2  O9  UNL     1     -37.262  14.156  -3.777  1.00 20.00    -0.229 OA
ENDROOT
BRANCH   1   3
HETATM    3  O10 UNL     1     -36.061  14.162  -5.744  1.00 20.00    -0.293 OA
BRANCH   3   4
HETATM    4  C7  UNL     1     -35.962  15.153  -6.773  1.00 20.00     0.126 C 
HETATM    5  C2  UNL     1     -34.649  14.969  -7.520  1.00 20.00     0.040 C 
HETATM    6  C3  UNL     1     -37.163  15.037  -7.698  1.00 20.00     0.040 C 
ENDBRANCH   3   4
ENDBRANCH   1   3
BRANCH   1   7
HETATM    7  O11 UNL     1     -35.626  15.712  -4.235  1.00 20.00    -0.288 OA
BRANCH   7   8
HETATM    8  C8  UNL     1     -34.444  15.451  -3.478  1.00 20.00     0.062 C 
HETATM    9  C4  UNL     1     -34.176  13.947  -3.498  1.00 20.00     0.046 C 
HETATM   10  C5  UNL     1     -33.296  16.211  -4.140  1.00 20.00     0.046 C 
HETATM   11  C6  UNL     1     -34.663  15.947  -2.049  1.00 20.00     0.046 C 
ENDBRANCH   7   8
ENDBRANCH   1   7
TORSDOF 4
ENDMDL
MODEL 7
REMARK VINA RESULT:      -3.7      1.586      3.908
REMARK  4 active torsions:
REMARK  status: ('A' for Active; 'I' for Inactive)
REMARK    1  A    between atoms: C1_1  and  O10_10 
REMARK    2  A    between atoms: C1_1  and  O11_11 
REMARK    3  A    between atoms: C7_7  and  O10_10 
REMARK    4  A    between atoms: C8_8  and  O11_11 
ROOT
HETATM    1  C1  UNL     1     -33.748  15.963  -5.157  1.00 20.00     0.407 C 
HETATM    2  O9  UNL     1     -32.637  16.296  -4.769  1.00 20.00    -0.229 OA
ENDROOT
BRANCH   1   3
HETATM    3  O10 UNL     1     -34.030  15.321  -6.326  1.00 20.00    -0.293 OA
BRANCH   3   4
HETATM    4  C7  UNL     1     -35.198  15.778  -7.016  1.00 20.00     0.126 C 
HETATM    5  C2  UNL     1     -34.820  16.944  -7.918  1.00 20.00     0.040 C 
HETATM    6  C3  UNL     1     -35.800  14.625  -7.802  1.00 20.00     0.040 C 
ENDBRANCH   3   4
ENDBRANCH   1   3
BRANCH   1   7
HETATM    7  O11 UNL     1     -34.920  16.168  -4.493  1.00 20.00    -0.288 OA
BRANCH   7   8
HETATM    8  C8  UNL     1     -35.202  15.252  -3.434  1.00 20.00     0.062 C 
HETATM    9  C4  UNL     1     -34.856  15.922  -2.106  1.00 20.00     0.046 C 
HETATM   10  C5  UNL     1     -36.692  14.920  -3.497  1.00 20.00     0.046 C 
HETATM   11  C6  UNL     1     -34.362  13.993  -3.645  1.00 20.00     0.046 C 
ENDBRANCH   7   8
ENDBRANCH   1   7
TORSDOF 4
ENDMDL
MODEL 8
REMARK VINA RESULT:      -3.7      1.333      2.109
REMARK  4 active torsions:
REMARK  status: ('A' for Active; 'I' for Inactive)
REMARK    1  A    between atoms: C1_1  and  O10_10 
REMARK    2  A    between atoms: C1_1  and  O11_11 
REMARK    3  A    between atoms: C7_7  and  O10_10 
REMARK    4  A    between atoms: C8_8  and  O11_11 
ROOT
HETATM    1  C1  UNL     1     -33.697  15.260  -3.687  1.00 20.00     0.407 C 
HETATM    2  O9  UNL     1     -32.565  14.820  -3.540  1.00 20.00    -0.229 OA
ENDROOT
BRANCH   1   3
HETATM    3  O10 UNL     1     -34.639  15.390  -2.710  1.00 20.00    -0.293 OA
BRANCH   3   4
HETATM    4  C7  UNL     1     -34.818  16.715  -2.198  1.00 20.00     0.126 C 
HETATM    5  C2  UNL     1     -36.223  17.194  -2.533  1.00 20.00     0.040 C 
HETATM    6  C3  UNL     1     -34.562  16.711  -0.699  1.00 20.00     0.040 C 
ENDBRANCH   3   4
ENDBRANCH   1   3
BRANCH   1   7
HETATM    7  O11 UNL     1     -34.235  15.706  -4.857  1.00 20.00    -0.288 OA
BRANCH   7   8
HETATM    8  C8  UNL     1     -34.965  14.740  -5.613  1.00 20.00     0.062 C 
HETATM    9  C4  UNL     1     -36.453  15.075  -5.523  1.00 20.00     0.046 C 
HETATM   10  C5  UNL     1     -34.480  14.825  -7.059  1.00 20.00     0.046 C 
HETATM   11  C6  UNL     1     -34.682  13.355  -5.033  1.00 20.00     0.046 C 
ENDBRANCH   7   8
ENDBRANCH   1   7
TORSDOF 4
ENDMDL
MODEL 9
REMARK VINA RESULT:      -3.7      1.871      2.824
REMARK  4 active torsions:
REMARK  status: ('A' for Active; 'I' for Inactive)
REMARK    1  A    between atoms: C1_1  and  O10_10 
REMARK    2  A    between atoms: C1_1  and  O11_11 
REMARK    3  A    between atoms: C7_7  and  O10_10 
REMARK    4  A    between atoms: C8_8  and  O11_11 
ROOT
HETATM    1  C1  UNL     1     -36.442  14.802  -3.967  1.00 20.00     0.407 C 
HETATM    2  O9  UNL     1     -37.470  14.145  -3.878  1.00 20.00    -0.229 OA
ENDROOT
BRANCH   1   3
HETATM    3  O10 UNL     1     -35.329  14.658  -3.193  1.00 20.00    -0.293 OA
BRANCH   3   4
HETATM    4  C7  UNL     1     -34.562  15.849  -2.986  1.00 20.00     0.126 C 
HETATM    5  C2  UNL     1     -34.661  16.259  -1.524  1.00 20.00     0.040 C 
HETATM    6  C3  UNL     1     -33.123  15.599  -3.409  1.00 20.00     0.040 C 
ENDBRANCH   3   4
ENDBRANCH   1   3
BRANCH   1   7
HETATM    7  O11 UNL     1     -36.210  15.806  -4.859  1.00 20.00    -0.288 OA
BRANCH   7   8
HETATM    8  C8  UNL     1     -35.926  15.394  -6.196  1.00 20.00     0.062 C 
HETATM    9  C4  UNL     1     -35.201  14.051  -6.148  1.00 20.00     0.046 C 
HETATM   10  C5  UNL     1     -37.260  15.259  -6.929  1.00 20.00     0.046 C 
HETATM   11  C6  UNL     1     -35.055  16.460  -6.859  1.00 20.00     0.046 C 
ENDBRANCH   7   8
ENDBRANCH   1   7
TORSDOF 4
ENDMDL
