MODEL 1
REMARK VINA RESULT:      -4.5      0.000      0.000
REMARK  4 active torsions:
REMARK  status: ('A' for Active; 'I' for Inactive)
REMARK    1  A    between atoms: C6_6  and  C7_7 
REMARK    2  A    between atoms: C7_7  and  C9_9 
REMARK    3  A    between atoms: C8_8  and  C9_9 
REMARK    4  A    between atoms: C8_8  and  C10_10 
ROOT
HETATM    1  C1  UNL     1     -34.819  13.773  -5.207  1.00 20.00     0.068 C 
HETATM    2  C4  UNL     1     -34.618  14.858  -7.414  1.00 20.00     0.031 C 
HETATM    3  C5  UNL     1     -36.199  15.724  -5.687  1.00 20.00     0.031 C 
HETATM    4  C10 UNL     1     -34.814  15.077  -5.907  1.00 20.00     0.042 C 
HETATM    5  N11 UNL     1     -34.835  12.751  -4.657  1.00 20.00    -0.196 NA
ENDROOT
BRANCH   4   6
HETATM    6  C8  UNL     1     -33.736  16.028  -5.310  1.00 20.00     0.028 C 
BRANCH   6   7
HETATM    7  C9  UNL     1     -34.155  17.027  -4.200  1.00 20.00    -0.017 C 
HETATM    8  C3  UNL     1     -33.647  18.450  -4.450  1.00 20.00     0.010 C 
BRANCH   7   9
HETATM    9  C7  UNL     1     -33.645  16.568  -2.810  1.00 20.00     0.004 C 
BRANCH   9  10
HETATM   10  C6  UNL     1     -34.757  16.156  -1.841  1.00 20.00    -0.004 C 
HETATM   11  C2  UNL     1     -34.635  16.887  -0.514  1.00 20.00     0.005 C 
ENDBRANCH   9  10
ENDBRANCH   7   9
ENDBRANCH   6   7
ENDBRANCH   4   6
TORSDOF 4
ENDMDL
MODEL 2
REMARK VINA RESULT:      -4.4      1.561      2.160
REMARK  4 active torsions:
REMARK  status: ('A' for Active; 'I' for Inactive)
REMARK    1  A    between atoms: C6_6  and  C7_7 
REMARK    2  A    between atoms: C7_7  and  C9_9 
REMARK    3  A    between atoms: C8_8  and  C9_9 
REMARK    4  A    between atoms: C8_8  and  C10_10 
ROOT
HETATM    1  C1  UNL     1     -36.488  14.426  -4.015  1.00 20.00     0.068 C 
HETATM    2  C4  UNL     1     -34.564  13.107  -4.818  1.00 20.00     0.031 C 
HETATM    3  C5  UNL     1     -35.017  15.399  -5.699  1.00 20.00     0.031 C 
HETATM    4  C10 UNL     1     -35.072  14.505  -4.439  1.00 20.00     0.042 C 
HETATM    5  N11 UNL     1     -37.602  14.369  -3.693  1.00 20.00    -0.196 NA
ENDROOT
BRANCH   4   6
HETATM    6  C8  UNL     1     -34.195  15.167  -3.338  1.00 20.00     0.028 C 
BRANCH   6   7
HETATM    7  C9  UNL     1     -34.685  16.486  -2.686  1.00 20.00    -0.017 C 
HETATM    8  C3  UNL     1     -33.824  17.697  -3.059  1.00 20.00     0.010 C 
BRANCH   7   9
HETATM    9  C7  UNL     1     -34.716  16.372  -1.141  1.00 20.00     0.004 C 
BRANCH   9  10
HETATM   10  C6  UNL     1     -34.109  17.574  -0.413  1.00 20.00    -0.004 C 
HETATM   11  C2  UNL     1     -34.834  17.854   0.894  1.00 20.00     0.005 C 
ENDBRANCH   9  10
ENDBRANCH   7   9
ENDBRANCH   6   7
ENDBRANCH   4   6
TORSDOF 4
ENDMDL
MODEL 3
REMARK VINA RESULT:      -4.3      1.300      2.447
REMARK  4 active torsions:
REMARK  status: ('A' for Active; 'I' for Inactive)
REMARK    1  A    between atoms: C6_6  and  C7_7 
REMARK    2  A    between atoms: C7_7  and  C9_9 
REMARK    3  A    between atoms: C8_8  and  C9_9 
REMARK    4  A    between atoms: C8_8  and  C10_10 
ROOT
HETATM    1  C1  UNL     1     -34.764  13.654  -5.257  1.00 20.00     0.068 C 
HETATM    2  C4  UNL     1     -33.975  15.863  -6.020  1.00 20.00     0.031 C 
HETATM    3  C5  UNL     1     -35.482  14.469  -7.440  1.00 20.00     0.031 C 
HETATM    4  C10 UNL     1     -35.154  14.881  -5.987  1.00 20.00     0.042 C 
HETATM    5  N11 UNL     1     -34.458  12.685  -4.696  1.00 20.00    -0.196 NA
ENDROOT
BRANCH   4   6
HETATM    6  C8  UNL     1     -36.429  15.520  -5.366  1.00 20.00     0.028 C 
BRANCH   6   7
HETATM    7  C9  UNL     1     -36.750  15.246  -3.873  1.00 20.00    -0.017 C 
HETATM    8  C3  UNL     1     -38.252  15.174  -3.584  1.00 20.00     0.010 C 
BRANCH   7   9
HETATM    9  C7  UNL     1     -36.132  16.334  -2.958  1.00 20.00     0.004 C 
BRANCH   9  10
HETATM   10  C6  UNL     1     -34.826  15.911  -2.278  1.00 20.00    -0.004 C 
HETATM   11  C2  UNL     1     -34.653  16.601  -0.934  1.00 20.00     0.005 C 
ENDBRANCH   9  10
ENDBRANCH   7   9
ENDBRANCH   6   7
ENDBRANCH   4   6
TORSDOF 4
ENDMDL
MODEL 4
REMARK VINA RESULT:      -4.3      1.300      3.930
REMARK  4 active torsions:
REMARK  status: ('A' for Active; 'I' for Inactive)
REMARK    1  A    between atoms: C6_6  and  C7_7 
REMARK    2  A    between atoms: C7_7  and  C9_9 
REMARK    3  A    between atoms: C8_8  and  C9_9 
REMARK    4  A    between atoms: C8_8  and  C10_10 
ROOT
HETATM    1  C1  UNL     1     -34.768  13.951  -3.953  1.00 20.00     0.068 C 
HETATM    2  C4  UNL     1     -34.751  15.664  -2.177  1.00 20.00     0.031 C 
HETATM    3  C5  UNL     1     -32.772  15.319  -3.660  1.00 20.00     0.031 C 
HETATM    4  C10 UNL     1     -34.316  15.318  -3.609  1.00 20.00     0.042 C 
HETATM    5  N11 UNL     1     -35.112  12.875  -4.222  1.00 20.00    -0.196 NA
ENDROOT
BRANCH   4   6
HETATM    6  C8  UNL     1     -34.835  16.356  -4.644  1.00 20.00     0.028 C 
BRANCH   6   7
HETATM    7  C9  UNL     1     -33.877  16.835  -5.765  1.00 20.00    -0.017 C 
HETATM    8  C3  UNL     1     -33.620  18.345  -5.732  1.00 20.00     0.010 C 
BRANCH   7   9
HETATM    9  C7  UNL     1     -34.425  16.468  -7.167  1.00 20.00     0.004 C 
BRANCH   9  10
HETATM   10  C6  UNL     1     -34.426  14.965  -7.464  1.00 20.00    -0.004 C 
HETATM   11  C2  UNL     1     -35.833  14.456  -7.741  1.00 20.00     0.005 C 
ENDBRANCH   9  10
ENDBRANCH   7   9
ENDBRANCH   6   7
ENDBRANCH   4   6
TORSDOF 4
ENDMDL
MODEL 5
REMARK VINA RESULT:      -4.3      1.954      2.399
REMARK  4 active torsions:
REMARK  status: ('A' for Active; 'I' for Inactive)
REMARK    1  A    between atoms: C6_6  and  C7_7 
REMARK    2  A    between atoms: C7_7  and  C9_9 
REMARK    3  A    between atoms: C8_8  and  C9_9 
REMARK    4  A    between atoms: C8_8  and  C10_10 
ROOT
HETATM    1  C1  UNL     1     -37.585  14.784  -4.074  1.00 20.00     0.068 C 
HETATM    2  C4  UNL     1     -35.872  14.773  -5.850  1.00 20.00     0.031 C 
HETATM    3  C5  UNL     1     -36.414  16.860  -4.591  1.00 20.00     0.031 C 
HETATM    4  C10 UNL     1     -36.266  15.326  -4.473  1.00 20.00     0.042 C 
HETATM    5  N11 UNL     1     -38.624  14.370  -3.764  1.00 20.00    -0.196 NA
ENDROOT
BRANCH   4   6
HETATM    6  C8  UNL     1     -35.188  15.026  -3.393  1.00 20.00     0.028 C 
BRANCH   6   7
HETATM    7  C9  UNL     1     -33.858  15.823  -3.424  1.00 20.00    -0.017 C 
HETATM    8  C3  UNL     1     -32.627  14.931  -3.617  1.00 20.00     0.010 C 
BRANCH   7   9
HETATM    9  C7  UNL     1     -33.663  16.643  -2.124  1.00 20.00     0.004 C 
BRANCH   9  10
HETATM   10  C6  UNL     1     -34.779  16.452  -1.092  1.00 20.00    -0.004 C 
HETATM   11  C2  UNL     1     -34.634  17.427   0.066  1.00 20.00     0.005 C 
ENDBRANCH   9  10
ENDBRANCH   7   9
ENDBRANCH   6   7
ENDBRANCH   4   6
TORSDOF 4
ENDMDL
MODEL 6
REMARK VINA RESULT:      -4.3      1.498      2.859
REMARK  4 active torsions:
REMARK  status: ('A' for Active; 'I' for Inactive)
REMARK    1  A    between atoms: C6_6  and  C7_7 
REMARK    2  A    between atoms: C7_7  and  C9_9 
REMARK    3  A    between atoms: C8_8  and  C9_9 
REMARK    4  A    between atoms: C8_8  and  C10_10 
ROOT
HETATM    1  C1  UNL     1     -34.514  13.694  -4.303  1.00 20.00     0.068 C 
HETATM    2  C4  UNL     1     -32.443  14.815  -3.565  1.00 20.00     0.031 C 
HETATM    3  C5  UNL     1     -33.976  15.890  -5.217  1.00 20.00     0.031 C 
HETATM    4  C10 UNL     1     -33.917  15.003  -3.953  1.00 20.00     0.042 C 
HETATM    5  N11 UNL     1     -34.982  12.671  -4.588  1.00 20.00    -0.196 NA
ENDROOT
BRANCH   4   6
HETATM    6  C8  UNL     1     -34.731  15.707  -2.830  1.00 20.00     0.028 C 
BRANCH   6   7
HETATM    7  C9  UNL     1     -33.983  16.633  -1.835  1.00 20.00    -0.017 C 
HETATM    8  C3  UNL     1     -34.712  16.790  -0.497  1.00 20.00     0.010 C 
BRANCH   7   9
HETATM    9  C7  UNL     1     -33.764  18.044  -2.436  1.00 20.00     0.004 C 
BRANCH   9  10
HETATM   10  C6  UNL     1     -34.994  18.953  -2.361  1.00 20.00    -0.004 C 
HETATM   11  C2  UNL     1     -35.596  19.186  -3.739  1.00 20.00     0.005 C 
ENDBRANCH   9  10
ENDBRANCH   7   9
ENDBRANCH   6   7
ENDBRANCH   4   6
TORSDOF 4
ENDMDL
MODEL 7
REMARK VINA RESULT:      -4.2      1.508      2.182
REMARK  4 active torsions:
REMARK  status: ('A' for Active; 'I' for Inactive)
REMARK    1  A    between atoms: C6_6  and  C7_7 
REMARK    2  A    between atoms: C7_7  and  C9_9 
REMARK    3  A    between atoms: C8_8  and  C9_9 
REMARK    4  A    between atoms: C8_8  and  C10_10 
ROOT
HETATM    1  C1  UNL     1     -34.393  14.830  -5.793  1.00 20.00     0.068 C 
HETATM    2  C4  UNL     1     -35.784  14.806  -3.755  1.00 20.00     0.031 C 
HETATM    3  C5  UNL     1     -33.737  13.388  -3.939  1.00 20.00     0.031 C 
HETATM    4  C10 UNL     1     -34.355  14.754  -4.314  1.00 20.00     0.042 C 
HETATM    5  N11 UNL     1     -34.420  14.878  -6.952  1.00 20.00    -0.196 NA
ENDROOT
BRANCH   4   6
HETATM    6  C8  UNL     1     -33.453  15.873  -3.720  1.00 20.00     0.028 C 
BRANCH   6   7
HETATM    7  C9  UNL     1     -34.119  17.185  -3.229  1.00 20.00    -0.017 C 
HETATM    8  C3  UNL     1     -33.696  18.414  -4.041  1.00 20.00     0.010 C 
BRANCH   7   9
HETATM    9  C7  UNL     1     -33.795  17.455  -1.738  1.00 20.00     0.004 C 
BRANCH   9  10
HETATM   10  C6  UNL     1     -34.635  16.632  -0.757  1.00 20.00    -0.004 C 
HETATM   11  C2  UNL     1     -34.950  17.424   0.504  1.00 20.00     0.005 C 
ENDBRANCH   9  10
ENDBRANCH   7   9
ENDBRANCH   6   7
ENDBRANCH   4   6
TORSDOF 4
ENDMDL
MODEL 8
REMARK VINA RESULT:      -4.1      1.794      2.814
REMARK  4 active torsions:
REMARK  status: ('A' for Active; 'I' for Inactive)
REMARK    1  A    between atoms: C6_6  and  C7_7 
REMARK    2  A    between atoms: C7_7  and  C9_9 
REMARK    3  A    between atoms: C8_8  and  C9_9 
REMARK    4  A    between atoms: C8_8  and  C10_10 
ROOT
HETATM    1  C1  UNL     1     -34.453  13.647  -4.478  1.00 20.00     0.068 C 
HETATM    2  C4  UNL     1     -32.538  14.893  -3.545  1.00 20.00     0.031 C 
HETATM    3  C5  UNL     1     -34.022  15.909  -5.277  1.00 20.00     0.031 C 
HETATM    4  C10 UNL     1     -33.988  14.983  -4.041  1.00 20.00     0.042 C 
HETATM    5  N11 UNL     1     -34.816  12.603  -4.831  1.00 20.00    -0.196 NA
ENDROOT
BRANCH   4   6
HETATM    6  C8  UNL     1     -34.937  15.580  -2.963  1.00 20.00     0.028 C 
BRANCH   6   7
HETATM    7  C9  UNL     1     -34.490  16.854  -2.198  1.00 20.00    -0.017 C 
HETATM    8  C3  UNL     1     -34.571  16.699  -0.676  1.00 20.00     0.010 C 
BRANCH   7   9
HETATM    9  C7  UNL     1     -35.340  18.083  -2.607  1.00 20.00     0.004 C 
BRANCH   9  10
HETATM   10  C6  UNL     1     -36.631  17.730  -3.351  1.00 20.00    -0.004 C 
HETATM   11  C2  UNL     1     -37.848  17.877  -2.450  1.00 20.00     0.005 C 
ENDBRANCH   9  10
ENDBRANCH   7   9
ENDBRANCH   6   7
ENDBRANCH   4   6
TORSDOF 4
ENDMDL
MODEL 9
REMARK VINA RESULT:      -4.0      1.792      2.921
REMARK  4 active torsions:
REMARK  status: ('A' for Active; 'I' for Inactive)
REMARK    1  A    between atoms: C6_6  and  C7_7 
REMARK    2  A    between atoms: C7_7  and  C9_9 
REMARK    3  A    between atoms: C8_8  and  C9_9 
REMARK    4  A    between atoms: C8_8  and  C10_10 
ROOT
HETATM    1  C1  UNL     1     -34.437  15.808  -6.896  1.00 20.00     0.068 C 
HETATM    2  C4  UNL     1     -34.112  18.252  -6.793  1.00 20.00     0.031 C 
HETATM    3  C5  UNL     1     -35.869  17.123  -5.424  1.00 20.00     0.031 C 
HETATM    4  C10 UNL     1     -34.440  16.983  -5.994  1.00 20.00     0.042 C 
HETATM    5  N11 UNL     1     -34.447  14.888  -7.602  1.00 20.00    -0.196 NA
ENDROOT
BRANCH   4   6
HETATM    6  C8  UNL     1     -33.462  16.775  -4.802  1.00 20.00     0.028 C 
BRANCH   6   7
HETATM    7  C9  UNL     1     -33.908  15.874  -3.620  1.00 20.00    -0.017 C 
HETATM    8  C3  UNL     1     -33.774  16.562  -2.257  1.00 20.00     0.010 C 
BRANCH   7   9
HETATM    9  C7  UNL     1     -33.094  14.556  -3.580  1.00 20.00     0.004 C 
BRANCH   9  10
HETATM   10  C6  UNL     1     -33.814  13.358  -4.205  1.00 20.00    -0.004 C 
HETATM   11  C2  UNL     1     -35.325  13.526  -4.146  1.00 20.00     0.005 C 
ENDBRANCH   9  10
ENDBRANCH   7   9
ENDBRANCH   6   7
ENDBRANCH   4   6
TORSDOF 4
ENDMDL
