MODEL 1
REMARK VINA RESULT:      -4.7      0.000      0.000
REMARK  4 active torsions:
REMARK  status: ('A' for Active; 'I' for Inactive)
REMARK    1  A    between atoms: C6_6  and  C7_7 
REMARK    2  A    between atoms: C7_7  and  C9_9 
REMARK    3  A    between atoms: C8_8  and  C9_9 
REMARK    4  A    between atoms: C8_8  and  C10_10 
ROOT
HETATM    1  C1  UNL     1     -34.525  13.679  -4.302  1.00 20.00     0.068 C 
HETATM    2  C4  UNL     1     -32.444  14.801  -3.591  1.00 20.00     0.031 C 
HETATM    3  C5  UNL     1     -33.915  15.795  -5.346  1.00 20.00     0.031 C 
HETATM    4  C10 UNL     1     -33.904  14.995  -4.026  1.00 20.00     0.042 C 
HETATM    5  N11 UNL     1     -35.010  12.649  -4.529  1.00 20.00    -0.196 NA
ENDROOT
BRANCH   4   6
HETATM    6  C8  UNL     1     -34.726  15.791  -2.971  1.00 20.00     0.028 C 
BRANCH   6   7
HETATM    7  C9  UNL     1     -33.967  16.660  -1.935  1.00 20.00    -0.017 C 
HETATM    8  C3  UNL     1     -33.776  18.111  -2.390  1.00 20.00     0.010 C 
BRANCH   7   9
HETATM    9  C7  UNL     1     -34.701  16.674  -0.571  1.00 20.00     0.004 C 
BRANCH   9  10
HETATM   10  C6  UNL     1     -34.346  17.869   0.318  1.00 20.00    -0.004 C 
HETATM   11  C2  UNL     1     -35.098  17.818   1.640  1.00 20.00     0.005 C 
ENDBRANCH   9  10
ENDBRANCH   7   9
ENDBRANCH   6   7
ENDBRANCH   4   6
TORSDOF 4
ENDMDL
MODEL 2
REMARK VINA RESULT:      -4.6      1.528      2.418
REMARK  4 active torsions:
REMARK  status: ('A' for Active; 'I' for Inactive)
REMARK    1  A    between atoms: C6_6  and  C7_7 
REMARK    2  A    between atoms: C7_7  and  C9_9 
REMARK    3  A    between atoms: C8_8  and  C9_9 
REMARK    4  A    between atoms: C8_8  and  C10_10 
ROOT
HETATM    1  C1  UNL     1     -35.054  13.769  -5.120  1.00 20.00     0.068 C 
HETATM    2  C4  UNL     1     -34.252  15.241  -6.932  1.00 20.00     0.031 C 
HETATM    3  C5  UNL     1     -36.684  15.050  -6.402  1.00 20.00     0.031 C 
HETATM    4  C10 UNL     1     -35.266  15.072  -5.792  1.00 20.00     0.042 C 
HETATM    5  N11 UNL     1     -34.896  12.745  -4.599  1.00 20.00    -0.196 NA
ENDROOT
BRANCH   4   6
HETATM    6  C8  UNL     1     -35.196  16.246  -4.771  1.00 20.00     0.028 C 
BRANCH   6   7
HETATM    7  C9  UNL     1     -33.808  16.699  -4.250  1.00 20.00    -0.017 C 
HETATM    8  C3  UNL     1     -33.650  18.222  -4.204  1.00 20.00     0.010 C 
BRANCH   7   9
HETATM    9  C7  UNL     1     -33.536  16.142  -2.830  1.00 20.00     0.004 C 
BRANCH   9  10
HETATM   10  C6  UNL     1     -34.787  16.025  -1.954  1.00 20.00    -0.004 C 
HETATM   11  C2  UNL     1     -34.614  16.773  -0.640  1.00 20.00     0.005 C 
ENDBRANCH   9  10
ENDBRANCH   7   9
ENDBRANCH   6   7
ENDBRANCH   4   6
TORSDOF 4
ENDMDL
MODEL 3
REMARK VINA RESULT:      -4.5      0.997      1.265
REMARK  4 active torsions:
REMARK  status: ('A' for Active; 'I' for Inactive)
REMARK    1  A    between atoms: C6_6  and  C7_7 
REMARK    2  A    between atoms: C7_7  and  C9_9 
REMARK    3  A    between atoms: C8_8  and  C9_9 
REMARK    4  A    between atoms: C8_8  and  C10_10 
ROOT
HETATM    1  C1  UNL     1     -34.559  13.705  -4.415  1.00 20.00     0.068 C 
HETATM    2  C4  UNL     1     -32.761  15.155  -3.543  1.00 20.00     0.031 C 
HETATM    3  C5  UNL     1     -34.478  16.035  -5.127  1.00 20.00     0.031 C 
HETATM    4  C10 UNL     1     -34.241  15.073  -3.943  1.00 20.00     0.042 C 
HETATM    5  N11 UNL     1     -34.807  12.637  -4.794  1.00 20.00    -0.196 NA
ENDROOT
BRANCH   4   6
HETATM    6  C8  UNL     1     -35.184  15.497  -2.779  1.00 20.00     0.028 C 
BRANCH   6   7
HETATM    7  C9  UNL     1     -34.945  16.862  -2.085  1.00 20.00    -0.017 C 
HETATM    8  C3  UNL     1     -36.111  17.840  -2.263  1.00 20.00     0.010 C 
BRANCH   7   9
HETATM    9  C7  UNL     1     -34.693  16.682  -0.567  1.00 20.00     0.004 C 
BRANCH   9  10
HETATM   10  C6  UNL     1     -34.189  17.945   0.137  1.00 20.00    -0.004 C 
HETATM   11  C2  UNL     1     -32.875  18.426  -0.462  1.00 20.00     0.005 C 
ENDBRANCH   9  10
ENDBRANCH   7   9
ENDBRANCH   6   7
ENDBRANCH   4   6
TORSDOF 4
ENDMDL
MODEL 4
REMARK VINA RESULT:      -4.4      1.978      2.469
REMARK  4 active torsions:
REMARK  status: ('A' for Active; 'I' for Inactive)
REMARK    1  A    between atoms: C6_6  and  C7_7 
REMARK    2  A    between atoms: C7_7  and  C9_9 
REMARK    3  A    between atoms: C8_8  and  C9_9 
REMARK    4  A    between atoms: C8_8  and  C10_10 
ROOT
HETATM    1  C1  UNL     1     -37.380  14.570  -4.086  1.00 20.00     0.068 C 
HETATM    2  C4  UNL     1     -35.068  13.705  -4.063  1.00 20.00     0.031 C 
HETATM    3  C5  UNL     1     -35.988  14.883  -6.063  1.00 20.00     0.031 C 
HETATM    4  C10 UNL     1     -35.990  14.845  -4.519  1.00 20.00     0.042 C 
HETATM    5  N11 UNL     1     -38.471  14.351  -3.757  1.00 20.00    -0.196 NA
ENDROOT
BRANCH   4   6
HETATM    6  C8  UNL     1     -35.506  16.230  -4.000  1.00 20.00     0.028 C 
BRANCH   6   7
HETATM    7  C9  UNL     1     -33.985  16.468  -3.815  1.00 20.00    -0.017 C 
HETATM    8  C3  UNL     1     -33.443  17.608  -4.683  1.00 20.00     0.010 C 
BRANCH   7   9
HETATM    9  C7  UNL     1     -33.644  16.780  -2.337  1.00 20.00     0.004 C 
BRANCH   9  10
HETATM   10  C6  UNL     1     -34.725  16.349  -1.342  1.00 20.00    -0.004 C 
HETATM   11  C2  UNL     1     -34.696  17.208  -0.086  1.00 20.00     0.005 C 
ENDBRANCH   9  10
ENDBRANCH   7   9
ENDBRANCH   6   7
ENDBRANCH   4   6
TORSDOF 4
ENDMDL
MODEL 5
REMARK VINA RESULT:      -4.3      2.120      3.271
REMARK  4 active torsions:
REMARK  status: ('A' for Active; 'I' for Inactive)
REMARK    1  A    between atoms: C6_6  and  C7_7 
REMARK    2  A    between atoms: C7_7  and  C9_9 
REMARK    3  A    between atoms: C8_8  and  C9_9 
REMARK    4  A    between atoms: C8_8  and  C10_10 
ROOT
HETATM    1  C1  UNL     1     -37.171  14.832  -4.479  1.00 20.00     0.068 C 
HETATM    2  C4  UNL     1     -36.629  15.137  -6.867  1.00 20.00     0.031 C 
HETATM    3  C5  UNL     1     -36.502  17.043  -5.259  1.00 20.00     0.031 C 
HETATM    4  C10 UNL     1     -36.268  15.525  -5.426  1.00 20.00     0.042 C 
HETATM    5  N11 UNL     1     -37.884  14.298  -3.735  1.00 20.00    -0.196 NA
ENDROOT
BRANCH   4   6
HETATM    6  C8  UNL     1     -34.776  15.227  -5.098  1.00 20.00     0.028 C 
BRANCH   6   7
HETATM    7  C9  UNL     1     -34.414  14.694  -3.688  1.00 20.00    -0.017 C 
HETATM    8  C3  UNL     1     -33.310  13.632  -3.710  1.00 20.00     0.010 C 
BRANCH   7   9
HETATM    9  C7  UNL     1     -33.961  15.845  -2.755  1.00 20.00     0.004 C 
BRANCH   9  10
HETATM   10  C6  UNL     1     -35.050  16.341  -1.799  1.00 20.00    -0.004 C 
HETATM   11  C2  UNL     1     -34.447  16.962  -0.548  1.00 20.00     0.005 C 
ENDBRANCH   9  10
ENDBRANCH   7   9
ENDBRANCH   6   7
ENDBRANCH   4   6
TORSDOF 4
ENDMDL
MODEL 6
REMARK VINA RESULT:      -4.2      1.402      2.019
REMARK  4 active torsions:
REMARK  status: ('A' for Active; 'I' for Inactive)
REMARK    1  A    between atoms: C6_6  and  C7_7 
REMARK    2  A    between atoms: C7_7  and  C9_9 
REMARK    3  A    between atoms: C8_8  and  C9_9 
REMARK    4  A    between atoms: C8_8  and  C10_10 
ROOT
HETATM    1  C1  UNL     1     -34.262  15.159  -5.595  1.00 20.00     0.068 C 
HETATM    2  C4  UNL     1     -35.513  13.628  -4.117  1.00 20.00     0.031 C 
HETATM    3  C5  UNL     1     -33.110  14.158  -3.695  1.00 20.00     0.031 C 
HETATM    4  C10 UNL     1     -34.454  14.738  -4.188  1.00 20.00     0.042 C 
HETATM    5  N11 UNL     1     -34.104  15.483  -6.698  1.00 20.00    -0.196 NA
ENDROOT
BRANCH   4   6
HETATM    6  C8  UNL     1     -34.818  15.952  -3.285  1.00 20.00     0.028 C 
BRANCH   6   7
HETATM    7  C9  UNL     1     -33.740  17.034  -3.019  1.00 20.00    -0.017 C 
HETATM    8  C3  UNL     1     -33.957  18.313  -3.833  1.00 20.00     0.010 C 
BRANCH   7   9
HETATM    9  C7  UNL     1     -33.692  17.417  -1.519  1.00 20.00     0.004 C 
BRANCH   9  10
HETATM   10  C6  UNL     1     -34.702  16.663  -0.648  1.00 20.00    -0.004 C 
HETATM   11  C2  UNL     1     -34.999  17.421   0.637  1.00 20.00     0.005 C 
ENDBRANCH   9  10
ENDBRANCH   7   9
ENDBRANCH   6   7
ENDBRANCH   4   6
TORSDOF 4
ENDMDL
MODEL 7
REMARK VINA RESULT:      -4.2      1.686      2.976
REMARK  4 active torsions:
REMARK  status: ('A' for Active; 'I' for Inactive)
REMARK    1  A    between atoms: C6_6  and  C7_7 
REMARK    2  A    between atoms: C7_7  and  C9_9 
REMARK    3  A    between atoms: C8_8  and  C9_9 
REMARK    4  A    between atoms: C8_8  and  C10_10 
ROOT
HETATM    1  C1  UNL     1     -36.510  14.441  -3.949  1.00 20.00     0.068 C 
HETATM    2  C4  UNL     1     -34.447  13.166  -4.407  1.00 20.00     0.031 C 
HETATM    3  C5  UNL     1     -34.893  15.351  -5.530  1.00 20.00     0.031 C 
HETATM    4  C10 UNL     1     -35.058  14.561  -4.213  1.00 20.00     0.042 C 
HETATM    5  N11 UNL     1     -37.650  14.350  -3.752  1.00 20.00    -0.196 NA
ENDROOT
BRANCH   4   6
HETATM    6  C8  UNL     1     -34.347  15.357  -3.079  1.00 20.00     0.028 C 
BRANCH   6   7
HETATM    7  C9  UNL     1     -35.162  16.405  -2.279  1.00 20.00    -0.017 C 
HETATM    8  C3  UNL     1     -34.680  16.567  -0.834  1.00 20.00     0.010 C 
BRANCH   7   9
HETATM    9  C7  UNL     1     -35.113  17.793  -2.964  1.00 20.00     0.004 C 
BRANCH   9  10
HETATM   10  C6  UNL     1     -33.700  18.269  -3.311  1.00 20.00    -0.004 C 
HETATM   11  C2  UNL     1     -33.628  18.800  -4.736  1.00 20.00     0.005 C 
ENDBRANCH   9  10
ENDBRANCH   7   9
ENDBRANCH   6   7
ENDBRANCH   4   6
TORSDOF 4
ENDMDL
MODEL 8
REMARK VINA RESULT:      -4.2      2.141      4.868
REMARK  4 active torsions:
REMARK  status: ('A' for Active; 'I' for Inactive)
REMARK    1  A    between atoms: C6_6  and  C7_7 
REMARK    2  A    between atoms: C7_7  and  C9_9 
REMARK    3  A    between atoms: C8_8  and  C9_9 
REMARK    4  A    between atoms: C8_8  and  C10_10 
ROOT
HETATM    1  C1  UNL     1     -34.227  14.384  -3.413  1.00 20.00     0.068 C 
HETATM    2  C4  UNL     1     -34.635  16.112  -1.699  1.00 20.00     0.031 C 
HETATM    3  C5  UNL     1     -33.547  16.679  -3.874  1.00 20.00     0.031 C 
HETATM    4  C10 UNL     1     -34.621  15.796  -3.202  1.00 20.00     0.042 C 
HETATM    5  N11 UNL     1     -33.909  13.281  -3.581  1.00 20.00    -0.196 NA
ENDROOT
BRANCH   4   6
HETATM    6  C8  UNL     1     -35.991  16.102  -3.875  1.00 20.00     0.028 C 
BRANCH   6   7
HETATM    7  C9  UNL     1     -36.714  14.967  -4.645  1.00 20.00    -0.017 C 
HETATM    8  C3  UNL     1     -38.177  14.791  -4.226  1.00 20.00     0.010 C 
BRANCH   7   9
HETATM    9  C7  UNL     1     -36.674  15.215  -6.173  1.00 20.00     0.004 C 
BRANCH   9  10
HETATM   10  C6  UNL     1     -35.606  14.402  -6.911  1.00 20.00    -0.004 C 
HETATM   11  C2  UNL     1     -34.349  15.226  -7.148  1.00 20.00     0.005 C 
ENDBRANCH   9  10
ENDBRANCH   7   9
ENDBRANCH   6   7
ENDBRANCH   4   6
TORSDOF 4
ENDMDL
MODEL 9
REMARK VINA RESULT:      -4.2      2.213      5.100
REMARK  4 active torsions:
REMARK  status: ('A' for Active; 'I' for Inactive)
REMARK    1  A    between atoms: C6_6  and  C7_7 
REMARK    2  A    between atoms: C7_7  and  C9_9 
REMARK    3  A    between atoms: C8_8  and  C9_9 
REMARK    4  A    between atoms: C8_8  and  C10_10 
ROOT
HETATM    1  C1  UNL     1     -34.935  13.955  -3.989  1.00 20.00     0.068 C 
HETATM    2  C4  UNL     1     -36.499  15.855  -3.799  1.00 20.00     0.031 C 
HETATM    3  C5  UNL     1     -34.465  15.705  -2.358  1.00 20.00     0.031 C 
HETATM    4  C10 UNL     1     -35.027  15.417  -3.767  1.00 20.00     0.042 C 
HETATM    5  N11 UNL     1     -34.861  12.809  -4.153  1.00 20.00    -0.196 NA
ENDROOT
BRANCH   4   6
HETATM    6  C8  UNL     1     -34.164  16.196  -4.801  1.00 20.00     0.028 C 
BRANCH   6   7
HETATM    7  C9  UNL     1     -34.748  16.460  -6.213  1.00 20.00    -0.017 C 
HETATM    8  C3  UNL     1     -34.339  17.819  -6.790  1.00 20.00     0.010 C 
BRANCH   7   9
HETATM    9  C7  UNL     1     -34.312  15.359  -7.212  1.00 20.00     0.004 C 
BRANCH   9  10
HETATM   10  C6  UNL     1     -35.447  14.431  -7.654  1.00 20.00    -0.004 C 
HETATM   11  C2  UNL     1     -36.808  15.055  -7.388  1.00 20.00     0.005 C 
ENDBRANCH   9  10
ENDBRANCH   7   9
ENDBRANCH   6   7
ENDBRANCH   4   6
TORSDOF 4
ENDMDL
