MODEL 1
REMARK VINA RESULT:      -4.0      0.000      0.000
REMARK  3 active torsions:
REMARK  status: ('A' for Active; 'I' for Inactive)
REMARK    1  A    between atoms: C3_3  and  C8_8 
REMARK    2  A    between atoms: C8_8  and  C9_9 
REMARK    3  A    between atoms: C9_9  and  O11_11 
ROOT
HETATM    1  C1  UNL     1     -34.789  17.005  -0.417  1.00 20.00     0.088 C 
HETATM    2  C2  UNL     1     -34.347  16.232  -1.525  1.00 20.00     0.096 C 
HETATM    3  C3  UNL     1     -34.006  16.748  -2.721  1.00 20.00    -0.071 C 
HETATM    4  C4  UNL     1     -34.012  18.221  -3.038  1.00 20.00     0.044 C 
HETATM    5  N10 UNL     1     -35.151  17.629   0.491  1.00 20.00    -0.192 NA
ENDROOT
BRANCH   3   6
HETATM    6  C8  UNL     1     -33.537  15.826  -3.837  1.00 20.00     0.071 C 
BRANCH   6   7
HETATM    7  C9  UNL     1     -34.637  15.011  -4.556  1.00 20.00     0.056 C 
HETATM    8  C5  UNL     1     -34.373  15.028  -6.067  1.00 20.00     0.046 C 
HETATM    9  C6  UNL     1     -34.726  13.566  -4.060  1.00 20.00     0.046 C 
BRANCH   7  10
HETATM   10  O11 UNL     1     -35.897  15.650  -4.341  1.00 20.00    -0.385 OA
HETATM   11  C7  UNL     1     -36.871  14.727  -3.883  1.00 20.00     0.202 C 
ENDBRANCH   7  10
ENDBRANCH   6   7
ENDBRANCH   3   6
TORSDOF 3
ENDMDL
MODEL 2
REMARK VINA RESULT:      -3.9      2.711      4.506
REMARK  3 active torsions:
REMARK  status: ('A' for Active; 'I' for Inactive)
REMARK    1  A    between atoms: C3_3  and  C8_8 
REMARK    2  A    between atoms: C8_8  and  C9_9 
REMARK    3  A    between atoms: C9_9  and  O11_11 
ROOT
HETATM    1  C1  UNL     1     -34.407  13.547  -4.054  1.00 20.00     0.088 C 
HETATM    2  C2  UNL     1     -34.167  14.529  -3.055  1.00 20.00     0.096 C 
HETATM    3  C3  UNL     1     -35.057  15.471  -2.688  1.00 20.00    -0.071 C 
HETATM    4  C4  UNL     1     -36.446  15.588  -3.262  1.00 20.00     0.044 C 
HETATM    5  N10 UNL     1     -34.594  12.743  -4.868  1.00 20.00    -0.192 NA
ENDROOT
BRANCH   3   6
HETATM    6  C8  UNL     1     -34.698  16.469  -1.598  1.00 20.00     0.071 C 
BRANCH   6   7
HETATM    7  C9  UNL     1     -34.214  17.857  -2.078  1.00 20.00     0.056 C 
HETATM    8  C5  UNL     1     -35.425  18.783  -2.252  1.00 20.00     0.046 C 
HETATM    9  C6  UNL     1     -33.203  18.498  -1.124  1.00 20.00     0.046 C 
BRANCH   7  10
HETATM   10  O11 UNL     1     -33.606  17.713  -3.363  1.00 20.00    -0.385 OA
HETATM   11  C7  UNL     1     -33.711  18.908  -4.119  1.00 20.00     0.202 C 
ENDBRANCH   7  10
ENDBRANCH   6   7
ENDBRANCH   3   6
TORSDOF 3
ENDMDL
MODEL 3
REMARK VINA RESULT:      -3.9      2.687      4.184
REMARK  3 active torsions:
REMARK  status: ('A' for Active; 'I' for Inactive)
REMARK    1  A    between atoms: C3_3  and  C8_8 
REMARK    2  A    between atoms: C8_8  and  C9_9 
REMARK    3  A    between atoms: C9_9  and  O11_11 
ROOT
HETATM    1  C1  UNL     1     -34.960  13.594  -4.158  1.00 20.00     0.088 C 
HETATM    2  C2  UNL     1     -34.883  14.784  -3.385  1.00 20.00     0.096 C 
HETATM    3  C3  UNL     1     -33.734  15.416  -3.077  1.00 20.00    -0.071 C 
HETATM    4  C4  UNL     1     -32.373  14.967  -3.545  1.00 20.00     0.044 C 
HETATM    5  N10 UNL     1     -35.031  12.623  -4.788  1.00 20.00    -0.192 NA
ENDROOT
BRANCH   3   6
HETATM    6  C8  UNL     1     -33.770  16.691  -2.248  1.00 20.00     0.071 C 
BRANCH   6   7
HETATM    7  C9  UNL     1     -34.124  17.989  -3.010  1.00 20.00     0.056 C 
HETATM    8  C5  UNL     1     -33.496  19.187  -2.286  1.00 20.00     0.046 C 
HETATM    9  C6  UNL     1     -33.666  17.966  -4.471  1.00 20.00     0.046 C 
BRANCH   7  10
HETATM   10  O11 UNL     1     -35.541  18.170  -2.974  1.00 20.00    -0.385 OA
HETATM   11  C7  UNL     1     -36.047  18.013  -1.659  1.00 20.00     0.202 C 
ENDBRANCH   7  10
ENDBRANCH   6   7
ENDBRANCH   3   6
TORSDOF 3
ENDMDL
MODEL 4
REMARK VINA RESULT:      -3.9      0.828      1.590
REMARK  3 active torsions:
REMARK  status: ('A' for Active; 'I' for Inactive)
REMARK    1  A    between atoms: C3_3  and  C8_8 
REMARK    2  A    between atoms: C8_8  and  C9_9 
REMARK    3  A    between atoms: C9_9  and  O11_11 
ROOT
HETATM    1  C1  UNL     1     -34.884  17.680  -0.101  1.00 20.00     0.088 C 
HETATM    2  C2  UNL     1     -34.586  16.557  -0.920  1.00 20.00     0.096 C 
HETATM    3  C3  UNL     1     -34.234  16.637  -2.217  1.00 20.00    -0.071 C 
HETATM    4  C4  UNL     1     -34.070  17.933  -2.969  1.00 20.00     0.044 C 
HETATM    5  N10 UNL     1     -35.129  18.591   0.574  1.00 20.00    -0.192 NA
ENDROOT
BRANCH   3   6
HETATM    6  C8  UNL     1     -33.928  15.368  -2.999  1.00 20.00     0.071 C 
BRANCH   6   7
HETATM    7  C9  UNL     1     -35.037  14.872  -3.954  1.00 20.00     0.056 C 
HETATM    8  C5  UNL     1     -34.917  13.351  -4.122  1.00 20.00     0.046 C 
HETATM    9  C6  UNL     1     -36.444  15.232  -3.470  1.00 20.00     0.046 C 
BRANCH   7  10
HETATM   10  O11 UNL     1     -34.830  15.456  -5.242  1.00 20.00    -0.385 OA
HETATM   11  C7  UNL     1     -35.124  14.534  -6.278  1.00 20.00     0.202 C 
ENDBRANCH   7  10
ENDBRANCH   6   7
ENDBRANCH   3   6
TORSDOF 3
ENDMDL
MODEL 5
REMARK VINA RESULT:      -3.9      2.644      4.281
REMARK  3 active torsions:
REMARK  status: ('A' for Active; 'I' for Inactive)
REMARK    1  A    between atoms: C3_3  and  C8_8 
REMARK    2  A    between atoms: C8_8  and  C9_9 
REMARK    3  A    between atoms: C9_9  and  O11_11 
ROOT
HETATM    1  C1  UNL     1     -34.576  13.524  -4.078  1.00 20.00     0.088 C 
HETATM    2  C2  UNL     1     -34.368  14.484  -3.051  1.00 20.00     0.096 C 
HETATM    3  C3  UNL     1     -33.850  15.710  -3.253  1.00 20.00    -0.071 C 
HETATM    4  C4  UNL     1     -33.454  16.247  -4.604  1.00 20.00     0.044 C 
HETATM    5  N10 UNL     1     -34.748  12.735  -4.911  1.00 20.00    -0.192 NA
ENDROOT
BRANCH   3   6
HETATM    6  C8  UNL     1     -33.680  16.663  -2.079  1.00 20.00     0.071 C 
BRANCH   6   7
HETATM    7  C9  UNL     1     -34.899  17.553  -1.741  1.00 20.00     0.056 C 
HETATM    8  C5  UNL     1     -35.145  17.521  -0.227  1.00 20.00     0.046 C 
HETATM    9  C6  UNL     1     -34.727  19.000  -2.210  1.00 20.00     0.046 C 
BRANCH   7  10
HETATM   10  O11 UNL     1     -36.058  17.001  -2.368  1.00 20.00    -0.385 OA
HETATM   11  C7  UNL     1     -36.804  18.001  -3.041  1.00 20.00     0.202 C 
ENDBRANCH   7  10
ENDBRANCH   6   7
ENDBRANCH   3   6
TORSDOF 3
ENDMDL
MODEL 6
REMARK VINA RESULT:      -3.9      2.771      4.500
REMARK  3 active torsions:
REMARK  status: ('A' for Active; 'I' for Inactive)
REMARK    1  A    between atoms: C3_3  and  C8_8 
REMARK    2  A    between atoms: C8_8  and  C9_9 
REMARK    3  A    between atoms: C9_9  and  O11_11 
ROOT
HETATM    1  C1  UNL     1     -34.434  13.520  -4.136  1.00 20.00     0.088 C 
HETATM    2  C2  UNL     1     -34.092  14.514  -3.180  1.00 20.00     0.096 C 
HETATM    3  C3  UNL     1     -34.941  15.459  -2.732  1.00 20.00    -0.071 C 
HETATM    4  C4  UNL     1     -36.383  15.567  -3.156  1.00 20.00     0.044 C 
HETATM    5  N10 UNL     1     -34.705  12.706  -4.917  1.00 20.00    -0.192 NA
ENDROOT
BRANCH   3   6
HETATM    6  C8  UNL     1     -34.470  16.470  -1.698  1.00 20.00     0.071 C 
BRANCH   6   7
HETATM    7  C9  UNL     1     -34.280  17.920  -2.200  1.00 20.00     0.056 C 
HETATM    8  C5  UNL     1     -33.303  18.654  -1.272  1.00 20.00     0.046 C 
HETATM    9  C6  UNL     1     -33.775  17.988  -3.644  1.00 20.00     0.046 C 
BRANCH   7  10
HETATM   10  O11 UNL     1     -35.533  18.603  -2.118  1.00 20.00    -0.385 OA
HETATM   11  C7  UNL     1     -35.730  19.162  -0.830  1.00 20.00     0.202 C 
ENDBRANCH   7  10
ENDBRANCH   6   7
ENDBRANCH   3   6
TORSDOF 3
ENDMDL
MODEL 7
REMARK VINA RESULT:      -3.8      2.871      4.638
REMARK  3 active torsions:
REMARK  status: ('A' for Active; 'I' for Inactive)
REMARK    1  A    between atoms: C3_3  and  C8_8 
REMARK    2  A    between atoms: C8_8  and  C9_9 
REMARK    3  A    between atoms: C9_9  and  O11_11 
ROOT
HETATM    1  C1  UNL     1     -34.460  15.116  -6.737  1.00 20.00     0.088 C 
HETATM    2  C2  UNL     1     -34.047  15.634  -5.480  1.00 20.00     0.096 C 
HETATM    3  C3  UNL     1     -34.136  14.962  -4.317  1.00 20.00    -0.071 C 
HETATM    4  C4  UNL     1     -34.652  13.551  -4.195  1.00 20.00     0.044 C 
HETATM    5  N10 UNL     1     -34.796  14.701  -7.767  1.00 20.00    -0.192 NA
ENDROOT
BRANCH   3   6
HETATM    6  C8  UNL     1     -33.653  15.611  -3.028  1.00 20.00     0.071 C 
BRANCH   6   7
HETATM    7  C9  UNL     1     -34.586  16.680  -2.413  1.00 20.00     0.056 C 
HETATM    8  C5  UNL     1     -34.474  16.629  -0.884  1.00 20.00     0.046 C 
HETATM    9  C6  UNL     1     -34.278  18.095  -2.910  1.00 20.00     0.046 C 
BRANCH   7  10
HETATM   10  O11 UNL     1     -35.937  16.358  -2.748  1.00 20.00    -0.385 OA
HETATM   11  C7  UNL     1     -36.631  17.495  -3.235  1.00 20.00     0.202 C 
ENDBRANCH   7  10
ENDBRANCH   6   7
ENDBRANCH   3   6
TORSDOF 3
ENDMDL
MODEL 8
REMARK VINA RESULT:      -3.8      1.534      2.540
REMARK  3 active torsions:
REMARK  status: ('A' for Active; 'I' for Inactive)
REMARK    1  A    between atoms: C3_3  and  C8_8 
REMARK    2  A    between atoms: C8_8  and  C9_9 
REMARK    3  A    between atoms: C9_9  and  O11_11 
ROOT
HETATM    1  C1  UNL     1     -34.742  16.262  -1.569  1.00 20.00     0.088 C 
HETATM    2  C2  UNL     1     -35.242  15.537  -2.684  1.00 20.00     0.096 C 
HETATM    3  C3  UNL     1     -34.469  14.995  -3.645  1.00 20.00    -0.071 C 
HETATM    4  C4  UNL     1     -32.963  15.052  -3.647  1.00 20.00     0.044 C 
HETATM    5  N10 UNL     1     -34.342  16.856  -0.656  1.00 20.00    -0.192 NA
ENDROOT
BRANCH   3   6
HETATM    6  C8  UNL     1     -35.111  14.230  -4.792  1.00 20.00     0.071 C 
BRANCH   6   7
HETATM    7  C9  UNL     1     -35.689  15.085  -5.943  1.00 20.00     0.056 C 
HETATM    8  C5  UNL     1     -35.356  14.419  -7.284  1.00 20.00     0.046 C 
HETATM    9  C6  UNL     1     -37.201  15.294  -5.828  1.00 20.00     0.046 C 
BRANCH   7  10
HETATM   10  O11 UNL     1     -35.046  16.361  -5.934  1.00 20.00    -0.385 OA
HETATM   11  C7  UNL     1     -34.531  16.686  -7.215  1.00 20.00     0.202 C 
ENDBRANCH   7  10
ENDBRANCH   6   7
ENDBRANCH   3   6
TORSDOF 3
ENDMDL
MODEL 9
REMARK VINA RESULT:      -3.8      1.476      2.232
REMARK  3 active torsions:
REMARK  status: ('A' for Active; 'I' for Inactive)
REMARK    1  A    between atoms: C3_3  and  C8_8 
REMARK    2  A    between atoms: C8_8  and  C9_9 
REMARK    3  A    between atoms: C9_9  and  O11_11 
ROOT
HETATM    1  C1  UNL     1     -34.331  16.820  -1.540  1.00 20.00     0.088 C 
HETATM    2  C2  UNL     1     -33.949  17.018  -2.895  1.00 20.00     0.096 C 
HETATM    3  C3  UNL     1     -33.735  16.022  -3.776  1.00 20.00    -0.071 C 
HETATM    4  C4  UNL     1     -33.909  14.560  -3.455  1.00 20.00     0.044 C 
HETATM    5  N10 UNL     1     -34.642  16.666  -0.433  1.00 20.00    -0.192 NA
ENDROOT
BRANCH   3   6
HETATM    6  C8  UNL     1     -33.337  16.350  -5.207  1.00 20.00     0.071 C 
BRANCH   6   7
HETATM    7  C9  UNL     1     -34.467  16.286  -6.260  1.00 20.00     0.056 C 
HETATM    8  C5  UNL     1     -34.405  17.536  -7.146  1.00 20.00     0.046 C 
HETATM    9  C6  UNL     1     -34.397  15.028  -7.131  1.00 20.00     0.046 C 
BRANCH   7  10
HETATM   10  O11 UNL     1     -35.726  16.309  -5.585  1.00 20.00    -0.385 OA
HETATM   11  C7  UNL     1     -36.608  15.329  -6.107  1.00 20.00     0.202 C 
ENDBRANCH   7  10
ENDBRANCH   6   7
ENDBRANCH   3   6
TORSDOF 3
ENDMDL
