MODEL 1
REMARK VINA RESULT:      -4.8      0.000      0.000
REMARK  3 active torsions:
REMARK  status: ('A' for Active; 'I' for Inactive)
REMARK    1  A    between atoms: C7_7  and  C9_9 
REMARK    2  A    between atoms: C8_8  and  C9_9 
REMARK    3  A    between atoms: C9_9  and  O11_11 
ROOT
HETATM    1  C1  UNL     1     -33.846  13.745  -3.642  1.00 20.00     0.027 C 
HETATM    2  C2  UNL     1     -33.369  15.167  -3.928  1.00 20.00     0.011 C 
HETATM    3  C5  UNL     1     -34.863  13.294  -4.682  1.00 20.00     0.167 C 
HETATM    4  C6  UNL     1     -35.512  15.515  -5.186  1.00 20.00     0.174 C 
HETATM    5  C8  UNL     1     -34.539  16.129  -4.174  1.00 20.00     0.039 C 
HETATM    6  O10 UNL     1     -35.946  14.220  -4.770  1.00 20.00    -0.391 OA
ENDROOT
BRANCH   5   7
HETATM    7  C9  UNL     1     -35.257  16.474  -2.865  1.00 20.00     0.128 C 
BRANCH   7   8
HETATM    8  C7  UNL     1     -34.337  16.330  -1.665  1.00 20.00     0.015 A 
HETATM    9  C3  UNL     1     -33.634  17.534  -1.100  1.00 20.00     0.007 A 
HETATM   10  C4  UNL     1     -34.746  16.883  -0.327  1.00 20.00     0.007 A 
ENDBRANCH   7   8
BRANCH   7  11
HETATM   11  O11 UNL     1     -36.377  15.611  -2.708  1.00 20.00    -0.395 OA
HETATM   12  H27 UNL     1     -36.022  14.725  -2.527  1.00 20.00     0.210 HD
ENDBRANCH   7  11
ENDBRANCH   5   7
TORSDOF 3
ENDMDL
MODEL 2
REMARK VINA RESULT:      -4.7      1.340      1.984
REMARK  3 active torsions:
REMARK  status: ('A' for Active; 'I' for Inactive)
REMARK    1  A    between atoms: C7_7  and  C9_9 
REMARK    2  A    between atoms: C8_8  and  C9_9 
REMARK    3  A    between atoms: C9_9  and  O11_11 
ROOT
HETATM    1  C1  UNL     1     -35.442  15.232  -5.359  1.00 20.00     0.027 C 
HETATM    2  C2  UNL     1     -35.373  14.400  -4.080  1.00 20.00     0.011 C 
HETATM    3  C5  UNL     1     -34.046  15.565  -5.866  1.00 20.00     0.167 C 
HETATM    4  C6  UNL     1     -33.084  15.360  -3.712  1.00 20.00     0.174 C 
HETATM    5  C8  UNL     1     -34.420  15.013  -3.045  1.00 20.00     0.039 C 
HETATM    6  O10 UNL     1     -33.274  16.203  -4.849  1.00 20.00    -0.391 OA
ENDROOT
BRANCH   5   7
HETATM    7  C9  UNL     1     -35.038  16.249  -2.386  1.00 20.00     0.128 C 
BRANCH   7   8
HETATM    8  C7  UNL     1     -34.482  16.479  -0.991  1.00 20.00     0.015 A 
HETATM    9  C3  UNL     1     -33.729  17.743  -0.673  1.00 20.00     0.007 A 
HETATM   10  C4  UNL     1     -35.097  17.516  -0.092  1.00 20.00     0.007 A 
ENDBRANCH   7   8
BRANCH   7  11
HETATM   11  O11 UNL     1     -36.448  16.080  -2.309  1.00 20.00    -0.395 OA
HETATM   12  H27 UNL     1     -36.689  16.169  -1.373  1.00 20.00     0.210 HD
ENDBRANCH   7  11
ENDBRANCH   5   7
TORSDOF 3
ENDMDL
MODEL 3
REMARK VINA RESULT:      -4.6      1.551      2.522
REMARK  3 active torsions:
REMARK  status: ('A' for Active; 'I' for Inactive)
REMARK    1  A    between atoms: C7_7  and  C9_9 
REMARK    2  A    between atoms: C8_8  and  C9_9 
REMARK    3  A    between atoms: C9_9  and  O11_11 
ROOT
HETATM    1  C1  UNL     1     -36.381  15.548  -5.163  1.00 20.00     0.027 C 
HETATM    2  C2  UNL     1     -36.417  14.565  -3.995  1.00 20.00     0.011 C 
HETATM    3  C5  UNL     1     -35.822  14.884  -6.414  1.00 20.00     0.167 C 
HETATM    4  C6  UNL     1     -34.609  13.279  -5.166  1.00 20.00     0.174 C 
HETATM    5  C8  UNL     1     -35.080  13.832  -3.817  1.00 20.00     0.039 C 
HETATM    6  O10 UNL     1     -34.543  14.306  -6.155  1.00 20.00    -0.391 OA
ENDROOT
BRANCH   5   7
HETATM    7  C9  UNL     1     -34.021  14.753  -3.204  1.00 20.00     0.128 C 
BRANCH   7   8
HETATM    8  C7  UNL     1     -34.627  16.057  -2.713  1.00 20.00     0.015 A 
HETATM    9  C3  UNL     1     -34.646  16.379  -1.243  1.00 20.00     0.007 A 
HETATM   10  C4  UNL     1     -33.742  17.144  -2.168  1.00 20.00     0.007 A 
ENDBRANCH   7   8
BRANCH   7  11
HETATM   11  O11 UNL     1     -33.026  15.032  -4.180  1.00 20.00    -0.395 OA
HETATM   12  H27 UNL     1     -33.098  15.979  -4.388  1.00 20.00     0.210 HD
ENDBRANCH   7  11
ENDBRANCH   5   7
TORSDOF 3
ENDMDL
MODEL 4
REMARK VINA RESULT:      -4.6     11.581     13.462
REMARK  3 active torsions:
REMARK  status: ('A' for Active; 'I' for Inactive)
REMARK    1  A    between atoms: C7_7  and  C9_9 
REMARK    2  A    between atoms: C8_8  and  C9_9 
REMARK    3  A    between atoms: C9_9  and  O11_11 
ROOT
HETATM    1  C1  UNL     1     -41.192   7.447  -0.902  1.00 20.00     0.027 C 
HETATM    2  C2  UNL     1     -40.913   6.219  -0.039  1.00 20.00     0.011 C 
HETATM    3  C5  UNL     1     -42.685   7.744  -0.957  1.00 20.00     0.167 C 
HETATM    4  C6  UNL     1     -43.271   5.495  -0.501  1.00 20.00     0.174 C 
HETATM    5  C8  UNL     1     -41.812   5.033  -0.416  1.00 20.00     0.039 C 
HETATM    6  O10 UNL     1     -43.416   6.599  -1.395  1.00 20.00    -0.391 OA
ENDROOT
BRANCH   5   7
HETATM    7  C9  UNL     1     -41.364   4.395  -1.734  1.00 20.00     0.128 C 
BRANCH   7   8
HETATM    8  C7  UNL     1     -42.330   3.315  -2.192  1.00 20.00     0.015 A 
HETATM    9  C3  UNL     1     -42.960   3.390  -3.556  1.00 20.00     0.007 A 
HETATM   10  C4  UNL     1     -41.924   2.341  -3.263  1.00 20.00     0.007 A 
ENDBRANCH   7   8
BRANCH   7  11
HETATM   11  O11 UNL     1     -40.071   3.828  -1.560  1.00 20.00    -0.395 OA
HETATM   12  H27 UNL     1     -39.440   4.567  -1.572  1.00 20.00     0.210 HD
ENDBRANCH   7  11
ENDBRANCH   5   7
TORSDOF 3
ENDMDL
MODEL 5
REMARK VINA RESULT:      -4.4      1.978      2.837
REMARK  3 active torsions:
REMARK  status: ('A' for Active; 'I' for Inactive)
REMARK    1  A    between atoms: C7_7  and  C9_9 
REMARK    2  A    between atoms: C8_8  and  C9_9 
REMARK    3  A    between atoms: C9_9  and  O11_11 
ROOT
HETATM    1  C1  UNL     1     -35.431  14.366  -7.039  1.00 20.00     0.027 C 
HETATM    2  C2  UNL     1     -34.252  15.329  -7.156  1.00 20.00     0.011 C 
HETATM    3  C5  UNL     1     -36.739  15.127  -6.876  1.00 20.00     0.167 C 
HETATM    4  C6  UNL     1     -35.660  17.025  -5.957  1.00 20.00     0.174 C 
HETATM    5  C8  UNL     1     -34.266  16.395  -6.052  1.00 20.00     0.039 C 
HETATM    6  O10 UNL     1     -36.669  16.031  -5.772  1.00 20.00    -0.391 OA
ENDROOT
BRANCH   5   7
HETATM    7  C9  UNL     1     -33.842  15.803  -4.704  1.00 20.00     0.128 C 
BRANCH   7   8
HETATM    8  C7  UNL     1     -34.359  16.632  -3.539  1.00 20.00     0.015 A 
HETATM    9  C3  UNL     1     -35.103  15.971  -2.411  1.00 20.00     0.007 A 
HETATM   10  C4  UNL     1     -33.719  16.512  -2.184  1.00 20.00     0.007 A 
ENDBRANCH   7   8
BRANCH   7  11
HETATM   11  O11 UNL     1     -32.422  15.745  -4.649  1.00 20.00    -0.395 OA
HETATM   12  H27 UNL     1     -32.106  16.663  -4.631  1.00 20.00     0.210 HD
ENDBRANCH   7  11
ENDBRANCH   5   7
TORSDOF 3
ENDMDL
MODEL 6
REMARK VINA RESULT:      -4.3      1.728      4.106
REMARK  3 active torsions:
REMARK  status: ('A' for Active; 'I' for Inactive)
REMARK    1  A    between atoms: C7_7  and  C9_9 
REMARK    2  A    between atoms: C8_8  and  C9_9 
REMARK    3  A    between atoms: C9_9  and  O11_11 
ROOT
HETATM    1  C1  UNL     1     -35.021  18.661  -3.356  1.00 20.00     0.027 C 
HETATM    2  C2  UNL     1     -33.646  18.128  -2.963  1.00 20.00     0.011 C 
HETATM    3  C5  UNL     1     -36.075  18.249  -2.337  1.00 20.00     0.167 C 
HETATM    4  C6  UNL     1     -34.833  16.357  -1.640  1.00 20.00     0.174 C 
HETATM    5  C8  UNL     1     -33.685  16.633  -2.617  1.00 20.00     0.039 C 
HETATM    6  O10 UNL     1     -36.078  16.833  -2.152  1.00 20.00    -0.391 OA
ENDROOT
BRANCH   5   7
HETATM    7  C9  UNL     1     -33.823  15.775  -3.878  1.00 20.00     0.128 C 
BRANCH   7   8
HETATM    8  C7  UNL     1     -34.242  14.353  -3.547  1.00 20.00     0.015 A 
HETATM    9  C3  UNL     1     -35.466  13.755  -4.185  1.00 20.00     0.007 A 
HETATM   10  C4  UNL     1     -34.100  13.263  -4.573  1.00 20.00     0.007 A 
ENDBRANCH   7   8
BRANCH   7  11
HETATM   11  O11 UNL     1     -32.577  15.752  -4.563  1.00 20.00    -0.395 OA
HETATM   12  H27 UNL     1     -32.241  14.843  -4.500  1.00 20.00     0.210 HD
ENDBRANCH   7  11
ENDBRANCH   5   7
TORSDOF 3
ENDMDL
MODEL 7
REMARK VINA RESULT:      -4.3     11.578     12.648
REMARK  3 active torsions:
REMARK  status: ('A' for Active; 'I' for Inactive)
REMARK    1  A    between atoms: C7_7  and  C9_9 
REMARK    2  A    between atoms: C8_8  and  C9_9 
REMARK    3  A    between atoms: C9_9  and  O11_11 
ROOT
HETATM    1  C1  UNL     1     -35.092   3.870   4.896  1.00 20.00     0.027 C 
HETATM    2  C2  UNL     1     -35.545   5.160   4.216  1.00 20.00     0.011 C 
HETATM    3  C5  UNL     1     -34.770   4.115   6.364  1.00 20.00     0.167 C 
HETATM    4  C6  UNL     1     -34.302   6.408   6.002  1.00 20.00     0.174 C 
HETATM    5  C8  UNL     1     -34.589   6.327   4.499  1.00 20.00     0.039 C 
HETATM    6  O10 UNL     1     -33.813   5.165   6.506  1.00 20.00    -0.391 OA
ENDROOT
BRANCH   5   7
HETATM    7  C9  UNL     1     -33.289   6.186   3.701  1.00 20.00     0.128 C 
BRANCH   7   8
HETATM    8  C7  UNL     1     -32.662   7.538   3.406  1.00 20.00     0.015 A 
HETATM    9  C3  UNL     1     -31.166   7.696   3.411  1.00 20.00     0.007 A 
HETATM   10  C4  UNL     1     -31.924   7.764   2.116  1.00 20.00     0.007 A 
ENDBRANCH   7   8
BRANCH   7  11
HETATM   11  O11 UNL     1     -33.565   5.516   2.478  1.00 20.00    -0.395 OA
HETATM   12  H27 UNL     1     -32.833   5.726   1.874  1.00 20.00     0.210 HD
ENDBRANCH   7  11
ENDBRANCH   5   7
TORSDOF 3
ENDMDL
MODEL 8
REMARK VINA RESULT:      -4.2      1.796      4.360
REMARK  3 active torsions:
REMARK  status: ('A' for Active; 'I' for Inactive)
REMARK    1  A    between atoms: C7_7  and  C9_9 
REMARK    2  A    between atoms: C8_8  and  C9_9 
REMARK    3  A    between atoms: C9_9  and  O11_11 
ROOT
HETATM    1  C1  UNL     1     -33.686  16.376  -3.022  1.00 20.00     0.027 C 
HETATM    2  C2  UNL     1     -33.026  15.264  -3.833  1.00 20.00     0.011 C 
HETATM    3  C5  UNL     1     -34.855  15.835  -2.210  1.00 20.00     0.167 C 
HETATM    4  C6  UNL     1     -35.200  14.020  -3.692  1.00 20.00     0.174 C 
HETATM    5  C8  UNL     1     -34.052  14.436  -4.618  1.00 20.00     0.039 C 
HETATM    6  O10 UNL     1     -35.786  15.153  -3.051  1.00 20.00    -0.391 OA
ENDROOT
BRANCH   5   7
HETATM    7  C9  UNL     1     -34.579  15.210  -5.830  1.00 20.00     0.128 C 
BRANCH   7   8
HETATM    8  C7  UNL     1     -35.757  14.501  -6.479  1.00 20.00     0.015 A 
HETATM    9  C3  UNL     1     -37.005  15.267  -6.824  1.00 20.00     0.007 A 
HETATM   10  C4  UNL     1     -36.102  14.771  -7.918  1.00 20.00     0.007 A 
ENDBRANCH   7   8
BRANCH   7  11
HETATM   11  O11 UNL     1     -33.532  15.355  -6.781  1.00 20.00    -0.395 OA
HETATM   12  H27 UNL     1     -33.940  15.700  -7.592  1.00 20.00     0.210 HD
ENDBRANCH   7  11
ENDBRANCH   5   7
TORSDOF 3
ENDMDL
MODEL 9
REMARK VINA RESULT:      -4.2      1.745      4.229
REMARK  3 active torsions:
REMARK  status: ('A' for Active; 'I' for Inactive)
REMARK    1  A    between atoms: C7_7  and  C9_9 
REMARK    2  A    between atoms: C8_8  and  C9_9 
REMARK    3  A    between atoms: C9_9  and  O11_11 
ROOT
HETATM    1  C1  UNL     1     -34.514  17.805  -2.214  1.00 20.00     0.027 C 
HETATM    2  C2  UNL     1     -33.728  16.497  -2.238  1.00 20.00     0.011 C 
HETATM    3  C5  UNL     1     -36.009  17.539  -2.099  1.00 20.00     0.167 C 
HETATM    4  C6  UNL     1     -35.820  15.383  -3.062  1.00 20.00     0.174 C 
HETATM    5  C8  UNL     1     -34.304  15.497  -3.251  1.00 20.00     0.039 C 
HETATM    6  O10 UNL     1     -36.451  16.663  -3.136  1.00 20.00    -0.391 OA
ENDROOT
BRANCH   5   7
HETATM    7  C9  UNL     1     -33.961  15.903  -4.687  1.00 20.00     0.128 C 
BRANCH   7   8
HETATM    8  C7  UNL     1     -34.598  14.970  -5.703  1.00 20.00     0.015 A 
HETATM    9  C3  UNL     1     -35.623  15.491  -6.673  1.00 20.00     0.007 A 
HETATM   10  C4  UNL     1     -34.258  15.093  -7.162  1.00 20.00     0.007 A 
ENDBRANCH   7   8
BRANCH   7  11
HETATM   11  O11 UNL     1     -32.548  15.885  -4.851  1.00 20.00    -0.395 OA
HETATM   12  H27 UNL     1     -32.319  15.007  -5.197  1.00 20.00     0.210 HD
ENDBRANCH   7  11
ENDBRANCH   5   7
TORSDOF 3
ENDMDL
