MODEL 1
REMARK VINA RESULT:      -5.0      0.000      0.000
REMARK  0 active torsions:
REMARK  status: ('A' for Active; 'I' for Inactive)
ROOT
HETATM    1  C1  UNL     1     -32.335   7.644   2.467  1.00 20.00     0.065 C 
HETATM    2  C2  UNL     1     -34.735   4.642   5.817  1.00 20.00     0.032 C 
HETATM    3  C3  UNL     1     -35.392   4.835   4.462  1.00 20.00     0.037 C 
HETATM    4  C4  UNL     1     -33.533   5.499   2.820  1.00 20.00     0.056 C 
HETATM    5  C5  UNL     1     -34.290   6.048   6.178  1.00 20.00     0.273 C 
HETATM    6  C6  UNL     1     -32.421   6.480   4.660  1.00 20.00     0.292 C 
HETATM    7  C7  UNL     1     -32.307   6.340   3.148  1.00 20.00     0.123 C 
HETATM    8  C8  UNL     1     -34.593   5.965   3.822  1.00 20.00     0.224 C 
HETATM    9  N9  UNL     1     -32.357   8.672   1.930  1.00 20.00    -0.197 NA
HETATM   10  N10 UNL     1     -33.862   6.655   4.912  1.00 20.00     0.094 N 
ENDROOT
TORSDOF 0
ENDMDL
MODEL 2
REMARK VINA RESULT:      -4.3     11.545     12.423
REMARK  0 active torsions:
REMARK  status: ('A' for Active; 'I' for Inactive)
ROOT
HETATM    1  C1  UNL     1     -34.467  13.787  -4.751  1.00 20.00     0.065 C 
HETATM    2  C2  UNL     1     -35.022  18.034  -1.986  1.00 20.00     0.032 C 
HETATM    3  C3  UNL     1     -34.195  16.915  -1.381  1.00 20.00     0.037 C 
HETATM    4  C4  UNL     1     -33.338  15.483  -3.332  1.00 20.00     0.056 C 
HETATM    5  C5  UNL     1     -36.215  17.296  -2.567  1.00 20.00     0.273 C 
HETATM    6  C6  UNL     1     -35.292  16.117  -4.501  1.00 20.00     0.292 C 
HETATM    7  C7  UNL     1     -34.081  15.203  -4.631  1.00 20.00     0.123 C 
HETATM    8  C8  UNL     1     -34.447  15.728  -2.306  1.00 20.00     0.224 C 
HETATM    9  N9  UNL     1     -34.770  12.672  -4.846  1.00 20.00    -0.197 NA
HETATM   10  N10 UNL     1     -35.674  16.032  -3.081  1.00 20.00     0.094 N 
ENDROOT
TORSDOF 0
ENDMDL
MODEL 3
REMARK VINA RESULT:      -4.3     11.087     13.112
REMARK  0 active torsions:
REMARK  status: ('A' for Active; 'I' for Inactive)
ROOT
HETATM    1  C1  UNL     1     -34.477  13.664  -3.923  1.00 20.00     0.065 C 
HETATM    2  C2  UNL     1     -33.829  18.718  -3.762  1.00 20.00     0.032 C 
HETATM    3  C3  UNL     1     -35.158  18.172  -3.272  1.00 20.00     0.037 C 
HETATM    4  C4  UNL     1     -34.752  15.733  -2.580  1.00 20.00     0.056 C 
HETATM    5  C5  UNL     1     -33.585  17.920  -5.031  1.00 20.00     0.273 C 
HETATM    6  C6  UNL     1     -33.050  15.676  -4.219  1.00 20.00     0.292 C 
HETATM    7  C7  UNL     1     -33.780  14.765  -3.240  1.00 20.00     0.123 C 
HETATM    8  C8  UNL     1     -35.135  16.707  -3.697  1.00 20.00     0.224 C 
HETATM    9  N9  UNL     1     -35.026  12.795  -4.461  1.00 20.00    -0.197 NA
HETATM   10  N10 UNL     1     -34.093  16.573  -4.744  1.00 20.00     0.094 N 
ENDROOT
TORSDOF 0
ENDMDL
MODEL 4
REMARK VINA RESULT:      -4.3     11.154     12.269
REMARK  0 active torsions:
REMARK  status: ('A' for Active; 'I' for Inactive)
ROOT
HETATM    1  C1  UNL     1     -37.744  14.719  -4.262  1.00 20.00     0.065 C 
HETATM    2  C2  UNL     1     -32.704  15.218  -3.679  1.00 20.00     0.032 C 
HETATM    3  C3  UNL     1     -33.259  13.807  -3.744  1.00 20.00     0.037 C 
HETATM    4  C4  UNL     1     -35.500  13.945  -4.989  1.00 20.00     0.056 C 
HETATM    5  C5  UNL     1     -33.689  15.925  -2.765  1.00 20.00     0.273 C 
HETATM    6  C6  UNL     1     -35.708  16.136  -4.130  1.00 20.00     0.292 C 
HETATM    7  C7  UNL     1     -36.489  15.101  -4.929  1.00 20.00     0.123 C 
HETATM    8  C8  UNL     1     -34.769  13.999  -3.645  1.00 20.00     0.224 C 
HETATM    9  N9  UNL     1     -38.734  14.418  -3.738  1.00 20.00    -0.197 NA
HETATM   10  N10 UNL     1     -35.001  15.358  -3.099  1.00 20.00     0.094 N 
ENDROOT
TORSDOF 0
ENDMDL
MODEL 5
REMARK VINA RESULT:      -4.2     11.680     13.223
REMARK  0 active torsions:
REMARK  status: ('A' for Active; 'I' for Inactive)
ROOT
HETATM    1  C1  UNL     1     -34.090  16.017  -2.295  1.00 20.00     0.065 C 
HETATM    2  C2  UNL     1     -34.394  14.962  -7.273  1.00 20.00     0.032 C 
HETATM    3  C3  UNL     1     -34.545  16.415  -6.861  1.00 20.00     0.037 C 
HETATM    4  C4  UNL     1     -33.385  16.667  -4.584  1.00 20.00     0.056 C 
HETATM    5  C5  UNL     1     -35.242  14.231  -6.248  1.00 20.00     0.273 C 
HETATM    6  C6  UNL     1     -33.945  14.407  -4.181  1.00 20.00     0.292 C 
HETATM    7  C7  UNL     1     -33.327  15.614  -3.487  1.00 20.00     0.123 C 
HETATM    8  C8  UNL     1     -34.678  16.356  -5.342  1.00 20.00     0.224 C 
HETATM    9  N9  UNL     1     -34.691  16.335  -1.355  1.00 20.00    -0.197 NA
HETATM   10  N10 UNL     1     -35.043  14.963  -4.991  1.00 20.00     0.094 N 
ENDROOT
TORSDOF 0
ENDMDL
MODEL 6
REMARK VINA RESULT:      -4.2     11.582     12.605
REMARK  0 active torsions:
REMARK  status: ('A' for Active; 'I' for Inactive)
ROOT
HETATM    1  C1  UNL     1     -34.683  14.558  -5.656  1.00 20.00     0.065 C 
HETATM    2  C2  UNL     1     -33.631  17.302  -1.489  1.00 20.00     0.032 C 
HETATM    3  C3  UNL     1     -34.796  16.332  -1.407  1.00 20.00     0.037 C 
HETATM    4  C4  UNL     1     -34.393  14.530  -3.190  1.00 20.00     0.056 C 
HETATM    5  C5  UNL     1     -33.831  17.953  -2.846  1.00 20.00     0.273 C 
HETATM    6  C6  UNL     1     -33.255  16.185  -4.436  1.00 20.00     0.292 C 
HETATM    7  C7  UNL     1     -33.734  14.743  -4.546  1.00 20.00     0.123 C 
HETATM    8  C8  UNL     1     -35.011  15.889  -2.850  1.00 20.00     0.224 C 
HETATM    9  N9  UNL     1     -35.431  14.412  -6.530  1.00 20.00    -0.197 NA
HETATM   10  N10 UNL     1     -34.335  16.884  -3.717  1.00 20.00     0.094 N 
ENDROOT
TORSDOF 0
ENDMDL
MODEL 7
REMARK VINA RESULT:      -4.1      9.730     10.630
REMARK  0 active torsions:
REMARK  status: ('A' for Active; 'I' for Inactive)
ROOT
HETATM    1  C1  UNL     1     -42.631   8.085  -3.732  1.00 20.00     0.065 C 
HETATM    2  C2  UNL     1     -41.587   4.760  -0.010  1.00 20.00     0.032 C 
HETATM    3  C3  UNL     1     -40.818   6.068  -0.009  1.00 20.00     0.037 C 
HETATM    4  C4  UNL     1     -42.241   7.771  -1.300  1.00 20.00     0.056 C 
HETATM    5  C5  UNL     1     -41.562   4.356  -1.474  1.00 20.00     0.273 C 
HETATM    6  C6  UNL     1     -43.078   5.947  -2.548  1.00 20.00     0.292 C 
HETATM    7  C7  UNL     1     -43.135   7.468  -2.494  1.00 20.00     0.123 C 
HETATM    8  C8  UNL     1     -41.153   6.696  -1.358  1.00 20.00     0.224 C 
HETATM    9  N9  UNL     1     -42.234   8.571  -4.707  1.00 20.00    -0.197 NA
HETATM   10  N10 UNL     1     -41.681   5.613  -2.223  1.00 20.00     0.094 N 
ENDROOT
TORSDOF 0
ENDMDL
MODEL 8
REMARK VINA RESULT:      -4.1     11.261     12.155
REMARK  0 active torsions:
REMARK  status: ('A' for Active; 'I' for Inactive)
ROOT
HETATM    1  C1  UNL     1     -34.542  16.824  -1.317  1.00 20.00     0.065 C 
HETATM    2  C2  UNL     1     -34.859  14.012  -5.557  1.00 20.00     0.032 C 
HETATM    3  C3  UNL     1     -36.160  14.506  -4.953  1.00 20.00     0.037 C 
HETATM    4  C4  UNL     1     -35.591  16.582  -3.554  1.00 20.00     0.056 C 
HETATM    5  C5  UNL     1     -34.081  13.541  -4.341  1.00 20.00     0.273 C 
HETATM    6  C6  UNL     1     -33.464  15.614  -3.200  1.00 20.00     0.292 C 
HETATM    7  C7  UNL     1     -34.306  16.808  -2.769  1.00 20.00     0.123 C 
HETATM    8  C8  UNL     1     -35.749  15.060  -3.593  1.00 20.00     0.224 C 
HETATM    9  N9  UNL     1     -34.729  16.837  -0.172  1.00 20.00    -0.197 NA
HETATM   10  N10 UNL     1     -34.416  14.493  -3.276  1.00 20.00     0.094 N 
ENDROOT
TORSDOF 0
ENDMDL
MODEL 9
REMARK VINA RESULT:      -4.1     11.386     12.870
REMARK  0 active torsions:
REMARK  status: ('A' for Active; 'I' for Inactive)
ROOT
HETATM    1  C1  UNL     1     -34.096  18.241  -3.475  1.00 20.00     0.065 C 
HETATM    2  C2  UNL     1     -34.600  13.308  -4.657  1.00 20.00     0.032 C 
HETATM    3  C3  UNL     1     -33.430  13.693  -3.772  1.00 20.00     0.037 C 
HETATM    4  C4  UNL     1     -34.056  15.907  -2.631  1.00 20.00     0.056 C 
HETATM    5  C5  UNL     1     -34.585  14.389  -5.724  1.00 20.00     0.273 C 
HETATM    6  C6  UNL     1     -35.357  16.387  -4.544  1.00 20.00     0.292 C 
HETATM    7  C7  UNL     1     -34.890  17.024  -3.242  1.00 20.00     0.123 C 
HETATM    8  C8  UNL     1     -33.406  15.217  -3.833  1.00 20.00     0.224 C 
HETATM    9  N9  UNL     1     -33.470  19.201  -3.658  1.00 20.00    -0.197 NA
HETATM   10  N10 UNL     1     -34.196  15.618  -5.022  1.00 20.00     0.094 N 
ENDROOT
TORSDOF 0
ENDMDL
