MODEL 1
REMARK VINA RESULT:      -4.2      0.000      0.000
REMARK  0 active torsions:
REMARK  status: ('A' for Active; 'I' for Inactive)
ROOT
HETATM    1  C1  UNL     1     -34.844  13.908  -4.215  1.00 20.00     0.065 C 
HETATM    2  C2  UNL     1     -34.693  17.116  -0.437  1.00 20.00     0.032 C 
HETATM    3  C3  UNL     1     -35.845  17.561  -1.319  1.00 20.00     0.037 C 
HETATM    4  C4  UNL     1     -35.914  15.971  -3.332  1.00 20.00     0.056 C 
HETATM    5  C5  UNL     1     -33.477  17.410  -1.297  1.00 20.00     0.273 C 
HETATM    6  C6  UNL     1     -33.590  15.709  -3.045  1.00 20.00     0.292 C 
HETATM    7  C7  UNL     1     -34.705  15.354  -4.017  1.00 20.00     0.123 C 
HETATM    8  C8  UNL     1     -35.364  17.265  -2.735  1.00 20.00     0.224 C 
HETATM    9  N9  UNL     1     -34.954  12.765  -4.370  1.00 20.00    -0.197 NA
HETATM   10  N10 UNL     1     -33.890  17.098  -2.670  1.00 20.00     0.094 N 
ENDROOT
TORSDOF 0
ENDMDL
MODEL 2
REMARK VINA RESULT:      -4.1      1.888      4.077
REMARK  0 active torsions:
REMARK  status: ('A' for Active; 'I' for Inactive)
ROOT
HETATM    1  C1  UNL     1     -34.332  16.476  -1.496  1.00 20.00     0.065 C 
HETATM    2  C2  UNL     1     -35.482  15.797  -6.271  1.00 20.00     0.032 C 
HETATM    3  C3  UNL     1     -35.107  14.429  -5.732  1.00 20.00     0.037 C 
HETATM    4  C4  UNL     1     -34.430  14.744  -3.276  1.00 20.00     0.056 C 
HETATM    5  C5  UNL     1     -34.159  16.542  -6.251  1.00 20.00     0.273 C 
HETATM    6  C6  UNL     1     -33.754  16.921  -3.873  1.00 20.00     0.292 C 
HETATM    7  C7  UNL     1     -33.696  15.947  -2.706  1.00 20.00     0.123 C 
HETATM    8  C8  UNL     1     -33.986  14.716  -4.739  1.00 20.00     0.224 C 
HETATM    9  N9  UNL     1     -34.836  16.894  -0.540  1.00 20.00    -0.197 NA
HETATM   10  N10 UNL     1     -33.471  16.075  -5.042  1.00 20.00     0.094 N 
ENDROOT
TORSDOF 0
ENDMDL
MODEL 3
REMARK VINA RESULT:      -4.1      1.487      4.175
REMARK  0 active torsions:
REMARK  status: ('A' for Active; 'I' for Inactive)
ROOT
HETATM    1  C1  UNL     1     -34.787  16.986  -0.859  1.00 20.00     0.065 C 
HETATM    2  C2  UNL     1     -35.265  13.352  -4.198  1.00 20.00     0.032 C 
HETATM    3  C3  UNL     1     -33.858  13.895  -4.368  1.00 20.00     0.037 C 
HETATM    4  C4  UNL     1     -33.590  15.832  -2.706  1.00 20.00     0.056 C 
HETATM    5  C5  UNL     1     -36.130  14.500  -4.688  1.00 20.00     0.273 C 
HETATM    6  C6  UNL     1     -35.912  16.172  -2.921  1.00 20.00     0.292 C 
HETATM    7  C7  UNL     1     -34.678  16.818  -2.310  1.00 20.00     0.123 C 
HETATM    8  C8  UNL     1     -34.004  15.390  -4.110  1.00 20.00     0.224 C 
HETATM    9  N9  UNL     1     -34.874  17.117   0.290  1.00 20.00    -0.197 NA
HETATM   10  N10 UNL     1     -35.445  15.718  -4.240  1.00 20.00     0.094 N 
ENDROOT
TORSDOF 0
ENDMDL
MODEL 4
REMARK VINA RESULT:      -4.1      1.378      2.334
REMARK  0 active torsions:
REMARK  status: ('A' for Active; 'I' for Inactive)
ROOT
HETATM    1  C1  UNL     1     -34.605  13.608  -4.042  1.00 20.00     0.065 C 
HETATM    2  C2  UNL     1     -35.313  18.510  -4.261  1.00 20.00     0.032 C 
HETATM    3  C3  UNL     1     -33.838  18.313  -3.962  1.00 20.00     0.037 C 
HETATM    4  C4  UNL     1     -33.439  15.785  -3.765  1.00 20.00     0.056 C 
HETATM    5  C5  UNL     1     -35.982  18.038  -2.982  1.00 20.00     0.273 C 
HETATM    6  C6  UNL     1     -35.674  15.616  -3.039  1.00 20.00     0.292 C 
HETATM    7  C7  UNL     1     -34.413  14.776  -3.178  1.00 20.00     0.123 C 
HETATM    8  C8  UNL     1     -33.804  17.088  -3.054  1.00 20.00     0.224 C 
HETATM    9  N9  UNL     1     -34.757  12.684  -4.726  1.00 20.00    -0.197 NA
HETATM   10  N10 UNL     1     -35.177  16.900  -2.523  1.00 20.00     0.094 N 
ENDROOT
TORSDOF 0
ENDMDL
MODEL 5
REMARK VINA RESULT:      -4.0      2.500      3.698
REMARK  0 active torsions:
REMARK  status: ('A' for Active; 'I' for Inactive)
ROOT
HETATM    1  C1  UNL     1     -37.622  14.659  -3.765  1.00 20.00     0.065 C 
HETATM    2  C2  UNL     1     -33.541  16.949  -5.403  1.00 20.00     0.032 C 
HETATM    3  C3  UNL     1     -33.984  16.029  -6.525  1.00 20.00     0.037 C 
HETATM    4  C4  UNL     1     -36.056  14.764  -5.692  1.00 20.00     0.056 C 
HETATM    5  C5  UNL     1     -33.084  15.976  -4.330  1.00 20.00     0.273 C 
HETATM    6  C6  UNL     1     -35.171  15.000  -3.520  1.00 20.00     0.292 C 
HETATM    7  C7  UNL     1     -36.294  14.294  -4.265  1.00 20.00     0.123 C 
HETATM    8  C8  UNL     1     -34.532  14.802  -5.804  1.00 20.00     0.224 C 
HETATM    9  N9  UNL     1     -38.672  14.949  -3.369  1.00 20.00    -0.197 NA
HETATM   10  N10 UNL     1     -34.014  14.844  -4.414  1.00 20.00     0.094 N 
ENDROOT
TORSDOF 0
ENDMDL
MODEL 6
REMARK VINA RESULT:      -4.0      1.775      4.189
REMARK  0 active torsions:
REMARK  status: ('A' for Active; 'I' for Inactive)
ROOT
HETATM    1  C1  UNL     1     -35.542  17.694  -2.319  1.00 20.00     0.065 C 
HETATM    2  C2  UNL     1     -34.601  13.366  -4.548  1.00 20.00     0.032 C 
HETATM    3  C3  UNL     1     -33.352  13.712  -3.760  1.00 20.00     0.037 C 
HETATM    4  C4  UNL     1     -33.766  15.987  -2.646  1.00 20.00     0.056 C 
HETATM    5  C5  UNL     1     -34.611  14.419  -5.643  1.00 20.00     0.273 C 
HETATM    6  C6  UNL     1     -35.195  16.471  -4.456  1.00 20.00     0.292 C 
HETATM    7  C7  UNL     1     -34.555  17.139  -3.248  1.00 20.00     0.123 C 
HETATM    8  C8  UNL     1     -33.251  15.229  -3.870  1.00 20.00     0.224 C 
HETATM    9  N9  UNL     1     -36.324  18.132  -1.584  1.00 20.00    -0.197 NA
HETATM   10  N10 UNL     1     -34.112  15.643  -5.006  1.00 20.00     0.094 N 
ENDROOT
TORSDOF 0
ENDMDL
MODEL 7
REMARK VINA RESULT:      -3.9      0.930      1.095
REMARK  0 active torsions:
REMARK  status: ('A' for Active; 'I' for Inactive)
ROOT
HETATM    1  C1  UNL     1     -34.990  13.739  -4.701  1.00 20.00     0.065 C 
HETATM    2  C2  UNL     1     -33.778  17.351  -1.529  1.00 20.00     0.032 C 
HETATM    3  C3  UNL     1     -35.266  17.117  -1.348  1.00 20.00     0.037 C 
HETATM    4  C4  UNL     1     -35.955  15.302  -3.027  1.00 20.00     0.056 C 
HETATM    5  C5  UNL     1     -33.699  17.958  -2.919  1.00 20.00     0.273 C 
HETATM    6  C6  UNL     1     -34.196  16.074  -4.392  1.00 20.00     0.292 C 
HETATM    7  C7  UNL     1     -35.383  15.123  -4.424  1.00 20.00     0.123 C 
HETATM    8  C8  UNL     1     -35.764  16.793  -2.752  1.00 20.00     0.224 C 
HETATM    9  N9  UNL     1     -34.678  12.644  -4.919  1.00 20.00    -0.197 NA
HETATM   10  N10 UNL     1     -34.725  17.261  -3.703  1.00 20.00     0.094 N 
ENDROOT
TORSDOF 0
ENDMDL
MODEL 8
REMARK VINA RESULT:      -3.9      1.421      4.157
REMARK  0 active torsions:
REMARK  status: ('A' for Active; 'I' for Inactive)
ROOT
HETATM    1  C1  UNL     1     -34.088  16.797  -1.823  1.00 20.00     0.065 C 
HETATM    2  C2  UNL     1     -34.960  14.452  -6.104  1.00 20.00     0.032 C 
HETATM    3  C3  UNL     1     -36.318  14.874  -5.573  1.00 20.00     0.037 C 
HETATM    4  C4  UNL     1     -35.921  16.028  -3.316  1.00 20.00     0.056 C 
HETATM    5  C5  UNL     1     -34.527  13.386  -5.113  1.00 20.00     0.273 C 
HETATM    6  C6  UNL     1     -34.016  14.660  -3.093  1.00 20.00     0.292 C 
HETATM    7  C7  UNL     1     -34.860  15.644  -2.297  1.00 20.00     0.123 C 
HETATM    8  C8  UNL     1     -36.189  14.721  -4.061  1.00 20.00     0.224 C 
HETATM    9  N9  UNL     1     -33.478  17.709  -1.449  1.00 20.00    -0.197 NA
HETATM   10  N10 UNL     1     -35.014  13.852  -3.809  1.00 20.00     0.094 N 
ENDROOT
TORSDOF 0
ENDMDL
MODEL 9
REMARK VINA RESULT:      -3.9     11.767     13.380
REMARK  0 active torsions:
REMARK  status: ('A' for Active; 'I' for Inactive)
ROOT
HETATM    1  C1  UNL     1     -41.579   2.686  -3.071  1.00 20.00     0.065 C 
HETATM    2  C2  UNL     1     -41.928   7.564  -2.258  1.00 20.00     0.032 C 
HETATM    3  C3  UNL     1     -41.155   6.998  -1.081  1.00 20.00     0.037 C 
HETATM    4  C4  UNL     1     -41.014   4.458  -1.422  1.00 20.00     0.056 C 
HETATM    5  C5  UNL     1     -43.320   6.995  -2.052  1.00 20.00     0.273 C 
HETATM    6  C6  UNL     1     -43.054   4.628  -2.589  1.00 20.00     0.292 C 
HETATM    7  C7  UNL     1     -42.097   3.584  -2.035  1.00 20.00     0.123 C 
HETATM    8  C8  UNL     1     -41.795   5.635  -0.838  1.00 20.00     0.224 C 
HETATM    9  N9  UNL     1     -41.169   1.976  -3.891  1.00 20.00    -0.197 NA
HETATM   10  N10 UNL     1     -43.110   5.642  -1.525  1.00 20.00     0.094 N 
ENDROOT
TORSDOF 0
ENDMDL
