MODEL 1
REMARK VINA RESULT:      -5.3      0.000      0.000
REMARK  0 active torsions:
REMARK  status: ('A' for Active; 'I' for Inactive)
ROOT
HETATM    1  C1  UNL     1     -34.055   5.126   2.841  1.00 20.00     0.015 A 
HETATM    2  C2  UNL     1     -33.211   6.026   2.324  1.00 20.00     0.083 A 
HETATM    3  C3  UNL     1     -34.311   5.149   4.239  1.00 20.00    -0.028 A 
HETATM    4  C4  UNL     1     -33.710   6.059   5.004  1.00 20.00     0.063 A 
HETATM    5  C5  UNL     1     -32.547   7.040   3.187  1.00 20.00     0.287 A 
HETATM    6  C6  UNL     1     -35.194   4.255   5.030  1.00 20.00     0.041 C 
HETATM    7  C7  UNL     1     -34.070   5.953   6.438  1.00 20.00     0.066 C 
HETATM    8  C8  UNL     1     -35.264   4.985   6.382  1.00 20.00     0.011 C 
HETATM    9  O9  UNL     1     -31.778   7.861   2.696  1.00 20.00    -0.260 OA
HETATM   10  O10 UNL     1     -32.822   7.024   4.535  1.00 20.00    -0.279 OA
ENDROOT
TORSDOF 0
ENDMDL
MODEL 2
REMARK VINA RESULT:      -4.7     11.752     12.786
REMARK  0 active torsions:
REMARK  status: ('A' for Active; 'I' for Inactive)
ROOT
HETATM    1  C1  UNL     1     -33.992  15.956  -5.289  1.00 20.00     0.015 A 
HETATM    2  C2  UNL     1     -34.263  14.673  -5.555  1.00 20.00     0.083 A 
HETATM    3  C3  UNL     1     -34.092  16.414  -3.947  1.00 20.00    -0.028 A 
HETATM    4  C4  UNL     1     -34.450  15.566  -2.986  1.00 20.00     0.063 A 
HETATM    5  C5  UNL     1     -34.661  13.733  -4.472  1.00 20.00     0.287 A 
HETATM    6  C6  UNL     1     -33.849  17.781  -3.420  1.00 20.00     0.041 C 
HETATM    7  C7  UNL     1     -34.516  16.191  -1.644  1.00 20.00     0.066 C 
HETATM    8  C8  UNL     1     -33.824  17.541  -1.900  1.00 20.00     0.011 C 
HETATM    9  O9  UNL     1     -34.902  12.558  -4.732  1.00 20.00    -0.260 OA
HETATM   10  O10 UNL     1     -34.746  14.220  -3.188  1.00 20.00    -0.279 OA
ENDROOT
TORSDOF 0
ENDMDL
MODEL 3
REMARK VINA RESULT:      -4.6     12.155     14.088
REMARK  0 active torsions:
REMARK  status: ('A' for Active; 'I' for Inactive)
ROOT
HETATM    1  C1  UNL     1     -33.329  15.601  -3.875  1.00 20.00     0.015 A 
HETATM    2  C2  UNL     1     -33.677  14.313  -3.774  1.00 20.00     0.083 A 
HETATM    3  C3  UNL     1     -33.661  16.309  -5.062  1.00 20.00    -0.028 A 
HETATM    4  C4  UNL     1     -34.306  15.684  -6.045  1.00 20.00     0.063 A 
HETATM    5  C5  UNL     1     -34.399  13.624  -4.877  1.00 20.00     0.287 A 
HETATM    6  C6  UNL     1     -33.375  17.727  -5.400  1.00 20.00     0.041 C 
HETATM    7  C7  UNL     1     -34.575  16.550  -7.217  1.00 20.00     0.066 C 
HETATM    8  C8  UNL     1     -34.242  17.941  -6.652  1.00 20.00     0.011 C 
HETATM    9  O9  UNL     1     -34.714  12.443  -4.767  1.00 20.00    -0.260 OA
HETATM   10  O10 UNL     1     -34.698  14.348  -6.009  1.00 20.00    -0.279 OA
ENDROOT
TORSDOF 0
ENDMDL
MODEL 4
REMARK VINA RESULT:      -4.6     11.507     12.337
REMARK  0 active torsions:
REMARK  status: ('A' for Active; 'I' for Inactive)
ROOT
HETATM    1  C1  UNL     1     -32.964  15.020  -3.282  1.00 20.00     0.015 A 
HETATM    2  C2  UNL     1     -33.360  13.888  -3.875  1.00 20.00     0.083 A 
HETATM    3  C3  UNL     1     -33.951  15.933  -2.819  1.00 20.00    -0.028 A 
HETATM    4  C4  UNL     1     -35.241  15.650  -2.985  1.00 20.00     0.063 A 
HETATM    5  C5  UNL     1     -34.805  13.580  -4.053  1.00 20.00     0.287 A 
HETATM    6  C6  UNL     1     -33.752  17.241  -2.145  1.00 20.00     0.041 C 
HETATM    7  C7  UNL     1     -36.147  16.698  -2.459  1.00 20.00     0.066 C 
HETATM    8  C8  UNL     1     -35.171  17.565  -1.645  1.00 20.00     0.011 C 
HETATM    9  O9  UNL     1     -35.151  12.535  -4.597  1.00 20.00    -0.260 OA
HETATM   10  O10 UNL     1     -35.725  14.493  -3.592  1.00 20.00    -0.279 OA
ENDROOT
TORSDOF 0
ENDMDL
MODEL 5
REMARK VINA RESULT:      -4.6      1.048      2.026
REMARK  0 active torsions:
REMARK  status: ('A' for Active; 'I' for Inactive)
ROOT
HETATM    1  C1  UNL     1     -32.774   7.194   5.424  1.00 20.00     0.015 A 
HETATM    2  C2  UNL     1     -32.191   7.595   4.289  1.00 20.00     0.083 A 
HETATM    3  C3  UNL     1     -33.770   6.181   5.364  1.00 20.00    -0.028 A 
HETATM    4  C4  UNL     1     -34.104   5.655   4.188  1.00 20.00     0.063 A 
HETATM    5  C5  UNL     1     -32.570   6.998   2.980  1.00 20.00     0.287 A 
HETATM    6  C6  UNL     1     -34.550   5.588   6.480  1.00 20.00     0.041 C 
HETATM    7  C7  UNL     1     -35.159   4.618   4.285  1.00 20.00     0.066 C 
HETATM    8  C8  UNL     1     -35.208   4.373   5.802  1.00 20.00     0.011 C 
HETATM    9  O9  UNL     1     -32.024   7.375   1.947  1.00 20.00    -0.260 OA
HETATM   10  O10 UNL     1     -33.541   6.022   2.968  1.00 20.00    -0.279 OA
ENDROOT
TORSDOF 0
ENDMDL
MODEL 6
REMARK VINA RESULT:      -4.5     11.494     12.717
REMARK  0 active torsions:
REMARK  status: ('A' for Active; 'I' for Inactive)
ROOT
HETATM    1  C1  UNL     1     -36.237  16.604  -3.210  1.00 20.00     0.015 A 
HETATM    2  C2  UNL     1     -37.456  16.099  -3.431  1.00 20.00     0.083 A 
HETATM    3  C3  UNL     1     -35.109  15.746  -3.323  1.00 20.00    -0.028 A 
HETATM    4  C4  UNL     1     -35.284  14.466  -3.644  1.00 20.00     0.063 A 
HETATM    5  C5  UNL     1     -37.641  14.668  -3.791  1.00 20.00     0.287 A 
HETATM    6  C6  UNL     1     -33.676  16.076  -3.119  1.00 20.00     0.041 C 
HETATM    7  C7  UNL     1     -34.018  13.699  -3.718  1.00 20.00     0.066 C 
HETATM    8  C8  UNL     1     -32.974  14.828  -3.681  1.00 20.00     0.011 C 
HETATM    9  O9  UNL     1     -38.766  14.221  -3.994  1.00 20.00    -0.260 OA
HETATM   10  O10 UNL     1     -36.521  13.874  -3.888  1.00 20.00    -0.279 OA
ENDROOT
TORSDOF 0
ENDMDL
MODEL 7
REMARK VINA RESULT:      -4.4      1.827      4.109
REMARK  0 active torsions:
REMARK  status: ('A' for Active; 'I' for Inactive)
ROOT
HETATM    1  C1  UNL     1     -33.593   6.690   6.081  1.00 20.00     0.015 A 
HETATM    2  C2  UNL     1     -34.445   5.711   6.406  1.00 20.00     0.083 A 
HETATM    3  C3  UNL     1     -33.078   6.740   4.757  1.00 20.00    -0.028 A 
HETATM    4  C4  UNL     1     -33.448   5.819   3.871  1.00 20.00     0.063 A 
HETATM    5  C5  UNL     1     -34.853   4.686   5.407  1.00 20.00     0.287 A 
HETATM    6  C6  UNL     1     -32.126   7.720   4.175  1.00 20.00     0.041 C 
HETATM    7  C7  UNL     1     -32.824   5.999   2.538  1.00 20.00     0.066 C 
HETATM    8  C8  UNL     1     -32.221   7.407   2.671  1.00 20.00     0.011 C 
HETATM    9  O9  UNL     1     -35.637   3.796   5.721  1.00 20.00    -0.260 OA
HETATM   10  O10 UNL     1     -34.328   4.772   4.138  1.00 20.00    -0.279 OA
ENDROOT
TORSDOF 0
ENDMDL
MODEL 8
REMARK VINA RESULT:      -4.4      9.999     10.807
REMARK  0 active torsions:
REMARK  status: ('A' for Active; 'I' for Inactive)
ROOT
HETATM    1  C1  UNL     1     -43.236   5.230  -3.028  1.00 20.00     0.015 A 
HETATM    2  C2  UNL     1     -42.994   3.962  -3.377  1.00 20.00     0.083 A 
HETATM    3  C3  UNL     1     -42.398   5.847  -2.059  1.00 20.00    -0.028 A 
HETATM    4  C4  UNL     1     -41.395   5.157  -1.520  1.00 20.00     0.063 A 
HETATM    5  C5  UNL     1     -41.870   3.200  -2.770  1.00 20.00     0.287 A 
HETATM    6  C6  UNL     1     -42.477   7.227  -1.516  1.00 20.00     0.041 C 
HETATM    7  C7  UNL     1     -40.617   5.930  -0.524  1.00 20.00     0.066 C 
HETATM    8  C8  UNL     1     -41.139   7.356  -0.767  1.00 20.00     0.011 C 
HETATM    9  O9  UNL     1     -41.659   2.038  -3.104  1.00 20.00    -0.260 OA
HETATM   10  O10 UNL     1     -41.085   3.836  -1.835  1.00 20.00    -0.279 OA
ENDROOT
TORSDOF 0
ENDMDL
MODEL 9
REMARK VINA RESULT:      -4.2     11.812     12.638
REMARK  0 active torsions:
REMARK  status: ('A' for Active; 'I' for Inactive)
ROOT
HETATM    1  C1  UNL     1     -33.725  16.191  -2.432  1.00 20.00     0.015 A 
HETATM    2  C2  UNL     1     -34.579  17.146  -2.046  1.00 20.00     0.083 A 
HETATM    3  C3  UNL     1     -34.220  15.095  -3.192  1.00 20.00    -0.028 A 
HETATM    4  C4  UNL     1     -35.513  15.039  -3.503  1.00 20.00     0.063 A 
HETATM    5  C5  UNL     1     -36.023  17.073  -2.400  1.00 20.00     0.287 A 
HETATM    6  C6  UNL     1     -33.470  13.927  -3.721  1.00 20.00     0.041 C 
HETATM    7  C7  UNL     1     -35.877  13.837  -4.290  1.00 20.00     0.066 C 
HETATM    8  C8  UNL     1     -34.492  13.297  -4.683  1.00 20.00     0.011 C 
HETATM    9  O9  UNL     1     -36.792  17.959  -2.040  1.00 20.00    -0.260 OA
HETATM   10  O10 UNL     1     -36.457  15.994  -3.135  1.00 20.00    -0.279 OA
ENDROOT
TORSDOF 0
ENDMDL
