MODEL 1
REMARK VINA RESULT:      -5.1      0.000      0.000
REMARK  0 active torsions:
REMARK  status: ('A' for Active; 'I' for Inactive)
ROOT
HETATM    1  C1  UNL     1     -33.518   5.941   2.940  1.00 20.00     0.053 A 
HETATM    2  C2  UNL     1     -32.197   7.481   4.218  1.00 20.00     0.159 A 
HETATM    3  C3  UNL     1     -34.122   5.578   4.127  1.00 20.00    -0.030 A 
HETATM    4  C4  UNL     1     -32.524   6.915   2.985  1.00 20.00     0.134 A 
HETATM    5  C5  UNL     1     -33.728   6.204   5.306  1.00 20.00     0.040 A 
HETATM    6  C6  UNL     1     -35.224   4.602   4.371  1.00 20.00     0.041 C 
HETATM    7  C7  UNL     1     -34.540   5.708   6.467  1.00 20.00     0.060 C 
HETATM    8  C8  UNL     1     -35.107   4.402   5.892  1.00 20.00     0.011 C 
HETATM    9  N9  UNL     1     -32.782   7.153   5.395  1.00 20.00    -0.262 NA
HETATM   10  F10 UNL     1     -31.898   7.305   1.868  1.00 20.00    -0.205 F 
ENDROOT
TORSDOF 0
ENDMDL
MODEL 2
REMARK VINA RESULT:      -4.7      1.264      2.016
REMARK  0 active torsions:
REMARK  status: ('A' for Active; 'I' for Inactive)
ROOT
HETATM    1  C1  UNL     1     -32.793   7.058   4.407  1.00 20.00     0.053 A 
HETATM    2  C2  UNL     1     -33.291   6.005   2.311  1.00 20.00     0.159 A 
HETATM    3  C3  UNL     1     -33.651   6.148   4.991  1.00 20.00    -0.030 A 
HETATM    4  C4  UNL     1     -32.610   6.990   3.028  1.00 20.00     0.134 A 
HETATM    5  C5  UNL     1     -34.281   5.201   4.190  1.00 20.00     0.040 A 
HETATM    6  C6  UNL     1     -34.005   5.967   6.429  1.00 20.00     0.041 C 
HETATM    7  C7  UNL     1     -35.123   4.278   5.022  1.00 20.00     0.060 C 
HETATM    8  C8  UNL     1     -35.269   5.097   6.313  1.00 20.00     0.011 C 
HETATM    9  N9  UNL     1     -34.128   5.093   2.860  1.00 20.00    -0.262 NA
HETATM   10  F10 UNL     1     -31.796   7.848   2.403  1.00 20.00    -0.205 F 
ENDROOT
TORSDOF 0
ENDMDL
MODEL 3
REMARK VINA RESULT:      -4.6      2.283      3.662
REMARK  0 active torsions:
REMARK  status: ('A' for Active; 'I' for Inactive)
ROOT
HETATM    1  C1  UNL     1     -34.840   4.712   4.597  1.00 20.00     0.053 A 
HETATM    2  C2  UNL     1     -34.340   5.862   6.641  1.00 20.00     0.159 A 
HETATM    3  C3  UNL     1     -33.935   5.553   3.981  1.00 20.00    -0.030 A 
HETATM    4  C4  UNL     1     -35.054   4.872   5.964  1.00 20.00     0.134 A 
HETATM    5  C5  UNL     1     -33.271   6.508   4.745  1.00 20.00     0.040 A 
HETATM    6  C6  UNL     1     -33.489   5.586   2.558  1.00 20.00     0.041 C 
HETATM    7  C7  UNL     1     -32.298   7.278   3.900  1.00 20.00     0.060 C 
HETATM    8  C8  UNL     1     -32.826   6.973   2.491  1.00 20.00     0.011 C 
HETATM    9  N9  UNL     1     -33.439   6.692   6.065  1.00 20.00    -0.262 NA
HETATM   10  F10 UNL     1     -35.922   4.091   6.617  1.00 20.00    -0.205 F 
ENDROOT
TORSDOF 0
ENDMDL
MODEL 4
REMARK VINA RESULT:      -4.6     12.060     12.984
REMARK  0 active torsions:
REMARK  status: ('A' for Active; 'I' for Inactive)
ROOT
HETATM    1  C1  UNL     1     -34.402  14.948  -3.168  1.00 20.00     0.053 A 
HETATM    2  C2  UNL     1     -33.565  16.105  -5.095  1.00 20.00     0.159 A 
HETATM    3  C3  UNL     1     -34.257  16.134  -2.476  1.00 20.00    -0.030 A 
HETATM    4  C4  UNL     1     -34.042  14.929  -4.513  1.00 20.00     0.134 A 
HETATM    5  C5  UNL     1     -33.776  17.254  -3.147  1.00 20.00     0.040 A 
HETATM    6  C6  UNL     1     -34.590  16.451  -1.057  1.00 20.00     0.041 C 
HETATM    7  C7  UNL     1     -33.745  18.446  -2.235  1.00 20.00     0.060 C 
HETATM    8  C8  UNL     1     -33.816  17.765  -0.860  1.00 20.00     0.011 C 
HETATM    9  N9  UNL     1     -33.425  17.284  -4.444  1.00 20.00    -0.262 NA
HETATM   10  F10 UNL     1     -34.155  13.808  -5.235  1.00 20.00    -0.205 F 
ENDROOT
TORSDOF 0
ENDMDL
MODEL 5
REMARK VINA RESULT:      -4.5      2.469      4.118
REMARK  0 active torsions:
REMARK  status: ('A' for Active; 'I' for Inactive)
ROOT
HETATM    1  C1  UNL     1     -33.998   5.992   5.986  1.00 20.00     0.053 A 
HETATM    2  C2  UNL     1     -35.263   4.692   4.418  1.00 20.00     0.159 A 
HETATM    3  C3  UNL     1     -33.325   6.520   4.903  1.00 20.00    -0.030 A 
HETATM    4  C4  UNL     1     -34.991   5.048   5.740  1.00 20.00     0.134 A 
HETATM    5  C5  UNL     1     -33.672   6.103   3.622  1.00 20.00     0.040 A 
HETATM    6  C6  UNL     1     -32.253   7.557   4.867  1.00 20.00     0.041 C 
HETATM    7  C7  UNL     1     -32.863   6.833   2.589  1.00 20.00     0.060 C 
HETATM    8  C8  UNL     1     -31.701   7.359   3.444  1.00 20.00     0.011 C 
HETATM    9  N9  UNL     1     -34.628   5.203   3.337  1.00 20.00    -0.262 NA
HETATM   10  F10 UNL     1     -35.676   4.496   6.749  1.00 20.00    -0.205 F 
ENDROOT
TORSDOF 0
ENDMDL
MODEL 6
REMARK VINA RESULT:      -4.5     10.136     11.160
REMARK  0 active torsions:
REMARK  status: ('A' for Active; 'I' for Inactive)
ROOT
HETATM    1  C1  UNL     1     -41.104   3.974  -1.753  1.00 20.00     0.053 A 
HETATM    2  C2  UNL     1     -42.834   3.937  -3.413  1.00 20.00     0.159 A 
HETATM    3  C3  UNL     1     -41.443   5.293  -1.526  1.00 20.00    -0.030 A 
HETATM    4  C4  UNL     1     -41.814   3.276  -2.726  1.00 20.00     0.134 A 
HETATM    5  C5  UNL     1     -42.478   5.862  -2.261  1.00 20.00     0.040 A 
HETATM    6  C6  UNL     1     -40.884   6.258  -0.535  1.00 20.00     0.041 C 
HETATM    7  C7  UNL     1     -42.722   7.277  -1.826  1.00 20.00     0.060 C 
HETATM    8  C8  UNL     1     -41.406   7.591  -1.097  1.00 20.00     0.011 C 
HETATM    9  N9  UNL     1     -43.195   5.225  -3.202  1.00 20.00    -0.262 NA
HETATM   10  F10 UNL     1     -41.529   1.997  -2.996  1.00 20.00    -0.205 F 
ENDROOT
TORSDOF 0
ENDMDL
MODEL 7
REMARK VINA RESULT:      -4.5     12.063     13.271
REMARK  0 active torsions:
REMARK  status: ('A' for Active; 'I' for Inactive)
ROOT
HETATM    1  C1  UNL     1     -34.516  14.937  -3.097  1.00 20.00     0.053 A 
HETATM    2  C2  UNL     1     -33.750  17.194  -3.360  1.00 20.00     0.159 A 
HETATM    3  C3  UNL     1     -34.512  14.846  -4.474  1.00 20.00    -0.030 A 
HETATM    4  C4  UNL     1     -34.130  16.145  -2.522  1.00 20.00     0.134 A 
HETATM    5  C5  UNL     1     -34.113  15.947  -5.224  1.00 20.00     0.040 A 
HETATM    6  C6  UNL     1     -34.840  13.682  -5.348  1.00 20.00     0.041 C 
HETATM    7  C7  UNL     1     -34.128  15.625  -6.690  1.00 20.00     0.060 C 
HETATM    8  C8  UNL     1     -35.025  14.379  -6.707  1.00 20.00     0.011 C 
HETATM    9  N9  UNL     1     -33.725  17.128  -4.713  1.00 20.00    -0.262 NA
HETATM   10  F10 UNL     1     -34.118  16.297  -1.192  1.00 20.00    -0.205 F 
ENDROOT
TORSDOF 0
ENDMDL
MODEL 8
REMARK VINA RESULT:      -4.3      9.651     10.689
REMARK  0 active torsions:
REMARK  status: ('A' for Active; 'I' for Inactive)
ROOT
HETATM    1  C1  UNL     1     -40.642   4.682  -0.950  1.00 20.00     0.053 A 
HETATM    2  C2  UNL     1     -42.046   6.615  -0.738  1.00 20.00     0.159 A 
HETATM    3  C3  UNL     1     -41.518   4.235  -1.918  1.00 20.00    -0.030 A 
HETATM    4  C4  UNL     1     -40.914   5.903  -0.338  1.00 20.00     0.134 A 
HETATM    5  C5  UNL     1     -42.618   5.020  -2.251  1.00 20.00     0.040 A 
HETATM    6  C6  UNL     1     -41.459   3.000  -2.752  1.00 20.00     0.041 C 
HETATM    7  C7  UNL     1     -43.409   4.384  -3.357  1.00 20.00     0.060 C 
HETATM    8  C8  UNL     1     -42.901   2.937  -3.285  1.00 20.00     0.011 C 
HETATM    9  N9  UNL     1     -42.914   6.206  -1.694  1.00 20.00    -0.262 NA
HETATM   10  F10 UNL     1     -40.106   6.388   0.612  1.00 20.00    -0.205 F 
ENDROOT
TORSDOF 0
ENDMDL
MODEL 9
REMARK VINA RESULT:      -4.3     11.506     12.309
REMARK  0 active torsions:
REMARK  status: ('A' for Active; 'I' for Inactive)
ROOT
HETATM    1  C1  UNL     1     -33.940  15.661  -3.116  1.00 20.00     0.053 A 
HETATM    2  C2  UNL     1     -33.962  13.507  -4.170  1.00 20.00     0.159 A 
HETATM    3  C3  UNL     1     -35.313  15.671  -3.261  1.00 20.00    -0.030 A 
HETATM    4  C4  UNL     1     -33.243  14.552  -3.587  1.00 20.00     0.134 A 
HETATM    5  C5  UNL     1     -35.939  14.579  -3.853  1.00 20.00     0.040 A 
HETATM    6  C6  UNL     1     -36.304  16.697  -2.824  1.00 20.00     0.041 C 
HETATM    7  C7  UNL     1     -37.428  14.764  -3.865  1.00 20.00     0.060 C 
HETATM    8  C8  UNL     1     -37.538  16.280  -3.644  1.00 20.00     0.011 C 
HETATM    9  N9  UNL     1     -35.308  13.486  -4.313  1.00 20.00    -0.262 NA
HETATM   10  F10 UNL     1     -31.910  14.485  -3.480  1.00 20.00    -0.205 F 
ENDROOT
TORSDOF 0
ENDMDL
