MODEL 1
REMARK VINA RESULT:      -4.5      0.000      0.000
REMARK  2 active torsions:
REMARK  status: ('A' for Active; 'I' for Inactive)
REMARK    1  A    between atoms: C1_1  and  N9_9 
REMARK    2  A    between atoms: C8_8  and  N9_9 
ROOT
HETATM    1  C2  UNL     1     -33.312  13.797  -3.780  1.00 20.00     0.005 C 
HETATM    2  C3  UNL     1     -34.530  13.798  -4.711  1.00 20.00     0.007 C 
HETATM    3  C4  UNL     1     -33.437  15.895  -4.899  1.00 20.00     0.011 C 
HETATM    4  C5  UNL     1     -34.165  15.845  -2.623  1.00 20.00     0.030 C 
HETATM    5  C6  UNL     1     -33.059  15.295  -3.544  1.00 20.00    -0.012 C 
HETATM    6  C7  UNL     1     -34.848  15.299  -4.869  1.00 20.00     0.009 C 
HETATM    7  C8  UNL     1     -35.389  15.900  -3.555  1.00 20.00     0.088 C 
ENDROOT
BRANCH   7   8
HETATM    8  N9  UNL     1     -36.536  15.220  -3.026  1.00 20.00    -0.363 N 
HETATM    9  H23 UNL     1     -36.447  14.758  -2.121  1.00 20.00     0.162 HD
BRANCH   8  10
HETATM   10  C1  UNL     1     -37.755  15.156  -3.674  1.00 20.00     0.348 C 
HETATM   11  O10 UNL     1     -38.481  14.178  -3.802  1.00 20.00    -0.284 OA
ENDBRANCH   8  10
ENDBRANCH   7   8
TORSDOF 2
ENDMDL
MODEL 2
REMARK VINA RESULT:      -4.4      1.926      3.157
REMARK  2 active torsions:
REMARK  status: ('A' for Active; 'I' for Inactive)
REMARK    1  A    between atoms: C1_1  and  N9_9 
REMARK    2  A    between atoms: C8_8  and  N9_9 
ROOT
HETATM    1  C2  UNL     1     -35.882  16.398  -3.421  1.00 20.00     0.005 C 
HETATM    2  C3  UNL     1     -35.045  15.752  -2.310  1.00 20.00     0.007 C 
HETATM    3  C4  UNL     1     -33.831  17.586  -3.198  1.00 20.00     0.011 C 
HETATM    4  C5  UNL     1     -34.008  16.084  -5.048  1.00 20.00     0.030 C 
HETATM    5  C6  UNL     1     -34.826  17.129  -4.266  1.00 20.00    -0.012 C 
HETATM    6  C7  UNL     1     -33.604  16.165  -2.674  1.00 20.00     0.009 C 
HETATM    7  C8  UNL     1     -33.123  15.455  -3.956  1.00 20.00     0.088 C 
ENDROOT
BRANCH   7   8
HETATM    8  N9  UNL     1     -33.214  14.024  -3.907  1.00 20.00    -0.363 N 
HETATM    9  H23 UNL     1     -32.593  13.524  -3.272  1.00 20.00     0.162 HD
BRANCH   8  10
HETATM   10  C1  UNL     1     -34.096  13.286  -4.672  1.00 20.00     0.348 C 
HETATM   11  O10 UNL     1     -35.113  12.716  -4.298  1.00 20.00    -0.284 OA
ENDBRANCH   8  10
ENDBRANCH   7   8
TORSDOF 2
ENDMDL
MODEL 3
REMARK VINA RESULT:      -4.2     11.435     12.662
REMARK  2 active torsions:
REMARK  status: ('A' for Active; 'I' for Inactive)
REMARK    1  A    between atoms: C1_1  and  N9_9 
REMARK    2  A    between atoms: C8_8  and  N9_9 
ROOT
HETATM    1  C2  UNL     1     -43.158   6.579  -0.226  1.00 20.00     0.005 C 
HETATM    2  C3  UNL     1     -42.494   5.440   0.559  1.00 20.00     0.007 C 
HETATM    3  C4  UNL     1     -40.792   6.799  -0.382  1.00 20.00     0.011 C 
HETATM    4  C5  UNL     1     -41.918   5.909  -2.293  1.00 20.00     0.030 C 
HETATM    5  C6  UNL     1     -42.059   7.001  -1.215  1.00 20.00    -0.012 C 
HETATM    6  C7  UNL     1     -41.104   5.326  -0.101  1.00 20.00     0.009 C 
HETATM    7  C8  UNL     1     -41.208   4.772  -1.537  1.00 20.00     0.088 C 
ENDROOT
BRANCH   7   8
HETATM    8  N9  UNL     1     -41.890   3.513  -1.634  1.00 20.00    -0.363 N 
HETATM    9  H23 UNL     1     -42.281   3.110  -0.782  1.00 20.00     0.162 HD
BRANCH   8  10
HETATM   10  C1  UNL     1     -42.047   2.815  -2.817  1.00 20.00     0.348 C 
HETATM   11  O10 UNL     1     -41.168   2.364  -3.539  1.00 20.00    -0.284 OA
ENDBRANCH   8  10
ENDBRANCH   7   8
TORSDOF 2
ENDMDL
MODEL 4
REMARK VINA RESULT:      -4.1      0.765      2.122
REMARK  2 active torsions:
REMARK  status: ('A' for Active; 'I' for Inactive)
REMARK    1  A    between atoms: C1_1  and  N9_9 
REMARK    2  A    between atoms: C8_8  and  N9_9 
ROOT
HETATM    1  C2  UNL     1     -33.676  17.352  -4.218  1.00 20.00     0.005 C 
HETATM    2  C3  UNL     1     -33.990  17.068  -2.743  1.00 20.00     0.007 C 
HETATM    3  C4  UNL     1     -32.952  15.149  -3.675  1.00 20.00     0.011 C 
HETATM    4  C5  UNL     1     -34.991  15.338  -4.908  1.00 20.00     0.030 C 
HETATM    5  C6  UNL     1     -33.576  15.943  -4.824  1.00 20.00    -0.012 C 
HETATM    6  C7  UNL     1     -34.063  15.528  -2.692  1.00 20.00     0.009 C 
HETATM    7  C8  UNL     1     -35.305  15.000  -3.439  1.00 20.00     0.088 C 
ENDROOT
BRANCH   7   8
HETATM    8  N9  UNL     1     -36.547  15.556  -2.983  1.00 20.00    -0.363 N 
HETATM    9  H23 UNL     1     -36.523  16.210  -2.201  1.00 20.00     0.162 HD
BRANCH   8  10
HETATM   10  C1  UNL     1     -37.774  15.253  -3.543  1.00 20.00     0.348 C 
HETATM   11  O10 UNL     1     -38.221  14.144  -3.805  1.00 20.00    -0.284 OA
ENDBRANCH   8  10
ENDBRANCH   7   8
TORSDOF 2
ENDMDL
MODEL 5
REMARK VINA RESULT:      -4.1      2.459      3.327
REMARK  2 active torsions:
REMARK  status: ('A' for Active; 'I' for Inactive)
REMARK    1  A    between atoms: C1_1  and  N9_9 
REMARK    2  A    between atoms: C8_8  and  N9_9 
ROOT
HETATM    1  C2  UNL     1     -35.870  14.737  -3.485  1.00 20.00     0.005 C 
HETATM    2  C3  UNL     1     -34.431  14.206  -3.513  1.00 20.00     0.007 C 
HETATM    3  C4  UNL     1     -34.516  16.075  -2.055  1.00 20.00     0.011 C 
HETATM    4  C5  UNL     1     -35.073  17.003  -4.186  1.00 20.00     0.030 C 
HETATM    5  C6  UNL     1     -35.690  16.194  -3.028  1.00 20.00    -0.012 C 
HETATM    6  C7  UNL     1     -33.597  15.437  -3.100  1.00 20.00     0.009 C 
HETATM    7  C8  UNL     1     -33.611  16.520  -4.199  1.00 20.00     0.088 C 
ENDROOT
BRANCH   7   8
HETATM    8  N9  UNL     1     -33.179  16.057  -5.487  1.00 20.00    -0.363 N 
HETATM    9  H23 UNL     1     -32.196  15.811  -5.605  1.00 20.00     0.162 HD
BRANCH   8  10
HETATM   10  C1  UNL     1     -34.019  15.927  -6.576  1.00 20.00     0.348 C 
HETATM   11  O10 UNL     1     -34.263  14.911  -7.214  1.00 20.00    -0.284 OA
ENDBRANCH   8  10
ENDBRANCH   7   8
TORSDOF 2
ENDMDL
MODEL 6
REMARK VINA RESULT:      -4.0      1.913      3.127
REMARK  2 active torsions:
REMARK  status: ('A' for Active; 'I' for Inactive)
REMARK    1  A    between atoms: C1_1  and  N9_9 
REMARK    2  A    between atoms: C8_8  and  N9_9 
ROOT
HETATM    1  C2  UNL     1     -35.409  17.815  -3.145  1.00 20.00     0.005 C 
HETATM    2  C3  UNL     1     -35.953  16.413  -2.843  1.00 20.00     0.007 C 
HETATM    3  C4  UNL     1     -33.792  16.604  -1.884  1.00 20.00     0.011 C 
HETATM    4  C5  UNL     1     -33.385  16.819  -4.229  1.00 20.00     0.030 C 
HETATM    5  C6  UNL     1     -33.888  17.627  -3.016  1.00 20.00    -0.012 C 
HETATM    6  C7  UNL     1     -34.674  15.584  -2.610  1.00 20.00     0.009 C 
HETATM    7  C8  UNL     1     -33.880  15.395  -3.920  1.00 20.00     0.088 C 
ENDROOT
BRANCH   7   8
HETATM    8  N9  UNL     1     -34.641  14.815  -4.989  1.00 20.00    -0.363 N 
HETATM    9  H23 UNL     1     -35.099  15.442  -5.649  1.00 20.00     0.162 HD
BRANCH   8  10
HETATM   10  C1  UNL     1     -34.787  13.453  -5.174  1.00 20.00     0.348 C 
HETATM   11  O10 UNL     1     -35.014  12.604  -4.322  1.00 20.00    -0.284 OA
ENDBRANCH   8  10
ENDBRANCH   7   8
TORSDOF 2
ENDMDL
MODEL 7
REMARK VINA RESULT:      -4.0     11.500     12.574
REMARK  2 active torsions:
REMARK  status: ('A' for Active; 'I' for Inactive)
REMARK    1  A    between atoms: C1_1  and  N9_9 
REMARK    2  A    between atoms: C8_8  and  N9_9 
ROOT
HETATM    1  C2  UNL     1     -34.458   4.608   5.740  1.00 20.00     0.005 C 
HETATM    2  C3  UNL     1     -34.186   6.117   5.785  1.00 20.00     0.007 C 
HETATM    3  C4  UNL     1     -35.831   5.697   4.128  1.00 20.00     0.011 C 
HETATM    4  C5  UNL     1     -33.901   4.557   3.301  1.00 20.00     0.030 C 
HETATM    5  C6  UNL     1     -35.038   4.405   4.330  1.00 20.00    -0.012 C 
HETATM    6  C7  UNL     1     -34.613   6.591   4.381  1.00 20.00     0.009 C 
HETATM    7  C8  UNL     1     -33.646   6.075   3.295  1.00 20.00     0.088 C 
ENDROOT
BRANCH   7   8
HETATM    8  N9  UNL     1     -32.271   6.420   3.521  1.00 20.00    -0.363 N 
HETATM    9  H23 UNL     1     -31.696   5.775   4.062  1.00 20.00     0.162 HD
BRANCH   8  10
HETATM   10  C1  UNL     1     -31.684   7.578   3.047  1.00 20.00     0.348 C 
HETATM   11  O10 UNL     1     -32.039   8.259   2.094  1.00 20.00    -0.284 OA
ENDBRANCH   8  10
ENDBRANCH   7   8
TORSDOF 2
ENDMDL
MODEL 8
REMARK VINA RESULT:      -4.0     10.635     11.734
REMARK  2 active torsions:
REMARK  status: ('A' for Active; 'I' for Inactive)
REMARK    1  A    between atoms: C1_1  and  N9_9 
REMARK    2  A    between atoms: C8_8  and  N9_9 
ROOT
HETATM    1  C2  UNL     1     -42.302   5.431   0.563  1.00 20.00     0.005 C 
HETATM    2  C3  UNL     1     -43.065   4.879  -0.648  1.00 20.00     0.007 C 
HETATM    3  C4  UNL     1     -40.739   4.674  -1.065  1.00 20.00     0.011 C 
HETATM    4  C5  UNL     1     -41.074   7.035  -0.912  1.00 20.00     0.030 C 
HETATM    5  C6  UNL     1     -40.927   5.782  -0.028  1.00 20.00    -0.012 C 
HETATM    6  C7  UNL     1     -42.042   5.012  -1.795  1.00 20.00     0.009 C 
HETATM    7  C8  UNL     1     -41.795   6.491  -2.159  1.00 20.00     0.088 C 
ENDROOT
BRANCH   7   8
HETATM    8  N9  UNL     1     -42.985   7.222  -2.489  1.00 20.00    -0.363 N 
HETATM    9  H23 UNL     1     -43.785   7.149  -1.861  1.00 20.00     0.162 HD
BRANCH   8  10
HETATM   10  C1  UNL     1     -43.108   8.019  -3.612  1.00 20.00     0.348 C 
HETATM   11  O10 UNL     1     -43.402   7.668  -4.748  1.00 20.00    -0.284 OA
ENDBRANCH   8  10
ENDBRANCH   7   8
TORSDOF 2
ENDMDL
MODEL 9
REMARK VINA RESULT:      -4.0     11.429     12.782
REMARK  2 active torsions:
REMARK  status: ('A' for Active; 'I' for Inactive)
REMARK    1  A    between atoms: C1_1  and  N9_9 
REMARK    2  A    between atoms: C8_8  and  N9_9 
ROOT
HETATM    1  C2  UNL     1     -41.192   7.025  -1.345  1.00 20.00     0.005 C 
HETATM    2  C3  UNL     1     -42.597   6.625  -1.815  1.00 20.00     0.007 C 
HETATM    3  C4  UNL     1     -42.267   5.779   0.377  1.00 20.00     0.011 C 
HETATM    4  C5  UNL     1     -40.626   4.625  -0.921  1.00 20.00     0.030 C 
HETATM    5  C6  UNL     1     -40.888   5.988  -0.252  1.00 20.00    -0.012 C 
HETATM    6  C7  UNL     1     -42.913   5.384  -0.955  1.00 20.00     0.009 C 
HETATM    7  C8  UNL     1     -42.034   4.182  -1.358  1.00 20.00     0.088 C 
ENDROOT
BRANCH   7   8
HETATM    8  N9  UNL     1     -42.114   3.835  -2.748  1.00 20.00    -0.363 N 
HETATM    9  H23 UNL     1     -42.248   4.586  -3.425  1.00 20.00     0.162 HD
BRANCH   8  10
HETATM   10  C1  UNL     1     -42.020   2.540  -3.221  1.00 20.00     0.348 C 
HETATM   11  O10 UNL     1     -41.082   2.030  -3.820  1.00 20.00    -0.284 OA
ENDBRANCH   8  10
ENDBRANCH   7   8
TORSDOF 2
ENDMDL
