MODEL 1
REMARK VINA RESULT:      -5.0      0.000      0.000
REMARK  0 active torsions:
REMARK  status: ('A' for Active; 'I' for Inactive)
ROOT
HETATM    1  C1  UNL     1     -32.666   5.810   2.510  1.00 20.00    -0.023 C 
HETATM    2  C2  UNL     1     -32.765   6.895   3.289  1.00 20.00    -0.083 C 
HETATM    3  C3  UNL     1     -34.996   4.800   5.036  1.00 20.00     0.132 C 
HETATM    4  C4  UNL     1     -33.698   4.780   2.838  1.00 20.00     0.040 C 
HETATM    5  C5  UNL     1     -34.541   5.546   6.260  1.00 20.00     0.079 C 
HETATM    6  C6  UNL     1     -33.438   6.428   5.691  1.00 20.00     0.017 C 
HETATM    7  C7  UNL     1     -33.890   6.770   4.270  1.00 20.00     0.025 C 
HETATM    8  C8  UNL     1     -34.652   5.533   3.761  1.00 20.00     0.067 C 
HETATM    9  C9  UNL     1     -31.894   8.100   3.257  1.00 20.00     0.043 C 
HETATM   10  O10 UNL     1     -35.608   3.739   5.071  1.00 20.00    -0.298 OA
ENDROOT
TORSDOF 0
ENDMDL
MODEL 2
REMARK VINA RESULT:      -4.8     11.925     13.435
REMARK  0 active torsions:
REMARK  status: ('A' for Active; 'I' for Inactive)
ROOT
HETATM    1  C1  UNL     1     -34.348  16.192  -7.115  1.00 20.00    -0.023 C 
HETATM    2  C2  UNL     1     -34.122  16.854  -5.973  1.00 20.00    -0.083 C 
HETATM    3  C3  UNL     1     -34.507  13.619  -4.629  1.00 20.00     0.132 C 
HETATM    4  C4  UNL     1     -34.806  14.789  -6.878  1.00 20.00     0.040 C 
HETATM    5  C5  UNL     1     -33.527  14.074  -3.583  1.00 20.00     0.079 C 
HETATM    6  C6  UNL     1     -33.136  15.449  -4.103  1.00 20.00     0.017 C 
HETATM    7  C7  UNL     1     -34.396  15.998  -4.776  1.00 20.00     0.025 C 
HETATM    8  C8  UNL     1     -35.114  14.778  -5.383  1.00 20.00     0.067 C 
HETATM    9  C9  UNL     1     -33.640  18.253  -5.833  1.00 20.00     0.043 C 
HETATM   10  O10 UNL     1     -34.806  12.447  -4.821  1.00 20.00    -0.298 OA
ENDROOT
TORSDOF 0
ENDMDL
MODEL 3
REMARK VINA RESULT:      -4.8     11.868     13.270
REMARK  0 active torsions:
REMARK  status: ('A' for Active; 'I' for Inactive)
ROOT
HETATM    1  C1  UNL     1     -34.162  16.810  -3.010  1.00 20.00    -0.023 C 
HETATM    2  C2  UNL     1     -33.741  17.127  -4.241  1.00 20.00    -0.083 C 
HETATM    3  C3  UNL     1     -34.602  13.763  -4.840  1.00 20.00     0.132 C 
HETATM    4  C4  UNL     1     -34.381  15.340  -2.846  1.00 20.00     0.040 C 
HETATM    5  C5  UNL     1     -34.938  14.228  -6.231  1.00 20.00     0.079 C 
HETATM    6  C6  UNL     1     -34.749  15.733  -6.107  1.00 20.00     0.017 C 
HETATM    7  C7  UNL     1     -33.604  15.913  -5.107  1.00 20.00     0.025 C 
HETATM    8  C8  UNL     1     -33.739  14.756  -4.100  1.00 20.00     0.067 C 
HETATM    9  C9  UNL     1     -33.445  18.488  -4.760  1.00 20.00     0.043 C 
HETATM   10  O10 UNL     1     -34.958  12.686  -4.376  1.00 20.00    -0.298 OA
ENDROOT
TORSDOF 0
ENDMDL
MODEL 4
REMARK VINA RESULT:      -4.7     11.746     13.110
REMARK  0 active torsions:
REMARK  status: ('A' for Active; 'I' for Inactive)
ROOT
HETATM    1  C1  UNL     1     -33.737  17.219  -3.436  1.00 20.00    -0.023 C 
HETATM    2  C2  UNL     1     -34.441  16.360  -2.687  1.00 20.00    -0.083 C 
HETATM    3  C3  UNL     1     -34.571  14.610  -5.743  1.00 20.00     0.132 C 
HETATM    4  C4  UNL     1     -33.807  16.891  -4.893  1.00 20.00     0.040 C 
HETATM    5  C5  UNL     1     -34.593  13.372  -4.889  1.00 20.00     0.079 C 
HETATM    6  C6  UNL     1     -34.398  13.955  -3.497  1.00 20.00     0.017 C 
HETATM    7  C7  UNL     1     -35.105  15.312  -3.527  1.00 20.00     0.025 C 
HETATM    8  C8  UNL     1     -34.920  15.851  -4.957  1.00 20.00     0.067 C 
HETATM    9  C9  UNL     1     -34.578  16.370  -1.207  1.00 20.00     0.043 C 
HETATM   10  O10 UNL     1     -34.334  14.605  -6.945  1.00 20.00    -0.298 OA
ENDROOT
TORSDOF 0
ENDMDL
MODEL 5
REMARK VINA RESULT:      -4.6     11.412     12.605
REMARK  0 active torsions:
REMARK  status: ('A' for Active; 'I' for Inactive)
ROOT
HETATM    1  C1  UNL     1     -36.312  16.671  -4.399  1.00 20.00    -0.023 C 
HETATM    2  C2  UNL     1     -35.484  16.842  -3.361  1.00 20.00    -0.083 C 
HETATM    3  C3  UNL     1     -34.617  13.524  -4.175  1.00 20.00     0.132 C 
HETATM    4  C4  UNL     1     -36.377  15.246  -4.846  1.00 20.00     0.040 C 
HETATM    5  C5  UNL     1     -33.247  13.893  -3.673  1.00 20.00     0.079 C 
HETATM    6  C6  UNL     1     -33.409  15.381  -3.398  1.00 20.00     0.017 C 
HETATM    7  C7  UNL     1     -34.858  15.549  -2.936  1.00 20.00     0.025 C 
HETATM    8  C8  UNL     1     -35.673  14.501  -3.716  1.00 20.00     0.067 C 
HETATM    9  C9  UNL     1     -35.163  18.121  -2.676  1.00 20.00     0.043 C 
HETATM   10  O10 UNL     1     -34.852  12.527  -4.846  1.00 20.00    -0.298 OA
ENDROOT
TORSDOF 0
ENDMDL
MODEL 6
REMARK VINA RESULT:      -4.4     11.463     13.061
REMARK  0 active torsions:
REMARK  status: ('A' for Active; 'I' for Inactive)
ROOT
HETATM    1  C1  UNL     1     -34.373  13.686  -4.978  1.00 20.00    -0.023 C 
HETATM    2  C2  UNL     1     -34.527  14.797  -5.710  1.00 20.00    -0.083 C 
HETATM    3  C3  UNL     1     -34.460  16.285  -2.516  1.00 20.00     0.132 C 
HETATM    4  C4  UNL     1     -34.554  13.939  -3.516  1.00 20.00     0.040 C 
HETATM    5  C5  UNL     1     -33.829  17.459  -3.215  1.00 20.00     0.079 C 
HETATM    6  C6  UNL     1     -33.651  16.918  -4.626  1.00 20.00     0.017 C 
HETATM    7  C7  UNL     1     -34.841  15.984  -4.852  1.00 20.00     0.025 C 
HETATM    8  C8  UNL     1     -35.142  15.347  -3.483  1.00 20.00     0.067 C 
HETATM    9  C9  UNL     1     -34.398  14.919  -7.186  1.00 20.00     0.043 C 
HETATM   10  O10 UNL     1     -34.454  16.130  -1.301  1.00 20.00    -0.298 OA
ENDROOT
TORSDOF 0
ENDMDL
MODEL 7
REMARK VINA RESULT:      -4.4     12.228     13.405
REMARK  0 active torsions:
REMARK  status: ('A' for Active; 'I' for Inactive)
ROOT
HETATM    1  C1  UNL     1     -34.420  15.362  -5.938  1.00 20.00    -0.023 C 
HETATM    2  C2  UNL     1     -34.275  14.495  -4.927  1.00 20.00    -0.083 C 
HETATM    3  C3  UNL     1     -33.749  17.481  -3.129  1.00 20.00     0.132 C 
HETATM    4  C4  UNL     1     -34.009  16.749  -5.560  1.00 20.00     0.040 C 
HETATM    5  C5  UNL     1     -34.368  16.745  -1.972  1.00 20.00     0.079 C 
HETATM    6  C6  UNL     1     -34.794  15.440  -2.629  1.00 20.00     0.017 C 
HETATM    7  C7  UNL     1     -33.737  15.164  -3.700  1.00 20.00     0.025 C 
HETATM    8  C8  UNL     1     -33.300  16.544  -4.225  1.00 20.00     0.067 C 
HETATM    9  C9  UNL     1     -34.604  13.046  -4.939  1.00 20.00     0.043 C 
HETATM   10  O10 UNL     1     -33.595  18.695  -3.162  1.00 20.00    -0.298 OA
ENDROOT
TORSDOF 0
ENDMDL
MODEL 8
REMARK VINA RESULT:      -4.3     11.836     13.360
REMARK  0 active torsions:
REMARK  status: ('A' for Active; 'I' for Inactive)
ROOT
HETATM    1  C1  UNL     1     -34.373  13.817  -3.496  1.00 20.00    -0.023 C 
HETATM    2  C2  UNL     1     -34.577  15.133  -3.359  1.00 20.00    -0.083 C 
HETATM    3  C3  UNL     1     -35.513  14.814  -6.742  1.00 20.00     0.132 C 
HETATM    4  C4  UNL     1     -34.446  13.376  -4.923  1.00 20.00     0.040 C 
HETATM    5  C5  UNL     1     -36.466  15.942  -6.453  1.00 20.00     0.079 C 
HETATM    6  C6  UNL     1     -36.288  16.120  -4.952  1.00 20.00     0.017 C 
HETATM    7  C7  UNL     1     -34.818  15.795  -4.681  1.00 20.00     0.025 C 
HETATM    8  C8  UNL     1     -34.437  14.696  -5.689  1.00 20.00     0.067 C 
HETATM    9  C9  UNL     1     -34.596  15.906  -2.089  1.00 20.00     0.043 C 
HETATM   10  O10 UNL     1     -35.580  14.100  -7.735  1.00 20.00    -0.298 OA
ENDROOT
TORSDOF 0
ENDMDL
MODEL 9
REMARK VINA RESULT:      -4.3     12.408     13.395
REMARK  0 active torsions:
REMARK  status: ('A' for Active; 'I' for Inactive)
ROOT
HETATM    1  C1  UNL     1     -35.877  15.145  -3.075  1.00 20.00    -0.023 C 
HETATM    2  C2  UNL     1     -34.635  15.647  -3.107  1.00 20.00    -0.083 C 
HETATM    3  C3  UNL     1     -34.886  14.665  -6.483  1.00 20.00     0.132 C 
HETATM    4  C4  UNL     1     -36.221  14.400  -4.324  1.00 20.00     0.040 C 
HETATM    5  C5  UNL     1     -33.981  15.835  -6.759  1.00 20.00     0.079 C 
HETATM    6  C6  UNL     1     -33.879  16.477  -5.383  1.00 20.00     0.017 C 
HETATM    7  C7  UNL     1     -33.939  15.314  -4.391  1.00 20.00     0.025 C 
HETATM    8  C8  UNL     1     -34.873  14.267  -5.026  1.00 20.00     0.067 C 
HETATM    9  C9  UNL     1     -33.972  16.456  -2.052  1.00 20.00     0.043 C 
HETATM   10  O10 UNL     1     -35.527  14.079  -7.346  1.00 20.00    -0.298 OA
ENDROOT
TORSDOF 0
ENDMDL
