MODEL 1
REMARK VINA RESULT:      -4.6      0.000      0.000
REMARK  2 active torsions:
REMARK  status: ('A' for Active; 'I' for Inactive)
REMARK    1  A    between atoms: C4_4  and  O10_10 
REMARK    2  A    between atoms: C5_5  and  C8_8 
ROOT
HETATM    1  C1  UNL     1     -34.356   5.687   6.383  1.00 20.00     0.040 A 
HETATM    2  C2  UNL     1     -33.670   6.541   5.528  1.00 20.00     0.030 A 
HETATM    3  C3  UNL     1     -35.213   4.552   4.476  1.00 20.00     0.153 A 
HETATM    4  C4  UNL     1     -35.146   4.671   5.855  1.00 20.00     0.083 A 
HETATM    5  C5  UNL     1     -33.804   6.340   4.164  1.00 20.00     0.038 A 
HETATM    6  N9  UNL     1     -34.561   5.364   3.614  1.00 20.00    -0.262 NA
ENDROOT
BRANCH   5   7
HETATM    7  C8  UNL     1     -33.077   7.246   3.228  1.00 20.00     0.038 A 
HETATM    8  C6  UNL     1     -31.938   6.692   2.412  1.00 20.00     0.011 A 
HETATM    9  C7  UNL     1     -31.656   7.634   3.541  1.00 20.00     0.011 A 
ENDBRANCH   5   7
BRANCH   4  10
HETATM   10  O10 UNL     1     -35.825   3.821   6.664  1.00 20.00    -0.359 OA
HETATM   11  H19 UNL     1     -36.222   3.100   6.147  1.00 20.00     0.217 HD
ENDBRANCH   4  10
TORSDOF 2
ENDMDL
MODEL 2
REMARK VINA RESULT:      -4.5     11.979     12.475
REMARK  2 active torsions:
REMARK  status: ('A' for Active; 'I' for Inactive)
REMARK    1  A    between atoms: C4_4  and  O10_10 
REMARK    2  A    between atoms: C5_5  and  C8_8 
ROOT
HETATM    1  C1  UNL     1     -33.461  14.078  -3.845  1.00 20.00     0.040 A 
HETATM    2  C2  UNL     1     -33.349  15.233  -3.078  1.00 20.00     0.030 A 
HETATM    3  C3  UNL     1     -35.824  14.347  -3.806  1.00 20.00     0.153 A 
HETATM    4  C4  UNL     1     -34.720  13.620  -4.220  1.00 20.00     0.083 A 
HETATM    5  C5  UNL     1     -34.514  15.887  -2.715  1.00 20.00     0.038 A 
HETATM    6  N9  UNL     1     -35.754  15.472  -3.060  1.00 20.00    -0.262 NA
ENDROOT
BRANCH   5   7
HETATM    7  C8  UNL     1     -34.417  17.128  -1.892  1.00 20.00     0.038 A 
HETATM    8  C6  UNL     1     -34.534  17.022  -0.394  1.00 20.00     0.011 A 
HETATM    9  C7  UNL     1     -35.646  17.635  -1.186  1.00 20.00     0.011 A 
ENDBRANCH   5   7
BRANCH   4  10
HETATM   10  O10 UNL     1     -34.861  12.498  -4.968  1.00 20.00    -0.359 OA
HETATM   11  H19 UNL     1     -35.140  12.723  -5.872  1.00 20.00     0.217 HD
ENDBRANCH   4  10
TORSDOF 2
ENDMDL
MODEL 3
REMARK VINA RESULT:      -4.4      9.693     10.925
REMARK  2 active torsions:
REMARK  status: ('A' for Active; 'I' for Inactive)
REMARK    1  A    between atoms: C4_4  and  O10_10 
REMARK    2  A    between atoms: C5_5  and  C8_8 
ROOT
HETATM    1  C1  UNL     1     -40.750   5.772  -0.656  1.00 20.00     0.040 A 
HETATM    2  C2  UNL     1     -41.080   4.474  -1.033  1.00 20.00     0.030 A 
HETATM    3  C3  UNL     1     -42.121   6.577  -2.425  1.00 20.00     0.153 A 
HETATM    4  C4  UNL     1     -41.277   6.849  -1.361  1.00 20.00     0.083 A 
HETATM    5  C5  UNL     1     -41.933   4.309  -2.111  1.00 20.00     0.038 A 
HETATM    6  N9  UNL     1     -42.463   5.330  -2.821  1.00 20.00    -0.262 NA
ENDROOT
BRANCH   5   7
HETATM    7  C8  UNL     1     -42.299   2.925  -2.533  1.00 20.00     0.038 A 
HETATM    8  C6  UNL     1     -41.483   2.247  -3.602  1.00 20.00     0.011 A 
HETATM    9  C7  UNL     1     -42.874   2.708  -3.908  1.00 20.00     0.011 A 
ENDBRANCH   5   7
BRANCH   4  10
HETATM   10  O10 UNL     1     -40.974   8.125  -1.016  1.00 20.00    -0.359 OA
HETATM   11  H19 UNL     1     -41.507   8.754  -1.531  1.00 20.00     0.217 HD
ENDBRANCH   4  10
TORSDOF 2
ENDMDL
MODEL 4
REMARK VINA RESULT:      -4.3      1.477      2.194
REMARK  2 active torsions:
REMARK  status: ('A' for Active; 'I' for Inactive)
REMARK    1  A    between atoms: C4_4  and  O10_10 
REMARK    2  A    between atoms: C5_5  and  C8_8 
ROOT
HETATM    1  C1  UNL     1     -34.508   5.103   3.280  1.00 20.00     0.040 A 
HETATM    2  C2  UNL     1     -33.589   5.941   2.658  1.00 20.00     0.030 A 
HETATM    3  C3  UNL     1     -33.934   6.105   5.360  1.00 20.00     0.153 A 
HETATM    4  C4  UNL     1     -34.689   5.180   4.656  1.00 20.00     0.083 A 
HETATM    5  C5  UNL     1     -32.883   6.831   3.450  1.00 20.00     0.038 A 
HETATM    6  N9  UNL     1     -33.031   6.935   4.790  1.00 20.00    -0.262 NA
ENDROOT
BRANCH   5   7
HETATM    7  C8  UNL     1     -31.891   7.739   2.804  1.00 20.00     0.038 A 
HETATM    8  C6  UNL     1     -32.363   9.052   2.236  1.00 20.00     0.011 A 
HETATM    9  C7  UNL     1     -31.951   7.947   1.314  1.00 20.00     0.011 A 
ENDBRANCH   5   7
BRANCH   4  10
HETATM   10  O10 UNL     1     -35.579   4.377   5.290  1.00 20.00    -0.359 OA
HETATM   11  H19 UNL     1     -36.374   4.878   5.541  1.00 20.00     0.217 HD
ENDBRANCH   4  10
TORSDOF 2
ENDMDL
MODEL 5
REMARK VINA RESULT:      -4.2     12.714     13.504
REMARK  2 active torsions:
REMARK  status: ('A' for Active; 'I' for Inactive)
REMARK    1  A    between atoms: C4_4  and  O10_10 
REMARK    2  A    between atoms: C5_5  and  C8_8 
ROOT
HETATM    1  C1  UNL     1     -34.919  14.471  -4.734  1.00 20.00     0.040 A 
HETATM    2  C2  UNL     1     -35.085  14.801  -3.394  1.00 20.00     0.030 A 
HETATM    3  C3  UNL     1     -33.420  16.305  -4.946  1.00 20.00     0.153 A 
HETATM    4  C4  UNL     1     -34.072  15.233  -5.532  1.00 20.00     0.083 A 
HETATM    5  C5  UNL     1     -34.388  15.893  -2.903  1.00 20.00     0.038 A 
HETATM    6  N9  UNL     1     -33.557  16.657  -3.647  1.00 20.00    -0.262 NA
ENDROOT
BRANCH   5   7
HETATM    7  C8  UNL     1     -34.552  16.265  -1.468  1.00 20.00     0.038 A 
HETATM    8  C6  UNL     1     -35.287  17.534  -1.122  1.00 20.00     0.011 A 
HETATM    9  C7  UNL     1     -33.804  17.457  -0.931  1.00 20.00     0.011 A 
ENDBRANCH   5   7
BRANCH   4  10
HETATM   10  O10 UNL     1     -33.889  14.934  -6.842  1.00 20.00    -0.359 OA
HETATM   11  H19 UNL     1     -33.520  14.040  -6.940  1.00 20.00     0.217 HD
ENDBRANCH   4  10
TORSDOF 2
ENDMDL
MODEL 6
REMARK VINA RESULT:      -4.1     12.148     12.915
REMARK  2 active torsions:
REMARK  status: ('A' for Active; 'I' for Inactive)
REMARK    1  A    between atoms: C4_4  and  O10_10 
REMARK    2  A    between atoms: C5_5  and  C8_8 
ROOT
HETATM    1  C1  UNL     1     -34.015  15.616  -3.035  1.00 20.00     0.040 A 
HETATM    2  C2  UNL     1     -35.405  15.633  -3.089  1.00 20.00     0.030 A 
HETATM    3  C3  UNL     1     -34.040  13.649  -4.371  1.00 20.00     0.153 A 
HETATM    4  C4  UNL     1     -33.312  14.608  -3.686  1.00 20.00     0.083 A 
HETATM    5  C5  UNL     1     -36.039  14.628  -3.800  1.00 20.00     0.038 A 
HETATM    6  N9  UNL     1     -35.390  13.631  -4.444  1.00 20.00    -0.262 NA
ENDROOT
BRANCH   5   7
HETATM    7  C8  UNL     1     -37.529  14.625  -3.870  1.00 20.00     0.038 A 
HETATM    8  C6  UNL     1     -38.209  15.360  -4.995  1.00 20.00     0.011 A 
HETATM    9  C7  UNL     1     -38.276  15.905  -3.603  1.00 20.00     0.011 A 
ENDBRANCH   5   7
BRANCH   4  10
HETATM   10  O10 UNL     1     -31.957  14.567  -3.652  1.00 20.00    -0.359 OA
HETATM   11  H19 UNL     1     -31.589  15.466  -3.620  1.00 20.00     0.217 HD
ENDBRANCH   4  10
TORSDOF 2
ENDMDL
MODEL 7
REMARK VINA RESULT:      -4.1     12.650     13.843
REMARK  2 active torsions:
REMARK  status: ('A' for Active; 'I' for Inactive)
REMARK    1  A    between atoms: C4_4  and  O10_10 
REMARK    2  A    between atoms: C5_5  and  C8_8 
ROOT
HETATM    1  C1  UNL     1     -34.179  14.523  -3.411  1.00 20.00     0.040 A 
HETATM    2  C2  UNL     1     -33.743  15.814  -3.688  1.00 20.00     0.030 A 
HETATM    3  C3  UNL     1     -34.780  14.291  -5.701  1.00 20.00     0.153 A 
HETATM    4  C4  UNL     1     -34.709  13.740  -4.432  1.00 20.00     0.083 A 
HETATM    5  C5  UNL     1     -33.858  16.272  -4.991  1.00 20.00     0.038 A 
HETATM    6  N9  UNL     1     -34.368  15.541  -6.008  1.00 20.00    -0.262 NA
ENDROOT
BRANCH   5   7
HETATM    7  C8  UNL     1     -33.397  17.654  -5.310  1.00 20.00     0.038 A 
HETATM    8  C6  UNL     1     -34.363  18.800  -5.159  1.00 20.00     0.011 A 
HETATM    9  C7  UNL     1     -33.952  18.348  -6.525  1.00 20.00     0.011 A 
ENDBRANCH   5   7
BRANCH   4  10
HETATM   10  O10 UNL     1     -35.141  12.477  -4.192  1.00 20.00    -0.359 OA
HETATM   11  H19 UNL     1     -34.815  11.869  -4.876  1.00 20.00     0.217 HD
ENDBRANCH   4  10
TORSDOF 2
ENDMDL
MODEL 8
REMARK VINA RESULT:      -4.1     12.130     13.018
REMARK  2 active torsions:
REMARK  status: ('A' for Active; 'I' for Inactive)
REMARK    1  A    between atoms: C4_4  and  O10_10 
REMARK    2  A    between atoms: C5_5  and  C8_8 
ROOT
HETATM    1  C1  UNL     1     -33.944  13.542  -4.262  1.00 20.00     0.040 A 
HETATM    2  C2  UNL     1     -35.333  13.542  -4.309  1.00 20.00     0.030 A 
HETATM    3  C3  UNL     1     -34.031  15.695  -3.254  1.00 20.00     0.153 A 
HETATM    4  C4  UNL     1     -33.273  14.636  -3.726  1.00 20.00     0.083 A 
HETATM    5  C5  UNL     1     -36.000  14.649  -3.811  1.00 20.00     0.038 A 
HETATM    6  N9  UNL     1     -35.383  15.730  -3.284  1.00 20.00    -0.262 NA
ENDROOT
BRANCH   5   7
HETATM    7  C8  UNL     1     -37.491  14.670  -3.852  1.00 20.00     0.038 A 
HETATM    8  C6  UNL     1     -38.181  15.312  -5.026  1.00 20.00     0.011 A 
HETATM    9  C7  UNL     1     -38.209  15.983  -3.689  1.00 20.00     0.011 A 
ENDBRANCH   5   7
BRANCH   4  10
HETATM   10  O10 UNL     1     -31.918  14.664  -3.666  1.00 20.00    -0.359 OA
HETATM   11  H19 UNL     1     -31.585  15.549  -3.891  1.00 20.00     0.217 HD
ENDBRANCH   4  10
TORSDOF 2
ENDMDL
MODEL 9
REMARK VINA RESULT:      -4.1     12.729     13.724
REMARK  2 active torsions:
REMARK  status: ('A' for Active; 'I' for Inactive)
REMARK    1  A    between atoms: C4_4  and  O10_10 
REMARK    2  A    between atoms: C5_5  and  C8_8 
ROOT
HETATM    1  C1  UNL     1     -34.080  15.856  -6.402  1.00 20.00     0.040 A 
HETATM    2  C2  UNL     1     -33.765  16.208  -5.095  1.00 20.00     0.030 A 
HETATM    3  C3  UNL     1     -35.091  13.871  -5.568  1.00 20.00     0.153 A 
HETATM    4  C4  UNL     1     -34.756  14.667  -6.652  1.00 20.00     0.083 A 
HETATM    5  C5  UNL     1     -34.144  15.344  -4.081  1.00 20.00     0.038 A 
HETATM    6  N9  UNL     1     -34.801  14.180  -4.284  1.00 20.00    -0.262 NA
ENDROOT
BRANCH   5   7
HETATM    7  C8  UNL     1     -33.816  15.702  -2.670  1.00 20.00     0.038 A 
HETATM    8  C6  UNL     1     -34.900  16.257  -1.785  1.00 20.00     0.011 A 
HETATM    9  C7  UNL     1     -33.802  17.152  -2.267  1.00 20.00     0.011 A 
ENDBRANCH   5   7
BRANCH   4  10
HETATM   10  O10 UNL     1     -35.078  14.298  -7.917  1.00 20.00    -0.359 OA
HETATM   11  H19 UNL     1     -35.316  15.076  -8.449  1.00 20.00     0.217 HD
ENDBRANCH   4  10
TORSDOF 2
ENDMDL
