MODEL 1
REMARK VINA RESULT:      -4.7      0.000      0.000
REMARK  1 active torsions:
REMARK  status: ('A' for Active; 'I' for Inactive)
REMARK    1  A    between atoms: C7_7  and  C8_8 
ROOT
HETATM    1  C1  UNL     1     -34.412   5.782   5.836  1.00 20.00     0.131 C 
HETATM    2  C2  UNL     1     -35.263   4.746   5.141  1.00 20.00     0.104 C 
HETATM    3  C3  UNL     1     -33.182   6.230   5.082  1.00 20.00     0.110 C 
HETATM    4  C6  UNL     1     -35.475   5.153   3.692  1.00 20.00     0.175 C 
HETATM    5  C8  UNL     1     -33.554   6.536   3.633  1.00 20.00     0.132 C 
HETATM    6  O9  UNL     1     -34.644   6.150   6.985  1.00 20.00    -0.298 OA
HETATM    7  O10 UNL     1     -34.223   5.408   3.051  1.00 20.00    -0.385 OA
ENDROOT
BRANCH   5   8
HETATM    8  C7  UNL     1     -32.336   6.842   2.812  1.00 20.00     0.015 A 
HETATM    9  C4  UNL     1     -32.186   8.184   2.150  1.00 20.00     0.007 A 
HETATM   10  C5  UNL     1     -31.310   7.819   3.315  1.00 20.00     0.007 A 
ENDBRANCH   5   8
TORSDOF 1
ENDMDL
MODEL 2
REMARK VINA RESULT:      -4.7     11.142     11.830
REMARK  1 active torsions:
REMARK  status: ('A' for Active; 'I' for Inactive)
REMARK    1  A    between atoms: C7_7  and  C8_8 
ROOT
HETATM    1  C1  UNL     1     -33.828  13.874  -3.831  1.00 20.00     0.131 C 
HETATM    2  C2  UNL     1     -35.041  13.791  -4.727  1.00 20.00     0.104 C 
HETATM    3  C3  UNL     1     -33.667  15.168  -3.068  1.00 20.00     0.110 C 
HETATM    4  C6  UNL     1     -36.265  14.281  -3.972  1.00 20.00     0.175 C 
HETATM    5  C8  UNL     1     -35.000  15.551  -2.426  1.00 20.00     0.132 C 
HETATM    6  O9  UNL     1     -32.972  12.993  -3.811  1.00 20.00    -0.298 OA
HETATM    7  O10 UNL     1     -36.032  15.579  -3.421  1.00 20.00    -0.385 OA
ENDROOT
BRANCH   5   8
HETATM    8  C7  UNL     1     -34.922  16.904  -1.781  1.00 20.00     0.015 A 
HETATM    9  C4  UNL     1     -34.804  17.026  -0.287  1.00 20.00     0.007 A 
HETATM   10  C5  UNL     1     -33.635  17.377  -1.165  1.00 20.00     0.007 A 
ENDBRANCH   5   8
TORSDOF 1
ENDMDL
MODEL 3
REMARK VINA RESULT:      -4.6     11.200     12.472
REMARK  1 active torsions:
REMARK  status: ('A' for Active; 'I' for Inactive)
REMARK    1  A    between atoms: C7_7  and  C8_8 
ROOT
HETATM    1  C1  UNL     1     -34.644  13.697  -4.554  1.00 20.00     0.131 C 
HETATM    2  C2  UNL     1     -34.521  14.478  -5.840  1.00 20.00     0.104 C 
HETATM    3  C3  UNL     1     -34.090  14.374  -3.322  1.00 20.00     0.110 C 
HETATM    4  C6  UNL     1     -34.964  15.912  -5.607  1.00 20.00     0.175 C 
HETATM    5  C8  UNL     1     -34.576  15.822  -3.274  1.00 20.00     0.132 C 
HETATM    6  O9  UNL     1     -35.063  12.542  -4.531  1.00 20.00    -0.298 OA
HETATM    7  O10 UNL     1     -34.258  16.486  -4.504  1.00 20.00    -0.385 OA
ENDROOT
BRANCH   5   8
HETATM    8  C7  UNL     1     -33.930  16.573  -2.146  1.00 20.00     0.015 A 
HETATM    9  C4  UNL     1     -34.535  17.856  -1.647  1.00 20.00     0.007 A 
HETATM   10  C5  UNL     1     -34.585  16.620  -0.794  1.00 20.00     0.007 A 
ENDBRANCH   5   8
TORSDOF 1
ENDMDL
MODEL 4
REMARK VINA RESULT:      -4.3      1.295      2.215
REMARK  1 active torsions:
REMARK  status: ('A' for Active; 'I' for Inactive)
REMARK    1  A    between atoms: C7_7  and  C8_8 
ROOT
HETATM    1  C1  UNL     1     -34.959   4.430   4.900  1.00 20.00     0.131 C 
HETATM    2  C2  UNL     1     -35.220   5.037   6.258  1.00 20.00     0.104 C 
HETATM    3  C3  UNL     1     -34.489   5.392   3.834  1.00 20.00     0.110 C 
HETATM    4  C6  UNL     1     -34.064   5.946   6.638  1.00 20.00     0.175 C 
HETATM    5  C8  UNL     1     -33.375   6.273   4.397  1.00 20.00     0.132 C 
HETATM    6  O9  UNL     1     -35.221   3.256   4.650  1.00 20.00    -0.298 OA
HETATM    7  O10 UNL     1     -33.815   6.904   5.608  1.00 20.00    -0.385 OA
ENDROOT
BRANCH   5   8
HETATM    8  C7  UNL     1     -32.980   7.341   3.420  1.00 20.00     0.015 A 
HETATM    9  C4  UNL     1     -31.543   7.766   3.302  1.00 20.00     0.007 A 
HETATM   10  C5  UNL     1     -32.190   6.988   2.191  1.00 20.00     0.007 A 
ENDBRANCH   5   8
TORSDOF 1
ENDMDL
MODEL 5
REMARK VINA RESULT:      -4.1     11.501     12.433
REMARK  1 active torsions:
REMARK  status: ('A' for Active; 'I' for Inactive)
REMARK    1  A    between atoms: C7_7  and  C8_8 
ROOT
HETATM    1  C1  UNL     1     -35.701  14.435  -3.934  1.00 20.00     0.131 C 
HETATM    2  C2  UNL     1     -34.733  14.353  -5.090  1.00 20.00     0.104 C 
HETATM    3  C3  UNL     1     -35.154  15.050  -2.666  1.00 20.00     0.110 C 
HETATM    4  C6  UNL     1     -34.013  15.682  -5.245  1.00 20.00     0.175 C 
HETATM    5  C8  UNL     1     -34.406  16.338  -3.005  1.00 20.00     0.132 C 
HETATM    6  O9  UNL     1     -36.821  13.934  -3.986  1.00 20.00    -0.298 OA
HETATM    7  O10 UNL     1     -33.416  16.080  -4.009  1.00 20.00    -0.385 OA
ENDROOT
BRANCH   5   8
HETATM    8  C7  UNL     1     -33.722  16.902  -1.794  1.00 20.00     0.015 A 
HETATM    9  C4  UNL     1     -34.090  18.268  -1.284  1.00 20.00     0.007 A 
HETATM   10  C5  UNL     1     -34.471  17.045  -0.499  1.00 20.00     0.007 A 
ENDBRANCH   5   8
TORSDOF 1
ENDMDL
MODEL 6
REMARK VINA RESULT:      -3.9     11.353     12.802
REMARK  1 active torsions:
REMARK  status: ('A' for Active; 'I' for Inactive)
REMARK    1  A    between atoms: C7_7  and  C8_8 
ROOT
HETATM    1  C1  UNL     1     -34.380  15.748  -5.530  1.00 20.00     0.131 C 
HETATM    2  C2  UNL     1     -34.519  14.245  -5.586  1.00 20.00     0.104 C 
HETATM    3  C3  UNL     1     -34.809  16.395  -4.233  1.00 20.00     0.110 C 
HETATM    4  C6  UNL     1     -33.957  13.635  -4.314  1.00 20.00     0.175 C 
HETATM    5  C8  UNL     1     -34.214  15.624  -3.057  1.00 20.00     0.132 C 
HETATM    6  O9  UNL     1     -34.048  16.408  -6.511  1.00 20.00    -0.298 OA
HETATM    7  O10 UNL     1     -34.552  14.234  -3.161  1.00 20.00    -0.385 OA
ENDROOT
BRANCH   5   8
HETATM    8  C7  UNL     1     -34.734  16.144  -1.749  1.00 20.00     0.015 A 
HETATM    9  C4  UNL     1     -33.946  17.162  -0.971  1.00 20.00     0.007 A 
HETATM   10  C5  UNL     1     -35.232  17.558  -1.640  1.00 20.00     0.007 A 
ENDBRANCH   5   8
TORSDOF 1
ENDMDL
MODEL 7
REMARK VINA RESULT:      -3.9     11.113     12.639
REMARK  1 active torsions:
REMARK  status: ('A' for Active; 'I' for Inactive)
REMARK    1  A    between atoms: C7_7  and  C8_8 
ROOT
HETATM    1  C1  UNL     1     -34.643  13.527  -4.202  1.00 20.00     0.131 C 
HETATM    2  C2  UNL     1     -33.259  13.800  -3.663  1.00 20.00     0.104 C 
HETATM    3  C3  UNL     1     -35.728  14.461  -3.718  1.00 20.00     0.110 C 
HETATM    4  C6  UNL     1     -32.959  15.285  -3.764  1.00 20.00     0.175 C 
HETATM    5  C8  UNL     1     -35.242  15.906  -3.824  1.00 20.00     0.132 C 
HETATM    6  O9  UNL     1     -34.890  12.544  -4.896  1.00 20.00    -0.298 OA
HETATM    7  O10 UNL     1     -33.990  16.053  -3.140  1.00 20.00    -0.385 OA
ENDROOT
BRANCH   5   8
HETATM    8  C7  UNL     1     -36.232  16.857  -3.217  1.00 20.00     0.015 A 
HETATM    9  C4  UNL     1     -36.823  17.964  -4.044  1.00 20.00     0.007 A 
HETATM   10  C5  UNL     1     -37.679  16.804  -3.621  1.00 20.00     0.007 A 
ENDBRANCH   5   8
TORSDOF 1
ENDMDL
MODEL 8
REMARK VINA RESULT:      -3.9      9.058     11.069
REMARK  1 active torsions:
REMARK  status: ('A' for Active; 'I' for Inactive)
REMARK    1  A    between atoms: C7_7  and  C8_8 
ROOT
HETATM    1  C1  UNL     1     -42.251   7.049  -1.747  1.00 20.00     0.131 C 
HETATM    2  C2  UNL     1     -40.997   7.099  -0.906  1.00 20.00     0.104 C 
HETATM    3  C3  UNL     1     -42.379   5.850  -2.658  1.00 20.00     0.110 C 
HETATM    4  C6  UNL     1     -40.760   5.742  -0.267  1.00 20.00     0.175 C 
HETATM    5  C8  UNL     1     -42.045   4.579  -1.879  1.00 20.00     0.132 C 
HETATM    6  O9  UNL     1     -43.056   7.977  -1.771  1.00 20.00    -0.298 OA
HETATM    7  O10 UNL     1     -40.760   4.711  -1.256  1.00 20.00    -0.385 OA
ENDROOT
BRANCH   5   8
HETATM    8  C7  UNL     1     -42.017   3.381  -2.782  1.00 20.00     0.015 A 
HETATM    9  C4  UNL     1     -42.949   2.227  -2.538  1.00 20.00     0.007 A 
HETATM   10  C5  UNL     1     -43.155   3.120  -3.729  1.00 20.00     0.007 A 
ENDBRANCH   5   8
TORSDOF 1
ENDMDL
MODEL 9
REMARK VINA RESULT:      -3.9     11.464     13.596
REMARK  1 active torsions:
REMARK  status: ('A' for Active; 'I' for Inactive)
REMARK    1  A    between atoms: C7_7  and  C8_8 
ROOT
HETATM    1  C1  UNL     1     -34.646  13.681  -4.675  1.00 20.00     0.131 C 
HETATM    2  C2  UNL     1     -33.866  14.223  -3.500  1.00 20.00     0.104 C 
HETATM    3  C3  UNL     1     -35.337  14.715  -5.533  1.00 20.00     0.110 C 
HETATM    4  C6  UNL     1     -33.014  15.395  -3.954  1.00 20.00     0.175 C 
HETATM    5  C8  UNL     1     -34.365  15.852  -5.844  1.00 20.00     0.132 C 
HETATM    6  O9  UNL     1     -34.801  12.475  -4.853  1.00 20.00    -0.298 OA
HETATM    7  O10 UNL     1     -33.814  16.371  -4.625  1.00 20.00    -0.385 OA
ENDROOT
BRANCH   5   8
HETATM    8  C7  UNL     1     -35.053  16.971  -6.570  1.00 20.00     0.015 A 
HETATM    9  C4  UNL     1     -34.516  17.463  -7.886  1.00 20.00     0.007 A 
HETATM   10  C5  UNL     1     -35.808  16.697  -7.841  1.00 20.00     0.007 A 
ENDBRANCH   5   8
TORSDOF 1
ENDMDL
