MODEL 1
REMARK VINA RESULT:      -5.5      0.000      0.000
REMARK  1 active torsions:
REMARK  status: ('A' for Active; 'I' for Inactive)
REMARK    1  A    between atoms: C2_2  and  C9_9 
ROOT
HETATM    1  C1  UNL     1     -33.291   6.462   4.969  1.00 20.00     0.053 C 
HETATM    2  C2  UNL     1     -33.169   6.217   3.654  1.00 20.00    -0.072 C 
HETATM    3  C3  UNL     1     -34.388   5.843   5.754  1.00 20.00     0.149 C 
HETATM    4  C4  UNL     1     -34.150   5.369   2.885  1.00 20.00     0.035 C 
HETATM    5  C5  UNL     1     -35.303   4.859   5.063  1.00 20.00     0.083 C 
HETATM    6  C6  UNL     1     -35.490   5.228   3.601  1.00 20.00     0.012 C 
HETATM    7  O10 UNL     1     -34.492   6.088   6.954  1.00 20.00    -0.293 OA
ENDROOT
BRANCH   2   8
HETATM    8  C9  UNL     1     -32.027   6.779   2.860  1.00 20.00     0.014 A 
HETATM    9  C7  UNL     1     -32.204   8.121   2.237  1.00 20.00     0.010 A 
HETATM   10  C8  UNL     1     -31.298   7.951   3.419  1.00 20.00     0.010 A 
ENDBRANCH   2   8
TORSDOF 1
ENDMDL
MODEL 2
REMARK VINA RESULT:      -4.9     11.481     11.973
REMARK  1 active torsions:
REMARK  status: ('A' for Active; 'I' for Inactive)
REMARK    1  A    between atoms: C2_2  and  C9_9 
ROOT
HETATM    1  C1  UNL     1     -35.821  15.451  -2.905  1.00 20.00     0.053 C 
HETATM    2  C2  UNL     1     -34.498  15.637  -2.768  1.00 20.00    -0.072 C 
HETATM    3  C3  UNL     1     -36.345  14.369  -3.775  1.00 20.00     0.149 C 
HETATM    4  C4  UNL     1     -33.475  14.825  -3.521  1.00 20.00     0.035 C 
HETATM    5  C5  UNL     1     -35.361  13.426  -4.426  1.00 20.00     0.083 C 
HETATM    6  C6  UNL     1     -34.061  14.141  -4.753  1.00 20.00     0.012 C 
HETATM    7  O10 UNL     1     -37.560  14.220  -3.898  1.00 20.00    -0.293 OA
ENDROOT
BRANCH   2   8
HETATM    8  C9  UNL     1     -33.950  16.681  -1.840  1.00 20.00     0.014 A 
HETATM    9  C7  UNL     1     -34.777  17.893  -1.587  1.00 20.00     0.010 A 
HETATM   10  C8  UNL     1     -34.613  16.855  -0.518  1.00 20.00     0.010 A 
ENDBRANCH   2   8
TORSDOF 1
ENDMDL
MODEL 3
REMARK VINA RESULT:      -4.9     11.373     12.539
REMARK  1 active torsions:
REMARK  status: ('A' for Active; 'I' for Inactive)
REMARK    1  A    between atoms: C2_2  and  C9_9 
ROOT
HETATM    1  C1  UNL     1     -34.295  14.407  -3.481  1.00 20.00     0.053 C 
HETATM    2  C2  UNL     1     -34.063  15.730  -3.464  1.00 20.00    -0.072 C 
HETATM    3  C3  UNL     1     -34.617  13.713  -4.753  1.00 20.00     0.149 C 
HETATM    4  C4  UNL     1     -34.174  16.597  -4.693  1.00 20.00     0.035 C 
HETATM    5  C5  UNL     1     -34.585  14.509  -6.037  1.00 20.00     0.083 C 
HETATM    6  C6  UNL     1     -35.008  15.948  -5.794  1.00 20.00     0.012 C 
HETATM    7  O10 UNL     1     -34.839  12.504  -4.749  1.00 20.00    -0.293 OA
ENDROOT
BRANCH   2   8
HETATM    8  C9  UNL     1     -33.668  16.435  -2.200  1.00 20.00     0.014 A 
HETATM    9  C7  UNL     1     -34.332  17.731  -1.888  1.00 20.00     0.010 A 
HETATM   10  C8  UNL     1     -34.668  16.503  -1.098  1.00 20.00     0.010 A 
ENDBRANCH   2   8
TORSDOF 1
ENDMDL
MODEL 4
REMARK VINA RESULT:      -4.8      1.334      2.034
REMARK  1 active torsions:
REMARK  status: ('A' for Active; 'I' for Inactive)
REMARK    1  A    between atoms: C2_2  and  C9_9 
ROOT
HETATM    1  C1  UNL     1     -33.918   5.012   3.902  1.00 20.00     0.053 C 
HETATM    2  C2  UNL     1     -33.268   6.183   3.995  1.00 20.00    -0.072 C 
HETATM    3  C3  UNL     1     -34.806   4.552   4.998  1.00 20.00     0.149 C 
HETATM    4  C4  UNL     1     -33.338   7.064   5.217  1.00 20.00     0.035 C 
HETATM    5  C5  UNL     1     -35.035   5.472   6.175  1.00 20.00     0.083 C 
HETATM    6  C6  UNL     1     -33.798   6.306   6.459  1.00 20.00     0.012 C 
HETATM    7  O10 UNL     1     -35.384   3.471   4.901  1.00 20.00    -0.293 OA
ENDROOT
BRANCH   2   8
HETATM    8  C9  UNL     1     -32.421   6.696   2.867  1.00 20.00     0.014 A 
HETATM    9  C7  UNL     1     -32.586   8.120   2.463  1.00 20.00     0.010 A 
HETATM   10  C8  UNL     1     -31.352   7.681   3.191  1.00 20.00     0.010 A 
ENDBRANCH   2   8
TORSDOF 1
ENDMDL
MODEL 5
REMARK VINA RESULT:      -4.5     11.721     12.870
REMARK  1 active torsions:
REMARK  status: ('A' for Active; 'I' for Inactive)
REMARK    1  A    between atoms: C2_2  and  C9_9 
ROOT
HETATM    1  C1  UNL     1     -33.884  16.114  -4.841  1.00 20.00     0.053 C 
HETATM    2  C2  UNL     1     -34.009  15.521  -3.643  1.00 20.00    -0.072 C 
HETATM    3  C3  UNL     1     -34.325  15.420  -6.077  1.00 20.00     0.149 C 
HETATM    4  C4  UNL     1     -34.532  14.117  -3.474  1.00 20.00     0.035 C 
HETATM    5  C5  UNL     1     -35.002  14.075  -5.946  1.00 20.00     0.083 C 
HETATM    6  C6  UNL     1     -34.448  13.302  -4.761  1.00 20.00     0.012 C 
HETATM    7  O10 UNL     1     -34.191  15.972  -7.167  1.00 20.00    -0.293 OA
ENDROOT
BRANCH   2   8
HETATM    8  C9  UNL     1     -33.633  16.235  -2.377  1.00 20.00     0.014 A 
HETATM    9  C7  UNL     1     -34.217  17.585  -2.138  1.00 20.00     0.010 A 
HETATM   10  C8  UNL     1     -34.683  16.407  -1.335  1.00 20.00     0.010 A 
ENDBRANCH   2   8
TORSDOF 1
ENDMDL
MODEL 6
REMARK VINA RESULT:      -4.5     11.526     13.545
REMARK  1 active torsions:
REMARK  status: ('A' for Active; 'I' for Inactive)
REMARK    1  A    between atoms: C2_2  and  C9_9 
ROOT
HETATM    1  C1  UNL     1     -34.749  14.354  -5.887  1.00 20.00     0.053 C 
HETATM    2  C2  UNL     1     -34.270  15.595  -6.071  1.00 20.00    -0.072 C 
HETATM    3  C3  UNL     1     -34.624  13.684  -4.569  1.00 20.00     0.149 C 
HETATM    4  C4  UNL     1     -33.528  16.353  -4.999  1.00 20.00     0.035 C 
HETATM    5  C5  UNL     1     -34.030  14.462  -3.417  1.00 20.00     0.083 C 
HETATM    6  C6  UNL     1     -32.976  15.439  -3.909  1.00 20.00     0.012 C 
HETATM    7  O10 UNL     1     -35.058  12.543  -4.421  1.00 20.00    -0.293 OA
ENDROOT
BRANCH   2   8
HETATM    8  C9  UNL     1     -34.449  16.314  -7.375  1.00 20.00     0.014 A 
HETATM    9  C7  UNL     1     -35.747  17.005  -7.618  1.00 20.00     0.010 A 
HETATM   10  C8  UNL     1     -34.506  17.802  -7.349  1.00 20.00     0.010 A 
ENDBRANCH   2   8
TORSDOF 1
ENDMDL
MODEL 7
REMARK VINA RESULT:      -4.4     11.020     12.360
REMARK  1 active torsions:
REMARK  status: ('A' for Active; 'I' for Inactive)
REMARK    1  A    between atoms: C2_2  and  C9_9 
ROOT
HETATM    1  C1  UNL     1     -35.662  14.613  -3.734  1.00 20.00     0.053 C 
HETATM    2  C2  UNL     1     -35.264  15.742  -3.127  1.00 20.00    -0.072 C 
HETATM    3  C3  UNL     1     -34.681  13.556  -4.082  1.00 20.00     0.149 C 
HETATM    4  C4  UNL     1     -33.819  16.041  -2.820  1.00 20.00     0.035 C 
HETATM    5  C5  UNL     1     -33.243  13.737  -3.652  1.00 20.00     0.083 C 
HETATM    6  C6  UNL     1     -32.856  15.206  -3.661  1.00 20.00     0.012 C 
HETATM    7  O10 UNL     1     -35.061  12.533  -4.649  1.00 20.00    -0.293 OA
ENDROOT
BRANCH   2   8
HETATM    8  C9  UNL     1     -36.252  16.791  -2.707  1.00 20.00     0.014 A 
HETATM    9  C7  UNL     1     -35.816  17.796  -1.698  1.00 20.00     0.010 A 
HETATM   10  C8  UNL     1     -36.000  18.196  -3.130  1.00 20.00     0.010 A 
ENDBRANCH   2   8
TORSDOF 1
ENDMDL
MODEL 8
REMARK VINA RESULT:      -4.4     11.663     12.851
REMARK  1 active torsions:
REMARK  status: ('A' for Active; 'I' for Inactive)
REMARK    1  A    between atoms: C2_2  and  C9_9 
ROOT
HETATM    1  C1  UNL     1     -34.367  15.190  -2.917  1.00 20.00     0.053 C 
HETATM    2  C2  UNL     1     -34.270  16.386  -2.315  1.00 20.00    -0.072 C 
HETATM    3  C3  UNL     1     -33.938  15.016  -4.327  1.00 20.00     0.149 C 
HETATM    4  C4  UNL     1     -33.793  17.625  -3.030  1.00 20.00     0.035 C 
HETATM    5  C5  UNL     1     -33.304  16.189  -5.037  1.00 20.00     0.083 C 
HETATM    6  C6  UNL     1     -33.892  17.501  -4.548  1.00 20.00     0.012 C 
HETATM    7  O10 UNL     1     -34.045  13.916  -4.866  1.00 20.00    -0.293 OA
ENDROOT
BRANCH   2   8
HETATM    8  C9  UNL     1     -34.634  16.564  -0.870  1.00 20.00     0.014 A 
HETATM    9  C7  UNL     1     -33.994  17.681  -0.122  1.00 20.00     0.010 A 
HETATM   10  C8  UNL     1     -35.443  17.758  -0.497  1.00 20.00     0.010 A 
ENDBRANCH   2   8
TORSDOF 1
ENDMDL
MODEL 9
REMARK VINA RESULT:      -4.4      1.704      3.866
REMARK  1 active torsions:
REMARK  status: ('A' for Active; 'I' for Inactive)
REMARK    1  A    between atoms: C2_2  and  C9_9 
ROOT
HETATM    1  C1  UNL     1     -33.101   6.632   4.762  1.00 20.00     0.053 C 
HETATM    2  C2  UNL     1     -34.028   5.825   4.221  1.00 20.00    -0.072 C 
HETATM    3  C3  UNL     1     -32.077   7.286   3.909  1.00 20.00     0.149 C 
HETATM    4  C4  UNL     1     -34.056   5.480   2.753  1.00 20.00     0.035 C 
HETATM    5  C5  UNL     1     -32.160   7.098   2.411  1.00 20.00     0.083 C 
HETATM    6  C6  UNL     1     -32.716   5.728   2.066  1.00 20.00     0.012 C 
HETATM    7  O10 UNL     1     -31.228   8.012   4.422  1.00 20.00    -0.293 OA
ENDROOT
BRANCH   2   8
HETATM    8  C9  UNL     1     -35.111   5.212   5.058  1.00 20.00     0.014 A 
HETATM    9  C7  UNL     1     -34.876   3.850   5.615  1.00 20.00     0.010 A 
HETATM   10  C8  UNL     1     -34.857   5.048   6.516  1.00 20.00     0.010 A 
ENDBRANCH   2   8
TORSDOF 1
ENDMDL
