MODEL 1
REMARK VINA RESULT:      -5.1      0.000      0.000
REMARK  2 active torsions:
REMARK  status: ('A' for Active; 'I' for Inactive)
REMARK    1  A    between atoms: C7_7  and  C8_8 
REMARK    2  A    between atoms: C9_9  and  O10_10 
ROOT
HETATM    1  C1  UNL     1     -35.942  15.208  -5.347  1.00 20.00     0.003 C 
HETATM    2  C2  UNL     1     -35.265  16.100  -4.311  1.00 20.00     0.005 C 
HETATM    3  C5  UNL     1     -34.990  14.137  -5.878  1.00 20.00     0.032 C 
HETATM    4  C6  UNL     1     -33.701  14.209  -3.702  1.00 20.00     0.036 C 
HETATM    5  C8  UNL     1     -34.662  15.280  -3.162  1.00 20.00    -0.008 C 
HETATM    6  C9  UNL     1     -34.364  13.315  -4.753  1.00 20.00     0.118 C 
ENDROOT
BRANCH   5   7
HETATM    7  C7  UNL     1     -33.947  16.192  -2.166  1.00 20.00    -0.010 A 
HETATM    8  C3  UNL     1     -34.398  17.614  -1.981  1.00 20.00     0.005 A 
HETATM    9  C4  UNL     1     -34.629  16.604  -0.892  1.00 20.00     0.005 A 
ENDBRANCH   5   7
BRANCH   6  10
HETATM   10  O10 UNL     1     -35.381  12.524  -4.143  1.00 20.00    -0.396 OA
HETATM   11  H26 UNL     1     -35.089  11.601  -4.209  1.00 20.00     0.210 HD
ENDBRANCH   6  10
TORSDOF 2
ENDMDL
MODEL 2
REMARK VINA RESULT:      -4.6      1.831      2.490
REMARK  2 active torsions:
REMARK  status: ('A' for Active; 'I' for Inactive)
REMARK    1  A    between atoms: C7_7  and  C8_8 
REMARK    2  A    between atoms: C9_9  and  O10_10 
ROOT
HETATM    1  C1  UNL     1     -34.825  14.635  -3.564  1.00 20.00     0.003 C 
HETATM    2  C2  UNL     1     -34.900  15.526  -2.328  1.00 20.00     0.005 C 
HETATM    3  C5  UNL     1     -34.769  15.458  -4.851  1.00 20.00     0.032 C 
HETATM    4  C6  UNL     1     -33.698  17.365  -3.579  1.00 20.00     0.036 C 
HETATM    5  C8  UNL     1     -33.745  16.535  -2.286  1.00 20.00    -0.008 C 
HETATM    6  C9  UNL     1     -33.636  16.483  -4.829  1.00 20.00     0.118 C 
ENDROOT
BRANCH   5   7
HETATM    7  C7  UNL     1     -33.872  17.448  -1.066  1.00 20.00    -0.010 A 
HETATM    8  C3  UNL     1     -35.096  18.300  -0.881  1.00 20.00     0.005 A 
HETATM    9  C4  UNL     1     -34.855  17.124   0.023  1.00 20.00     0.005 A 
ENDBRANCH   5   7
BRANCH   6  10
HETATM   10  O10 UNL     1     -32.391  15.790  -4.871  1.00 20.00    -0.396 OA
HETATM   11  H26 UNL     1     -32.153  15.594  -3.951  1.00 20.00     0.210 HD
ENDBRANCH   6  10
TORSDOF 2
ENDMDL
MODEL 3
REMARK VINA RESULT:      -4.5     11.861     12.823
REMARK  2 active torsions:
REMARK  status: ('A' for Active; 'I' for Inactive)
REMARK    1  A    between atoms: C7_7  and  C8_8 
REMARK    2  A    between atoms: C9_9  and  O10_10 
ROOT
HETATM    1  C1  UNL     1     -34.080   5.477   6.638  1.00 20.00     0.003 C 
HETATM    2  C2  UNL     1     -33.587   6.525   5.646  1.00 20.00     0.005 C 
HETATM    3  C5  UNL     1     -35.443   4.915   6.235  1.00 20.00     0.032 C 
HETATM    4  C6  UNL     1     -34.931   5.422   3.810  1.00 20.00     0.036 C 
HETATM    5  C8  UNL     1     -33.556   5.980   4.212  1.00 20.00    -0.008 C 
HETATM    6  C9  UNL     1     -35.443   4.378   4.805  1.00 20.00     0.118 C 
ENDROOT
BRANCH   5   7
HETATM    7  C7  UNL     1     -33.108   7.064   3.232  1.00 20.00    -0.010 A 
HETATM    8  C3  UNL     1     -31.720   7.635   3.317  1.00 20.00     0.005 A 
HETATM    9  C4  UNL     1     -32.099   6.748   2.163  1.00 20.00     0.005 A 
ENDBRANCH   5   7
BRANCH   6  10
HETATM   10  O10 UNL     1     -34.621   3.214   4.753  1.00 20.00    -0.396 OA
HETATM   11  H26 UNL     1     -33.749   3.478   5.086  1.00 20.00     0.210 HD
ENDBRANCH   6  10
TORSDOF 2
ENDMDL
MODEL 4
REMARK VINA RESULT:      -4.4     11.593     12.479
REMARK  2 active torsions:
REMARK  status: ('A' for Active; 'I' for Inactive)
REMARK    1  A    between atoms: C7_7  and  C8_8 
REMARK    2  A    between atoms: C9_9  and  O10_10 
ROOT
HETATM    1  C1  UNL     1     -35.699   5.029   4.192  1.00 20.00     0.003 C 
HETATM    2  C2  UNL     1     -34.592   5.446   3.228  1.00 20.00     0.005 C 
HETATM    3  C5  UNL     1     -35.136   4.336   5.432  1.00 20.00     0.032 C 
HETATM    4  C6  UNL     1     -32.971   5.615   5.161  1.00 20.00     0.036 C 
HETATM    5  C8  UNL     1     -33.538   6.321   3.918  1.00 20.00    -0.008 C 
HETATM    6  C9  UNL     1     -34.072   5.180   6.130  1.00 20.00     0.118 C 
ENDROOT
BRANCH   5   7
HETATM    7  C7  UNL     1     -32.416   6.681   2.945  1.00 20.00    -0.010 A 
HETATM    8  C3  UNL     1     -32.361   8.049   2.325  1.00 20.00     0.005 A 
HETATM    9  C4  UNL     1     -31.341   7.649   3.354  1.00 20.00     0.005 A 
ENDBRANCH   5   7
BRANCH   6  10
HETATM   10  O10 UNL     1     -34.699   6.328   6.698  1.00 20.00    -0.396 OA
HETATM   11  H26 UNL     1     -35.629   6.093   6.839  1.00 20.00     0.210 HD
ENDBRANCH   6  10
TORSDOF 2
ENDMDL
MODEL 5
REMARK VINA RESULT:      -4.4      1.524      2.216
REMARK  2 active torsions:
REMARK  status: ('A' for Active; 'I' for Inactive)
REMARK    1  A    between atoms: C7_7  and  C8_8 
REMARK    2  A    between atoms: C9_9  and  O10_10 
ROOT
HETATM    1  C1  UNL     1     -33.853  13.536  -4.177  1.00 20.00     0.003 C 
HETATM    2  C2  UNL     1     -34.186  14.539  -3.076  1.00 20.00     0.005 C 
HETATM    3  C5  UNL     1     -34.813  13.657  -5.360  1.00 20.00     0.032 C 
HETATM    4  C6  UNL     1     -35.196  16.093  -4.796  1.00 20.00     0.036 C 
HETATM    5  C8  UNL     1     -34.224  15.976  -3.611  1.00 20.00    -0.008 C 
HETATM    6  C9  UNL     1     -34.881  15.083  -5.902  1.00 20.00     0.118 C 
ENDROOT
BRANCH   5   7
HETATM    7  C7  UNL     1     -34.610  16.954  -2.501  1.00 20.00    -0.010 A 
HETATM    8  C3  UNL     1     -34.715  16.482  -1.078  1.00 20.00     0.005 A 
HETATM    9  C4  UNL     1     -33.589  17.390  -1.487  1.00 20.00     0.005 A 
ENDBRANCH   5   7
BRANCH   6  10
HETATM   10  O10 UNL     1     -33.631  15.402  -6.508  1.00 20.00    -0.396 OA
HETATM   11  H26 UNL     1     -32.943  15.112  -5.889  1.00 20.00     0.210 HD
ENDBRANCH   6  10
TORSDOF 2
ENDMDL
MODEL 6
REMARK VINA RESULT:      -4.3      1.738      4.042
REMARK  2 active torsions:
REMARK  status: ('A' for Active; 'I' for Inactive)
REMARK    1  A    between atoms: C7_7  and  C8_8 
REMARK    2  A    between atoms: C9_9  and  O10_10 
ROOT
HETATM    1  C1  UNL     1     -33.654  16.068  -3.803  1.00 20.00     0.003 C 
HETATM    2  C2  UNL     1     -34.174  16.283  -5.221  1.00 20.00     0.005 C 
HETATM    3  C5  UNL     1     -34.380  14.919  -3.104  1.00 20.00     0.032 C 
HETATM    4  C6  UNL     1     -34.837  13.847  -5.350  1.00 20.00     0.036 C 
HETATM    5  C8  UNL     1     -34.100  14.997  -6.054  1.00 20.00    -0.008 C 
HETATM    6  C9  UNL     1     -34.335  13.628  -3.921  1.00 20.00     0.118 C 
ENDROOT
BRANCH   5   7
HETATM    7  C7  UNL     1     -34.673  15.226  -7.452  1.00 20.00    -0.010 A 
HETATM    8  C3  UNL     1     -35.873  14.449  -7.917  1.00 20.00     0.005 A 
HETATM    9  C4  UNL     1     -35.996  15.919  -7.624  1.00 20.00     0.005 A 
ENDBRANCH   5   7
BRANCH   6  10
HETATM   10  O10 UNL     1     -32.992  13.151  -3.947  1.00 20.00    -0.396 OA
HETATM   11  H26 UNL     1     -32.833  12.824  -4.847  1.00 20.00     0.210 HD
ENDBRANCH   6  10
TORSDOF 2
ENDMDL
MODEL 7
REMARK VINA RESULT:      -4.3     10.804     11.984
REMARK  2 active torsions:
REMARK  status: ('A' for Active; 'I' for Inactive)
REMARK    1  A    between atoms: C7_7  and  C8_8 
REMARK    2  A    between atoms: C9_9  and  O10_10 
ROOT
HETATM    1  C1  UNL     1     -40.797   6.535  -0.192  1.00 20.00     0.003 C 
HETATM    2  C2  UNL     1     -41.662   7.229  -1.239  1.00 20.00     0.005 C 
HETATM    3  C5  UNL     1     -41.376   5.180   0.211  1.00 20.00     0.032 C 
HETATM    4  C6  UNL     1     -42.479   4.980  -2.057  1.00 20.00     0.036 C 
HETATM    5  C8  UNL     1     -41.889   6.339  -2.468  1.00 20.00    -0.008 C 
HETATM    6  C9  UNL     1     -41.627   4.279  -0.996  1.00 20.00     0.118 C 
ENDROOT
BRANCH   5   7
HETATM    7  C7  UNL     1     -42.800   7.036  -3.478  1.00 20.00    -0.010 A 
HETATM    8  C3  UNL     1     -43.417   8.367  -3.149  1.00 20.00     0.005 A 
HETATM    9  C4  UNL     1     -42.334   8.277  -4.188  1.00 20.00     0.005 A 
ENDBRANCH   5   7
BRANCH   6  10
HETATM   10  O10 UNL     1     -40.370   3.903  -1.555  1.00 20.00    -0.396 OA
HETATM   11  H26 UNL     1     -39.696   4.425  -1.092  1.00 20.00     0.210 HD
ENDBRANCH   6  10
TORSDOF 2
ENDMDL
MODEL 8
REMARK VINA RESULT:      -4.2     11.628     13.147
REMARK  2 active torsions:
REMARK  status: ('A' for Active; 'I' for Inactive)
REMARK    1  A    between atoms: C7_7  and  C8_8 
REMARK    2  A    between atoms: C9_9  and  O10_10 
ROOT
HETATM    1  C1  UNL     1     -40.823   5.774  -0.206  1.00 20.00     0.003 C 
HETATM    2  C2  UNL     1     -41.027   4.667  -1.236  1.00 20.00     0.005 C 
HETATM    3  C5  UNL     1     -40.961   7.161  -0.833  1.00 20.00     0.032 C 
HETATM    4  C6  UNL     1     -42.499   6.205  -2.600  1.00 20.00     0.036 C 
HETATM    5  C8  UNL     1     -42.369   4.811  -1.966  1.00 20.00    -0.008 C 
HETATM    6  C9  UNL     1     -42.283   7.325  -1.580  1.00 20.00     0.118 C 
ENDROOT
BRANCH   5   7
HETATM    7  C7  UNL     1     -42.525   3.721  -3.026  1.00 20.00    -0.010 A 
HETATM    8  C3  UNL     1     -41.502   2.625  -3.143  1.00 20.00     0.005 A 
HETATM    9  C4  UNL     1     -42.879   2.317  -2.623  1.00 20.00     0.005 A 
ENDBRANCH   5   7
BRANCH   6  10
HETATM   10  O10 UNL     1     -43.348   7.327  -0.631  1.00 20.00    -0.396 OA
HETATM   11  H26 UNL     1     -43.281   6.493  -0.141  1.00 20.00     0.210 HD
ENDBRANCH   6  10
TORSDOF 2
ENDMDL
MODEL 9
REMARK VINA RESULT:      -4.1     10.844     12.012
REMARK  2 active torsions:
REMARK  status: ('A' for Active; 'I' for Inactive)
REMARK    1  A    between atoms: C7_7  and  C8_8 
REMARK    2  A    between atoms: C9_9  and  O10_10 
ROOT
HETATM    1  C1  UNL     1     -42.134   4.215  -1.847  1.00 20.00     0.003 C 
HETATM    2  C2  UNL     1     -42.575   5.409  -2.687  1.00 20.00     0.005 C 
HETATM    3  C5  UNL     1     -40.788   4.468  -1.168  1.00 20.00     0.032 C 
HETATM    4  C6  UNL     1     -41.251   6.955  -1.187  1.00 20.00     0.036 C 
HETATM    5  C8  UNL     1     -42.609   6.702  -1.862  1.00 20.00    -0.008 C 
HETATM    6  C9  UNL     1     -40.790   5.759  -0.351  1.00 20.00     0.118 C 
ENDROOT
BRANCH   5   7
HETATM    7  C7  UNL     1     -43.004   7.891  -2.738  1.00 20.00    -0.010 A 
HETATM    8  C3  UNL     1     -42.105   8.339  -3.856  1.00 20.00     0.005 A 
HETATM    9  C4  UNL     1     -43.417   7.674  -4.167  1.00 20.00     0.005 A 
ENDBRANCH   5   7
BRANCH   6  10
HETATM   10  O10 UNL     1     -41.655   5.590   0.770  1.00 20.00    -0.396 OA
HETATM   11  H26 UNL     1     -41.782   4.634   0.878  1.00 20.00     0.210 HD
ENDBRANCH   6  10
TORSDOF 2
ENDMDL
