MODEL 1
REMARK VINA RESULT:      -5.8      0.000      0.000
REMARK  2 active torsions:
REMARK  status: ('A' for Active; 'I' for Inactive)
REMARK    1  A    between atoms: C7_7  and  C8_8 
REMARK    2  A    between atoms: C9_9  and  O10_10 
ROOT
HETATM    1  C1  UNL     1     -34.123   6.619   6.434  1.00 20.00     0.003 C 
HETATM    2  C2  UNL     1     -33.048   6.885   5.381  1.00 20.00     0.005 C 
HETATM    3  C5  UNL     1     -34.672   5.202   6.329  1.00 20.00     0.032 C 
HETATM    4  C6  UNL     1     -34.107   5.160   3.868  1.00 20.00     0.036 C 
HETATM    5  C8  UNL     1     -33.555   6.588   3.963  1.00 20.00    -0.008 C 
HETATM    6  C9  UNL     1     -35.183   4.899   4.922  1.00 20.00     0.118 C 
ENDROOT
BRANCH   5   7
HETATM    7  C7  UNL     1     -32.447   6.808   2.936  1.00 20.00    -0.010 A 
HETATM    8  C3  UNL     1     -32.327   8.126   2.221  1.00 20.00     0.005 A 
HETATM    9  C4  UNL     1     -31.300   7.730   3.245  1.00 20.00     0.005 A 
ENDBRANCH   5   7
BRANCH   6  10
HETATM   10  O10 UNL     1     -35.583   3.534   4.869  1.00 20.00    -0.396 OA
HETATM   11  H26 UNL     1     -35.356   3.212   3.982  1.00 20.00     0.210 HD
ENDBRANCH   6  10
TORSDOF 2
ENDMDL
MODEL 2
REMARK VINA RESULT:      -4.7     11.436     12.710
REMARK  2 active torsions:
REMARK  status: ('A' for Active; 'I' for Inactive)
REMARK    1  A    between atoms: C7_7  and  C8_8 
REMARK    2  A    between atoms: C9_9  and  O10_10 
ROOT
HETATM    1  C1  UNL     1     -33.832  16.080  -5.472  1.00 20.00     0.003 C 
HETATM    2  C2  UNL     1     -34.300  16.665  -4.141  1.00 20.00     0.005 C 
HETATM    3  C5  UNL     1     -34.433  14.703  -5.720  1.00 20.00     0.032 C 
HETATM    4  C6  UNL     1     -34.625  14.332  -3.231  1.00 20.00     0.036 C 
HETATM    5  C8  UNL     1     -34.017  15.715  -2.969  1.00 20.00    -0.008 C 
HETATM    6  C9  UNL     1     -34.153  13.748  -4.562  1.00 20.00     0.118 C 
ENDROOT
BRANCH   5   7
HETATM    7  C7  UNL     1     -34.543  16.298  -1.660  1.00 20.00    -0.010 A 
HETATM    8  C3  UNL     1     -33.755  17.349  -0.928  1.00 20.00     0.005 A 
HETATM    9  C4  UNL     1     -35.044  17.715  -1.610  1.00 20.00     0.005 A 
ENDBRANCH   5   7
BRANCH   6  10
HETATM   10  O10 UNL     1     -34.828  12.520  -4.813  1.00 20.00    -0.396 OA
HETATM   11  H26 UNL     1     -34.158  11.898  -5.140  1.00 20.00     0.210 HD
ENDBRANCH   6  10
TORSDOF 2
ENDMDL
MODEL 3
REMARK VINA RESULT:      -4.4     11.448     12.283
REMARK  2 active torsions:
REMARK  status: ('A' for Active; 'I' for Inactive)
REMARK    1  A    between atoms: C7_7  and  C8_8 
REMARK    2  A    between atoms: C9_9  and  O10_10 
ROOT
HETATM    1  C1  UNL     1     -36.398  14.982  -4.352  1.00 20.00     0.003 C 
HETATM    2  C2  UNL     1     -36.197  15.557  -2.951  1.00 20.00     0.005 C 
HETATM    3  C5  UNL     1     -35.501  13.774  -4.595  1.00 20.00     0.032 C 
HETATM    4  C6  UNL     1     -33.832  14.672  -2.928  1.00 20.00     0.036 C 
HETATM    5  C8  UNL     1     -34.725  15.893  -2.679  1.00 20.00    -0.008 C 
HETATM    6  C9  UNL     1     -34.033  14.100  -4.331  1.00 20.00     0.118 C 
ENDROOT
BRANCH   5   7
HETATM    7  C7  UNL     1     -34.544  16.414  -1.255  1.00 20.00    -0.010 A 
HETATM    8  C3  UNL     1     -33.745  17.663  -1.000  1.00 20.00     0.005 A 
HETATM    9  C4  UNL     1     -35.237  17.673  -0.814  1.00 20.00     0.005 A 
ENDBRANCH   5   7
BRANCH   6  10
HETATM   10  O10 UNL     1     -33.270  12.907  -4.476  1.00 20.00    -0.396 OA
HETATM   11  H26 UNL     1     -32.364  13.182  -4.691  1.00 20.00     0.210 HD
ENDBRANCH   6  10
TORSDOF 2
ENDMDL
MODEL 4
REMARK VINA RESULT:      -4.4     11.508     13.701
REMARK  2 active torsions:
REMARK  status: ('A' for Active; 'I' for Inactive)
REMARK    1  A    between atoms: C7_7  and  C8_8 
REMARK    2  A    between atoms: C9_9  and  O10_10 
ROOT
HETATM    1  C1  UNL     1     -33.376  15.752  -3.618  1.00 20.00     0.003 C 
HETATM    2  C2  UNL     1     -33.336  16.242  -5.064  1.00 20.00     0.005 C 
HETATM    3  C5  UNL     1     -33.687  14.263  -3.539  1.00 20.00     0.032 C 
HETATM    4  C6  UNL     1     -34.935  14.403  -5.729  1.00 20.00     0.036 C 
HETATM    5  C8  UNL     1     -34.631  15.904  -5.816  1.00 20.00    -0.008 C 
HETATM    6  C9  UNL     1     -34.976  13.917  -4.281  1.00 20.00     0.118 C 
ENDROOT
BRANCH   5   7
HETATM    7  C7  UNL     1     -34.544  16.354  -7.272  1.00 20.00    -0.010 A 
HETATM    8  C3  UNL     1     -35.705  17.059  -7.918  1.00 20.00     0.005 A 
HETATM    9  C4  UNL     1     -34.444  17.816  -7.608  1.00 20.00     0.005 A 
ENDBRANCH   5   7
BRANCH   6  10
HETATM   10  O10 UNL     1     -35.148  12.504  -4.255  1.00 20.00    -0.396 OA
HETATM   11  H26 UNL     1     -34.295  12.125  -3.989  1.00 20.00     0.210 HD
ENDBRANCH   6  10
TORSDOF 2
ENDMDL
MODEL 5
REMARK VINA RESULT:      -4.3     12.253     13.274
REMARK  2 active torsions:
REMARK  status: ('A' for Active; 'I' for Inactive)
REMARK    1  A    between atoms: C7_7  and  C8_8 
REMARK    2  A    between atoms: C9_9  and  O10_10 
ROOT
HETATM    1  C1  UNL     1     -36.730  15.215  -4.565  1.00 20.00     0.003 C 
HETATM    2  C2  UNL     1     -35.972  15.322  -3.244  1.00 20.00     0.005 C 
HETATM    3  C5  UNL     1     -35.815  14.779  -5.703  1.00 20.00     0.032 C 
HETATM    4  C6  UNL     1     -33.838  15.796  -4.509  1.00 20.00     0.036 C 
HETATM    5  C8  UNL     1     -34.751  16.244  -3.361  1.00 20.00    -0.008 C 
HETATM    6  C9  UNL     1     -34.599  15.693  -5.830  1.00 20.00     0.118 C 
ENDROOT
BRANCH   5   7
HETATM    7  C7  UNL     1     -33.980  16.289  -2.044  1.00 20.00    -0.010 A 
HETATM    8  C3  UNL     1     -33.716  17.606  -1.365  1.00 20.00     0.005 A 
HETATM    9  C4  UNL     1     -34.688  16.631  -0.762  1.00 20.00     0.005 A 
ENDBRANCH   5   7
BRANCH   6  10
HETATM   10  O10 UNL     1     -33.741  15.168  -6.838  1.00 20.00    -0.396 OA
HETATM   11  H26 UNL     1     -33.101  14.595  -6.386  1.00 20.00     0.210 HD
ENDBRANCH   6  10
TORSDOF 2
ENDMDL
MODEL 6
REMARK VINA RESULT:      -4.1     12.238     13.192
REMARK  2 active torsions:
REMARK  status: ('A' for Active; 'I' for Inactive)
REMARK    1  A    between atoms: C7_7  and  C8_8 
REMARK    2  A    between atoms: C9_9  and  O10_10 
ROOT
HETATM    1  C1  UNL     1     -36.070  16.212  -4.163  1.00 20.00     0.003 C 
HETATM    2  C2  UNL     1     -35.953  16.162  -2.641  1.00 20.00     0.005 C 
HETATM    3  C5  UNL     1     -34.808  15.691  -4.839  1.00 20.00     0.032 C 
HETATM    4  C6  UNL     1     -33.443  16.373  -2.829  1.00 20.00     0.036 C 
HETATM    5  C8  UNL     1     -34.707  16.905  -2.141  1.00 20.00    -0.008 C 
HETATM    6  C9  UNL     1     -33.563  16.426  -4.351  1.00 20.00     0.118 C 
ENDROOT
BRANCH   5   7
HETATM    7  C7  UNL     1     -34.583  16.793  -0.623  1.00 20.00    -0.010 A 
HETATM    8  C3  UNL     1     -33.948  17.903   0.169  1.00 20.00     0.005 A 
HETATM    9  C4  UNL     1     -35.428  17.658   0.271  1.00 20.00     0.005 A 
ENDBRANCH   5   7
BRANCH   6  10
HETATM   10  O10 UNL     1     -32.418  15.821  -4.943  1.00 20.00    -0.396 OA
HETATM   11  H26 UNL     1     -32.461  16.015  -5.893  1.00 20.00     0.210 HD
ENDBRANCH   6  10
TORSDOF 2
ENDMDL
MODEL 7
REMARK VINA RESULT:      -4.1      9.705     11.004
REMARK  2 active torsions:
REMARK  status: ('A' for Active; 'I' for Inactive)
REMARK    1  A    between atoms: C7_7  and  C8_8 
REMARK    2  A    between atoms: C9_9  and  O10_10 
ROOT
HETATM    1  C1  UNL     1     -42.565   4.693   0.602  1.00 20.00     0.003 C 
HETATM    2  C2  UNL     1     -42.958   3.885  -0.633  1.00 20.00     0.005 C 
HETATM    3  C5  UNL     1     -42.293   6.151   0.255  1.00 20.00     0.032 C 
HETATM    4  C6  UNL     1     -41.645   5.477  -2.090  1.00 20.00     0.036 C 
HETATM    5  C8  UNL     1     -41.912   4.005  -1.749  1.00 20.00    -0.008 C 
HETATM    6  C9  UNL     1     -41.249   6.281  -0.852  1.00 20.00     0.118 C 
ENDROOT
BRANCH   5   7
HETATM    7  C7  UNL     1     -42.354   3.235  -2.991  1.00 20.00    -0.010 A 
HETATM    8  C3  UNL     1     -41.505   2.117  -3.531  1.00 20.00     0.005 A 
HETATM    9  C4  UNL     1     -42.821   1.810  -2.872  1.00 20.00     0.005 A 
ENDBRANCH   5   7
BRANCH   6  10
HETATM   10  O10 UNL     1     -41.122   7.657  -1.196  1.00 20.00    -0.396 OA
HETATM   11  H26 UNL     1     -41.648   7.792  -2.001  1.00 20.00     0.210 HD
ENDBRANCH   6  10
TORSDOF 2
ENDMDL
MODEL 8
REMARK VINA RESULT:      -4.0     10.200     11.038
REMARK  2 active torsions:
REMARK  status: ('A' for Active; 'I' for Inactive)
REMARK    1  A    between atoms: C7_7  and  C8_8 
REMARK    2  A    between atoms: C9_9  and  O10_10 
ROOT
HETATM    1  C1  UNL     1     -42.229   4.395  -2.200  1.00 20.00     0.003 C 
HETATM    2  C2  UNL     1     -42.865   5.639  -2.818  1.00 20.00     0.005 C 
HETATM    3  C5  UNL     1     -41.787   4.647  -0.763  1.00 20.00     0.032 C 
HETATM    4  C6  UNL     1     -41.498   7.101  -1.277  1.00 20.00     0.036 C 
HETATM    5  C8  UNL     1     -41.938   6.858  -2.726  1.00 20.00    -0.008 C 
HETATM    6  C9  UNL     1     -40.860   5.856  -0.663  1.00 20.00     0.118 C 
ENDROOT
BRANCH   5   7
HETATM    7  C7  UNL     1     -42.618   8.099  -3.300  1.00 20.00    -0.010 A 
HETATM    8  C3  UNL     1     -42.101   8.730  -4.564  1.00 20.00     0.005 A 
HETATM    9  C4  UNL     1     -43.417   8.005  -4.570  1.00 20.00     0.005 A 
ENDBRANCH   5   7
BRANCH   6  10
HETATM   10  O10 UNL     1     -40.572   6.093   0.711  1.00 20.00    -0.396 OA
HETATM   11  H26 UNL     1     -41.182   5.537   1.223  1.00 20.00     0.210 HD
ENDBRANCH   6  10
TORSDOF 2
ENDMDL
MODEL 9
REMARK VINA RESULT:      -4.0     11.279     12.641
REMARK  2 active torsions:
REMARK  status: ('A' for Active; 'I' for Inactive)
REMARK    1  A    between atoms: C7_7  and  C8_8 
REMARK    2  A    between atoms: C9_9  and  O10_10 
ROOT
HETATM    1  C1  UNL     1     -34.412  16.095  -2.526  1.00 20.00     0.003 C 
HETATM    2  C2  UNL     1     -35.733  16.248  -3.276  1.00 20.00     0.005 C 
HETATM    3  C5  UNL     1     -33.459  15.156  -3.255  1.00 20.00     0.032 C 
HETATM    4  C6  UNL     1     -35.426  13.952  -4.284  1.00 20.00     0.036 C 
HETATM    5  C8  UNL     1     -36.393  14.890  -3.551  1.00 20.00    -0.008 C 
HETATM    6  C9  UNL     1     -34.105  13.800  -3.529  1.00 20.00     0.118 C 
ENDROOT
BRANCH   5   7
HETATM    7  C7  UNL     1     -37.682  15.067  -4.349  1.00 20.00    -0.010 A 
HETATM    8  C3  UNL     1     -39.018  14.955  -3.666  1.00 20.00     0.005 A 
HETATM    9  C4  UNL     1     -38.532  16.292  -4.154  1.00 20.00     0.005 A 
ENDBRANCH   5   7
BRANCH   6  10
HETATM   10  O10 UNL     1     -33.201  13.015  -4.299  1.00 20.00    -0.396 OA
HETATM   11  H26 UNL     1     -33.028  12.209  -3.787  1.00 20.00     0.210 HD
ENDBRANCH   6  10
TORSDOF 2
ENDMDL
