MODEL 1
REMARK VINA RESULT:      -4.6      0.000      0.000
REMARK  0 active torsions:
REMARK  status: ('A' for Active; 'I' for Inactive)
ROOT
HETATM    1  C1  UNL     1     -33.211  13.781  -3.699  1.00 20.00     0.005 C 
HETATM    2  C2  UNL     1     -34.660  15.551  -2.698  1.00 20.00     0.005 C 
HETATM    3  C3  UNL     1     -34.368  13.348  -4.616  1.00 20.00     0.008 C 
HETATM    4  C4  UNL     1     -35.824  15.123  -3.613  1.00 20.00     0.008 C 
HETATM    5  C5  UNL     1     -33.260  16.075  -4.717  1.00 20.00     0.045 C 
HETATM    6  C6  UNL     1     -34.962  16.511  -6.665  1.00 20.00     0.207 A 
HETATM    7  C7  UNL     1     -33.307  15.288  -3.388  1.00 20.00    -0.012 C 
HETATM    8  C8  UNL     1     -35.274  14.553  -4.934  1.00 20.00     0.022 C 
HETATM    9  C9  UNL     1     -34.422  15.629  -5.567  1.00 20.00     0.086 A 
HETATM   10  O10 UNL     1     -34.100  15.401  -6.946  1.00 20.00    -0.375 OA
ENDROOT
TORSDOF 0
ENDMDL
MODEL 2
REMARK VINA RESULT:      -4.5      1.359      2.618
REMARK  0 active torsions:
REMARK  status: ('A' for Active; 'I' for Inactive)
ROOT
HETATM    1  C1  UNL     1     -33.238  16.033  -4.681  1.00 20.00     0.005 C 
HETATM    2  C2  UNL     1     -33.410  13.740  -3.709  1.00 20.00     0.005 C 
HETATM    3  C3  UNL     1     -34.213  15.634  -5.803  1.00 20.00     0.008 C 
HETATM    4  C4  UNL     1     -34.386  13.332  -4.829  1.00 20.00     0.008 C 
HETATM    5  C5  UNL     1     -35.003  15.535  -2.968  1.00 20.00     0.045 C 
HETATM    6  C6  UNL     1     -37.365  14.784  -3.828  1.00 20.00     0.207 A 
HETATM    7  C7  UNL     1     -33.547  15.243  -3.395  1.00 20.00    -0.012 C 
HETATM    8  C8  UNL     1     -35.193  14.558  -5.298  1.00 20.00     0.022 C 
HETATM    9  C9  UNL     1     -35.915  15.108  -4.089  1.00 20.00     0.086 A 
HETATM   10  O10 UNL     1     -36.963  16.039  -4.393  1.00 20.00    -0.375 OA
ENDROOT
TORSDOF 0
ENDMDL
MODEL 3
REMARK VINA RESULT:      -4.5      1.799      2.788
REMARK  0 active torsions:
REMARK  status: ('A' for Active; 'I' for Inactive)
ROOT
HETATM    1  C1  UNL     1     -33.706  16.888  -2.350  1.00 20.00     0.005 C 
HETATM    2  C2  UNL     1     -34.961  17.379  -4.452  1.00 20.00     0.005 C 
HETATM    3  C3  UNL     1     -34.842  15.959  -1.885  1.00 20.00     0.008 C 
HETATM    4  C4  UNL     1     -36.103  16.452  -3.993  1.00 20.00     0.008 C 
HETATM    5  C5  UNL     1     -33.357  15.448  -4.376  1.00 20.00     0.045 C 
HETATM    6  C6  UNL     1     -34.832  13.292  -4.613  1.00 20.00     0.207 A 
HETATM    7  C7  UNL     1     -33.612  16.891  -3.888  1.00 20.00    -0.012 C 
HETATM    8  C8  UNL     1     -35.543  15.327  -3.102  1.00 20.00     0.022 C 
HETATM    9  C9  UNL     1     -34.504  14.588  -3.913  1.00 20.00     0.086 A 
HETATM   10  O10 UNL     1     -34.117  13.317  -3.371  1.00 20.00    -0.375 OA
ENDROOT
TORSDOF 0
ENDMDL
MODEL 4
REMARK VINA RESULT:      -4.4      1.331      2.088
REMARK  0 active torsions:
REMARK  status: ('A' for Active; 'I' for Inactive)
ROOT
HETATM    1  C1  UNL     1     -34.711  13.276  -5.207  1.00 20.00     0.005 C 
HETATM    2  C2  UNL     1     -36.440  14.495  -3.882  1.00 20.00     0.005 C 
HETATM    3  C3  UNL     1     -34.742  14.384  -6.274  1.00 20.00     0.008 C 
HETATM    4  C4  UNL     1     -36.478  15.609  -4.946  1.00 20.00     0.008 C 
HETATM    5  C5  UNL     1     -34.003  14.955  -3.481  1.00 20.00     0.045 C 
HETATM    6  C6  UNL     1     -33.609  17.426  -4.269  1.00 20.00     0.207 A 
HETATM    7  C7  UNL     1     -35.038  13.858  -3.819  1.00 20.00    -0.012 C 
HETATM    8  C8  UNL     1     -35.102  15.735  -5.627  1.00 20.00     0.022 C 
HETATM    9  C9  UNL     1     -34.089  16.022  -4.542  1.00 20.00     0.086 A 
HETATM   10  O10 UNL     1     -32.821  16.493  -5.019  1.00 20.00    -0.375 OA
ENDROOT
TORSDOF 0
ENDMDL
MODEL 5
REMARK VINA RESULT:      -4.4     11.459     12.441
REMARK  0 active torsions:
REMARK  status: ('A' for Active; 'I' for Inactive)
ROOT
HETATM    1  C1  UNL     1     -40.676   4.514  -1.173  1.00 20.00     0.005 C 
HETATM    2  C2  UNL     1     -42.230   5.405   0.567  1.00 20.00     0.005 C 
HETATM    3  C3  UNL     1     -41.854   4.362  -2.152  1.00 20.00     0.008 C 
HETATM    4  C4  UNL     1     -43.414   5.256  -0.406  1.00 20.00     0.008 C 
HETATM    5  C5  UNL     1     -41.108   6.982  -1.034  1.00 20.00     0.045 C 
HETATM    6  C6  UNL     1     -43.031   7.973  -2.517  1.00 20.00     0.207 A 
HETATM    7  C7  UNL     1     -40.928   5.689  -0.208  1.00 20.00    -0.012 C 
HETATM    8  C8  UNL     1     -42.929   5.426  -1.858  1.00 20.00     0.022 C 
HETATM    9  C9  UNL     1     -42.282   6.789  -1.958  1.00 20.00     0.086 A 
HETATM   10  O10 UNL     1     -42.069   7.252  -3.299  1.00 20.00    -0.375 OA
ENDROOT
TORSDOF 0
ENDMDL
MODEL 6
REMARK VINA RESULT:      -4.3      1.811      2.995
REMARK  0 active torsions:
REMARK  status: ('A' for Active; 'I' for Inactive)
ROOT
HETATM    1  C1  UNL     1     -33.501  13.624  -3.866  1.00 20.00     0.005 C 
HETATM    2  C2  UNL     1     -34.622  14.369  -5.969  1.00 20.00     0.005 C 
HETATM    3  C3  UNL     1     -32.978  15.053  -3.635  1.00 20.00     0.008 C 
HETATM    4  C4  UNL     1     -34.102  15.801  -5.746  1.00 20.00     0.008 C 
HETATM    5  C5  UNL     1     -35.861  14.475  -3.786  1.00 20.00     0.045 C 
HETATM    6  C6  UNL     1     -36.225  17.027  -3.301  1.00 20.00     0.207 A 
HETATM    7  C7  UNL     1     -34.846  13.660  -4.618  1.00 20.00    -0.012 C 
HETATM    8  C8  UNL     1     -33.954  16.080  -4.238  1.00 20.00     0.022 C 
HETATM    9  C9  UNL     1     -35.311  15.866  -3.607  1.00 20.00     0.086 A 
HETATM   10  O10 UNL     1     -35.442  16.395  -2.280  1.00 20.00    -0.375 OA
ENDROOT
TORSDOF 0
ENDMDL
MODEL 7
REMARK VINA RESULT:      -4.3      1.851      3.179
REMARK  0 active torsions:
REMARK  status: ('A' for Active; 'I' for Inactive)
ROOT
HETATM    1  C1  UNL     1     -34.663  13.265  -4.240  1.00 20.00     0.005 C 
HETATM    2  C2  UNL     1     -35.108  15.157  -5.806  1.00 20.00     0.005 C 
HETATM    3  C3  UNL     1     -33.395  13.976  -3.736  1.00 20.00     0.008 C 
HETATM    4  C4  UNL     1     -33.840  15.875  -5.308  1.00 20.00     0.008 C 
HETATM    5  C5  UNL     1     -36.056  15.210  -3.481  1.00 20.00     0.045 C 
HETATM    6  C6  UNL     1     -34.836  17.186  -2.262  1.00 20.00     0.207 A 
HETATM    7  C7  UNL     1     -35.718  14.298  -4.681  1.00 20.00    -0.012 C 
HETATM    8  C8  UNL     1     -33.566  15.503  -3.838  1.00 20.00     0.022 C 
HETATM    9  C9  UNL     1     -34.788  15.895  -3.041  1.00 20.00     0.086 A 
HETATM   10  O10 UNL     1     -34.589  15.928  -1.621  1.00 20.00    -0.375 OA
ENDROOT
TORSDOF 0
ENDMDL
MODEL 8
REMARK VINA RESULT:      -4.3     11.784     12.927
REMARK  0 active torsions:
REMARK  status: ('A' for Active; 'I' for Inactive)
ROOT
HETATM    1  C1  UNL     1     -40.880   7.263  -0.793  1.00 20.00     0.005 C 
HETATM    2  C2  UNL     1     -43.338   7.040  -0.418  1.00 20.00     0.005 C 
HETATM    3  C3  UNL     1     -40.642   5.942  -0.041  1.00 20.00     0.008 C 
HETATM    4  C4  UNL     1     -43.108   5.717   0.337  1.00 20.00     0.008 C 
HETATM    5  C5  UNL     1     -42.292   6.051  -2.477  1.00 20.00     0.045 C 
HETATM    6  C6  UNL     1     -42.542   3.452  -2.219  1.00 20.00     0.207 A 
HETATM    7  C7  UNL     1     -42.252   7.242  -1.493  1.00 20.00    -0.012 C 
HETATM    8  C8  UNL     1     -41.855   5.008  -0.210  1.00 20.00     0.022 C 
HETATM    9  C9  UNL     1     -42.075   4.785  -1.688  1.00 20.00     0.086 A 
HETATM   10  O10 UNL     1     -41.167   3.853  -2.293  1.00 20.00    -0.375 OA
ENDROOT
TORSDOF 0
ENDMDL
MODEL 9
REMARK VINA RESULT:      -4.3      1.773      3.386
REMARK  0 active torsions:
REMARK  status: ('A' for Active; 'I' for Inactive)
ROOT
HETATM    1  C1  UNL     1     -36.839  15.146  -6.734  1.00 20.00     0.005 C 
HETATM    2  C2  UNL     1     -35.446  16.869  -5.583  1.00 20.00     0.005 C 
HETATM    3  C3  UNL     1     -35.564  14.459  -7.255  1.00 20.00     0.008 C 
HETATM    4  C4  UNL     1     -34.165  16.189  -6.101  1.00 20.00     0.008 C 
HETATM    5  C5  UNL     1     -36.081  14.762  -4.372  1.00 20.00     0.045 C 
HETATM    6  C6  UNL     1     -33.838  13.452  -4.005  1.00 20.00     0.207 A 
HETATM    7  C7  UNL     1     -36.565  15.828  -5.380  1.00 20.00    -0.012 C 
HETATM    8  C8  UNL     1     -34.402  14.675  -6.267  1.00 20.00     0.022 C 
HETATM    9  C9  UNL     1     -34.824  14.137  -4.920  1.00 20.00     0.086 A 
HETATM   10  O10 UNL     1     -34.768  12.708  -4.803  1.00 20.00    -0.375 OA
ENDROOT
TORSDOF 0
ENDMDL
