MODEL 1
REMARK VINA RESULT:      -4.9      0.000      0.000
REMARK  0 active torsions:
REMARK  status: ('A' for Active; 'I' for Inactive)
ROOT
HETATM    1  C1  UNL     1     -34.399  14.329  -3.394  1.00 20.00     0.132 C 
HETATM    2  C2  UNL     1     -35.781  14.946  -3.579  1.00 20.00     0.084 C 
HETATM    3  C3  UNL     1     -33.181  16.114  -4.482  1.00 20.00     0.013 C 
HETATM    4  C4  UNL     1     -34.547  16.811  -4.753  1.00 20.00     0.006 C 
HETATM    5  C5  UNL     1     -33.863  17.638  -1.685  1.00 20.00     0.011 A 
HETATM    6  C6  UNL     1     -34.572  16.504  -0.979  1.00 20.00     0.011 A 
HETATM    7  C7  UNL     1     -33.399  15.448  -3.110  1.00 20.00     0.064 C 
HETATM    8  C8  UNL     1     -35.396  16.450  -3.504  1.00 20.00     0.002 C 
HETATM    9  C9  UNL     1     -34.318  16.434  -2.457  1.00 20.00    -0.026 A 
HETATM   10  O10 UNL     1     -34.133  13.142  -3.489  1.00 20.00    -0.298 OA
ENDROOT
TORSDOF 0
ENDMDL
MODEL 2
REMARK VINA RESULT:      -4.9      1.157      2.864
REMARK  0 active torsions:
REMARK  status: ('A' for Active; 'I' for Inactive)
ROOT
HETATM    1  C1  UNL     1     -34.652  13.738  -4.170  1.00 20.00     0.132 C 
HETATM    2  C2  UNL     1     -33.229  14.047  -3.717  1.00 20.00     0.084 C 
HETATM    3  C3  UNL     1     -35.708  15.505  -2.898  1.00 20.00     0.013 C 
HETATM    4  C4  UNL     1     -34.300  15.880  -2.348  1.00 20.00     0.006 C 
HETATM    5  C5  UNL     1     -34.397  17.332  -5.256  1.00 20.00     0.011 A 
HETATM    6  C6  UNL     1     -33.787  16.224  -6.085  1.00 20.00     0.011 A 
HETATM    7  C7  UNL     1     -35.408  15.055  -4.341  1.00 20.00     0.064 C 
HETATM    8  C8  UNL     1     -33.352  15.588  -3.543  1.00 20.00     0.002 C 
HETATM    9  C9  UNL     1     -34.257  15.950  -4.686  1.00 20.00    -0.026 A 
HETATM   10  O10 UNL     1     -35.117  12.622  -4.336  1.00 20.00    -0.298 OA
ENDROOT
TORSDOF 0
ENDMDL
MODEL 3
REMARK VINA RESULT:      -4.8      1.843      2.617
REMARK  0 active torsions:
REMARK  status: ('A' for Active; 'I' for Inactive)
ROOT
HETATM    1  C1  UNL     1     -36.555  14.572  -4.114  1.00 20.00     0.132 C 
HETATM    2  C2  UNL     1     -36.371  15.855  -4.919  1.00 20.00     0.084 C 
HETATM    3  C3  UNL     1     -34.879  13.292  -5.300  1.00 20.00     0.013 C 
HETATM    4  C4  UNL     1     -34.639  14.538  -6.202  1.00 20.00     0.006 C 
HETATM    5  C5  UNL     1     -32.885  15.175  -3.540  1.00 20.00     0.011 A 
HETATM    6  C6  UNL     1     -33.931  15.934  -2.754  1.00 20.00     0.011 A 
HETATM    7  C7  UNL     1     -35.189  13.915  -3.925  1.00 20.00     0.064 C 
HETATM    8  C8  UNL     1     -34.854  15.736  -5.236  1.00 20.00     0.002 C 
HETATM    9  C9  UNL     1     -34.325  15.138  -3.963  1.00 20.00    -0.026 A 
HETATM   10  O10 UNL     1     -37.621  14.131  -3.717  1.00 20.00    -0.298 OA
ENDROOT
TORSDOF 0
ENDMDL
MODEL 4
REMARK VINA RESULT:      -4.7      1.962      3.555
REMARK  0 active torsions:
REMARK  status: ('A' for Active; 'I' for Inactive)
ROOT
HETATM    1  C1  UNL     1     -36.339  14.318  -4.177  1.00 20.00     0.132 C 
HETATM    2  C2  UNL     1     -35.212  13.291  -4.174  1.00 20.00     0.084 C 
HETATM    3  C3  UNL     1     -34.951  16.214  -3.603  1.00 20.00     0.013 C 
HETATM    4  C4  UNL     1     -33.737  15.241  -3.540  1.00 20.00     0.006 C 
HETATM    5  C5  UNL     1     -34.039  15.879  -6.713  1.00 20.00     0.011 A 
HETATM    6  C6  UNL     1     -34.950  14.732  -7.090  1.00 20.00     0.011 A 
HETATM    7  C7  UNL     1     -35.803  15.630  -4.746  1.00 20.00     0.064 C 
HETATM    8  C8  UNL     1     -34.044  14.200  -4.651  1.00 20.00     0.002 C 
HETATM    9  C9  UNL     1     -34.738  15.085  -5.647  1.00 20.00    -0.026 A 
HETATM   10  O10 UNL     1     -37.471  14.129  -3.763  1.00 20.00    -0.298 OA
ENDROOT
TORSDOF 0
ENDMDL
MODEL 5
REMARK VINA RESULT:      -4.6      1.237      1.881
REMARK  0 active torsions:
REMARK  status: ('A' for Active; 'I' for Inactive)
ROOT
HETATM    1  C1  UNL     1     -34.675  13.692  -4.713  1.00 20.00     0.132 C 
HETATM    2  C2  UNL     1     -34.982  14.767  -5.750  1.00 20.00     0.084 C 
HETATM    3  C3  UNL     1     -32.890  14.905  -3.618  1.00 20.00     0.013 C 
HETATM    4  C4  UNL     1     -33.100  16.048  -4.654  1.00 20.00     0.006 C 
HETATM    5  C5  UNL     1     -35.411  16.595  -2.434  1.00 20.00     0.011 A 
HETATM    6  C6  UNL     1     -36.531  15.802  -3.070  1.00 20.00     0.011 A 
HETATM    7  C7  UNL     1     -34.319  14.374  -3.393  1.00 20.00     0.064 C 
HETATM    8  C8  UNL     1     -34.632  16.030  -4.912  1.00 20.00     0.002 C 
HETATM    9  C9  UNL     1     -35.118  15.632  -3.548  1.00 20.00    -0.026 A 
HETATM   10  O10 UNL     1     -34.682  12.489  -4.915  1.00 20.00    -0.298 OA
ENDROOT
TORSDOF 0
ENDMDL
MODEL 6
REMARK VINA RESULT:      -4.6      1.712      3.199
REMARK  0 active torsions:
REMARK  status: ('A' for Active; 'I' for Inactive)
ROOT
HETATM    1  C1  UNL     1     -34.457  15.736  -2.868  1.00 20.00     0.132 C 
HETATM    2  C2  UNL     1     -35.909  15.418  -3.207  1.00 20.00     0.084 C 
HETATM    3  C3  UNL     1     -33.526  13.733  -3.856  1.00 20.00     0.013 C 
HETATM    4  C4  UNL     1     -34.977  13.298  -4.217  1.00 20.00     0.006 C 
HETATM    5  C5  UNL     1     -34.181  15.359  -6.602  1.00 20.00     0.011 A 
HETATM    6  C6  UNL     1     -34.708  16.636  -5.986  1.00 20.00     0.011 A 
HETATM    7  C7  UNL     1     -33.572  15.264  -4.021  1.00 20.00     0.064 C 
HETATM    8  C8  UNL     1     -35.691  14.640  -4.536  1.00 20.00     0.002 C 
HETATM    9  C9  UNL     1     -34.550  15.401  -5.147  1.00 20.00    -0.026 A 
HETATM   10  O10 UNL     1     -34.066  16.253  -1.835  1.00 20.00    -0.298 OA
ENDROOT
TORSDOF 0
ENDMDL
MODEL 7
REMARK VINA RESULT:      -4.5      1.956      2.749
REMARK  0 active torsions:
REMARK  status: ('A' for Active; 'I' for Inactive)
ROOT
HETATM    1  C1  UNL     1     -35.150  13.701  -4.632  1.00 20.00     0.132 C 
HETATM    2  C2  UNL     1     -36.015  14.665  -3.827  1.00 20.00     0.084 C 
HETATM    3  C3  UNL     1     -35.681  14.640  -6.799  1.00 20.00     0.013 C 
HETATM    4  C4  UNL     1     -36.620  15.649  -6.074  1.00 20.00     0.006 C 
HETATM    5  C5  UNL     1     -33.671  16.978  -5.745  1.00 20.00     0.011 A 
HETATM    6  C6  UNL     1     -33.291  16.364  -4.416  1.00 20.00     0.011 A 
HETATM    7  C7  UNL     1     -34.523  14.464  -5.797  1.00 20.00     0.064 C 
HETATM    8  C8  UNL     1     -35.892  15.925  -4.730  1.00 20.00     0.002 C 
HETATM    9  C9  UNL     1     -34.463  15.831  -5.187  1.00 20.00    -0.026 A 
HETATM   10  O10 UNL     1     -35.010  12.512  -4.401  1.00 20.00    -0.298 OA
ENDROOT
TORSDOF 0
ENDMDL
MODEL 8
REMARK VINA RESULT:      -4.5      1.476      2.368
REMARK  0 active torsions:
REMARK  status: ('A' for Active; 'I' for Inactive)
ROOT
HETATM    1  C1  UNL     1     -34.831  14.808  -5.314  1.00 20.00     0.132 C 
HETATM    2  C2  UNL     1     -33.880  15.988  -5.486  1.00 20.00     0.084 C 
HETATM    3  C3  UNL     1     -33.528  13.684  -3.612  1.00 20.00     0.013 C 
HETATM    4  C4  UNL     1     -32.476  14.826  -3.737  1.00 20.00     0.006 C 
HETATM    5  C5  UNL     1     -34.742  16.086  -1.775  1.00 20.00     0.011 A 
HETATM    6  C6  UNL     1     -35.604  16.754  -2.823  1.00 20.00     0.011 A 
HETATM    7  C7  UNL     1     -34.864  14.418  -3.837  1.00 20.00     0.064 C 
HETATM    8  C8  UNL     1     -33.336  16.085  -4.032  1.00 20.00     0.002 C 
HETATM    9  C9  UNL     1     -34.562  15.754  -3.228  1.00 20.00    -0.026 A 
HETATM   10  O10 UNL     1     -35.438  14.249  -6.212  1.00 20.00    -0.298 OA
ENDROOT
TORSDOF 0
ENDMDL
MODEL 9
REMARK VINA RESULT:      -4.5      2.110      3.168
REMARK  0 active torsions:
REMARK  status: ('A' for Active; 'I' for Inactive)
ROOT
HETATM    1  C1  UNL     1     -33.612  15.901  -4.720  1.00 20.00     0.132 C 
HETATM    2  C2  UNL     1     -33.298  15.002  -3.528  1.00 20.00     0.084 C 
HETATM    3  C3  UNL     1     -34.768  14.211  -6.009  1.00 20.00     0.013 C 
HETATM    4  C4  UNL     1     -34.468  13.203  -4.860  1.00 20.00     0.006 C 
HETATM    5  C5  UNL     1     -37.093  14.804  -3.804  1.00 20.00     0.011 A 
HETATM    6  C6  UNL     1     -36.396  15.903  -3.034  1.00 20.00     0.011 A 
HETATM    7  C7  UNL     1     -34.995  15.536  -5.256  1.00 20.00     0.064 C 
HETATM    8  C8  UNL     1     -34.546  14.076  -3.578  1.00 20.00     0.002 C 
HETATM    9  C9  UNL     1     -35.622  15.041  -3.988  1.00 20.00    -0.026 A 
HETATM   10  O10 UNL     1     -32.867  16.747  -5.185  1.00 20.00    -0.298 OA
ENDROOT
TORSDOF 0
ENDMDL
