MODEL 1
REMARK VINA RESULT:      -5.4      0.000      0.000
REMARK  0 active torsions:
REMARK  status: ('A' for Active; 'I' for Inactive)
ROOT
HETATM    1  C1  UNL     1     -36.553  14.509  -3.859  1.00 20.00     0.136 C 
HETATM    2  C2  UNL     1     -34.748  13.572  -5.449  1.00 20.00     0.018 A 
HETATM    3  C3  UNL     1     -36.286  16.888  -2.614  1.00 20.00     0.018 A 
HETATM    4  C4  UNL     1     -33.129  16.218  -4.374  1.00 20.00     0.011 A 
HETATM    5  C5  UNL     1     -35.511  13.478  -4.153  1.00 20.00     0.060 A 
HETATM    6  C6  UNL     1     -36.094  15.893  -3.706  1.00 20.00     0.060 A 
HETATM    7  C7  UNL     1     -33.995  13.657  -4.145  1.00 20.00     0.002 A 
HETATM    8  C8  UNL     1     -35.102  15.991  -2.543  1.00 20.00     0.002 A 
HETATM    9  C9  UNL     1     -33.120  14.859  -3.729  1.00 20.00    -0.005 A 
HETATM   10  C10 UNL     1     -33.656  16.075  -2.970  1.00 20.00    -0.005 A 
HETATM   11  O11 UNL     1     -37.738  14.216  -3.787  1.00 20.00    -0.297 OA
ENDROOT
TORSDOF 0
ENDMDL
MODEL 2
REMARK VINA RESULT:      -5.3     10.591     12.147
REMARK  0 active torsions:
REMARK  status: ('A' for Active; 'I' for Inactive)
ROOT
HETATM    1  C1  UNL     1     -42.837   6.336  -3.022  1.00 20.00     0.136 C 
HETATM    2  C2  UNL     1     -42.528   7.830  -0.941  1.00 20.00     0.018 A 
HETATM    3  C3  UNL     1     -42.631   3.648  -2.913  1.00 20.00     0.018 A 
HETATM    4  C4  UNL     1     -41.710   4.948   0.399  1.00 20.00     0.011 A 
HETATM    5  C5  UNL     1     -42.045   7.371  -2.292  1.00 20.00     0.060 A 
HETATM    6  C6  UNL     1     -42.936   5.012  -2.400  1.00 20.00     0.060 A 
HETATM    7  C7  UNL     1     -41.175   7.175  -1.053  1.00 20.00     0.002 A 
HETATM    8  C8  UNL     1     -41.541   4.403  -2.241  1.00 20.00     0.002 A 
HETATM    9  C9  UNL     1     -40.768   5.894  -0.293  1.00 20.00    -0.005 A 
HETATM   10  C10 UNL     1     -40.988   4.481  -0.837  1.00 20.00    -0.005 A 
HETATM   11  O11 UNL     1     -43.408   6.593  -4.073  1.00 20.00    -0.297 OA
ENDROOT
TORSDOF 0
ENDMDL
MODEL 3
REMARK VINA RESULT:      -5.2      1.828      2.935
REMARK  0 active torsions:
REMARK  status: ('A' for Active; 'I' for Inactive)
ROOT
HETATM    1  C1  UNL     1     -34.533  13.631  -4.806  1.00 20.00     0.136 C 
HETATM    2  C2  UNL     1     -32.582  14.795  -3.581  1.00 20.00     0.018 A 
HETATM    3  C3  UNL     1     -35.854  14.796  -6.851  1.00 20.00     0.018 A 
HETATM    4  C4  UNL     1     -33.503  17.284  -5.512  1.00 20.00     0.011 A 
HETATM    5  C5  UNL     1     -33.988  14.253  -3.562  1.00 20.00     0.060 A 
HETATM    6  C6  UNL     1     -34.685  14.504  -5.975  1.00 20.00     0.060 A 
HETATM    7  C7  UNL     1     -33.728  15.734  -3.298  1.00 20.00     0.002 A 
HETATM    8  C8  UNL     1     -35.648  15.650  -5.651  1.00 20.00     0.002 A 
HETATM    9  C9  UNL     1     -34.049  16.985  -4.143  1.00 20.00    -0.005 A 
HETATM   10  C10 UNL     1     -34.968  16.968  -5.367  1.00 20.00    -0.005 A 
HETATM   11  O11 UNL     1     -34.805  12.440  -4.858  1.00 20.00    -0.297 OA
ENDROOT
TORSDOF 0
ENDMDL
MODEL 4
REMARK VINA RESULT:      -5.1      1.324      2.923
REMARK  0 active torsions:
REMARK  status: ('A' for Active; 'I' for Inactive)
ROOT
HETATM    1  C1  UNL     1     -34.967  13.560  -4.468  1.00 20.00     0.136 C 
HETATM    2  C2  UNL     1     -37.052  14.817  -3.613  1.00 20.00     0.018 A 
HETATM    3  C3  UNL     1     -32.525  13.902  -3.372  1.00 20.00     0.018 A 
HETATM    4  C4  UNL     1     -34.787  16.318  -1.772  1.00 20.00     0.011 A 
HETATM    5  C5  UNL     1     -36.043  14.569  -4.704  1.00 20.00     0.060 A 
HETATM    6  C6  UNL     1     -34.013  13.844  -3.391  1.00 20.00     0.060 A 
HETATM    7  C7  UNL     1     -36.175  15.954  -4.074  1.00 20.00     0.002 A 
HETATM    8  C8  UNL     1     -33.271  15.152  -3.679  1.00 20.00     0.002 A 
HETATM    9  C9  UNL     1     -35.223  16.741  -3.148  1.00 20.00    -0.005 A 
HETATM   10  C10 UNL     1     -33.771  16.334  -2.884  1.00 20.00    -0.005 A 
HETATM   11  O11 UNL     1     -34.908  12.526  -5.119  1.00 20.00    -0.297 OA
ENDROOT
TORSDOF 0
ENDMDL
MODEL 5
REMARK VINA RESULT:      -5.1      1.877      2.649
REMARK  0 active torsions:
REMARK  status: ('A' for Active; 'I' for Inactive)
ROOT
HETATM    1  C1  UNL     1     -34.887  13.802  -4.805  1.00 20.00     0.136 C 
HETATM    2  C2  UNL     1     -35.957  14.737  -6.959  1.00 20.00     0.018 A 
HETATM    3  C3  UNL     1     -33.822  15.401  -2.910  1.00 20.00     0.018 A 
HETATM    4  C4  UNL     1     -34.785  17.548  -5.734  1.00 20.00     0.011 A 
HETATM    5  C5  UNL     1     -34.857  13.954  -6.291  1.00 20.00     0.060 A 
HETATM    6  C6  UNL     1     -34.756  15.026  -4.008  1.00 20.00     0.060 A 
HETATM    7  C7  UNL     1     -34.532  15.213  -7.092  1.00 20.00     0.002 A 
HETATM    8  C8  UNL     1     -33.418  15.706  -4.308  1.00 20.00     0.002 A 
HETATM    9  C9  UNL     1     -34.040  16.604  -6.637  1.00 20.00    -0.005 A 
HETATM   10  C10 UNL     1     -33.524  16.900  -5.227  1.00 20.00    -0.005 A 
HETATM   11  O11 UNL     1     -35.050  12.710  -4.279  1.00 20.00    -0.297 OA
ENDROOT
TORSDOF 0
ENDMDL
MODEL 6
REMARK VINA RESULT:      -5.0      2.215      3.770
REMARK  0 active torsions:
REMARK  status: ('A' for Active; 'I' for Inactive)
ROOT
HETATM    1  C1  UNL     1     -33.779  16.826  -5.309  1.00 20.00     0.136 C 
HETATM    2  C2  UNL     1     -33.783  15.939  -2.885  1.00 20.00     0.018 A 
HETATM    3  C3  UNL     1     -35.287  15.719  -7.254  1.00 20.00     0.018 A 
HETATM    4  C4  UNL     1     -35.658  13.622  -4.258  1.00 20.00     0.011 A 
HETATM    5  C5  UNL     1     -33.054  16.159  -4.186  1.00 20.00     0.060 A 
HETATM    6  C6  UNL     1     -34.940  16.121  -5.863  1.00 20.00     0.060 A 
HETATM    7  C7  UNL     1     -33.266  14.745  -3.649  1.00 20.00     0.002 A 
HETATM    8  C8  UNL     1     -34.511  14.762  -6.421  1.00 20.00     0.002 A 
HETATM    9  C9  UNL     1     -34.158  13.592  -4.157  1.00 20.00    -0.005 A 
HETATM   10  C10 UNL     1     -34.845  13.593  -5.525  1.00 20.00    -0.005 A 
HETATM   11  O11 UNL     1     -33.440  17.926  -5.723  1.00 20.00    -0.297 OA
ENDROOT
TORSDOF 0
ENDMDL
MODEL 7
REMARK VINA RESULT:      -4.8      1.954      3.412
REMARK  0 active torsions:
REMARK  status: ('A' for Active; 'I' for Inactive)
ROOT
HETATM    1  C1  UNL     1     -34.371  15.273  -6.302  1.00 20.00     0.136 C 
HETATM    2  C2  UNL     1     -34.701  17.663  -5.384  1.00 20.00     0.018 A 
HETATM    3  C3  UNL     1     -34.732  13.078  -4.774  1.00 20.00     0.018 A 
HETATM    4  C4  UNL     1     -35.074  16.004  -2.576  1.00 20.00     0.011 A 
HETATM    5  C5  UNL     1     -33.786  16.596  -5.926  1.00 20.00     0.060 A 
HETATM    6  C6  UNL     1     -34.967  14.479  -5.222  1.00 20.00     0.060 A 
HETATM    7  C7  UNL     1     -33.573  17.155  -4.521  1.00 20.00     0.002 A 
HETATM    8  C8  UNL     1     -33.909  14.156  -4.164  1.00 20.00     0.002 A 
HETATM    9  C9  UNL     1     -33.771  16.509  -3.133  1.00 20.00    -0.005 A 
HETATM   10  C10 UNL     1     -33.997  15.010  -2.921  1.00 20.00    -0.005 A 
HETATM   11  O11 UNL     1     -34.386  14.889  -7.462  1.00 20.00    -0.297 OA
ENDROOT
TORSDOF 0
ENDMDL
MODEL 8
REMARK VINA RESULT:      -4.8      1.979      2.807
REMARK  0 active torsions:
REMARK  status: ('A' for Active; 'I' for Inactive)
ROOT
HETATM    1  C1  UNL     1     -34.403  15.066  -6.298  1.00 20.00     0.136 C 
HETATM    2  C2  UNL     1     -34.299  13.326  -4.396  1.00 20.00     0.018 A 
HETATM    3  C3  UNL     1     -33.841  17.676  -5.900  1.00 20.00     0.018 A 
HETATM    4  C4  UNL     1     -33.777  16.032  -2.613  1.00 20.00     0.011 A 
HETATM    5  C5  UNL     1     -35.110  14.107  -5.396  1.00 20.00     0.060 A 
HETATM    6  C6  UNL     1     -33.737  16.209  -5.664  1.00 20.00     0.060 A 
HETATM    7  C7  UNL     1     -35.375  14.258  -3.901  1.00 20.00     0.002 A 
HETATM    8  C8  UNL     1     -34.762  17.059  -4.908  1.00 20.00     0.002 A 
HETATM    9  C9  UNL     1     -35.120  15.441  -2.941  1.00 20.00    -0.005 A 
HETATM   10  C10 UNL     1     -34.755  16.850  -3.412  1.00 20.00    -0.005 A 
HETATM   11  O11 UNL     1     -34.351  14.886  -7.507  1.00 20.00    -0.297 OA
ENDROOT
TORSDOF 0
ENDMDL
MODEL 9
REMARK VINA RESULT:      -4.8      1.724      3.478
REMARK  0 active torsions:
REMARK  status: ('A' for Active; 'I' for Inactive)
ROOT
HETATM    1  C1  UNL     1     -34.271  16.015  -2.570  1.00 20.00     0.136 C 
HETATM    2  C2  UNL     1     -36.459  16.382  -3.889  1.00 20.00     0.018 A 
HETATM    3  C3  UNL     1     -32.252  14.494  -3.516  1.00 20.00     0.018 A 
HETATM    4  C4  UNL     1     -35.057  14.170  -5.869  1.00 20.00     0.011 A 
HETATM    5  C5  UNL     1     -35.745  15.805  -2.694  1.00 20.00     0.060 A 
HETATM    6  C6  UNL     1     -33.424  15.409  -3.603  1.00 20.00     0.060 A 
HETATM    7  C7  UNL     1     -36.477  14.889  -3.672  1.00 20.00     0.002 A 
HETATM    8  C8  UNL     1     -33.608  13.890  -3.608  1.00 20.00     0.002 A 
HETATM    9  C9  UNL     1     -35.941  13.861  -4.692  1.00 20.00    -0.005 A 
HETATM   10  C10 UNL     1     -34.489  13.377  -4.722  1.00 20.00    -0.005 A 
HETATM   11  O11 UNL     1     -33.797  16.691  -1.668  1.00 20.00    -0.297 OA
ENDROOT
TORSDOF 0
ENDMDL
