MODEL 1
REMARK VINA RESULT:      -5.1      0.000      0.000
REMARK  1 active torsions:
REMARK  status: ('A' for Active; 'I' for Inactive)
REMARK    1  A    between atoms: C11_11  and  C12_12 
ROOT
HETATM    1  C1  UNL     1     -33.402  13.775  -3.868  1.00 20.00     0.009 C 
HETATM    2  C2  UNL     1     -35.902  13.941  -3.977  1.00 20.00     0.009 C 
HETATM    3  C3  UNL     1     -34.595  15.585  -2.609  1.00 20.00     0.009 C 
HETATM    4  C4  UNL     1     -34.518  14.510  -5.990  1.00 20.00     0.017 C 
HETATM    5  C5  UNL     1     -33.209  16.160  -4.619  1.00 20.00     0.017 C 
HETATM    6  C6  UNL     1     -35.714  16.326  -4.728  1.00 20.00     0.017 C 
HETATM    7  C8  UNL     1     -34.634  13.581  -4.768  1.00 20.00    -0.013 C 
HETATM    8  C9  UNL     1     -33.321  15.235  -3.393  1.00 20.00    -0.013 C 
HETATM    9  C10 UNL     1     -35.832  15.401  -3.503  1.00 20.00    -0.013 C 
HETATM   10  C12 UNL     1     -34.441  15.988  -5.539  1.00 20.00    -0.011 C 
ENDROOT
BRANCH  10  11
HETATM   11  C11 UNL     1     -34.327  16.898  -6.740  1.00 20.00     0.153 A 
HETATM   12  C7  UNL     1     -34.058  18.368  -6.581  1.00 20.00     0.201 A 
HETATM   13  O13 UNL     1     -35.375  17.866  -6.854  1.00 20.00    -0.380 OA
ENDBRANCH  10  11
TORSDOF 1
ENDMDL
MODEL 2
REMARK VINA RESULT:      -5.1      0.034      2.080
REMARK  1 active torsions:
REMARK  status: ('A' for Active; 'I' for Inactive)
REMARK    1  A    between atoms: C11_11  and  C12_12 
ROOT
HETATM    1  C1  UNL     1     -34.577  15.602  -2.622  1.00 20.00     0.009 C 
HETATM    2  C2  UNL     1     -33.428  13.768  -3.888  1.00 20.00     0.009 C 
HETATM    3  C3  UNL     1     -35.924  13.980  -3.980  1.00 20.00     0.009 C 
HETATM    4  C4  UNL     1     -33.194  16.149  -4.641  1.00 20.00     0.017 C 
HETATM    5  C5  UNL     1     -35.696  16.362  -4.734  1.00 20.00     0.017 C 
HETATM    6  C6  UNL     1     -34.544  14.524  -6.003  1.00 20.00     0.017 C 
HETATM    7  C8  UNL     1     -33.314  15.227  -3.415  1.00 20.00    -0.013 C 
HETATM    8  C9  UNL     1     -35.824  15.440  -3.508  1.00 20.00    -0.013 C 
HETATM    9  C10 UNL     1     -34.668  13.597  -4.780  1.00 20.00    -0.013 C 
HETATM   10  C12 UNL     1     -34.435  16.000  -5.553  1.00 20.00    -0.011 C 
ENDROOT
BRANCH  10  11
HETATM   11  C11 UNL     1     -34.314  16.907  -6.756  1.00 20.00     0.153 A 
HETATM   12  C7  UNL     1     -34.077  18.382  -6.598  1.00 20.00     0.201 A 
HETATM   13  O13 UNL     1     -35.378  17.853  -6.897  1.00 20.00    -0.380 OA
ENDBRANCH  10  11
TORSDOF 1
ENDMDL
MODEL 3
REMARK VINA RESULT:      -5.1      0.038      2.108
REMARK  1 active torsions:
REMARK  status: ('A' for Active; 'I' for Inactive)
REMARK    1  A    between atoms: C11_11  and  C12_12 
ROOT
HETATM    1  C1  UNL     1     -35.935  13.974  -3.966  1.00 20.00     0.009 C 
HETATM    2  C2  UNL     1     -34.571  15.577  -2.602  1.00 20.00     0.009 C 
HETATM    3  C3  UNL     1     -33.439  13.749  -3.891  1.00 20.00     0.009 C 
HETATM    4  C4  UNL     1     -35.701  16.361  -4.700  1.00 20.00     0.017 C 
HETATM    5  C5  UNL     1     -34.565  14.529  -5.992  1.00 20.00     0.017 C 
HETATM    6  C6  UNL     1     -33.199  16.135  -4.625  1.00 20.00     0.017 C 
HETATM    7  C8  UNL     1     -35.824  15.429  -3.481  1.00 20.00    -0.013 C 
HETATM    8  C9  UNL     1     -34.686  13.592  -4.777  1.00 20.00    -0.013 C 
HETATM    9  C10 UNL     1     -33.316  15.202  -3.406  1.00 20.00    -0.013 C 
HETATM   10  C12 UNL     1     -34.446  16.000  -5.530  1.00 20.00    -0.011 C 
ENDROOT
BRANCH  10  11
HETATM   11  C11 UNL     1     -34.327  16.916  -6.726  1.00 20.00     0.153 A 
HETATM   12  C7  UNL     1     -34.064  18.387  -6.558  1.00 20.00     0.201 A 
HETATM   13  O13 UNL     1     -35.378  17.881  -6.844  1.00 20.00    -0.380 OA
ENDBRANCH  10  11
TORSDOF 1
ENDMDL
MODEL 4
REMARK VINA RESULT:      -4.9     11.997     13.926
REMARK  1 active torsions:
REMARK  status: ('A' for Active; 'I' for Inactive)
REMARK    1  A    between atoms: C11_11  and  C12_12 
ROOT
HETATM    1  C1  UNL     1     -41.796   5.360   0.651  1.00 20.00     0.009 C 
HETATM    2  C2  UNL     1     -43.353   6.867  -0.611  1.00 20.00     0.009 C 
HETATM    3  C3  UNL     1     -40.898   6.891  -1.120  1.00 20.00     0.009 C 
HETATM    4  C4  UNL     1     -43.414   4.391  -1.002  1.00 20.00     0.017 C 
HETATM    5  C5  UNL     1     -40.953   4.414  -1.514  1.00 20.00     0.017 C 
HETATM    6  C6  UNL     1     -42.514   5.925  -2.778  1.00 20.00     0.017 C 
HETATM    7  C8  UNL     1     -43.208   5.489   0.055  1.00 20.00    -0.013 C 
HETATM    8  C9  UNL     1     -40.741   5.513  -0.457  1.00 20.00    -0.013 C 
HETATM    9  C10 UNL     1     -42.305   7.028  -1.725  1.00 20.00    -0.013 C 
HETATM   10  C12 UNL     1     -42.366   4.527  -2.133  1.00 20.00    -0.011 C 
ENDROOT
BRANCH  10  11
HETATM   11  C11 UNL     1     -42.571   3.447  -3.171  1.00 20.00     0.153 A 
HETATM   12  C7  UNL     1     -42.890   2.034  -2.771  1.00 20.00     0.201 A 
HETATM   13  O13 UNL     1     -41.568   2.426  -3.172  1.00 20.00    -0.380 OA
ENDBRANCH  10  11
TORSDOF 1
ENDMDL
MODEL 5
REMARK VINA RESULT:      -4.9     11.909     13.829
REMARK  1 active torsions:
REMARK  status: ('A' for Active; 'I' for Inactive)
REMARK    1  A    between atoms: C11_11  and  C12_12 
ROOT
HETATM    1  C1  UNL     1     -43.364   7.105  -0.597  1.00 20.00     0.009 C 
HETATM    2  C2  UNL     1     -40.865   7.090  -0.797  1.00 20.00     0.009 C 
HETATM    3  C3  UNL     1     -42.002   5.544   0.815  1.00 20.00     0.009 C 
HETATM    4  C4  UNL     1     -42.277   6.189  -2.663  1.00 20.00     0.017 C 
HETATM    5  C5  UNL     1     -43.417   4.638  -1.047  1.00 20.00     0.017 C 
HETATM    6  C6  UNL     1     -40.912   4.624  -1.248  1.00 20.00     0.017 C 
HETATM    7  C8  UNL     1     -42.183   7.266  -1.568  1.00 20.00    -0.013 C 
HETATM    8  C9  UNL     1     -43.326   5.711   0.052  1.00 20.00    -0.013 C 
HETATM    9  C10 UNL     1     -40.814   5.697  -0.149  1.00 20.00    -0.013 C 
HETATM   10  C12 UNL     1     -42.235   4.776  -2.035  1.00 20.00    -0.011 C 
ENDROOT
BRANCH  10  11
HETATM   11  C11 UNL     1     -42.327   3.719  -3.113  1.00 20.00     0.153 A 
HETATM   12  C7  UNL     1     -42.669   2.294  -2.779  1.00 20.00     0.201 A 
HETATM   13  O13 UNL     1     -41.319   2.707  -3.042  1.00 20.00    -0.380 OA
ENDBRANCH  10  11
TORSDOF 1
ENDMDL
MODEL 6
REMARK VINA RESULT:      -4.9      1.488      3.223
REMARK  1 active torsions:
REMARK  status: ('A' for Active; 'I' for Inactive)
REMARK    1  A    between atoms: C11_11  and  C12_12 
ROOT
HETATM    1  C1  UNL     1     -34.388  14.476  -6.095  1.00 20.00     0.009 C 
HETATM    2  C2  UNL     1     -33.491  13.798  -3.854  1.00 20.00     0.009 C 
HETATM    3  C3  UNL     1     -33.257  16.169  -4.632  1.00 20.00     0.009 C 
HETATM    4  C4  UNL     1     -35.968  13.915  -4.231  1.00 20.00     0.017 C 
HETATM    5  C5  UNL     1     -35.734  16.293  -5.010  1.00 20.00     0.017 C 
HETATM    6  C6  UNL     1     -34.835  15.612  -2.764  1.00 20.00     0.017 C 
HETATM    7  C8  UNL     1     -34.616  13.567  -4.877  1.00 20.00    -0.013 C 
HETATM    8  C9  UNL     1     -34.380  15.951  -5.658  1.00 20.00    -0.013 C 
HETATM    9  C10 UNL     1     -33.479  15.268  -3.406  1.00 20.00    -0.013 C 
HETATM   10  C12 UNL     1     -35.984  15.394  -3.776  1.00 20.00    -0.011 C 
ENDROOT
BRANCH  10  11
HETATM   11  C11 UNL     1     -37.313  15.734  -3.142  1.00 20.00     0.153 A 
HETATM   12  C7  UNL     1     -38.593  15.124  -3.641  1.00 20.00     0.201 A 
HETATM   13  O13 UNL     1     -38.207  16.463  -3.988  1.00 20.00    -0.380 OA
ENDBRANCH  10  11
TORSDOF 1
ENDMDL
MODEL 7
REMARK VINA RESULT:      -4.9      1.481      3.464
REMARK  1 active torsions:
REMARK  status: ('A' for Active; 'I' for Inactive)
REMARK    1  A    between atoms: C11_11  and  C12_12 
ROOT
HETATM    1  C1  UNL     1     -33.567  13.800  -3.851  1.00 20.00     0.009 C 
HETATM    2  C2  UNL     1     -33.213  16.167  -4.598  1.00 20.00     0.009 C 
HETATM    3  C3  UNL     1     -34.368  14.536  -6.111  1.00 20.00     0.009 C 
HETATM    4  C4  UNL     1     -34.867  15.658  -2.781  1.00 20.00     0.017 C 
HETATM    5  C5  UNL     1     -36.025  14.023  -4.299  1.00 20.00     0.017 C 
HETATM    6  C6  UNL     1     -35.670  16.396  -5.046  1.00 20.00     0.017 C 
HETATM    7  C8  UNL     1     -33.509  15.264  -3.388  1.00 20.00    -0.013 C 
HETATM    8  C9  UNL     1     -34.669  13.625  -4.910  1.00 20.00    -0.013 C 
HETATM    9  C10 UNL     1     -34.313  16.004  -5.659  1.00 20.00    -0.013 C 
HETATM   10  C12 UNL     1     -35.993  15.497  -3.830  1.00 20.00    -0.011 C 
ENDROOT
BRANCH  10  11
HETATM   11  C11 UNL     1     -37.326  15.885  -3.231  1.00 20.00     0.153 A 
HETATM   12  C7  UNL     1     -38.583  15.137  -3.579  1.00 20.00     0.201 A 
HETATM   13  O13 UNL     1     -38.271  16.408  -4.171  1.00 20.00    -0.380 OA
ENDBRANCH  10  11
TORSDOF 1
ENDMDL
MODEL 8
REMARK VINA RESULT:      -4.9      1.497      3.262
REMARK  1 active torsions:
REMARK  status: ('A' for Active; 'I' for Inactive)
REMARK    1  A    between atoms: C11_11  and  C12_12 
ROOT
HETATM    1  C1  UNL     1     -33.281  16.186  -4.637  1.00 20.00     0.009 C 
HETATM    2  C2  UNL     1     -34.377  14.478  -6.108  1.00 20.00     0.009 C 
HETATM    3  C3  UNL     1     -33.488  13.811  -3.862  1.00 20.00     0.009 C 
HETATM    4  C4  UNL     1     -35.755  16.276  -5.033  1.00 20.00     0.017 C 
HETATM    5  C5  UNL     1     -34.865  15.607  -2.780  1.00 20.00     0.017 C 
HETATM    6  C6  UNL     1     -35.963  13.895  -4.256  1.00 20.00     0.017 C 
HETATM    7  C8  UNL     1     -34.393  15.952  -5.672  1.00 20.00    -0.013 C 
HETATM    8  C9  UNL     1     -33.500  15.281  -3.413  1.00 20.00    -0.013 C 
HETATM    9  C10 UNL     1     -34.601  13.564  -4.892  1.00 20.00    -0.013 C 
HETATM   10  C12 UNL     1     -36.003  15.373  -3.802  1.00 20.00    -0.011 C 
ENDROOT
BRANCH  10  11
HETATM   11  C11 UNL     1     -37.341  15.694  -3.176  1.00 20.00     0.153 A 
HETATM   12  C7  UNL     1     -38.610  15.074  -3.691  1.00 20.00     0.201 A 
HETATM   13  O13 UNL     1     -38.236  16.419  -4.026  1.00 20.00    -0.380 OA
ENDBRANCH  10  11
TORSDOF 1
ENDMDL
MODEL 9
REMARK VINA RESULT:      -4.8      2.008      3.401
REMARK  1 active torsions:
REMARK  status: ('A' for Active; 'I' for Inactive)
REMARK    1  A    between atoms: C11_11  and  C12_12 
ROOT
HETATM    1  C1  UNL     1     -33.605  17.630  -4.979  1.00 20.00     0.009 C 
HETATM    2  C2  UNL     1     -32.940  15.474  -3.884  1.00 20.00     0.009 C 
HETATM    3  C3  UNL     1     -34.008  17.292  -2.528  1.00 20.00     0.009 C 
HETATM    4  C4  UNL     1     -34.873  15.526  -5.482  1.00 20.00     0.017 C 
HETATM    5  C5  UNL     1     -35.944  17.348  -4.121  1.00 20.00     0.017 C 
HETATM    6  C6  UNL     1     -35.278  15.187  -3.024  1.00 20.00     0.017 C 
HETATM    7  C8  UNL     1     -33.483  16.110  -5.175  1.00 20.00    -0.013 C 
HETATM    8  C9  UNL     1     -34.557  17.936  -3.811  1.00 20.00    -0.013 C 
HETATM    9  C10 UNL     1     -33.889  15.770  -2.711  1.00 20.00    -0.013 C 
HETATM   10  C12 UNL     1     -35.849  15.816  -4.317  1.00 20.00    -0.011 C 
ENDROOT
BRANCH  10  11
HETATM   11  C11 UNL     1     -37.214  15.241  -4.621  1.00 20.00     0.153 A 
HETATM   12  C7  UNL     1     -38.338  15.338  -3.628  1.00 20.00     0.201 A 
HETATM   13  O13 UNL     1     -37.586  14.127  -3.803  1.00 20.00    -0.380 OA
ENDBRANCH  10  11
TORSDOF 1
ENDMDL
