MODEL 1
REMARK VINA RESULT:      -4.5      0.000      0.000
REMARK  2 active torsions:
REMARK  status: ('A' for Active; 'I' for Inactive)
REMARK    1  A    between atoms: C8_8  and  C9_9 
REMARK    2  A    between atoms: C9_9  and  N11_11 
ROOT
HETATM    1  C1  UNL     1     -33.447  16.871  -4.023  1.00 20.00     0.096 C 
HETATM    2  C9  UNL     1     -33.765  16.234  -2.738  1.00 20.00     0.332 C 
HETATM    3  N10 UNL     1     -33.193  17.374  -5.038  1.00 20.00    -0.195 NA
ENDROOT
BRANCH   2   4
HETATM    4  C8  UNL     1     -34.445  17.217  -1.794  1.00 20.00     0.033 A 
HETATM    5  C4  UNL     1     -34.646  16.864  -0.347  1.00 20.00     0.008 A 
HETATM    6  C5  UNL     1     -33.650  17.921  -0.731  1.00 20.00     0.008 A 
ENDBRANCH   2   4
BRANCH   2   7
HETATM    7  N11 UNL     1     -34.615  15.059  -2.961  1.00 20.00     0.106 N 
HETATM    8  C6  UNL     1     -35.868  15.439  -3.612  1.00 20.00     0.274 C 
HETATM    9  C2  UNL     1     -36.380  14.118  -4.166  1.00 20.00     0.032 C 
HETATM   10  C3  UNL     1     -35.137  13.252  -4.344  1.00 20.00     0.032 C 
HETATM   11  C7  UNL     1     -33.976  14.124  -3.888  1.00 20.00     0.274 C 
ENDBRANCH   2   7
TORSDOF 2
ENDMDL
MODEL 2
REMARK VINA RESULT:      -4.5      2.320      4.581
REMARK  2 active torsions:
REMARK  status: ('A' for Active; 'I' for Inactive)
REMARK    1  A    between atoms: C8_8  and  C9_9 
REMARK    2  A    between atoms: C9_9  and  N11_11 
ROOT
HETATM    1  C1  UNL     1     -34.646  13.658  -4.983  1.00 20.00     0.096 C 
HETATM    2  C9  UNL     1     -34.419  15.018  -5.489  1.00 20.00     0.332 C 
HETATM    3  N10 UNL     1     -34.823  12.583  -4.583  1.00 20.00    -0.195 NA
ENDROOT
BRANCH   2   4
HETATM    4  C8  UNL     1     -35.443  15.382  -6.557  1.00 20.00     0.033 A 
HETATM    5  C4  UNL     1     -34.995  15.946  -7.876  1.00 20.00     0.008 A 
HETATM    6  C5  UNL     1     -35.560  14.555  -7.806  1.00 20.00     0.008 A 
ENDBRANCH   2   4
BRANCH   2   7
HETATM    7  N11 UNL     1     -34.466  15.978  -4.380  1.00 20.00     0.106 N 
HETATM    8  C6  UNL     1     -35.693  15.813  -3.601  1.00 20.00     0.274 C 
HETATM    9  C2  UNL     1     -35.364  16.517  -2.293  1.00 20.00     0.032 C 
HETATM   10  C3  UNL     1     -33.843  16.466  -2.184  1.00 20.00     0.032 C 
HETATM   11  C7  UNL     1     -33.379  15.729  -3.432  1.00 20.00     0.274 C 
ENDBRANCH   2   7
TORSDOF 2
ENDMDL
MODEL 3
REMARK VINA RESULT:      -4.5      2.229      3.256
REMARK  2 active torsions:
REMARK  status: ('A' for Active; 'I' for Inactive)
REMARK    1  A    between atoms: C8_8  and  C9_9 
REMARK    2  A    between atoms: C9_9  and  N11_11 
ROOT
HETATM    1  C1  UNL     1     -36.834  15.068  -3.700  1.00 20.00     0.096 C 
HETATM    2  C9  UNL     1     -35.731  16.039  -3.707  1.00 20.00     0.332 C 
HETATM    3  N10 UNL     1     -37.706  14.303  -3.696  1.00 20.00    -0.195 NA
ENDROOT
BRANCH   2   4
HETATM    4  C8  UNL     1     -34.700  15.701  -2.638  1.00 20.00     0.033 A 
HETATM    5  C4  UNL     1     -33.688  16.726  -2.210  1.00 20.00     0.008 A 
HETATM    6  C5  UNL     1     -34.792  16.324  -1.273  1.00 20.00     0.008 A 
ENDBRANCH   2   4
BRANCH   2   7
HETATM    7  N11 UNL     1     -35.106  16.076  -5.033  1.00 20.00     0.106 N 
HETATM    8  C6  UNL     1     -34.614  14.752  -5.414  1.00 20.00     0.274 C 
HETATM    9  C2  UNL     1     -34.444  14.872  -6.921  1.00 20.00     0.032 C 
HETATM   10  C3  UNL     1     -35.411  15.973  -7.346  1.00 20.00     0.032 C 
HETATM   11  C7  UNL     1     -36.090  16.423  -6.060  1.00 20.00     0.274 C 
ENDBRANCH   2   7
TORSDOF 2
ENDMDL
MODEL 4
REMARK VINA RESULT:      -4.4      1.536      2.285
REMARK  2 active torsions:
REMARK  status: ('A' for Active; 'I' for Inactive)
REMARK    1  A    between atoms: C8_8  and  C9_9 
REMARK    2  A    between atoms: C9_9  and  N11_11 
ROOT
HETATM    1  C1  UNL     1     -36.374  16.541  -3.141  1.00 20.00     0.096 C 
HETATM    2  C9  UNL     1     -34.905  16.564  -3.121  1.00 20.00     0.332 C 
HETATM    3  N10 UNL     1     -37.533  16.526  -3.159  1.00 20.00    -0.195 NA
ENDROOT
BRANCH   2   4
HETATM    4  C8  UNL     1     -34.375  16.351  -1.709  1.00 20.00     0.033 A 
HETATM    5  C4  UNL     1     -33.599  17.438  -1.018  1.00 20.00     0.008 A 
HETATM    6  C5  UNL     1     -34.985  17.092  -0.552  1.00 20.00     0.008 A 
ENDBRANCH   2   4
BRANCH   2   7
HETATM    7  N11 UNL     1     -34.377  15.540  -4.030  1.00 20.00     0.106 N 
HETATM    8  C6  UNL     1     -34.754  14.200  -3.579  1.00 20.00     0.274 C 
HETATM    9  C2  UNL     1     -34.548  13.350  -4.824  1.00 20.00     0.032 C 
HETATM   10  C3  UNL     1     -34.686  14.318  -5.995  1.00 20.00     0.032 C 
HETATM   11  C7  UNL     1     -34.971  15.672  -5.361  1.00 20.00     0.274 C 
ENDBRANCH   2   7
TORSDOF 2
ENDMDL
MODEL 5
REMARK VINA RESULT:      -4.4      2.052      2.867
REMARK  2 active torsions:
REMARK  status: ('A' for Active; 'I' for Inactive)
REMARK    1  A    between atoms: C8_8  and  C9_9 
REMARK    2  A    between atoms: C9_9  and  N11_11 
ROOT
HETATM    1  C1  UNL     1     -33.979  14.024  -3.667  1.00 20.00     0.096 C 
HETATM    2  C9  UNL     1     -35.021  15.056  -3.760  1.00 20.00     0.332 C 
HETATM    3  N10 UNL     1     -33.159  13.208  -3.592  1.00 20.00    -0.195 NA
ENDROOT
BRANCH   2   4
HETATM    4  C8  UNL     1     -34.621  16.307  -2.988  1.00 20.00     0.033 A 
HETATM    5  C4  UNL     1     -35.639  17.050  -2.168  1.00 20.00     0.008 A 
HETATM    6  C5  UNL     1     -34.543  16.278  -1.487  1.00 20.00     0.008 A 
ENDBRANCH   2   4
BRANCH   2   7
HETATM    7  N11 UNL     1     -35.278  15.380  -5.168  1.00 20.00     0.106 N 
HETATM    8  C6  UNL     1     -34.212  16.221  -5.713  1.00 20.00     0.274 C 
HETATM    9  C2  UNL     1     -34.387  16.064  -7.216  1.00 20.00     0.032 C 
HETATM   10  C3  UNL     1     -35.080  14.717  -7.398  1.00 20.00     0.032 C 
HETATM   11  C7  UNL     1     -35.260  14.168  -5.990  1.00 20.00     0.274 C 
ENDBRANCH   2   7
TORSDOF 2
ENDMDL
MODEL 6
REMARK VINA RESULT:      -4.4      1.279      1.597
REMARK  2 active torsions:
REMARK  status: ('A' for Active; 'I' for Inactive)
REMARK    1  A    between atoms: C8_8  and  C9_9 
REMARK    2  A    between atoms: C9_9  and  N11_11 
ROOT
HETATM    1  C1  UNL     1     -33.649  17.600  -3.946  1.00 20.00     0.096 C 
HETATM    2  C9  UNL     1     -33.672  16.307  -3.250  1.00 20.00     0.332 C 
HETATM    3  N10 UNL     1     -33.628  18.621  -4.496  1.00 20.00    -0.195 NA
ENDROOT
BRANCH   2   4
HETATM    4  C8  UNL     1     -34.840  16.232  -2.274  1.00 20.00     0.033 A 
HETATM    5  C4  UNL     1     -34.637  16.562  -0.822  1.00 20.00     0.008 A 
HETATM    6  C5  UNL     1     -35.429  17.490  -1.700  1.00 20.00     0.008 A 
ENDBRANCH   2   4
BRANCH   2   7
HETATM    7  N11 UNL     1     -33.744  15.214  -4.226  1.00 20.00     0.106 N 
HETATM    8  C6  UNL     1     -34.164  13.969  -3.584  1.00 20.00     0.274 C 
HETATM    9  C2  UNL     1     -34.624  13.117  -4.758  1.00 20.00     0.032 C 
HETATM   10  C3  UNL     1     -35.020  14.114  -5.843  1.00 20.00     0.032 C 
HETATM   11  C7  UNL     1     -34.773  15.486  -5.232  1.00 20.00     0.274 C 
ENDBRANCH   2   7
TORSDOF 2
ENDMDL
MODEL 7
REMARK VINA RESULT:      -4.4      1.442      4.303
REMARK  2 active torsions:
REMARK  status: ('A' for Active; 'I' for Inactive)
REMARK    1  A    between atoms: C8_8  and  C9_9 
REMARK    2  A    between atoms: C9_9  and  N11_11 
ROOT
HETATM    1  C1  UNL     1     -36.825  14.705  -3.540  1.00 20.00     0.096 C 
HETATM    2  C9  UNL     1     -35.462  14.942  -3.045  1.00 20.00     0.332 C 
HETATM    3  N10 UNL     1     -37.902  14.517  -3.929  1.00 20.00    -0.195 NA
ENDROOT
BRANCH   2   4
HETATM    4  C8  UNL     1     -34.428  14.611  -4.114  1.00 20.00     0.033 A 
HETATM    5  C4  UNL     1     -33.339  13.614  -3.833  1.00 20.00     0.008 A 
HETATM    6  C5  UNL     1     -34.443  13.270  -4.793  1.00 20.00     0.008 A 
ENDBRANCH   2   4
BRANCH   2   7
HETATM    7  N11 UNL     1     -35.325  16.336  -2.608  1.00 20.00     0.106 N 
HETATM    8  C6  UNL     1     -34.603  16.414  -1.338  1.00 20.00     0.274 C 
HETATM    9  C2  UNL     1     -34.159  17.868  -1.287  1.00 20.00     0.032 C 
HETATM   10  C3  UNL     1     -34.101  18.319  -2.743  1.00 20.00     0.032 C 
HETATM   11  C7  UNL     1     -34.508  17.098  -3.555  1.00 20.00     0.274 C 
ENDBRANCH   2   7
TORSDOF 2
ENDMDL
MODEL 8
REMARK VINA RESULT:      -4.3      1.535      2.190
REMARK  2 active torsions:
REMARK  status: ('A' for Active; 'I' for Inactive)
REMARK    1  A    between atoms: C8_8  and  C9_9 
REMARK    2  A    between atoms: C9_9  and  N11_11 
ROOT
HETATM    1  C1  UNL     1     -36.198  17.447  -3.238  1.00 20.00     0.096 C 
HETATM    2  C9  UNL     1     -34.854  16.877  -3.074  1.00 20.00     0.332 C 
HETATM    3  N10 UNL     1     -37.258  17.899  -3.370  1.00 20.00    -0.195 NA
ENDROOT
BRANCH   2   4
HETATM    4  C8  UNL     1     -34.574  16.549  -1.612  1.00 20.00     0.033 A 
HETATM    5  C4  UNL     1     -33.686  17.441  -0.792  1.00 20.00     0.008 A 
HETATM    6  C5  UNL     1     -35.163  17.397  -0.520  1.00 20.00     0.008 A 
ENDBRANCH   2   4
BRANCH   2   7
HETATM    7  N11 UNL     1     -34.714  15.677  -3.907  1.00 20.00     0.106 N 
HETATM    8  C6  UNL     1     -33.467  14.976  -3.606  1.00 20.00     0.274 C 
HETATM    9  C2  UNL     1     -33.707  13.588  -4.181  1.00 20.00     0.032 C 
HETATM   10  C3  UNL     1     -35.223  13.416  -4.185  1.00 20.00     0.032 C 
HETATM   11  C7  UNL     1     -35.773  14.711  -3.606  1.00 20.00     0.274 C 
ENDBRANCH   2   7
TORSDOF 2
ENDMDL
MODEL 9
REMARK VINA RESULT:      -4.2      1.402      4.098
REMARK  2 active torsions:
REMARK  status: ('A' for Active; 'I' for Inactive)
REMARK    1  A    between atoms: C8_8  and  C9_9 
REMARK    2  A    between atoms: C9_9  and  N11_11 
ROOT
HETATM    1  C1  UNL     1     -33.757  14.369  -3.808  1.00 20.00     0.096 C 
HETATM    2  C9  UNL     1     -34.123  15.792  -3.831  1.00 20.00     0.332 C 
HETATM    3  N10 UNL     1     -33.466  13.246  -3.792  1.00 20.00    -0.195 NA
ENDROOT
BRANCH   2   4
HETATM    4  C8  UNL     1     -35.614  15.969  -4.089  1.00 20.00     0.033 A 
HETATM    5  C4  UNL     1     -36.091  16.692  -5.317  1.00 20.00     0.008 A 
HETATM    6  C5  UNL     1     -36.287  15.207  -5.196  1.00 20.00     0.008 A 
ENDBRANCH   2   4
BRANCH   2   7
HETATM    7  N11 UNL     1     -33.740  16.427  -2.565  1.00 20.00     0.106 N 
HETATM    8  C6  UNL     1     -33.725  17.883  -2.696  1.00 20.00     0.274 C 
HETATM    9  C2  UNL     1     -33.776  18.357  -1.251  1.00 20.00     0.032 C 
HETATM   10  C3  UNL     1     -34.435  17.217  -0.481  1.00 20.00     0.032 C 
HETATM   11  C7  UNL     1     -34.733  16.151  -1.526  1.00 20.00     0.274 C 
ENDBRANCH   2   7
TORSDOF 2
ENDMDL
