MODEL 1
REMARK VINA RESULT:      -4.5      0.000      0.000
REMARK  0 active torsions:
REMARK  status: ('A' for Active; 'I' for Inactive)
ROOT
HETATM    1  C1  UNL     1     -34.097  15.811  -2.513  1.00 20.00     0.064 C 
HETATM    2  C2  UNL     1     -33.328  13.797  -3.741  1.00 20.00     0.045 C 
HETATM    3  C3  UNL     1     -33.407  16.029  -4.899  1.00 20.00     0.056 C 
HETATM    4  C4  UNL     1     -34.578  13.422  -4.525  1.00 20.00     0.170 C 
HETATM    5  C5  UNL     1     -33.192  15.310  -3.561  1.00 20.00     0.097 C 
HETATM    6  C6  UNL     1     -34.610  15.518  -5.724  1.00 20.00     0.055 C 
HETATM    7  C7  UNL     1     -35.958  16.042  -5.209  1.00 20.00     0.045 C 
HETATM    8  C8  UNL     1     -34.449  15.996  -7.177  1.00 20.00     0.045 C 
HETATM    9  N9  UNL     1     -34.810  16.206  -1.688  1.00 20.00    -0.197 NA
HETATM   10  O10 UNL     1     -34.614  14.085  -5.785  1.00 20.00    -0.381 OA
ENDROOT
TORSDOF 0
ENDMDL
MODEL 2
REMARK VINA RESULT:      -4.4      2.188      2.984
REMARK  0 active torsions:
REMARK  status: ('A' for Active; 'I' for Inactive)
ROOT
HETATM    1  C1  UNL     1     -34.540  13.541  -4.122  1.00 20.00     0.064 C 
HETATM    2  C2  UNL     1     -32.916  15.380  -3.749  1.00 20.00     0.045 C 
HETATM    3  C3  UNL     1     -35.297  15.619  -2.972  1.00 20.00     0.056 C 
HETATM    4  C4  UNL     1     -33.264  16.328  -4.888  1.00 20.00     0.170 C 
HETATM    5  C5  UNL     1     -34.145  14.637  -3.222  1.00 20.00     0.097 C 
HETATM    6  C6  UNL     1     -35.522  16.654  -4.098  1.00 20.00     0.055 C 
HETATM    7  C7  UNL     1     -36.262  16.071  -5.311  1.00 20.00     0.045 C 
HETATM    8  C8  UNL     1     -36.374  17.808  -3.543  1.00 20.00     0.045 C 
HETATM    9  N9  UNL     1     -34.851  12.677  -4.831  1.00 20.00    -0.197 NA
HETATM   10  O10 UNL     1     -34.280  17.248  -4.501  1.00 20.00    -0.381 OA
ENDROOT
TORSDOF 0
ENDMDL
MODEL 3
REMARK VINA RESULT:      -4.3      2.158      2.901
REMARK  0 active torsions:
REMARK  status: ('A' for Active; 'I' for Inactive)
ROOT
HETATM    1  C1  UNL     1     -35.215  13.658  -4.186  1.00 20.00     0.064 C 
HETATM    2  C2  UNL     1     -34.654  15.528  -2.654  1.00 20.00     0.045 C 
HETATM    3  C3  UNL     1     -36.065  15.946  -4.694  1.00 20.00     0.056 C 
HETATM    4  C4  UNL     1     -33.504  16.194  -3.396  1.00 20.00     0.170 C 
HETATM    5  C5  UNL     1     -35.687  14.929  -3.610  1.00 20.00     0.097 C 
HETATM    6  C6  UNL     1     -34.871  16.699  -5.321  1.00 20.00     0.055 C 
HETATM    7  C7  UNL     1     -34.106  15.860  -6.356  1.00 20.00     0.045 C 
HETATM    8  C8  UNL     1     -35.400  17.952  -6.039  1.00 20.00     0.045 C 
HETATM    9  N9  UNL     1     -34.844  12.657  -4.640  1.00 20.00    -0.197 NA
HETATM   10  O10 UNL     1     -33.981  17.182  -4.305  1.00 20.00    -0.381 OA
ENDROOT
TORSDOF 0
ENDMDL
MODEL 4
REMARK VINA RESULT:      -4.3      1.951      2.280
REMARK  0 active torsions:
REMARK  status: ('A' for Active; 'I' for Inactive)
ROOT
HETATM    1  C1  UNL     1     -37.218  14.711  -3.743  1.00 20.00     0.064 C 
HETATM    2  C2  UNL     1     -34.851  13.966  -3.734  1.00 20.00     0.045 C 
HETATM    3  C3  UNL     1     -35.491  16.132  -4.843  1.00 20.00     0.056 C 
HETATM    4  C4  UNL     1     -34.714  13.371  -5.128  1.00 20.00     0.170 C 
HETATM    5  C5  UNL     1     -35.815  15.154  -3.707  1.00 20.00     0.097 C 
HETATM    6  C6  UNL     1     -35.223  15.468  -6.212  1.00 20.00     0.055 C 
HETATM    7  C7  UNL     1     -36.508  15.033  -6.932  1.00 20.00     0.045 C 
HETATM    8  C8  UNL     1     -34.501  16.480  -7.118  1.00 20.00     0.045 C 
HETATM    9  N9  UNL     1     -38.324  14.362  -3.772  1.00 20.00    -0.197 NA
HETATM   10  O10 UNL     1     -34.321  14.361  -6.075  1.00 20.00    -0.381 OA
ENDROOT
TORSDOF 0
ENDMDL
MODEL 5
REMARK VINA RESULT:      -4.3      1.963      2.704
REMARK  0 active torsions:
REMARK  status: ('A' for Active; 'I' for Inactive)
ROOT
HETATM    1  C1  UNL     1     -33.972  13.464  -4.297  1.00 20.00     0.064 C 
HETATM    2  C2  UNL     1     -36.264  14.407  -4.417  1.00 20.00     0.045 C 
HETATM    3  C3  UNL     1     -34.670  14.712  -6.339  1.00 20.00     0.056 C 
HETATM    4  C4  UNL     1     -36.012  15.866  -4.065  1.00 20.00     0.170 C 
HETATM    5  C5  UNL     1     -35.097  13.791  -5.190  1.00 20.00     0.097 C 
HETATM    6  C6  UNL     1     -34.562  16.208  -5.965  1.00 20.00     0.055 C 
HETATM    7  C7  UNL     1     -33.275  16.544  -5.198  1.00 20.00     0.045 C 
HETATM    8  C8  UNL     1     -34.564  17.041  -7.258  1.00 20.00     0.045 C 
HETATM    9  N9  UNL     1     -33.086  13.207  -3.594  1.00 20.00    -0.197 NA
HETATM   10  O10 UNL     1     -35.716  16.634  -5.228  1.00 20.00    -0.381 OA
ENDROOT
TORSDOF 0
ENDMDL
MODEL 6
REMARK VINA RESULT:      -4.2      2.446      3.412
REMARK  0 active torsions:
REMARK  status: ('A' for Active; 'I' for Inactive)
ROOT
HETATM    1  C1  UNL     1     -35.077  14.037  -5.671  1.00 20.00     0.064 C 
HETATM    2  C2  UNL     1     -33.479  13.637  -3.815  1.00 20.00     0.045 C 
HETATM    3  C3  UNL     1     -35.638  14.856  -3.385  1.00 20.00     0.056 C 
HETATM    4  C4  UNL     1     -32.778  14.985  -3.722  1.00 20.00     0.170 C 
HETATM    5  C5  UNL     1     -34.945  13.778  -4.228  1.00 20.00     0.097 C 
HETATM    6  C6  UNL     1     -34.824  16.157  -3.203  1.00 20.00     0.055 C 
HETATM    7  C7  UNL     1     -34.869  17.072  -4.436  1.00 20.00     0.045 C 
HETATM    8  C8  UNL     1     -35.411  16.944  -2.019  1.00 20.00     0.045 C 
HETATM    9  N9  UNL     1     -35.181  14.241  -6.809  1.00 20.00    -0.197 NA
HETATM   10  O10 UNL     1     -33.468  15.865  -2.839  1.00 20.00    -0.381 OA
ENDROOT
TORSDOF 0
ENDMDL
MODEL 7
REMARK VINA RESULT:      -4.2      1.876      2.359
REMARK  0 active torsions:
REMARK  status: ('A' for Active; 'I' for Inactive)
ROOT
HETATM    1  C1  UNL     1     -36.716  14.350  -3.840  1.00 20.00     0.064 C 
HETATM    2  C2  UNL     1     -34.793  13.439  -5.118  1.00 20.00     0.045 C 
HETATM    3  C3  UNL     1     -34.569  15.616  -3.877  1.00 20.00     0.056 C 
HETATM    4  C4  UNL     1     -34.866  14.255  -6.400  1.00 20.00     0.170 C 
HETATM    5  C5  UNL     1     -35.248  14.242  -3.897  1.00 20.00     0.097 C 
HETATM    6  C6  UNL     1     -34.545  16.347  -5.239  1.00 20.00     0.055 C 
HETATM    7  C7  UNL     1     -35.889  17.000  -5.594  1.00 20.00     0.045 C 
HETATM    8  C8  UNL     1     -33.487  17.462  -5.182  1.00 20.00     0.045 C 
HETATM    9  N9  UNL     1     -37.872  14.436  -3.795  1.00 20.00    -0.197 NA
HETATM   10  O10 UNL     1     -34.121  15.463  -6.286  1.00 20.00    -0.381 OA
ENDROOT
TORSDOF 0
ENDMDL
MODEL 8
REMARK VINA RESULT:      -4.1      2.101      3.342
REMARK  0 active torsions:
REMARK  status: ('A' for Active; 'I' for Inactive)
ROOT
HETATM    1  C1  UNL     1     -34.651  13.670  -5.065  1.00 20.00     0.064 C 
HETATM    2  C2  UNL     1     -35.771  15.586  -6.174  1.00 20.00     0.045 C 
HETATM    3  C3  UNL     1     -33.676  15.951  -4.829  1.00 20.00     0.056 C 
HETATM    4  C4  UNL     1     -36.541  16.201  -5.014  1.00 20.00     0.170 C 
HETATM    5  C5  UNL     1     -34.445  14.971  -5.723  1.00 20.00     0.097 C 
HETATM    6  C6  UNL     1     -34.533  16.657  -3.754  1.00 20.00     0.055 C 
HETATM    7  C7  UNL     1     -34.831  15.763  -2.541  1.00 20.00     0.045 C 
HETATM    8  C8  UNL     1     -33.769  17.891  -3.245  1.00 20.00     0.045 C 
HETATM    9  N9  UNL     1     -34.814  12.645  -4.546  1.00 20.00    -0.197 NA
HETATM   10  O10 UNL     1     -35.750  17.162  -4.321  1.00 20.00    -0.381 OA
ENDROOT
TORSDOF 0
ENDMDL
MODEL 9
REMARK VINA RESULT:      -4.1      1.967      3.081
REMARK  0 active torsions:
REMARK  status: ('A' for Active; 'I' for Inactive)
ROOT
HETATM    1  C1  UNL     1     -33.891  15.996  -5.430  1.00 20.00     0.064 C 
HETATM    2  C2  UNL     1     -34.834  13.725  -5.771  1.00 20.00     0.045 C 
HETATM    3  C3  UNL     1     -36.362  15.678  -5.343  1.00 20.00     0.056 C 
HETATM    4  C4  UNL     1     -35.101  13.289  -4.338  1.00 20.00     0.170 C 
HETATM    5  C5  UNL     1     -35.031  15.231  -5.962  1.00 20.00     0.097 C 
HETATM    6  C6  UNL     1     -36.653  15.096  -3.941  1.00 20.00     0.055 C 
HETATM    7  C7  UNL     1     -35.877  15.806  -2.822  1.00 20.00     0.045 C 
HETATM    8  C8  UNL     1     -38.153  15.257  -3.642  1.00 20.00     0.045 C 
HETATM    9  N9  UNL     1     -32.992  16.598  -5.012  1.00 20.00    -0.197 NA
HETATM   10  O10 UNL     1     -36.402  13.684  -3.913  1.00 20.00    -0.381 OA
ENDROOT
TORSDOF 0
ENDMDL
