MODEL 1
REMARK VINA RESULT:      -4.6      0.000      0.000
REMARK  1 active torsions:
REMARK  status: ('A' for Active; 'I' for Inactive)
REMARK    1  A    between atoms: C5_5  and  C9_9 
ROOT
HETATM    1  C1  UNL     1     -34.829  13.744  -4.539  1.00 20.00     0.133 C 
HETATM    2  C2  UNL     1     -34.151  14.544  -3.445  1.00 20.00     0.093 C 
HETATM    3  C3  UNL     1     -35.491  14.515  -5.676  1.00 20.00     0.065 C 
HETATM    4  C4  UNL     1     -35.115  15.501  -2.752  1.00 20.00     0.050 C 
HETATM    5  C5  UNL     1     -36.532  15.507  -5.125  1.00 20.00     0.058 C 
HETATM    6  C6  UNL     1     -34.418  15.115  -6.585  1.00 20.00     0.019 C 
HETATM    7  C7  UNL     1     -34.418  16.263  -1.629  1.00 20.00     0.022 C 
HETATM    8  O10 UNL     1     -34.793  12.513  -4.542  1.00 20.00    -0.298 OA
HETATM    9  S11 UNL     1     -35.804  16.701  -3.944  1.00 20.00    -0.159 SA
ENDROOT
BRANCH   5  10
HETATM   10  C9  UNL     1     -37.256  16.281  -6.224  1.00 20.00     0.011 C 
HETATM   11  C8  UNL     1     -38.144  15.392  -7.032  1.00 20.00     0.006 C 
ENDBRANCH   5  10
TORSDOF 1
ENDMDL
MODEL 2
REMARK VINA RESULT:      -4.6      2.040      3.848
REMARK  1 active torsions:
REMARK  status: ('A' for Active; 'I' for Inactive)
REMARK    1  A    between atoms: C5_5  and  C9_9 
ROOT
HETATM    1  C1  UNL     1     -33.836  14.007  -4.132  1.00 20.00     0.133 C 
HETATM    2  C2  UNL     1     -34.784  13.753  -5.287  1.00 20.00     0.093 C 
HETATM    3  C3  UNL     1     -33.854  15.389  -3.489  1.00 20.00     0.065 C 
HETATM    4  C4  UNL     1     -34.552  14.720  -6.443  1.00 20.00     0.050 C 
HETATM    5  C5  UNL     1     -33.592  16.481  -4.541  1.00 20.00     0.058 C 
HETATM    6  C6  UNL     1     -35.130  15.555  -2.662  1.00 20.00     0.019 C 
HETATM    7  C7  UNL     1     -35.491  14.417  -7.607  1.00 20.00     0.022 C 
HETATM    8  O10 UNL     1     -33.120  13.108  -3.688  1.00 20.00    -0.298 OA
HETATM    9  S11 UNL     1     -34.813  16.445  -5.905  1.00 20.00    -0.159 SA
ENDROOT
BRANCH   5  10
HETATM   10  C9  UNL     1     -33.560  17.886  -3.945  1.00 20.00     0.011 C 
HETATM   11  C8  UNL     1     -33.530  18.936  -5.007  1.00 20.00     0.006 C 
ENDBRANCH   5  10
TORSDOF 1
ENDMDL
MODEL 3
REMARK VINA RESULT:      -4.5      1.310      1.556
REMARK  1 active torsions:
REMARK  status: ('A' for Active; 'I' for Inactive)
REMARK    1  A    between atoms: C5_5  and  C9_9 
ROOT
HETATM    1  C1  UNL     1     -33.930  14.125  -3.872  1.00 20.00     0.133 C 
HETATM    2  C2  UNL     1     -33.442  15.346  -3.118  1.00 20.00     0.093 C 
HETATM    3  C3  UNL     1     -35.169  14.279  -4.748  1.00 20.00     0.065 C 
HETATM    4  C4  UNL     1     -34.509  15.907  -2.182  1.00 20.00     0.050 C 
HETATM    5  C5  UNL     1     -36.355  14.807  -3.921  1.00 20.00     0.058 C 
HETATM    6  C6  UNL     1     -34.818  15.087  -5.998  1.00 20.00     0.019 C 
HETATM    7  C7  UNL     1     -33.980  17.108  -1.406  1.00 20.00     0.022 C 
HETATM    8  O10 UNL     1     -33.310  13.062  -3.828  1.00 20.00    -0.298 OA
HETATM    9  S11 UNL     1     -35.991  16.413  -3.122  1.00 20.00    -0.159 SA
ENDROOT
BRANCH   5  10
HETATM   10  C9  UNL     1     -37.636  14.944  -4.740  1.00 20.00     0.011 C 
HETATM   11  C8  UNL     1     -38.854  14.829  -3.884  1.00 20.00     0.006 C 
ENDBRANCH   5  10
TORSDOF 1
ENDMDL
MODEL 4
REMARK VINA RESULT:      -4.5      1.568      3.708
REMARK  1 active torsions:
REMARK  status: ('A' for Active; 'I' for Inactive)
REMARK    1  A    between atoms: C5_5  and  C9_9 
ROOT
HETATM    1  C1  UNL     1     -35.184  13.826  -4.905  1.00 20.00     0.133 C 
HETATM    2  C2  UNL     1     -35.182  14.566  -6.228  1.00 20.00     0.093 C 
HETATM    3  C3  UNL     1     -35.755  14.548  -3.689  1.00 20.00     0.065 C 
HETATM    4  C4  UNL     1     -34.401  15.874  -6.153  1.00 20.00     0.050 C 
HETATM    5  C5  UNL     1     -35.029  15.885  -3.461  1.00 20.00     0.058 C 
HETATM    6  C6  UNL     1     -37.277  14.629  -3.807  1.00 20.00     0.019 C 
HETATM    7  C7  UNL     1     -34.381  16.578  -7.506  1.00 20.00     0.022 C 
HETATM    8  O10 UNL     1     -34.795  12.660  -4.828  1.00 20.00    -0.298 OA
HETATM    9  S11 UNL     1     -35.136  16.995  -4.913  1.00 20.00    -0.159 SA
ENDROOT
BRANCH   5  10
HETATM   10  C9  UNL     1     -35.535  16.634  -2.230  1.00 20.00     0.011 C 
HETATM   11  C8  UNL     1     -34.564  16.556  -1.099  1.00 20.00     0.006 C 
ENDBRANCH   5  10
TORSDOF 1
ENDMDL
MODEL 5
REMARK VINA RESULT:      -4.5      1.963      2.340
REMARK  1 active torsions:
REMARK  status: ('A' for Active; 'I' for Inactive)
REMARK    1  A    between atoms: C5_5  and  C9_9 
ROOT
HETATM    1  C1  UNL     1     -36.194  14.911  -3.620  1.00 20.00     0.133 C 
HETATM    2  C2  UNL     1     -35.301  15.560  -2.582  1.00 20.00     0.093 C 
HETATM    3  C3  UNL     1     -35.557  14.483  -4.937  1.00 20.00     0.065 C 
HETATM    4  C4  UNL     1     -34.628  16.822  -3.112  1.00 20.00     0.050 C 
HETATM    5  C5  UNL     1     -34.864  15.677  -5.617  1.00 20.00     0.058 C 
HETATM    6  C6  UNL     1     -34.684  13.248  -4.710  1.00 20.00     0.019 C 
HETATM    7  C7  UNL     1     -33.767  17.477  -2.036  1.00 20.00     0.022 C 
HETATM    8  O10 UNL     1     -37.381  14.680  -3.382  1.00 20.00    -0.298 OA
HETATM    9  S11 UNL     1     -33.579  16.436  -4.557  1.00 20.00    -0.159 SA
ENDROOT
BRANCH   5  10
HETATM   10  C9  UNL     1     -34.240  15.315  -6.963  1.00 20.00     0.011 C 
HETATM   11  C8  UNL     1     -35.257  14.782  -7.917  1.00 20.00     0.006 C 
ENDBRANCH   5  10
TORSDOF 1
ENDMDL
MODEL 6
REMARK VINA RESULT:      -4.5      1.690      4.163
REMARK  1 active torsions:
REMARK  status: ('A' for Active; 'I' for Inactive)
REMARK    1  A    between atoms: C5_5  and  C9_9 
ROOT
HETATM    1  C1  UNL     1     -36.757  14.891  -4.115  1.00 20.00     0.133 C 
HETATM    2  C2  UNL     1     -36.313  14.986  -5.561  1.00 20.00     0.093 C 
HETATM    3  C3  UNL     1     -36.151  15.876  -3.120  1.00 20.00     0.065 C 
HETATM    4  C4  UNL     1     -34.805  14.807  -5.711  1.00 20.00     0.050 C 
HETATM    5  C5  UNL     1     -34.615  15.781  -3.131  1.00 20.00     0.058 C 
HETATM    6  C6  UNL     1     -36.733  17.270  -3.356  1.00 20.00     0.019 C 
HETATM    7  C7  UNL     1     -34.390  14.866  -7.178  1.00 20.00     0.022 C 
HETATM    8  O10 UNL     1     -37.624  14.089  -3.768  1.00 20.00    -0.298 OA
HETATM    9  S11 UNL     1     -33.906  16.101  -4.789  1.00 20.00    -0.159 SA
ENDROOT
BRANCH   5  10
HETATM   10  C9  UNL     1     -33.954  16.719  -2.124  1.00 20.00     0.011 C 
HETATM   11  C8  UNL     1     -34.582  16.610  -0.774  1.00 20.00     0.006 C 
ENDBRANCH   5  10
TORSDOF 1
ENDMDL
MODEL 7
REMARK VINA RESULT:      -4.3      1.586      3.805
REMARK  1 active torsions:
REMARK  status: ('A' for Active; 'I' for Inactive)
REMARK    1  A    between atoms: C5_5  and  C9_9 
ROOT
HETATM    1  C1  UNL     1     -34.527  15.054  -5.825  1.00 20.00     0.133 C 
HETATM    2  C2  UNL     1     -35.990  14.663  -5.760  1.00 20.00     0.093 C 
HETATM    3  C3  UNL     1     -33.778  15.219  -4.507  1.00 20.00     0.065 C 
HETATM    4  C4  UNL     1     -36.819  15.668  -4.967  1.00 20.00     0.050 C 
HETATM    5  C5  UNL     1     -34.484  16.247  -3.606  1.00 20.00     0.058 C 
HETATM    6  C6  UNL     1     -33.528  13.846  -3.882  1.00 20.00     0.019 C 
HETATM    7  C7  UNL     1     -38.292  15.272  -4.952  1.00 20.00     0.022 C 
HETATM    8  O10 UNL     1     -33.949  15.174  -6.906  1.00 20.00    -0.298 OA
HETATM    9  S11 UNL     1     -36.219  15.786  -3.247  1.00 20.00    -0.159 SA
ENDROOT
BRANCH   5  10
HETATM   10  C9  UNL     1     -33.754  16.482  -2.286  1.00 20.00     0.011 C 
HETATM   11  C8  UNL     1     -34.697  16.497  -1.128  1.00 20.00     0.006 C 
ENDBRANCH   5  10
TORSDOF 1
ENDMDL
MODEL 8
REMARK VINA RESULT:      -4.2      1.688      3.328
REMARK  1 active torsions:
REMARK  status: ('A' for Active; 'I' for Inactive)
REMARK    1  A    between atoms: C5_5  and  C9_9 
ROOT
HETATM    1  C1  UNL     1     -35.335  13.883  -4.208  1.00 20.00     0.133 C 
HETATM    2  C2  UNL     1     -36.771  14.364  -4.155  1.00 20.00     0.093 C 
HETATM    3  C3  UNL     1     -34.232  14.934  -4.145  1.00 20.00     0.065 C 
HETATM    4  C4  UNL     1     -37.096  15.332  -5.288  1.00 20.00     0.050 C 
HETATM    5  C5  UNL     1     -34.407  15.972  -5.268  1.00 20.00     0.058 C 
HETATM    6  C6  UNL     1     -34.139  15.499  -2.727  1.00 20.00     0.019 C 
HETATM    7  C7  UNL     1     -38.557  15.768  -5.235  1.00 20.00     0.022 C 
HETATM    8  O10 UNL     1     -35.068  12.681  -4.239  1.00 20.00    -0.298 OA
HETATM    9  S11 UNL     1     -36.031  16.813  -5.197  1.00 20.00    -0.159 SA
ENDROOT
BRANCH   5  10
HETATM   10  C9  UNL     1     -33.305  17.029  -5.278  1.00 20.00     0.011 C 
HETATM   11  C8  UNL     1     -33.867  18.412  -5.302  1.00 20.00     0.006 C 
ENDBRANCH   5  10
TORSDOF 1
ENDMDL
MODEL 9
REMARK VINA RESULT:      -4.2      2.682      4.329
REMARK  1 active torsions:
REMARK  status: ('A' for Active; 'I' for Inactive)
REMARK    1  A    between atoms: C5_5  and  C9_9 
ROOT
HETATM    1  C1  UNL     1     -33.233  15.622  -3.815  1.00 20.00     0.133 C 
HETATM    2  C2  UNL     1     -33.459  16.336  -5.133  1.00 20.00     0.093 C 
HETATM    3  C3  UNL     1     -34.247  15.853  -2.700  1.00 20.00     0.065 C 
HETATM    4  C4  UNL     1     -33.508  17.851  -4.964  1.00 20.00     0.050 C 
HETATM    5  C5  UNL     1     -34.376  17.355  -2.387  1.00 20.00     0.058 C 
HETATM    6  C6  UNL     1     -35.551  15.128  -3.031  1.00 20.00     0.019 C 
HETATM    7  C7  UNL     1     -33.695  18.547  -6.309  1.00 20.00     0.022 C 
HETATM    8  O10 UNL     1     -32.298  14.834  -3.672  1.00 20.00    -0.298 OA
HETATM    9  S11 UNL     1     -34.874  18.334  -3.852  1.00 20.00    -0.159 SA
ENDROOT
BRANCH   5  10
HETATM   10  C9  UNL     1     -35.352  17.643  -1.248  1.00 20.00     0.011 C 
HETATM   11  C8  UNL     1     -34.824  17.166   0.065  1.00 20.00     0.006 C 
ENDBRANCH   5  10
TORSDOF 1
ENDMDL
