MODEL 1
REMARK VINA RESULT:      -4.9      0.000      0.000
REMARK  3 active torsions:
REMARK  status: ('A' for Active; 'I' for Inactive)
REMARK    1  A    between atoms: C6_6  and  C9_9 
REMARK    2  A    between atoms: C7_7  and  C9_9 
REMARK    3  A    between atoms: C8_8  and  O10_10 
ROOT
HETATM    1  C1  UNL     1     -34.038  15.330  -5.384  1.00 20.00     0.003 C 
HETATM    2  C2  UNL     1     -33.418  15.036  -4.019  1.00 20.00     0.007 C 
HETATM    3  C5  UNL     1     -35.456  14.748  -5.355  1.00 20.00     0.032 C 
HETATM    4  C7  UNL     1     -34.596  14.725  -3.092  1.00 20.00     0.015 C 
HETATM    5  C8  UNL     1     -35.573  14.008  -4.026  1.00 20.00     0.122 C 
ENDROOT
BRANCH   4   6
HETATM    6  C9  UNL     1     -35.195  15.995  -2.491  1.00 20.00     0.011 C 
BRANCH   6   7
HETATM    7  C6  UNL     1     -34.516  16.354  -1.191  1.00 20.00    -0.014 A 
HETATM    8  C3  UNL     1     -33.769  17.653  -1.059  1.00 20.00     0.005 A 
HETATM    9  C4  UNL     1     -35.067  17.455  -0.327  1.00 20.00     0.005 A 
ENDBRANCH   6   7
ENDBRANCH   4   6
BRANCH   5  10
HETATM   10  O10 UNL     1     -35.154  12.659  -4.221  1.00 20.00    -0.395 OA
HETATM   11  H26 UNL     1     -34.734  12.614  -5.097  1.00 20.00     0.210 HD
ENDBRANCH   5  10
TORSDOF 3
ENDMDL
MODEL 2
REMARK VINA RESULT:      -4.8      1.541      2.087
REMARK  3 active torsions:
REMARK  status: ('A' for Active; 'I' for Inactive)
REMARK    1  A    between atoms: C6_6  and  C9_9 
REMARK    2  A    between atoms: C7_7  and  C9_9 
REMARK    3  A    between atoms: C8_8  and  O10_10 
ROOT
HETATM    1  C1  UNL     1     -34.682  13.626  -4.437  1.00 20.00     0.003 C 
HETATM    2  C2  UNL     1     -35.256  15.026  -4.652  1.00 20.00     0.007 C 
HETATM    3  C5  UNL     1     -33.349  13.807  -3.705  1.00 20.00     0.032 C 
HETATM    4  C7  UNL     1     -34.515  15.928  -3.663  1.00 20.00     0.015 C 
HETATM    5  C8  UNL     1     -33.114  15.313  -3.637  1.00 20.00     0.122 C 
ENDROOT
BRANCH   4   6
HETATM    6  C9  UNL     1     -35.176  15.922  -2.285  1.00 20.00     0.011 C 
BRANCH   6   7
HETATM    7  C6  UNL     1     -34.263  16.521  -1.242  1.00 20.00    -0.014 A 
HETATM    8  C3  UNL     1     -34.107  18.013  -1.137  1.00 20.00     0.005 A 
HETATM    9  C4  UNL     1     -34.839  17.257  -0.063  1.00 20.00     0.005 A 
ENDBRANCH   6   7
ENDBRANCH   4   6
BRANCH   5  10
HETATM   10  O10 UNL     1     -32.390  15.710  -4.800  1.00 20.00    -0.395 OA
HETATM   11  H26 UNL     1     -32.469  14.988  -5.446  1.00 20.00     0.210 HD
ENDBRANCH   5  10
TORSDOF 3
ENDMDL
MODEL 3
REMARK VINA RESULT:      -4.6      0.948      1.132
REMARK  3 active torsions:
REMARK  status: ('A' for Active; 'I' for Inactive)
REMARK    1  A    between atoms: C6_6  and  C9_9 
REMARK    2  A    between atoms: C7_7  and  C9_9 
REMARK    3  A    between atoms: C8_8  and  O10_10 
ROOT
HETATM    1  C1  UNL     1     -34.964  14.849  -5.552  1.00 20.00     0.003 C 
HETATM    2  C2  UNL     1     -33.960  15.739  -4.821  1.00 20.00     0.007 C 
HETATM    3  C5  UNL     1     -35.160  13.604  -4.680  1.00 20.00     0.032 C 
HETATM    4  C7  UNL     1     -33.951  15.245  -3.373  1.00 20.00     0.015 C 
HETATM    5  C8  UNL     1     -34.159  13.737  -3.535  1.00 20.00     0.122 C 
ENDROOT
BRANCH   4   6
HETATM    6  C9  UNL     1     -35.057  15.896  -2.544  1.00 20.00     0.011 C 
BRANCH   6   7
HETATM    7  C6  UNL     1     -34.540  16.332  -1.194  1.00 20.00    -0.014 A 
HETATM    8  C3  UNL     1     -33.667  17.550  -1.074  1.00 20.00     0.005 A 
HETATM    9  C4  UNL     1     -35.074  17.579  -0.545  1.00 20.00     0.005 A 
ENDBRANCH   6   7
ENDBRANCH   4   6
BRANCH   5  10
HETATM   10  O10 UNL     1     -32.936  13.120  -3.930  1.00 20.00    -0.395 OA
HETATM   11  H26 UNL     1     -33.055  12.160  -3.831  1.00 20.00     0.210 HD
ENDBRANCH   5  10
TORSDOF 3
ENDMDL
MODEL 4
REMARK VINA RESULT:      -4.6     11.379     12.224
REMARK  3 active torsions:
REMARK  status: ('A' for Active; 'I' for Inactive)
REMARK    1  A    between atoms: C6_6  and  C9_9 
REMARK    2  A    between atoms: C7_7  and  C9_9 
REMARK    3  A    between atoms: C8_8  and  O10_10 
ROOT
HETATM    1  C1  UNL     1     -34.601   5.092   6.170  1.00 20.00     0.003 C 
HETATM    2  C2  UNL     1     -34.198   6.444   5.582  1.00 20.00     0.007 C 
HETATM    3  C5  UNL     1     -35.088   4.233   4.998  1.00 20.00     0.032 C 
HETATM    4  C7  UNL     1     -34.013   6.199   4.082  1.00 20.00     0.015 C 
HETATM    5  C8  UNL     1     -35.088   5.154   3.781  1.00 20.00     0.122 C 
ENDROOT
BRANCH   4   6
HETATM    6  C9  UNL     1     -32.607   5.695   3.759  1.00 20.00     0.011 C 
BRANCH   6   7
HETATM    7  C6  UNL     1     -31.862   6.680   2.891  1.00 20.00    -0.014 A 
HETATM    8  C3  UNL     1     -32.484   8.005   2.544  1.00 20.00     0.005 A 
HETATM    9  C4  UNL     1     -31.313   7.948   3.485  1.00 20.00     0.005 A 
ENDBRANCH   6   7
ENDBRANCH   4   6
BRANCH   5  10
HETATM   10  O10 UNL     1     -36.364   5.784   3.691  1.00 20.00    -0.395 OA
HETATM   11  H26 UNL     1     -36.908   5.432   4.416  1.00 20.00     0.210 HD
ENDBRANCH   5  10
TORSDOF 3
ENDMDL
MODEL 5
REMARK VINA RESULT:      -4.6      1.190      1.499
REMARK  3 active torsions:
REMARK  status: ('A' for Active; 'I' for Inactive)
REMARK    1  A    between atoms: C6_6  and  C9_9 
REMARK    2  A    between atoms: C7_7  and  C9_9 
REMARK    3  A    between atoms: C8_8  and  O10_10 
ROOT
HETATM    1  C1  UNL     1     -34.824  14.290  -5.801  1.00 20.00     0.003 C 
HETATM    2  C2  UNL     1     -34.396  13.578  -4.519  1.00 20.00     0.007 C 
HETATM    3  C5  UNL     1     -35.905  15.300  -5.401  1.00 20.00     0.032 C 
HETATM    4  C7  UNL     1     -34.868  14.477  -3.373  1.00 20.00     0.015 C 
HETATM    5  C8  UNL     1     -36.177  15.051  -3.920  1.00 20.00     0.122 C 
ENDROOT
BRANCH   4   6
HETATM    6  C9  UNL     1     -33.848  15.567  -3.050  1.00 20.00     0.011 C 
BRANCH   6   7
HETATM    7  C6  UNL     1     -34.479  16.681  -2.250  1.00 20.00    -0.014 A 
HETATM    8  C3  UNL     1     -34.649  16.544  -0.762  1.00 20.00     0.005 A 
HETATM    9  C4  UNL     1     -33.640  17.512  -1.317  1.00 20.00     0.005 A 
ENDBRANCH   6   7
ENDBRANCH   4   6
BRANCH   5  10
HETATM   10  O10 UNL     1     -37.215  14.080  -3.809  1.00 20.00    -0.395 OA
HETATM   11  H26 UNL     1     -38.021  14.551  -3.537  1.00 20.00     0.210 HD
ENDBRANCH   5  10
TORSDOF 3
ENDMDL
MODEL 6
REMARK VINA RESULT:      -4.4      1.938      3.838
REMARK  3 active torsions:
REMARK  status: ('A' for Active; 'I' for Inactive)
REMARK    1  A    between atoms: C6_6  and  C9_9 
REMARK    2  A    between atoms: C7_7  and  C9_9 
REMARK    3  A    between atoms: C8_8  and  O10_10 
ROOT
HETATM    1  C1  UNL     1     -34.070  15.161  -3.145  1.00 20.00     0.003 C 
HETATM    2  C2  UNL     1     -35.330  15.445  -3.960  1.00 20.00     0.007 C 
HETATM    3  C5  UNL     1     -33.449  13.888  -3.729  1.00 20.00     0.032 C 
HETATM    4  C7  UNL     1     -35.172  14.642  -5.254  1.00 20.00     0.015 C 
HETATM    5  C8  UNL     1     -34.439  13.386  -4.777  1.00 20.00     0.122 C 
ENDROOT
BRANCH   4   6
HETATM    6  C9  UNL     1     -34.376  15.413  -6.306  1.00 20.00     0.011 C 
BRANCH   6   7
HETATM    7  C6  UNL     1     -34.871  16.835  -6.427  1.00 20.00    -0.014 A 
HETATM    8  C3  UNL     1     -33.921  17.986  -6.238  1.00 20.00     0.005 A 
HETATM    9  C4  UNL     1     -34.467  17.679  -7.605  1.00 20.00     0.005 A 
ENDBRANCH   6   7
ENDBRANCH   4   6
BRANCH   5  10
HETATM   10  O10 UNL     1     -35.358  12.501  -4.142  1.00 20.00    -0.395 OA
HETATM   11  H26 UNL     1     -35.708  11.910  -4.830  1.00 20.00     0.210 HD
ENDBRANCH   5  10
TORSDOF 3
ENDMDL
MODEL 7
REMARK VINA RESULT:      -4.2     11.911     13.774
REMARK  3 active torsions:
REMARK  status: ('A' for Active; 'I' for Inactive)
REMARK    1  A    between atoms: C6_6  and  C9_9 
REMARK    2  A    between atoms: C7_7  and  C9_9 
REMARK    3  A    between atoms: C8_8  and  O10_10 
ROOT
HETATM    1  C1  UNL     1     -41.436   5.515   0.222  1.00 20.00     0.003 C 
HETATM    2  C2  UNL     1     -40.748   4.689  -0.863  1.00 20.00     0.007 C 
HETATM    3  C5  UNL     1     -42.377   6.487  -0.498  1.00 20.00     0.032 C 
HETATM    4  C7  UNL     1     -41.613   4.854  -2.115  1.00 20.00     0.015 C 
HETATM    5  C8  UNL     1     -42.107   6.297  -1.989  1.00 20.00     0.122 C 
ENDROOT
BRANCH   4   6
HETATM    6  C9  UNL     1     -42.762   3.849  -2.147  1.00 20.00     0.011 C 
BRANCH   6   7
HETATM    7  C6  UNL     1     -42.631   2.911  -3.323  1.00 20.00    -0.014 A 
HETATM    8  C3  UNL     1     -41.359   2.137  -3.538  1.00 20.00     0.005 A 
HETATM    9  C4  UNL     1     -42.610   1.422  -3.107  1.00 20.00     0.005 A 
ENDBRANCH   6   7
ENDBRANCH   4   6
BRANCH   5  10
HETATM   10  O10 UNL     1     -41.074   7.198  -2.379  1.00 20.00    -0.395 OA
HETATM   11  H26 UNL     1     -41.487   7.887  -2.927  1.00 20.00     0.210 HD
ENDBRANCH   5  10
TORSDOF 3
ENDMDL
MODEL 8
REMARK VINA RESULT:      -4.2      1.700      4.341
REMARK  3 active torsions:
REMARK  status: ('A' for Active; 'I' for Inactive)
REMARK    1  A    between atoms: C6_6  and  C9_9 
REMARK    2  A    between atoms: C7_7  and  C9_9 
REMARK    3  A    between atoms: C8_8  and  O10_10 
ROOT
HETATM    1  C1  UNL     1     -33.857  16.059  -2.842  1.00 20.00     0.003 C 
HETATM    2  C2  UNL     1     -35.118  15.202  -2.742  1.00 20.00     0.007 C 
HETATM    3  C5  UNL     1     -32.924  15.351  -3.830  1.00 20.00     0.032 C 
HETATM    4  C7  UNL     1     -35.101  14.302  -3.980  1.00 20.00     0.015 C 
HETATM    5  C8  UNL     1     -33.608  14.030  -4.172  1.00 20.00     0.122 C 
ENDROOT
BRANCH   4   6
HETATM    6  C9  UNL     1     -35.725  14.992  -5.191  1.00 20.00     0.011 C 
BRANCH   6   7
HETATM    7  C6  UNL     1     -35.281  14.338  -6.478  1.00 20.00    -0.014 A 
HETATM    8  C3  UNL     1     -35.982  14.654  -7.770  1.00 20.00     0.005 A 
HETATM    9  C4  UNL     1     -34.580  15.146  -7.535  1.00 20.00     0.005 A 
ENDBRANCH   6   7
ENDBRANCH   4   6
BRANCH   5  10
HETATM   10  O10 UNL     1     -33.172  13.042  -3.241  1.00 20.00    -0.395 OA
HETATM   11  H26 UNL     1     -32.208  12.963  -3.337  1.00 20.00     0.210 HD
ENDBRANCH   5  10
TORSDOF 3
ENDMDL
MODEL 9
REMARK VINA RESULT:      -4.1     11.657     13.632
REMARK  3 active torsions:
REMARK  status: ('A' for Active; 'I' for Inactive)
REMARK    1  A    between atoms: C6_6  and  C9_9 
REMARK    2  A    between atoms: C7_7  and  C9_9 
REMARK    3  A    between atoms: C8_8  and  O10_10 
ROOT
HETATM    1  C1  UNL     1     -41.183   7.240  -0.915  1.00 20.00     0.003 C 
HETATM    2  C2  UNL     1     -42.624   6.908  -1.301  1.00 20.00     0.007 C 
HETATM    3  C5  UNL     1     -40.627   6.005  -0.198  1.00 20.00     0.032 C 
HETATM    4  C7  UNL     1     -42.726   5.382  -1.232  1.00 20.00     0.015 C 
HETATM    5  C8  UNL     1     -41.802   5.041  -0.061  1.00 20.00     0.122 C 
ENDROOT
BRANCH   4   6
HETATM    6  C9  UNL     1     -42.276   4.725  -2.536  1.00 20.00     0.011 C 
BRANCH   6   7
HETATM    7  C6  UNL     1     -41.889   3.283  -2.312  1.00 20.00    -0.014 A 
HETATM    8  C3  UNL     1     -42.806   2.175  -2.752  1.00 20.00     0.005 A 
HETATM    9  C4  UNL     1     -41.510   2.410  -3.477  1.00 20.00     0.005 A 
ENDBRANCH   6   7
ENDBRANCH   4   6
BRANCH   5  10
HETATM   10  O10 UNL     1     -42.465   5.308   1.172  1.00 20.00    -0.395 OA
HETATM   11  H26 UNL     1     -43.395   5.050   1.059  1.00 20.00     0.210 HD
ENDBRANCH   5  10
TORSDOF 3
ENDMDL
