MODEL 1
REMARK VINA RESULT:      -4.4      0.000      0.000
REMARK  0 active torsions:
REMARK  status: ('A' for Active; 'I' for Inactive)
ROOT
HETATM    1  C1  UNL     1     -34.467  13.198  -4.852  1.00 20.00     0.000 C 
HETATM    2  C2  UNL     1     -35.177  14.199  -5.762  1.00 20.00     0.003 C 
HETATM    3  C3  UNL     1     -33.987  13.863  -3.563  1.00 20.00     0.003 C 
HETATM    4  C4  UNL     1     -34.296  15.417  -6.055  1.00 20.00     0.044 C 
HETATM    5  C5  UNL     1     -33.104  15.074  -3.859  1.00 20.00     0.044 C 
HETATM    6  C6  UNL     1     -34.964  18.810  -5.722  1.00 20.00     0.032 C 
HETATM    7  C7  UNL     1     -33.560  18.287  -5.871  1.00 20.00     0.112 C 
HETATM    8  C8  UNL     1     -35.622  17.799  -4.822  1.00 20.00     0.112 C 
HETATM    9  C9  UNL     1     -33.824  16.061  -4.767  1.00 20.00     0.095 A 
HETATM   10  N10 UNL     1     -33.297  17.430  -4.721  1.00 20.00    -0.223 NA
HETATM   11  N11 UNL     1     -34.561  17.127  -4.081  1.00 20.00    -0.223 NA
ENDROOT
TORSDOF 0
ENDMDL
MODEL 2
REMARK VINA RESULT:      -4.3      1.996      4.003
REMARK  0 active torsions:
REMARK  status: ('A' for Active; 'I' for Inactive)
ROOT
HETATM    1  C1  UNL     1     -33.707  18.397  -2.246  1.00 20.00     0.000 C 
HETATM    2  C2  UNL     1     -34.162  17.021  -1.762  1.00 20.00     0.003 C 
HETATM    3  C3  UNL     1     -34.143  18.651  -3.688  1.00 20.00     0.003 C 
HETATM    4  C4  UNL     1     -33.680  15.907  -2.696  1.00 20.00     0.044 C 
HETATM    5  C5  UNL     1     -33.655  17.540  -4.618  1.00 20.00     0.044 C 
HETATM    6  C6  UNL     1     -35.446  13.352  -4.251  1.00 20.00     0.032 C 
HETATM    7  C7  UNL     1     -34.062  13.745  -4.694  1.00 20.00     0.112 C 
HETATM    8  C8  UNL     1     -36.103  14.670  -3.941  1.00 20.00     0.112 C 
HETATM    9  C9  UNL     1     -34.115  16.176  -4.123  1.00 20.00     0.095 A 
HETATM   10  N10 UNL     1     -34.133  15.129  -5.149  1.00 20.00    -0.223 NA
HETATM   11  N11 UNL     1     -35.382  15.697  -4.683  1.00 20.00    -0.223 NA
ENDROOT
TORSDOF 0
ENDMDL
MODEL 3
REMARK VINA RESULT:      -4.3      1.764      3.027
REMARK  0 active torsions:
REMARK  status: ('A' for Active; 'I' for Inactive)
ROOT
HETATM    1  C1  UNL     1     -36.747  15.037  -7.430  1.00 20.00     0.000 C 
HETATM    2  C2  UNL     1     -37.025  15.393  -5.970  1.00 20.00     0.003 C 
HETATM    3  C3  UNL     1     -35.348  14.447  -7.600  1.00 20.00     0.003 C 
HETATM    4  C4  UNL     1     -35.952  16.325  -5.402  1.00 20.00     0.044 C 
HETATM    5  C5  UNL     1     -34.279  15.383  -7.038  1.00 20.00     0.044 C 
HETATM    6  C6  UNL     1     -34.026  16.050  -2.524  1.00 20.00     0.032 C 
HETATM    7  C7  UNL     1     -33.664  17.000  -3.634  1.00 20.00     0.112 C 
HETATM    8  C8  UNL     1     -34.508  14.825  -3.252  1.00 20.00     0.112 C 
HETATM    9  C9  UNL     1     -34.571  15.728  -5.584  1.00 20.00     0.095 A 
HETATM   10  N10 UNL     1     -33.407  16.194  -4.822  1.00 20.00    -0.223 NA
HETATM   11  N11 UNL     1     -33.929  14.863  -4.590  1.00 20.00    -0.223 NA
ENDROOT
TORSDOF 0
ENDMDL
MODEL 4
REMARK VINA RESULT:      -4.3      2.065      2.382
REMARK  0 active torsions:
REMARK  status: ('A' for Active; 'I' for Inactive)
ROOT
HETATM    1  C1  UNL     1     -34.680  13.429  -4.373  1.00 20.00     0.000 C 
HETATM    2  C2  UNL     1     -35.782  14.344  -3.839  1.00 20.00     0.003 C 
HETATM    3  C3  UNL     1     -33.338  13.730  -3.708  1.00 20.00     0.003 C 
HETATM    4  C4  UNL     1     -35.406  15.822  -3.980  1.00 20.00     0.044 C 
HETATM    5  C5  UNL     1     -32.963  15.204  -3.856  1.00 20.00     0.044 C 
HETATM    6  C6  UNL     1     -35.382  18.373  -1.623  1.00 20.00     0.032 C 
HETATM    7  C7  UNL     1     -34.659  18.499  -2.936  1.00 20.00     0.112 C 
HETATM    8  C8  UNL     1     -35.134  16.945  -1.220  1.00 20.00     0.112 C 
HETATM    9  C9  UNL     1     -34.070  16.102  -3.320  1.00 20.00     0.095 A 
HETATM   10  N10 UNL     1     -33.638  17.458  -2.966  1.00 20.00    -0.223 NA
HETATM   11  N11 UNL     1     -33.932  16.503  -1.917  1.00 20.00    -0.223 NA
ENDROOT
TORSDOF 0
ENDMDL
MODEL 5
REMARK VINA RESULT:      -4.3      2.764      3.801
REMARK  0 active torsions:
REMARK  status: ('A' for Active; 'I' for Inactive)
ROOT
HETATM    1  C1  UNL     1     -33.360  15.242  -3.352  1.00 20.00     0.000 C 
HETATM    2  C2  UNL     1     -34.409  16.350  -3.264  1.00 20.00     0.003 C 
HETATM    3  C3  UNL     1     -33.793  14.143  -4.321  1.00 20.00     0.003 C 
HETATM    4  C4  UNL     1     -35.788  15.794  -2.899  1.00 20.00     0.044 C 
HETATM    5  C5  UNL     1     -35.168  13.586  -3.950  1.00 20.00     0.044 C 
HETATM    6  C6  UNL     1     -38.869  16.221  -4.445  1.00 20.00     0.032 C 
HETATM    7  C7  UNL     1     -38.627  15.121  -3.446  1.00 20.00     0.112 C 
HETATM    8  C8  UNL     1     -37.591  16.261  -5.240  1.00 20.00     0.112 C 
HETATM    9  C9  UNL     1     -36.200  14.702  -3.866  1.00 20.00     0.095 A 
HETATM   10  N10 UNL     1     -37.591  14.257  -4.001  1.00 20.00    -0.223 NA
HETATM   11  N11 UNL     1     -36.953  14.957  -5.097  1.00 20.00    -0.223 NA
ENDROOT
TORSDOF 0
ENDMDL
MODEL 6
REMARK VINA RESULT:      -4.2      2.653      3.730
REMARK  0 active torsions:
REMARK  status: ('A' for Active; 'I' for Inactive)
ROOT
HETATM    1  C1  UNL     1     -34.286  17.654  -0.180  1.00 20.00     0.000 C 
HETATM    2  C2  UNL     1     -34.643  16.448  -1.048  1.00 20.00     0.003 C 
HETATM    3  C3  UNL     1     -34.360  18.954  -0.979  1.00 20.00     0.003 C 
HETATM    4  C4  UNL     1     -33.771  16.381  -2.305  1.00 20.00     0.044 C 
HETATM    5  C5  UNL     1     -33.484  18.886  -2.230  1.00 20.00     0.044 C 
HETATM    6  C6  UNL     1     -34.664  16.095  -5.650  1.00 20.00     0.032 C 
HETATM    7  C7  UNL     1     -33.287  16.534  -5.230  1.00 20.00     0.112 C 
HETATM    8  C8  UNL     1     -35.569  16.783  -4.664  1.00 20.00     0.112 C 
HETATM    9  C9  UNL     1     -33.850  17.680  -3.083  1.00 20.00     0.095 A 
HETATM   10  N10 UNL     1     -33.441  17.780  -4.488  1.00 20.00    -0.223 NA
HETATM   11  N11 UNL     1     -34.838  17.930  -4.137  1.00 20.00    -0.223 NA
ENDROOT
TORSDOF 0
ENDMDL
MODEL 7
REMARK VINA RESULT:      -4.2      1.770      2.750
REMARK  0 active torsions:
REMARK  status: ('A' for Active; 'I' for Inactive)
ROOT
HETATM    1  C1  UNL     1     -34.367  15.140  -7.182  1.00 20.00     0.000 C 
HETATM    2  C2  UNL     1     -34.343  16.492  -6.470  1.00 20.00     0.003 C 
HETATM    3  C3  UNL     1     -35.100  14.089  -6.350  1.00 20.00     0.003 C 
HETATM    4  C4  UNL     1     -33.750  16.379  -5.063  1.00 20.00     0.044 C 
HETATM    5  C5  UNL     1     -34.502  13.974  -4.948  1.00 20.00     0.044 C 
HETATM    6  C6  UNL     1     -35.006  17.429  -2.000  1.00 20.00     0.032 C 
HETATM    7  C7  UNL     1     -33.879  16.436  -2.098  1.00 20.00     0.112 C 
HETATM    8  C8  UNL     1     -35.929  17.024  -3.117  1.00 20.00     0.112 C 
HETATM    9  C9  UNL     1     -34.483  15.329  -4.254  1.00 20.00     0.095 A 
HETATM   10  N10 UNL     1     -34.398  15.263  -2.791  1.00 20.00    -0.223 NA
HETATM   11  N11 UNL     1     -35.652  15.624  -3.420  1.00 20.00    -0.223 NA
ENDROOT
TORSDOF 0
ENDMDL
MODEL 8
REMARK VINA RESULT:      -4.2      1.740      2.809
REMARK  0 active torsions:
REMARK  status: ('A' for Active; 'I' for Inactive)
ROOT
HETATM    1  C1  UNL     1     -33.313  13.647  -3.792  1.00 20.00     0.000 C 
HETATM    2  C2  UNL     1     -33.192  15.129  -3.438  1.00 20.00     0.003 C 
HETATM    3  C3  UNL     1     -34.514  13.389  -4.699  1.00 20.00     0.003 C 
HETATM    4  C4  UNL     1     -34.485  15.669  -2.821  1.00 20.00     0.044 C 
HETATM    5  C5  UNL     1     -35.804  13.923  -4.077  1.00 20.00     0.044 C 
HETATM    6  C6  UNL     1     -36.403  18.436  -3.675  1.00 20.00     0.032 C 
HETATM    7  C7  UNL     1     -36.941  17.336  -2.799  1.00 20.00     0.112 C 
HETATM    8  C8  UNL     1     -35.603  17.698  -4.714  1.00 20.00     0.112 C 
HETATM    9  C9  UNL     1     -35.668  15.399  -3.730  1.00 20.00     0.095 A 
HETATM   10  N10 UNL     1     -36.941  16.114  -3.594  1.00 20.00    -0.223 NA
HETATM   11  N11 UNL     1     -36.118  16.334  -4.766  1.00 20.00    -0.223 NA
ENDROOT
TORSDOF 0
ENDMDL
MODEL 9
REMARK VINA RESULT:      -4.2      2.258      3.982
REMARK  0 active torsions:
REMARK  status: ('A' for Active; 'I' for Inactive)
ROOT
HETATM    1  C1  UNL     1     -36.301  17.913  -1.945  1.00 20.00     0.000 C 
HETATM    2  C2  UNL     1     -36.756  17.288  -3.264  1.00 20.00     0.003 C 
HETATM    3  C3  UNL     1     -34.831  17.609  -1.665  1.00 20.00     0.003 C 
HETATM    4  C4  UNL     1     -36.479  15.782  -3.300  1.00 20.00     0.044 C 
HETATM    5  C5  UNL     1     -34.559  16.105  -1.696  1.00 20.00     0.044 C 
HETATM    6  C6  UNL     1     -34.818  13.855  -5.664  1.00 20.00     0.032 C 
HETATM    7  C7  UNL     1     -35.096  13.344  -4.276  1.00 20.00     0.112 C 
HETATM    8  C8  UNL     1     -34.446  15.296  -5.441  1.00 20.00     0.112 C 
HETATM    9  C9  UNL     1     -35.018  15.498  -3.014  1.00 20.00     0.095 A 
HETATM   10  N10 UNL     1     -34.387  14.216  -3.347  1.00 20.00    -0.223 NA
HETATM   11  N11 UNL     1     -33.993  15.414  -4.060  1.00 20.00    -0.223 NA
ENDROOT
TORSDOF 0
ENDMDL
