MODEL 1
REMARK VINA RESULT:      -2.9      0.000      0.000
REMARK  1 active torsions:
REMARK  status: ('A' for Active; 'I' for Inactive)
REMARK    1  A    between atoms: N5_5  and  N6_6 
ROOT
HETATM    1  C1  UNL     1     -35.038   4.713   5.536  1.00 20.00     0.130 C 
HETATM    2  C2  UNL     1     -33.962   6.663   6.480  1.00 20.00     0.130 C 
HETATM    3  N5  UNL     1     -33.947   5.673   5.405  1.00 20.00    -0.259 NA
ENDROOT
BRANCH   3   4
HETATM    4  N6  UNL     1     -33.954   6.230   4.062  1.00 20.00    -0.259 NA
HETATM    5  C3  UNL     1     -34.748   5.375   3.187  1.00 20.00     0.130 C 
HETATM    6  C4  UNL     1     -32.631   6.501   3.504  1.00 20.00     0.130 C 
ENDBRANCH   3   4
TORSDOF 1
ENDMDL
MODEL 2
REMARK VINA RESULT:      -2.9      0.034      2.505
REMARK  1 active torsions:
REMARK  status: ('A' for Active; 'I' for Inactive)
REMARK    1  A    between atoms: N5_5  and  N6_6 
ROOT
HETATM    1  C1  UNL     1     -34.713   5.389   3.167  1.00 20.00     0.130 C 
HETATM    2  C2  UNL     1     -32.605   6.520   3.523  1.00 20.00     0.130 C 
HETATM    3  N5  UNL     1     -33.933   6.239   4.062  1.00 20.00    -0.259 NA
ENDROOT
BRANCH   3   4
HETATM    4  N6  UNL     1     -33.940   5.665   5.398  1.00 20.00    -0.259 NA
HETATM    5  C3  UNL     1     -35.020   4.690   5.502  1.00 20.00     0.130 C 
HETATM    6  C4  UNL     1     -33.983   6.641   6.484  1.00 20.00     0.130 C 
ENDBRANCH   3   4
TORSDOF 1
ENDMDL
MODEL 3
REMARK VINA RESULT:      -2.8      0.600      2.767
REMARK  1 active torsions:
REMARK  status: ('A' for Active; 'I' for Inactive)
REMARK    1  A    between atoms: N5_5  and  N6_6 
ROOT
HETATM    1  C1  UNL     1     -33.117   6.525   3.832  1.00 20.00     0.130 C 
HETATM    2  C2  UNL     1     -35.306   5.530   3.568  1.00 20.00     0.130 C 
HETATM    3  N5  UNL     1     -33.988   5.409   4.186  1.00 20.00    -0.259 NA
ENDROOT
BRANCH   3   4
HETATM    4  N6  UNL     1     -34.004   5.250   5.631  1.00 20.00    -0.259 NA
HETATM    5  C3  UNL     1     -35.077   4.335   6.007  1.00 20.00     0.130 C 
HETATM    6  C4  UNL     1     -34.069   6.500   6.385  1.00 20.00     0.130 C 
ENDBRANCH   3   4
TORSDOF 1
ENDMDL
MODEL 4
REMARK VINA RESULT:      -2.7      0.472      1.468
REMARK  1 active torsions:
REMARK  status: ('A' for Active; 'I' for Inactive)
REMARK    1  A    between atoms: N5_5  and  N6_6 
ROOT
HETATM    1  C1  UNL     1     -33.942   6.443   6.434  1.00 20.00     0.130 C 
HETATM    2  C2  UNL     1     -34.762   4.327   5.595  1.00 20.00     0.130 C 
HETATM    3  N5  UNL     1     -34.729   5.775   5.402  1.00 20.00    -0.259 NA
ENDROOT
BRANCH   3   4
HETATM    4  N6  UNL     1     -34.269   6.206   4.091  1.00 20.00    -0.259 NA
HETATM    5  C3  UNL     1     -34.681   5.229   3.088  1.00 20.00     0.130 C 
HETATM    6  C4  UNL     1     -32.840   6.499   4.009  1.00 20.00     0.130 C 
ENDBRANCH   3   4
TORSDOF 1
ENDMDL
MODEL 5
REMARK VINA RESULT:      -2.6      9.028      9.991
REMARK  1 active torsions:
REMARK  status: ('A' for Active; 'I' for Inactive)
REMARK    1  A    between atoms: N5_5  and  N6_6 
ROOT
HETATM    1  C1  UNL     1     -41.207   7.402  -0.936  1.00 20.00     0.130 C 
HETATM    2  C2  UNL     1     -42.404   6.417  -2.794  1.00 20.00     0.130 C 
HETATM    3  N5  UNL     1     -41.207   6.359  -1.958  1.00 20.00    -0.259 NA
ENDROOT
BRANCH   3   4
HETATM    4  N6  UNL     1     -40.964   5.070  -1.330  1.00 20.00    -0.259 NA
HETATM    5  C3  UNL     1     -41.550   4.013  -2.149  1.00 20.00     0.130 C 
HETATM    6  C4  UNL     1     -41.391   4.976   0.064  1.00 20.00     0.130 C 
ENDBRANCH   3   4
TORSDOF 1
ENDMDL
MODEL 6
REMARK VINA RESULT:      -2.6      9.023      9.890
REMARK  1 active torsions:
REMARK  status: ('A' for Active; 'I' for Inactive)
REMARK    1  A    between atoms: N5_5  and  N6_6 
ROOT
HETATM    1  C1  UNL     1     -41.565   4.013  -2.203  1.00 20.00     0.130 C 
HETATM    2  C2  UNL     1     -41.326   4.938   0.020  1.00 20.00     0.130 C 
HETATM    3  N5  UNL     1     -40.959   5.062  -1.389  1.00 20.00    -0.259 NA
ENDROOT
BRANCH   3   4
HETATM    4  N6  UNL     1     -41.246   6.359  -1.982  1.00 20.00    -0.259 NA
HETATM    5  C3  UNL     1     -41.245   7.380  -0.939  1.00 20.00     0.130 C 
HETATM    6  C4  UNL     1     -42.463   6.408  -2.788  1.00 20.00     0.130 C 
ENDBRANCH   3   4
TORSDOF 1
ENDMDL
MODEL 7
REMARK VINA RESULT:      -2.6      0.818      2.405
REMARK  1 active torsions:
REMARK  status: ('A' for Active; 'I' for Inactive)
REMARK    1  A    between atoms: N5_5  and  N6_6 
ROOT
HETATM    1  C1  UNL     1     -33.742   6.884   6.401  1.00 20.00     0.130 C 
HETATM    2  C2  UNL     1     -33.158   6.570   4.074  1.00 20.00     0.130 C 
HETATM    3  N5  UNL     1     -33.692   5.946   5.283  1.00 20.00    -0.259 NA
ENDROOT
BRANCH   3   4
HETATM    4  N6  UNL     1     -34.994   5.319   5.122  1.00 20.00    -0.259 NA
HETATM    5  C3  UNL     1     -34.950   3.965   5.664  1.00 20.00     0.130 C 
HETATM    6  C4  UNL     1     -35.522   5.342   3.760  1.00 20.00     0.130 C 
ENDBRANCH   3   4
TORSDOF 1
ENDMDL
MODEL 8
REMARK VINA RESULT:      -2.6      0.830      2.212
REMARK  1 active torsions:
REMARK  status: ('A' for Active; 'I' for Inactive)
REMARK    1  A    between atoms: N5_5  and  N6_6 
ROOT
HETATM    1  C1  UNL     1     -34.959   3.917   5.599  1.00 20.00     0.130 C 
HETATM    2  C2  UNL     1     -35.565   5.376   3.767  1.00 20.00     0.130 C 
HETATM    3  N5  UNL     1     -35.015   5.294   5.118  1.00 20.00    -0.259 NA
ENDROOT
BRANCH   3   4
HETATM    4  N6  UNL     1     -33.711   5.916   5.285  1.00 20.00    -0.259 NA
HETATM    5  C3  UNL     1     -33.761   6.857   6.399  1.00 20.00     0.130 C 
HETATM    6  C4  UNL     1     -33.167   6.532   4.077  1.00 20.00     0.130 C 
ENDBRANCH   3   4
TORSDOF 1
ENDMDL
MODEL 9
REMARK VINA RESULT:      -2.5      0.813      2.252
REMARK  1 active torsions:
REMARK  status: ('A' for Active; 'I' for Inactive)
REMARK    1  A    between atoms: N5_5  and  N6_6 
ROOT
HETATM    1  C1  UNL     1     -32.780   6.575   4.051  1.00 20.00     0.130 C 
HETATM    2  C2  UNL     1     -33.593   6.713   6.325  1.00 20.00     0.130 C 
HETATM    3  N5  UNL     1     -33.933   6.426   4.934  1.00 20.00    -0.259 NA
ENDROOT
BRANCH   3   4
HETATM    4  N6  UNL     1     -34.545   5.126   4.711  1.00 20.00    -0.259 NA
HETATM    5  C3  UNL     1     -35.684   5.274   3.810  1.00 20.00     0.130 C 
HETATM    6  C4  UNL     1     -34.905   4.401   5.927  1.00 20.00     0.130 C 
ENDBRANCH   3   4
TORSDOF 1
ENDMDL
