MODEL 1
REMARK VINA RESULT:      -3.9      0.000      0.000
REMARK  0 active torsions:
REMARK  status: ('A' for Active; 'I' for Inactive)
ROOT
HETATM    1  C1  UNL     1     -35.167   4.861   6.243  1.00 20.00     0.032 C 
HETATM    2  C2  UNL     1     -33.023   6.471   2.848  1.00 20.00     0.032 C 
HETATM    3  C3  UNL     1     -35.142   4.340   4.820  1.00 20.00     0.109 C 
HETATM    4  C4  UNL     1     -34.006   5.834   6.246  1.00 20.00     0.109 C 
HETATM    5  C5  UNL     1     -33.922   5.253   2.893  1.00 20.00     0.109 C 
HETATM    6  C6  UNL     1     -32.791   6.751   4.319  1.00 20.00     0.109 C 
HETATM    7  N7  UNL     1     -34.784   5.522   4.042  1.00 20.00    -0.250 NA
HETATM    8  N8  UNL     1     -34.085   6.445   4.921  1.00 20.00    -0.250 NA
ENDROOT
TORSDOF 0
ENDMDL
MODEL 2
REMARK VINA RESULT:      -3.9      0.067      3.317
REMARK  0 active torsions:
REMARK  status: ('A' for Active; 'I' for Inactive)
ROOT
HETATM    1  C1  UNL     1     -33.007   6.525   2.887  1.00 20.00     0.032 C 
HETATM    2  C2  UNL     1     -35.180   4.773   6.193  1.00 20.00     0.032 C 
HETATM    3  C3  UNL     1     -32.808   6.766   4.370  1.00 20.00     0.109 C 
HETATM    4  C4  UNL     1     -33.881   5.288   2.881  1.00 20.00     0.109 C 
HETATM    5  C5  UNL     1     -34.040   5.769   6.246  1.00 20.00     0.109 C 
HETATM    6  C6  UNL     1     -35.118   4.295   4.756  1.00 20.00     0.109 C 
HETATM    7  N7  UNL     1     -34.106   6.417   4.939  1.00 20.00    -0.250 NA
HETATM    8  N8  UNL     1     -34.770   5.506   4.020  1.00 20.00    -0.250 NA
ENDROOT
TORSDOF 0
ENDMDL
MODEL 3
REMARK VINA RESULT:      -3.5      9.310     10.177
REMARK  0 active torsions:
REMARK  status: ('A' for Active; 'I' for Inactive)
ROOT
HETATM    1  C1  UNL     1     -41.868   7.746  -1.001  1.00 20.00     0.032 C 
HETATM    2  C2  UNL     1     -41.759   3.676  -2.465  1.00 20.00     0.032 C 
HETATM    3  C3  UNL     1     -42.880   7.042  -1.882  1.00 20.00     0.109 C 
HETATM    4  C4  UNL     1     -41.033   6.590  -0.489  1.00 20.00     0.109 C 
HETATM    5  C5  UNL     1     -42.819   4.731  -2.712  1.00 20.00     0.109 C 
HETATM    6  C6  UNL     1     -40.968   4.280  -1.322  1.00 20.00     0.109 C 
HETATM    7  N7  UNL     1     -42.093   5.981  -2.506  1.00 20.00    -0.250 NA
HETATM    8  N8  UNL     1     -40.953   5.703  -1.648  1.00 20.00    -0.250 NA
ENDROOT
TORSDOF 0
ENDMDL
MODEL 4
REMARK VINA RESULT:      -3.5      9.364     10.282
REMARK  0 active torsions:
REMARK  status: ('A' for Active; 'I' for Inactive)
ROOT
HETATM    1  C1  UNL     1     -40.726   4.360  -1.190  1.00 20.00     0.032 C 
HETATM    2  C2  UNL     1     -42.982   7.895  -2.255  1.00 20.00     0.032 C 
HETATM    3  C3  UNL     1     -40.678   5.731  -0.544  1.00 20.00     0.109 C 
HETATM    4  C4  UNL     1     -41.984   4.449  -2.030  1.00 20.00     0.109 C 
HETATM    5  C5  UNL     1     -41.960   7.736  -1.148  1.00 20.00     0.109 C 
HETATM    6  C6  UNL     1     -43.263   6.456  -2.638  1.00 20.00     0.109 C 
HETATM    7  N7  UNL     1     -41.148   6.614  -1.608  1.00 20.00    -0.250 NA
HETATM    8  N8  UNL     1     -41.952   5.823  -2.526  1.00 20.00    -0.250 NA
ENDROOT
TORSDOF 0
ENDMDL
MODEL 5
REMARK VINA RESULT:      -3.5      9.347     10.201
REMARK  0 active torsions:
REMARK  status: ('A' for Active; 'I' for Inactive)
ROOT
HETATM    1  C1  UNL     1     -42.944   7.882  -2.348  1.00 20.00     0.032 C 
HETATM    2  C2  UNL     1     -40.706   4.388  -1.122  1.00 20.00     0.032 C 
HETATM    3  C3  UNL     1     -43.206   6.431  -2.702  1.00 20.00     0.109 C 
HETATM    4  C4  UNL     1     -41.957   7.757  -1.206  1.00 20.00     0.109 C 
HETATM    5  C5  UNL     1     -41.937   4.448  -2.003  1.00 20.00     0.109 C 
HETATM    6  C6  UNL     1     -40.683   5.775  -0.511  1.00 20.00     0.109 C 
HETATM    7  N7  UNL     1     -41.896   5.808  -2.533  1.00 20.00    -0.250 NA
HETATM    8  N8  UNL     1     -41.124   6.627  -1.611  1.00 20.00    -0.250 NA
ENDROOT
TORSDOF 0
ENDMDL
MODEL 6
REMARK VINA RESULT:      -3.4     12.290     13.540
REMARK  0 active torsions:
REMARK  status: ('A' for Active; 'I' for Inactive)
ROOT
HETATM    1  C1  UNL     1     -34.010  13.690  -3.535  1.00 20.00     0.032 C 
HETATM    2  C2  UNL     1     -34.369  16.281  -6.982  1.00 20.00     0.032 C 
HETATM    3  C3  UNL     1     -34.507  13.337  -4.923  1.00 20.00     0.109 C 
HETATM    4  C4  UNL     1     -33.355  15.036  -3.765  1.00 20.00     0.109 C 
HETATM    5  C5  UNL     1     -34.709  14.808  -6.880  1.00 20.00     0.109 C 
HETATM    6  C6  UNL     1     -33.561  16.510  -5.720  1.00 20.00     0.109 C 
HETATM    7  N7  UNL     1     -34.951  14.624  -5.451  1.00 20.00    -0.250 NA
HETATM    8  N8  UNL     1     -34.242  15.673  -4.736  1.00 20.00    -0.250 NA
ENDROOT
TORSDOF 0
ENDMDL
MODEL 7
REMARK VINA RESULT:      -3.4     12.367     13.806
REMARK  0 active torsions:
REMARK  status: ('A' for Active; 'I' for Inactive)
ROOT
HETATM    1  C1  UNL     1     -34.436  14.964  -6.861  1.00 20.00     0.032 C 
HETATM    2  C2  UNL     1     -33.771  16.053  -2.727  1.00 20.00     0.032 C 
HETATM    3  C3  UNL     1     -34.815  14.186  -5.616  1.00 20.00     0.109 C 
HETATM    4  C4  UNL     1     -34.110  16.330  -6.295  1.00 20.00     0.109 C 
HETATM    5  C5  UNL     1     -34.438  14.806  -3.270  1.00 20.00     0.109 C 
HETATM    6  C6  UNL     1     -33.728  16.949  -3.949  1.00 20.00     0.109 C 
HETATM    7  N7  UNL     1     -33.880  14.692  -4.614  1.00 20.00    -0.250 NA
HETATM    8  N8  UNL     1     -33.444  16.014  -5.033  1.00 20.00    -0.250 NA
ENDROOT
TORSDOF 0
ENDMDL
MODEL 8
REMARK VINA RESULT:      -3.4      0.559      2.828
REMARK  0 active torsions:
REMARK  status: ('A' for Active; 'I' for Inactive)
ROOT
HETATM    1  C1  UNL     1     -32.868   6.388   2.957  1.00 20.00     0.032 C 
HETATM    2  C2  UNL     1     -35.168   4.954   6.329  1.00 20.00     0.032 C 
HETATM    3  C3  UNL     1     -34.059   5.451   2.946  1.00 20.00     0.109 C 
HETATM    4  C4  UNL     1     -32.922   6.955   4.361  1.00 20.00     0.109 C 
HETATM    5  C5  UNL     1     -35.365   4.639   4.861  1.00 20.00     0.109 C 
HETATM    6  C6  UNL     1     -34.225   6.139   6.277  1.00 20.00     0.109 C 
HETATM    7  N7  UNL     1     -34.043   4.881   4.290  1.00 20.00    -0.250 NA
HETATM    8  N8  UNL     1     -33.340   5.808   5.164  1.00 20.00    -0.250 NA
ENDROOT
TORSDOF 0
ENDMDL
MODEL 9
REMARK VINA RESULT:      -3.4     12.327     13.919
REMARK  0 active torsions:
REMARK  status: ('A' for Active; 'I' for Inactive)
ROOT
HETATM    1  C1  UNL     1     -34.439  16.255  -7.052  1.00 20.00     0.032 C 
HETATM    2  C2  UNL     1     -34.202  13.664  -3.595  1.00 20.00     0.032 C 
HETATM    3  C3  UNL     1     -33.666  16.478  -5.767  1.00 20.00     0.109 C 
HETATM    4  C4  UNL     1     -34.793  14.785  -6.959  1.00 20.00     0.109 C 
HETATM    5  C5  UNL     1     -33.530  15.005  -3.806  1.00 20.00     0.109 C 
HETATM    6  C6  UNL     1     -34.663  13.314  -4.996  1.00 20.00     0.109 C 
HETATM    7  N7  UNL     1     -34.383  15.647  -4.803  1.00 20.00    -0.250 NA
HETATM    8  N8  UNL     1     -35.080  14.604  -5.538  1.00 20.00    -0.250 NA
ENDROOT
TORSDOF 0
ENDMDL
