MODEL 1
REMARK VINA RESULT:      -5.9      0.000      0.000
REMARK  0 active torsions:
REMARK  status: ('A' for Active; 'I' for Inactive)
ROOT
HETATM    1  C1  UNL     1     -34.552   4.805   6.184  1.00 20.00    -0.029 A 
HETATM    2  C2  UNL     1     -34.067   6.044   6.045  1.00 20.00    -0.018 A 
HETATM    3  C3  UNL     1     -33.160   6.365   3.725  1.00 20.00     0.135 A 
HETATM    4  C4  UNL     1     -35.228   4.280   4.954  1.00 20.00     0.033 A 
HETATM    5  C5  UNL     1     -33.909   5.310   2.896  1.00 20.00     0.084 A 
HETATM    6  C6  UNL     1     -34.342   6.549   4.692  1.00 20.00     0.082 A 
HETATM    7  C7  UNL     1     -35.072   5.406   3.924  1.00 20.00     0.011 A 
HETATM    8  O8  UNL     1     -32.053   6.856   3.648  1.00 20.00    -0.297 OA
ENDROOT
TORSDOF 0
ENDMDL
MODEL 2
REMARK VINA RESULT:      -5.2      1.809      3.269
REMARK  0 active torsions:
REMARK  status: ('A' for Active; 'I' for Inactive)
ROOT
HETATM    1  C1  UNL     1     -32.833   5.976   2.987  1.00 20.00    -0.029 A 
HETATM    2  C2  UNL     1     -33.985   5.320   2.816  1.00 20.00    -0.018 A 
HETATM    3  C3  UNL     1     -34.909   4.593   5.035  1.00 20.00     0.135 A 
HETATM    4  C4  UNL     1     -32.805   6.837   4.213  1.00 20.00     0.033 A 
HETATM    5  C5  UNL     1     -34.265   5.571   6.031  1.00 20.00     0.084 A 
HETATM    6  C6  UNL     1     -34.919   5.637   3.906  1.00 20.00     0.082 A 
HETATM    7  C7  UNL     1     -34.171   6.605   4.873  1.00 20.00     0.011 A 
HETATM    8  O8  UNL     1     -35.264   3.436   5.112  1.00 20.00    -0.297 OA
ENDROOT
TORSDOF 0
ENDMDL
MODEL 3
REMARK VINA RESULT:      -4.6      1.542      2.661
REMARK  0 active torsions:
REMARK  status: ('A' for Active; 'I' for Inactive)
ROOT
HETATM    1  C1  UNL     1     -35.071   5.726   3.412  1.00 20.00    -0.029 A 
HETATM    2  C2  UNL     1     -33.976   6.344   3.867  1.00 20.00    -0.018 A 
HETATM    3  C3  UNL     1     -33.995   6.405   6.378  1.00 20.00     0.135 A 
HETATM    4  C4  UNL     1     -35.511   4.573   4.261  1.00 20.00     0.033 A 
HETATM    5  C5  UNL     1     -34.912   5.232   6.760  1.00 20.00     0.084 A 
HETATM    6  C6  UNL     1     -33.504   5.700   5.102  1.00 20.00     0.082 A 
HETATM    7  C7  UNL     1     -34.508   4.550   5.422  1.00 20.00     0.011 A 
HETATM    8  O8  UNL     1     -33.758   7.480   6.888  1.00 20.00    -0.297 OA
ENDROOT
TORSDOF 0
ENDMDL
MODEL 4
REMARK VINA RESULT:      -4.2     11.632     12.221
REMARK  0 active torsions:
REMARK  status: ('A' for Active; 'I' for Inactive)
ROOT
HETATM    1  C1  UNL     1     -34.901  16.119  -2.170  1.00 20.00    -0.029 A 
HETATM    2  C2  UNL     1     -33.696  15.899  -2.706  1.00 20.00    -0.018 A 
HETATM    3  C3  UNL     1     -33.667  13.689  -3.899  1.00 20.00     0.135 A 
HETATM    4  C4  UNL     1     -36.037  15.622  -3.012  1.00 20.00     0.033 A 
HETATM    5  C5  UNL     1     -35.148  13.435  -4.224  1.00 20.00     0.084 A 
HETATM    6  C6  UNL     1     -33.831  15.215  -4.000  1.00 20.00     0.082 A 
HETATM    7  C7  UNL     1     -35.356  14.977  -4.227  1.00 20.00     0.011 A 
HETATM    8  O8  UNL     1     -32.730  12.960  -3.649  1.00 20.00    -0.297 OA
ENDROOT
TORSDOF 0
ENDMDL
MODEL 5
REMARK VINA RESULT:      -4.1     11.960     13.181
REMARK  0 active torsions:
REMARK  status: ('A' for Active; 'I' for Inactive)
ROOT
HETATM    1  C1  UNL     1     -34.435  16.414  -5.659  1.00 20.00    -0.029 A 
HETATM    2  C2  UNL     1     -35.448  15.704  -5.151  1.00 20.00    -0.018 A 
HETATM    3  C3  UNL     1     -34.579  13.619  -4.052  1.00 20.00     0.135 A 
HETATM    4  C4  UNL     1     -33.193  16.380  -4.821  1.00 20.00     0.033 A 
HETATM    5  C5  UNL     1     -33.121  13.969  -3.716  1.00 20.00     0.084 A 
HETATM    6  C6  UNL     1     -35.044  15.076  -3.884  1.00 20.00     0.082 A 
HETATM    7  C7  UNL     1     -33.552  15.462  -3.645  1.00 20.00     0.011 A 
HETATM    8  O8  UNL     1     -35.143  12.586  -4.346  1.00 20.00    -0.297 OA
ENDROOT
TORSDOF 0
ENDMDL
MODEL 6
REMARK VINA RESULT:      -4.0     11.840     12.739
REMARK  0 active torsions:
REMARK  status: ('A' for Active; 'I' for Inactive)
ROOT
HETATM    1  C1  UNL     1     -33.563  13.658  -3.833  1.00 20.00    -0.029 A 
HETATM    2  C2  UNL     1     -34.627  13.343  -4.580  1.00 20.00    -0.018 A 
HETATM    3  C3  UNL     1     -36.611  14.719  -3.887  1.00 20.00     0.135 A 
HETATM    4  C4  UNL     1     -33.477  15.114  -3.489  1.00 20.00     0.033 A 
HETATM    5  C5  UNL     1     -35.980  15.954  -3.225  1.00 20.00     0.084 A 
HETATM    6  C6  UNL     1     -35.430  14.544  -4.856  1.00 20.00     0.082 A 
HETATM    7  C7  UNL     1     -34.731  15.730  -4.124  1.00 20.00     0.011 A 
HETATM    8  O8  UNL     1     -37.645  14.110  -3.705  1.00 20.00    -0.297 OA
ENDROOT
TORSDOF 0
ENDMDL
MODEL 7
REMARK VINA RESULT:      -4.0     11.976     12.936
REMARK  0 active torsions:
REMARK  status: ('A' for Active; 'I' for Inactive)
ROOT
HETATM    1  C1  UNL     1     -33.855  16.416  -3.303  1.00 20.00    -0.029 A 
HETATM    2  C2  UNL     1     -34.536  15.479  -2.634  1.00 20.00    -0.018 A 
HETATM    3  C3  UNL     1     -36.077  14.249  -4.190  1.00 20.00     0.135 A 
HETATM    4  C4  UNL     1     -33.470  16.005  -4.692  1.00 20.00     0.033 A 
HETATM    5  C5  UNL     1     -35.435  14.455  -5.571  1.00 20.00     0.084 A 
HETATM    6  C6  UNL     1     -34.717  14.285  -3.472  1.00 20.00     0.082 A 
HETATM    7  C7  UNL     1     -34.063  14.600  -4.852  1.00 20.00     0.011 A 
HETATM    8  O8  UNL     1     -37.223  14.117  -3.812  1.00 20.00    -0.297 OA
ENDROOT
TORSDOF 0
ENDMDL
MODEL 8
REMARK VINA RESULT:      -4.0     12.132     13.090
REMARK  0 active torsions:
REMARK  status: ('A' for Active; 'I' for Inactive)
ROOT
HETATM    1  C1  UNL     1     -34.903  16.525  -3.217  1.00 20.00    -0.029 A 
HETATM    2  C2  UNL     1     -34.401  15.348  -2.828  1.00 20.00    -0.018 A 
HETATM    3  C3  UNL     1     -34.537  13.683  -4.703  1.00 20.00     0.135 A 
HETATM    4  C4  UNL     1     -34.604  16.866  -4.646  1.00 20.00     0.033 A 
HETATM    5  C5  UNL     1     -34.595  14.563  -5.963  1.00 20.00     0.084 A 
HETATM    6  C6  UNL     1     -33.682  14.709  -3.939  1.00 20.00     0.082 A 
HETATM    7  C7  UNL     1     -33.822  15.655  -5.170  1.00 20.00     0.011 A 
HETATM    8  O8  UNL     1     -34.999  12.598  -4.421  1.00 20.00    -0.297 OA
ENDROOT
TORSDOF 0
ENDMDL
MODEL 9
REMARK VINA RESULT:      -3.9     12.330     13.240
REMARK  0 active torsions:
REMARK  status: ('A' for Active; 'I' for Inactive)
ROOT
HETATM    1  C1  UNL     1     -33.748  17.810  -0.996  1.00 20.00    -0.029 A 
HETATM    2  C2  UNL     1     -33.682  18.230  -2.264  1.00 20.00    -0.018 A 
HETATM    3  C3  UNL     1     -33.622  16.265  -3.827  1.00 20.00     0.135 A 
HETATM    4  C4  UNL     1     -34.587  16.582  -0.810  1.00 20.00     0.033 A 
HETATM    5  C5  UNL     1     -34.265  15.134  -3.009  1.00 20.00     0.084 A 
HETATM    6  C6  UNL     1     -34.470  17.345  -3.135  1.00 20.00     0.082 A 
HETATM    7  C7  UNL     1     -35.054  16.221  -2.226  1.00 20.00     0.011 A 
HETATM    8  O8  UNL     1     -32.764  16.291  -4.685  1.00 20.00    -0.297 OA
ENDROOT
TORSDOF 0
ENDMDL
