MODEL 1
REMARK VINA RESULT:      -3.9      0.000      0.000
REMARK  2 active torsions:
REMARK  status: ('A' for Active; 'I' for Inactive)
REMARK    1  A    between atoms: C6_6  and  N9_9 
REMARK    2  A    between atoms: C7_7  and  N9_9 
ROOT
HETATM    1  C1  UNL     1     -34.602  13.786  -4.351  1.00 20.00     0.100 C 
HETATM    2  C4  UNL     1     -32.604  15.046  -3.658  1.00 20.00     0.065 C 
HETATM    3  C5  UNL     1     -33.947  15.765  -5.655  1.00 20.00     0.065 C 
HETATM    4  C7  UNL     1     -34.006  15.132  -4.263  1.00 20.00     0.237 C 
HETATM    5  N8  UNL     1     -35.070  12.726  -4.421  1.00 20.00    -0.195 NA
ENDROOT
BRANCH   4   6
HETATM    6  N9  UNL     1     -34.826  15.967  -3.404  1.00 20.00     0.110 N 
HETATM    7  H23 UNL     1     -35.494  15.382  -2.898  1.00 20.00     0.318 HD
BRANCH   6   8
HETATM    8  C6  UNL     1     -34.008  16.696  -2.442  1.00 20.00     0.214 C 
HETATM    9  C2  UNL     1     -34.596  16.514  -1.050  1.00 20.00     0.042 C 
HETATM   10  C3  UNL     1     -33.961  18.162  -2.846  1.00 20.00     0.042 C 
ENDBRANCH   6   8
ENDBRANCH   4   6
TORSDOF 2
ENDMDL
MODEL 2
REMARK VINA RESULT:      -3.9      1.287      2.875
REMARK  2 active torsions:
REMARK  status: ('A' for Active; 'I' for Inactive)
REMARK    1  A    between atoms: C6_6  and  N9_9 
REMARK    2  A    between atoms: C7_7  and  N9_9 
ROOT
HETATM    1  C1  UNL     1     -34.733  13.837  -4.027  1.00 20.00     0.100 C 
HETATM    2  C4  UNL     1     -34.867  15.595  -2.309  1.00 20.00     0.065 C 
HETATM    3  C5  UNL     1     -32.779  15.287  -3.672  1.00 20.00     0.065 C 
HETATM    4  C7  UNL     1     -34.307  15.205  -3.678  1.00 20.00     0.237 C 
HETATM    5  N8  UNL     1     -35.067  12.759  -4.301  1.00 20.00    -0.195 NA
ENDROOT
BRANCH   4   6
HETATM    6  N9  UNL     1     -34.821  16.136  -4.667  1.00 20.00     0.110 N 
HETATM    7  H23 UNL     1     -35.085  17.009  -4.207  1.00 20.00     0.318 HD
BRANCH   6   8
HETATM    8  C6  UNL     1     -33.822  16.422  -5.690  1.00 20.00     0.214 C 
HETATM    9  C2  UNL     1     -33.673  17.930  -5.833  1.00 20.00     0.042 C 
HETATM   10  C3  UNL     1     -34.255  15.771  -6.996  1.00 20.00     0.042 C 
ENDBRANCH   6   8
ENDBRANCH   4   6
TORSDOF 2
ENDMDL
MODEL 3
REMARK VINA RESULT:      -3.8      1.512      2.389
REMARK  2 active torsions:
REMARK  status: ('A' for Active; 'I' for Inactive)
REMARK    1  A    between atoms: C6_6  and  N9_9 
REMARK    2  A    between atoms: C7_7  and  N9_9 
ROOT
HETATM    1  C1  UNL     1     -34.781  13.671  -5.111  1.00 20.00     0.100 C 
HETATM    2  C4  UNL     1     -34.469  14.864  -7.243  1.00 20.00     0.065 C 
HETATM    3  C5  UNL     1     -36.010  15.770  -5.478  1.00 20.00     0.065 C 
HETATM    4  C7  UNL     1     -34.711  15.004  -5.738  1.00 20.00     0.237 C 
HETATM    5  N8  UNL     1     -34.839  12.622  -4.618  1.00 20.00    -0.195 NA
ENDROOT
BRANCH   4   6
HETATM    6  N9  UNL     1     -33.605  15.749  -5.163  1.00 20.00     0.110 N 
HETATM    7  H23 UNL     1     -33.095  16.230  -5.907  1.00 20.00     0.318 HD
BRANCH   6   8
HETATM    8  C6  UNL     1     -34.081  16.735  -4.200  1.00 20.00     0.214 C 
HETATM    9  C2  UNL     1     -33.517  18.101  -4.566  1.00 20.00     0.042 C 
HETATM   10  C3  UNL     1     -33.655  16.306  -2.804  1.00 20.00     0.042 C 
ENDBRANCH   6   8
ENDBRANCH   4   6
TORSDOF 2
ENDMDL
MODEL 4
REMARK VINA RESULT:      -3.8      2.020      3.425
REMARK  2 active torsions:
REMARK  status: ('A' for Active; 'I' for Inactive)
REMARK    1  A    between atoms: C6_6  and  N9_9 
REMARK    2  A    between atoms: C7_7  and  N9_9 
ROOT
HETATM    1  C1  UNL     1     -37.230  14.588  -3.848  1.00 20.00     0.100 C 
HETATM    2  C4  UNL     1     -35.316  15.593  -2.670  1.00 20.00     0.065 C 
HETATM    3  C5  UNL     1     -35.014  13.552  -4.103  1.00 20.00     0.065 C 
HETATM    4  C7  UNL     1     -35.784  14.864  -3.931  1.00 20.00     0.237 C 
HETATM    5  N8  UNL     1     -38.368  14.369  -3.781  1.00 20.00    -0.195 NA
ENDROOT
BRANCH   4   6
HETATM    6  N9  UNL     1     -35.521  15.714  -5.078  1.00 20.00     0.110 N 
HETATM    7  H23 UNL     1     -35.552  16.694  -4.790  1.00 20.00     0.318 HD
BRANCH   6   8
HETATM    8  C6  UNL     1     -34.212  15.430  -5.654  1.00 20.00     0.214 C 
HETATM    9  C2  UNL     1     -33.282  16.604  -5.381  1.00 20.00     0.042 C 
HETATM   10  C3  UNL     1     -34.375  15.176  -7.146  1.00 20.00     0.042 C 
ENDBRANCH   6   8
ENDBRANCH   4   6
TORSDOF 2
ENDMDL
MODEL 5
REMARK VINA RESULT:      -3.8      1.917      2.444
REMARK  2 active torsions:
REMARK  status: ('A' for Active; 'I' for Inactive)
REMARK    1  A    between atoms: C6_6  and  N9_9 
REMARK    2  A    between atoms: C7_7  and  N9_9 
ROOT
HETATM    1  C1  UNL     1     -37.204  14.521  -4.092  1.00 20.00     0.100 C 
HETATM    2  C4  UNL     1     -35.095  13.290  -4.407  1.00 20.00     0.065 C 
HETATM    3  C5  UNL     1     -36.016  14.748  -6.233  1.00 20.00     0.065 C 
HETATM    4  C7  UNL     1     -35.870  14.571  -4.720  1.00 20.00     0.237 C 
HETATM    5  N8  UNL     1     -38.254  14.480  -3.598  1.00 20.00    -0.195 NA
ENDROOT
BRANCH   4   6
HETATM    6  N9  UNL     1     -35.129  15.699  -4.187  1.00 20.00     0.110 N 
HETATM    7  H23 UNL     1     -35.783  16.407  -3.847  1.00 20.00     0.318 HD
BRANCH   6   8
HETATM    8  C6  UNL     1     -34.263  15.287  -3.088  1.00 20.00     0.214 C 
HETATM    9  C2  UNL     1     -34.605  16.105  -1.851  1.00 20.00     0.042 C 
HETATM   10  C3  UNL     1     -32.812  15.477  -3.506  1.00 20.00     0.042 C 
ENDBRANCH   6   8
ENDBRANCH   4   6
TORSDOF 2
ENDMDL
MODEL 6
REMARK VINA RESULT:      -3.6      1.272      1.964
REMARK  2 active torsions:
REMARK  status: ('A' for Active; 'I' for Inactive)
REMARK    1  A    between atoms: C6_6  and  N9_9 
REMARK    2  A    between atoms: C7_7  and  N9_9 
ROOT
HETATM    1  C1  UNL     1     -34.248  15.115  -5.686  1.00 20.00     0.100 C 
HETATM    2  C4  UNL     1     -35.182  13.387  -4.201  1.00 20.00     0.065 C 
HETATM    3  C5  UNL     1     -32.955  14.439  -3.706  1.00 20.00     0.065 C 
HETATM    4  C7  UNL     1     -34.353  14.670  -4.284  1.00 20.00     0.237 C 
HETATM    5  N8  UNL     1     -34.163  15.463  -6.791  1.00 20.00    -0.195 NA
ENDROOT
BRANCH   4   6
HETATM    6  N9  UNL     1     -35.017  15.697  -3.502  1.00 20.00     0.110 N 
HETATM    7  H23 UNL     1     -35.731  15.267  -2.910  1.00 20.00     0.318 HD
BRANCH   6   8
HETATM    8  C6  UNL     1     -34.068  16.412  -2.657  1.00 20.00     0.214 C 
HETATM    9  C2  UNL     1     -34.596  16.441  -1.229  1.00 20.00     0.042 C 
HETATM   10  C3  UNL     1     -33.871  17.815  -3.213  1.00 20.00     0.042 C 
ENDBRANCH   6   8
ENDBRANCH   4   6
TORSDOF 2
ENDMDL
MODEL 7
REMARK VINA RESULT:      -3.5      2.709      3.168
REMARK  2 active torsions:
REMARK  status: ('A' for Active; 'I' for Inactive)
REMARK    1  A    between atoms: C6_6  and  N9_9 
REMARK    2  A    between atoms: C7_7  and  N9_9 
ROOT
HETATM    1  C1  UNL     1     -35.230  13.890  -4.011  1.00 20.00     0.100 C 
HETATM    2  C4  UNL     1     -34.441  15.709  -2.551  1.00 20.00     0.065 C 
HETATM    3  C5  UNL     1     -35.537  16.214  -4.754  1.00 20.00     0.065 C 
HETATM    4  C7  UNL     1     -35.507  15.265  -3.554  1.00 20.00     0.237 C 
HETATM    5  N8  UNL     1     -35.011  12.808  -4.372  1.00 20.00    -0.195 NA
ENDROOT
BRANCH   4   6
HETATM    6  N9  UNL     1     -36.801  15.302  -2.896  1.00 20.00     0.110 N 
HETATM    7  H23 UNL     1     -36.742  15.888  -2.062  1.00 20.00     0.318 HD
BRANCH   6   8
HETATM    8  C6  UNL     1     -37.827  15.840  -3.782  1.00 20.00     0.214 C 
HETATM    9  C2  UNL     1     -38.506  17.018  -3.100  1.00 20.00     0.042 C 
HETATM   10  C3  UNL     1     -38.818  14.734  -4.117  1.00 20.00     0.042 C 
ENDBRANCH   6   8
ENDBRANCH   4   6
TORSDOF 2
ENDMDL
MODEL 8
REMARK VINA RESULT:      -3.5      1.821      3.492
REMARK  2 active torsions:
REMARK  status: ('A' for Active; 'I' for Inactive)
REMARK    1  A    between atoms: C6_6  and  N9_9 
REMARK    2  A    between atoms: C7_7  and  N9_9 
ROOT
HETATM    1  C1  UNL     1     -34.440  15.402  -2.815  1.00 20.00     0.100 C 
HETATM    2  C4  UNL     1     -33.022  13.540  -3.579  1.00 20.00     0.065 C 
HETATM    3  C5  UNL     1     -35.431  13.689  -4.275  1.00 20.00     0.065 C 
HETATM    4  C7  UNL     1     -34.169  14.487  -3.939  1.00 20.00     0.237 C 
HETATM    5  N8  UNL     1     -34.655  16.121  -1.929  1.00 20.00    -0.195 NA
ENDROOT
BRANCH   4   6
HETATM    6  N9  UNL     1     -33.779  15.259  -5.105  1.00 20.00     0.110 N 
HETATM    7  H23 UNL     1     -33.038  14.766  -5.607  1.00 20.00     0.318 HD
BRANCH   6   8
HETATM    8  C6  UNL     1     -34.908  15.461  -6.004  1.00 20.00     0.214 C 
HETATM    9  C2  UNL     1     -34.536  14.960  -7.392  1.00 20.00     0.042 C 
HETATM   10  C3  UNL     1     -35.270  16.940  -6.016  1.00 20.00     0.042 C 
ENDBRANCH   6   8
ENDBRANCH   4   6
TORSDOF 2
ENDMDL
MODEL 9
REMARK VINA RESULT:      -3.5     10.621     11.640
REMARK  2 active torsions:
REMARK  status: ('A' for Active; 'I' for Inactive)
REMARK    1  A    between atoms: C6_6  and  N9_9 
REMARK    2  A    between atoms: C7_7  and  N9_9 
ROOT
HETATM    1  C1  UNL     1     -32.186   8.051   2.066  1.00 20.00     0.100 C 
HETATM    2  C4  UNL     1     -31.937   5.739   2.874  1.00 20.00     0.065 C 
HETATM    3  C5  UNL     1     -31.309   7.684   4.334  1.00 20.00     0.065 C 
HETATM    4  C7  UNL     1     -32.271   7.182   3.255  1.00 20.00     0.237 C 
HETATM    5  N8  UNL     1     -32.117   8.735   1.130  1.00 20.00    -0.195 NA
ENDROOT
BRANCH   4   6
HETATM    6  N9  UNL     1     -33.624   7.217   3.781  1.00 20.00     0.110 N 
HETATM    7  H23 UNL     1     -34.283   7.376   3.016  1.00 20.00     0.318 HD
BRANCH   6   8
HETATM    8  C6  UNL     1     -33.962   5.965   4.445  1.00 20.00     0.214 C 
HETATM    9  C2  UNL     1     -35.237   5.403   3.831  1.00 20.00     0.042 C 
HETATM   10  C3  UNL     1     -34.123   6.225   5.936  1.00 20.00     0.042 C 
ENDBRANCH   6   8
ENDBRANCH   4   6
TORSDOF 2
ENDMDL
