MODEL 1
REMARK VINA RESULT:      -4.3      0.000      0.000
REMARK  0 active torsions:
REMARK  status: ('A' for Active; 'I' for Inactive)
ROOT
HETATM    1  C1  UNL     1     -32.534   6.707   2.843  1.00 20.00     0.086 C 
HETATM    2  C2  UNL     1     -33.631   5.718   2.578  1.00 20.00     0.055 C 
HETATM    3  C3  UNL     1     -35.157   4.463   5.923  1.00 20.00     0.030 C 
HETATM    4  C4  UNL     1     -35.169   4.679   4.404  1.00 20.00     0.010 C 
HETATM    5  C5  UNL     1     -34.701   5.714   6.694  1.00 20.00     0.272 C 
HETATM    6  C6  UNL     1     -33.830   5.269   4.006  1.00 20.00     0.045 C 
HETATM    7  C7  UNL     1     -33.585   6.575   4.756  1.00 20.00     0.345 C 
HETATM    8  N8  UNL     1     -32.427   7.174   4.053  1.00 20.00    -0.270 NA
HETATM    9  N9  UNL     1     -33.443   6.282   6.182  1.00 20.00     0.108 N 
HETATM   10  H21 UNL     1     -33.238   7.146   6.684  1.00 20.00     0.318 HD
ENDROOT
TORSDOF 0
ENDMDL
MODEL 2
REMARK VINA RESULT:      -4.2     12.238     13.818
REMARK  0 active torsions:
REMARK  status: ('A' for Active; 'I' for Inactive)
ROOT
HETATM    1  C1  UNL     1     -35.128  15.710  -7.655  1.00 20.00     0.086 C 
HETATM    2  C2  UNL     1     -35.646  14.482  -6.965  1.00 20.00     0.055 C 
HETATM    3  C3  UNL     1     -33.522  13.708  -3.806  1.00 20.00     0.030 C 
HETATM    4  C4  UNL     1     -34.771  13.577  -4.686  1.00 20.00     0.010 C 
HETATM    5  C5  UNL     1     -33.045  15.165  -3.671  1.00 20.00     0.272 C 
HETATM    6  C6  UNL     1     -34.514  14.328  -5.979  1.00 20.00     0.045 C 
HETATM    7  C7  UNL     1     -34.187  15.789  -5.683  1.00 20.00     0.345 C 
HETATM    8  N8  UNL     1     -34.270  16.444  -7.009  1.00 20.00    -0.270 NA
HETATM    9  N9  UNL     1     -32.915  15.854  -4.965  1.00 20.00     0.108 N 
HETATM   10  H21 UNL     1     -32.670  16.830  -4.802  1.00 20.00     0.318 HD
ENDROOT
TORSDOF 0
ENDMDL
MODEL 3
REMARK VINA RESULT:      -4.2     11.831     12.759
REMARK  0 active torsions:
REMARK  status: ('A' for Active; 'I' for Inactive)
ROOT
HETATM    1  C1  UNL     1     -37.858  15.372  -3.455  1.00 20.00     0.086 C 
HETATM    2  C2  UNL     1     -36.739  16.365  -3.329  1.00 20.00     0.055 C 
HETATM    3  C3  UNL     1     -33.303  14.576  -3.618  1.00 20.00     0.030 C 
HETATM    4  C4  UNL     1     -34.215  15.809  -3.644  1.00 20.00     0.010 C 
HETATM    5  C5  UNL     1     -33.897  13.387  -4.393  1.00 20.00     0.272 C 
HETATM    6  C6  UNL     1     -35.610  15.368  -3.242  1.00 20.00     0.045 C 
HETATM    7  C7  UNL     1     -36.110  14.280  -4.188  1.00 20.00     0.345 C 
HETATM    8  N8  UNL     1     -37.555  14.178  -3.875  1.00 20.00    -0.270 NA
HETATM    9  N9  UNL     1     -35.287  13.085  -4.014  1.00 20.00     0.108 N 
HETATM   10  H21 UNL     1     -35.642  12.340  -4.613  1.00 20.00     0.318 HD
ENDROOT
TORSDOF 0
ENDMDL
MODEL 4
REMARK VINA RESULT:      -4.0     12.214     13.793
REMARK  0 active torsions:
REMARK  status: ('A' for Active; 'I' for Inactive)
ROOT
HETATM    1  C1  UNL     1     -33.879  17.591  -6.146  1.00 20.00     0.086 C 
HETATM    2  C2  UNL     1     -34.952  16.631  -6.572  1.00 20.00     0.055 C 
HETATM    3  C3  UNL     1     -34.427  13.177  -4.873  1.00 20.00     0.030 C 
HETATM    4  C4  UNL     1     -35.259  14.228  -5.618  1.00 20.00     0.010 C 
HETATM    5  C5  UNL     1     -33.617  13.780  -3.712  1.00 20.00     0.272 C 
HETATM    6  C6  UNL     1     -34.347  15.389  -5.962  1.00 20.00     0.045 C 
HETATM    7  C7  UNL     1     -33.725  15.964  -4.693  1.00 20.00     0.345 C 
HETATM    8  N8  UNL     1     -33.129  17.245  -5.140  1.00 20.00    -0.270 NA
HETATM    9  N9  UNL     1     -32.834  14.963  -4.107  1.00 20.00     0.108 N 
HETATM   10  H21 UNL     1     -32.382  15.356  -3.281  1.00 20.00     0.318 HD
ENDROOT
TORSDOF 0
ENDMDL
MODEL 5
REMARK VINA RESULT:      -4.0      1.499      2.088
REMARK  0 active torsions:
REMARK  status: ('A' for Active; 'I' for Inactive)
ROOT
HETATM    1  C1  UNL     1     -33.020   6.398   2.619  1.00 20.00     0.086 C 
HETATM    2  C2  UNL     1     -32.628   6.963   3.954  1.00 20.00     0.055 C 
HETATM    3  C3  UNL     1     -34.888   5.503   6.756  1.00 20.00     0.030 C 
HETATM    4  C4  UNL     1     -33.634   6.217   6.236  1.00 20.00     0.010 C 
HETATM    5  C5  UNL     1     -35.239   4.252   5.933  1.00 20.00     0.272 C 
HETATM    6  C6  UNL     1     -33.793   6.413   4.741  1.00 20.00     0.045 C 
HETATM    7  C7  UNL     1     -33.998   5.067   4.053  1.00 20.00     0.345 C 
HETATM    8  N8  UNL     1     -33.826   5.377   2.614  1.00 20.00    -0.270 NA
HETATM    9  N9  UNL     1     -35.277   4.505   4.483  1.00 20.00     0.108 N 
HETATM   10  H21 UNL     1     -35.440   3.625   3.995  1.00 20.00     0.318 HD
ENDROOT
TORSDOF 0
ENDMDL
MODEL 6
REMARK VINA RESULT:      -3.9     12.447     13.268
REMARK  0 active torsions:
REMARK  status: ('A' for Active; 'I' for Inactive)
ROOT
HETATM    1  C1  UNL     1     -34.935  13.688  -5.614  1.00 20.00     0.086 C 
HETATM    2  C2  UNL     1     -35.329  13.642  -4.166  1.00 20.00     0.055 C 
HETATM    3  C3  UNL     1     -33.845  16.686  -2.264  1.00 20.00     0.030 C 
HETATM    4  C4  UNL     1     -34.814  15.509  -2.426  1.00 20.00     0.010 C 
HETATM    5  C5  UNL     1     -33.721  17.529  -3.545  1.00 20.00     0.272 C 
HETATM    6  C6  UNL     1     -34.437  14.763  -3.692  1.00 20.00     0.045 C 
HETATM    7  C7  UNL     1     -34.492  15.704  -4.892  1.00 20.00     0.345 C 
HETATM    8  N8  UNL     1     -34.412  14.793  -6.058  1.00 20.00    -0.270 NA
HETATM    9  N9  UNL     1     -33.451  16.720  -4.745  1.00 20.00     0.108 N 
HETATM   10  H21 UNL     1     -33.455  17.327  -5.565  1.00 20.00     0.318 HD
ENDROOT
TORSDOF 0
ENDMDL
MODEL 7
REMARK VINA RESULT:      -3.9      9.906     10.709
REMARK  0 active torsions:
REMARK  status: ('A' for Active; 'I' for Inactive)
ROOT
HETATM    1  C1  UNL     1     -43.145   4.087  -3.334  1.00 20.00     0.086 C 
HETATM    2  C2  UNL     1     -42.618   3.535  -2.041  1.00 20.00     0.055 C 
HETATM    3  C3  UNL     1     -40.508   6.217  -0.185  1.00 20.00     0.030 C 
HETATM    4  C4  UNL     1     -41.310   4.911  -0.260  1.00 20.00     0.010 C 
HETATM    5  C5  UNL     1     -41.209   7.382  -0.903  1.00 20.00     0.272 C 
HETATM    6  C6  UNL     1     -41.693   4.680  -1.709  1.00 20.00     0.045 C 
HETATM    7  C7  UNL     1     -42.498   5.865  -2.236  1.00 20.00     0.345 C 
HETATM    8  N8  UNL     1     -43.052   5.371  -3.519  1.00 20.00    -0.270 NA
HETATM    9  N9  UNL     1     -41.637   7.045  -2.271  1.00 20.00     0.108 N 
HETATM   10  H21 UNL     1     -42.157   7.831  -2.662  1.00 20.00     0.318 HD
ENDROOT
TORSDOF 0
ENDMDL
MODEL 8
REMARK VINA RESULT:      -3.9     10.090     10.757
REMARK  0 active torsions:
REMARK  status: ('A' for Active; 'I' for Inactive)
ROOT
HETATM    1  C1  UNL     1     -43.417   7.114  -3.505  1.00 20.00     0.086 C 
HETATM    2  C2  UNL     1     -42.564   7.997  -2.642  1.00 20.00     0.055 C 
HETATM    3  C3  UNL     1     -40.714   5.884   0.042  1.00 20.00     0.030 C 
HETATM    4  C4  UNL     1     -40.929   7.146  -0.803  1.00 20.00     0.010 C 
HETATM    5  C5  UNL     1     -40.814   4.593  -0.789  1.00 20.00     0.272 C 
HETATM    6  C6  UNL     1     -42.199   6.957  -1.610  1.00 20.00     0.045 C 
HETATM    7  C7  UNL     1     -42.088   5.710  -2.482  1.00 20.00     0.345 C 
HETATM    8  N8  UNL     1     -43.234   5.829  -3.415  1.00 20.00    -0.270 NA
HETATM    9  N9  UNL     1     -42.028   4.532  -1.619  1.00 20.00     0.108 N 
HETATM   10  H21 UNL     1     -41.997   3.692  -2.196  1.00 20.00     0.318 HD
ENDROOT
TORSDOF 0
ENDMDL
MODEL 9
REMARK VINA RESULT:      -3.9     11.991     12.821
REMARK  0 active torsions:
REMARK  status: ('A' for Active; 'I' for Inactive)
ROOT
HETATM    1  C1  UNL     1     -34.883  17.784  -1.366  1.00 20.00     0.086 C 
HETATM    2  C2  UNL     1     -33.701  17.016  -1.881  1.00 20.00     0.055 C 
HETATM    3  C3  UNL     1     -34.879  13.841  -3.785  1.00 20.00     0.030 C 
HETATM    4  C4  UNL     1     -33.848  14.912  -3.408  1.00 20.00     0.010 C 
HETATM    5  C5  UNL     1     -36.265  14.436  -4.084  1.00 20.00     0.272 C 
HETATM    6  C6  UNL     1     -34.455  15.787  -2.329  1.00 20.00     0.045 C 
HETATM    7  C7  UNL     1     -35.756  16.411  -2.827  1.00 20.00     0.345 C 
HETATM    8  N8  UNL     1     -36.057  17.452  -1.816  1.00 20.00    -0.270 NA
HETATM    9  N9  UNL     1     -36.741  15.351  -3.033  1.00 20.00     0.108 N 
HETATM   10  H21 UNL     1     -37.626  15.766  -3.326  1.00 20.00     0.318 HD
ENDROOT
TORSDOF 0
ENDMDL
