MODEL 1
REMARK VINA RESULT:      -4.3      0.000      0.000
REMARK  2 active torsions:
REMARK  status: ('A' for Active; 'I' for Inactive)
REMARK    1  A    between atoms: C2_2  and  C3_3 
REMARK    2  A    between atoms: C2_2  and  N4_4 
ROOT
HETATM    1  C1  UNL     1     -32.818   6.777   3.171  1.00 20.00     0.157 C 
HETATM    2  N4  UNL     1     -33.400   5.937   3.753  1.00 20.00    -0.267 NA
HETATM    3  S8  UNL     1     -32.032   7.898   2.360  1.00 20.00    -0.055 SA
ENDROOT
BRANCH   2   4
HETATM    4  C2  UNL     1     -33.705   6.253   5.149  1.00 20.00     0.267 C 
BRANCH   4   5
HETATM    5  C3  UNL     1     -34.653   5.217   5.696  1.00 20.00     0.405 C 
HETATM    6  F5  UNL     1     -35.671   5.004   4.833  1.00 20.00    -0.169 F 
HETATM    7  F6  UNL     1     -35.191   5.612   6.871  1.00 20.00    -0.169 F 
HETATM    8  F7  UNL     1     -34.031   4.035   5.896  1.00 20.00    -0.169 F 
ENDBRANCH   4   5
ENDBRANCH   2   4
TORSDOF 2
ENDMDL
MODEL 2
REMARK VINA RESULT:      -4.3      0.058      1.337
REMARK  2 active torsions:
REMARK  status: ('A' for Active; 'I' for Inactive)
REMARK    1  A    between atoms: C2_2  and  C3_3 
REMARK    2  A    between atoms: C2_2  and  N4_4 
ROOT
HETATM    1  C1  UNL     1     -32.852   6.761   3.171  1.00 20.00     0.157 C 
HETATM    2  N4  UNL     1     -33.453   5.922   3.735  1.00 20.00    -0.267 NA
HETATM    3  S8  UNL     1     -32.041   7.883   2.383  1.00 20.00    -0.055 SA
ENDROOT
BRANCH   2   4
HETATM    4  C2  UNL     1     -33.742   6.210   5.140  1.00 20.00     0.267 C 
BRANCH   4   5
HETATM    5  C3  UNL     1     -34.702   5.177   5.670  1.00 20.00     0.405 C 
HETATM    6  F5  UNL     1     -34.069   3.999   5.866  1.00 20.00    -0.169 F 
HETATM    7  F6  UNL     1     -35.717   4.956   4.807  1.00 20.00    -0.169 F 
HETATM    8  F7  UNL     1     -35.233   5.557   6.852  1.00 20.00    -0.169 F 
ENDBRANCH   4   5
ENDBRANCH   2   4
TORSDOF 2
ENDMDL
MODEL 3
REMARK VINA RESULT:      -4.3      0.053      1.339
REMARK  2 active torsions:
REMARK  status: ('A' for Active; 'I' for Inactive)
REMARK    1  A    between atoms: C2_2  and  C3_3 
REMARK    2  A    between atoms: C2_2  and  N4_4 
ROOT
HETATM    1  C1  UNL     1     -32.830   6.784   3.141  1.00 20.00     0.157 C 
HETATM    2  N4  UNL     1     -33.425   5.940   3.704  1.00 20.00    -0.267 NA
HETATM    3  S8  UNL     1     -32.027   7.912   2.355  1.00 20.00    -0.055 SA
ENDROOT
BRANCH   2   4
HETATM    4  C2  UNL     1     -33.690   6.211   5.117  1.00 20.00     0.267 C 
BRANCH   4   5
HETATM    5  C3  UNL     1     -34.670   5.193   5.642  1.00 20.00     0.405 C 
HETATM    6  F5  UNL     1     -35.195   5.604   6.817  1.00 20.00    -0.169 F 
HETATM    7  F6  UNL     1     -34.075   4.000   5.856  1.00 20.00    -0.169 F 
HETATM    8  F7  UNL     1     -35.693   5.002   4.781  1.00 20.00    -0.169 F 
ENDBRANCH   4   5
ENDBRANCH   2   4
TORSDOF 2
ENDMDL
MODEL 4
REMARK VINA RESULT:      -4.2      1.309      1.355
REMARK  2 active torsions:
REMARK  status: ('A' for Active; 'I' for Inactive)
REMARK    1  A    between atoms: C2_2  and  C3_3 
REMARK    2  A    between atoms: C2_2  and  N4_4 
ROOT
HETATM    1  C1  UNL     1     -32.549   7.001   3.005  1.00 20.00     0.157 C 
HETATM    2  N4  UNL     1     -32.930   6.121   3.685  1.00 20.00    -0.267 NA
HETATM    3  S8  UNL     1     -32.013   8.198   2.102  1.00 20.00    -0.055 SA
ENDROOT
BRANCH   2   4
HETATM    4  C2  UNL     1     -34.071   5.377   3.150  1.00 20.00     0.267 C 
BRANCH   4   5
HETATM    5  C3  UNL     1     -35.053   5.108   4.260  1.00 20.00     0.405 C 
HETATM    6  F5  UNL     1     -36.293   5.510   3.904  1.00 20.00    -0.169 F 
HETATM    7  F6  UNL     1     -34.717   5.771   5.388  1.00 20.00    -0.169 F 
HETATM    8  F7  UNL     1     -35.118   3.791   4.552  1.00 20.00    -0.169 F 
ENDBRANCH   4   5
ENDBRANCH   2   4
TORSDOF 2
ENDMDL
MODEL 5
REMARK VINA RESULT:      -3.9      3.621      4.193
REMARK  2 active torsions:
REMARK  status: ('A' for Active; 'I' for Inactive)
REMARK    1  A    between atoms: C2_2  and  C3_3 
REMARK    2  A    between atoms: C2_2  and  N4_4 
ROOT
HETATM    1  C1  UNL     1     -34.588   5.092   4.587  1.00 20.00     0.157 C 
HETATM    2  N4  UNL     1     -34.279   5.661   3.606  1.00 20.00    -0.267 NA
HETATM    3  S8  UNL     1     -35.017   4.301   5.901  1.00 20.00    -0.055 SA
ENDROOT
BRANCH   2   4
HETATM    4  C2  UNL     1     -33.607   6.942   3.821  1.00 20.00     0.267 C 
BRANCH   4   5
HETATM    5  C3  UNL     1     -32.297   6.947   3.075  1.00 20.00     0.405 C 
HETATM    6  F5  UNL     1     -31.316   7.465   3.846  1.00 20.00    -0.169 F 
HETATM    7  F6  UNL     1     -32.371   7.694   1.952  1.00 20.00    -0.169 F 
HETATM    8  F7  UNL     1     -31.925   5.698   2.724  1.00 20.00    -0.169 F 
ENDBRANCH   4   5
ENDBRANCH   2   4
TORSDOF 2
ENDMDL
MODEL 6
REMARK VINA RESULT:      -3.9      3.605      4.167
REMARK  2 active torsions:
REMARK  status: ('A' for Active; 'I' for Inactive)
REMARK    1  A    between atoms: C2_2  and  C3_3 
REMARK    2  A    between atoms: C2_2  and  N4_4 
ROOT
HETATM    1  C1  UNL     1     -34.283   5.497   5.364  1.00 20.00     0.157 C 
HETATM    2  N4  UNL     1     -33.735   6.483   5.033  1.00 20.00    -0.267 NA
HETATM    3  S8  UNL     1     -35.018   4.166   5.838  1.00 20.00    -0.055 SA
ENDROOT
BRANCH   2   4
HETATM    4  C2  UNL     1     -33.773   6.758   3.597  1.00 20.00     0.267 C 
BRANCH   4   5
HETATM    5  C3  UNL     1     -32.364   6.906   3.083  1.00 20.00     0.405 C 
HETATM    6  F5  UNL     1     -31.852   5.701   2.750  1.00 20.00    -0.169 F 
HETATM    7  F6  UNL     1     -31.553   7.450   4.015  1.00 20.00    -0.169 F 
HETATM    8  F7  UNL     1     -32.321   7.688   1.982  1.00 20.00    -0.169 F 
ENDBRANCH   4   5
ENDBRANCH   2   4
TORSDOF 2
ENDMDL
MODEL 7
REMARK VINA RESULT:      -3.5     11.995     12.571
REMARK  2 active torsions:
REMARK  status: ('A' for Active; 'I' for Inactive)
REMARK    1  A    between atoms: C2_2  and  C3_3 
REMARK    2  A    between atoms: C2_2  and  N4_4 
ROOT
HETATM    1  C1  UNL     1     -34.709  16.568  -1.076  1.00 20.00     0.157 C 
HETATM    2  N4  UNL     1     -34.747  15.840  -1.998  1.00 20.00    -0.267 NA
HETATM    3  S8  UNL     1     -34.679  17.543   0.182  1.00 20.00    -0.055 SA
ENDROOT
BRANCH   2   4
HETATM    4  C2  UNL     1     -33.644  15.987  -2.947  1.00 20.00     0.267 C 
BRANCH   4   5
HETATM    5  C3  UNL     1     -33.422  14.676  -3.657  1.00 20.00     0.405 C 
HETATM    6  F5  UNL     1     -32.134  14.284  -3.535  1.00 20.00    -0.169 F 
HETATM    7  F6  UNL     1     -33.695  14.776  -4.976  1.00 20.00    -0.169 F 
HETATM    8  F7  UNL     1     -34.197  13.698  -3.141  1.00 20.00    -0.169 F 
ENDBRANCH   4   5
ENDBRANCH   2   4
TORSDOF 2
ENDMDL
MODEL 8
REMARK VINA RESULT:      -3.5      9.584     10.061
REMARK  2 active torsions:
REMARK  status: ('A' for Active; 'I' for Inactive)
REMARK    1  A    between atoms: C2_2  and  C3_3 
REMARK    2  A    between atoms: C2_2  and  N4_4 
ROOT
HETATM    1  C1  UNL     1     -42.114   7.324  -2.957  1.00 20.00     0.157 C 
HETATM    2  N4  UNL     1     -41.400   6.777  -2.200  1.00 20.00    -0.267 NA
HETATM    3  S8  UNL     1     -43.065   8.086  -3.982  1.00 20.00    -0.055 SA
ENDROOT
BRANCH   2   4
HETATM    4  C2  UNL     1     -41.801   5.415  -1.847  1.00 20.00     0.267 C 
BRANCH   4   5
HETATM    5  C3  UNL     1     -40.932   4.918  -0.721  1.00 20.00     0.405 C 
HETATM    6  F5  UNL     1     -40.241   5.940  -0.170  1.00 20.00    -0.169 F 
HETATM    7  F6  UNL     1     -40.035   4.006  -1.156  1.00 20.00    -0.169 F 
HETATM    8  F7  UNL     1     -41.669   4.347   0.256  1.00 20.00    -0.169 F 
ENDBRANCH   4   5
ENDBRANCH   2   4
TORSDOF 2
ENDMDL
MODEL 9
REMARK VINA RESULT:      -3.5      9.564     10.055
REMARK  2 active torsions:
REMARK  status: ('A' for Active; 'I' for Inactive)
REMARK    1  A    between atoms: C2_2  and  C3_3 
REMARK    2  A    between atoms: C2_2  and  N4_4 
ROOT
HETATM    1  C1  UNL     1     -41.823   3.524  -2.619  1.00 20.00     0.157 C 
HETATM    2  N4  UNL     1     -41.868   4.563  -2.069  1.00 20.00    -0.267 NA
HETATM    3  S8  UNL     1     -41.784   2.125  -3.378  1.00 20.00    -0.055 SA
ENDROOT
BRANCH   2   4
HETATM    4  C2  UNL     1     -40.836   4.769  -1.055  1.00 20.00     0.267 C 
BRANCH   4   5
HETATM    5  C3  UNL     1     -40.992   6.145  -0.459  1.00 20.00     0.405 C 
HETATM    6  F5  UNL     1     -40.155   6.305   0.589  1.00 20.00    -0.169 F 
HETATM    7  F6  UNL     1     -42.250   6.349  -0.012  1.00 20.00    -0.169 F 
HETATM    8  F7  UNL     1     -40.707   7.108  -1.362  1.00 20.00    -0.169 F 
ENDBRANCH   4   5
ENDBRANCH   2   4
TORSDOF 2
ENDMDL
