MODEL 1
REMARK VINA RESULT:      -4.5      0.000      0.000
REMARK  5 active torsions:
REMARK  status: ('A' for Active; 'I' for Inactive)
REMARK    1  A    between atoms: C5_5  and  C7_7 
REMARK    2  A    between atoms: C6_6  and  C8_8 
REMARK    3  A    between atoms: C6_6  and  C9_9 
REMARK    4  A    between atoms: C7_7  and  O11_11 
REMARK    5  A    between atoms: C9_9  and  O11_11 
ROOT
HETATM    1  C1  UNL     1     -32.560   9.038   0.387  1.00 20.00     0.061 C 
HETATM    2  C5  UNL     1     -32.160   9.265   1.784  1.00 20.00     0.150 C 
HETATM    3  N10 UNL     1     -32.877   8.860  -0.715  1.00 20.00    -0.197 NA
ENDROOT
BRANCH   2   4
HETATM    4  C7  UNL     1     -32.031   7.954   2.547  1.00 20.00     0.182 C 
BRANCH   4   5
HETATM    5  O11 UNL     1     -33.303   7.558   3.033  1.00 20.00    -0.385 OA
BRANCH   5   6
HETATM    6  C9  UNL     1     -33.475   6.142   2.943  1.00 20.00     0.117 C 
HETATM    7  C4  UNL     1     -32.138   5.474   3.234  1.00 20.00     0.039 C 
BRANCH   6   8
HETATM    8  C6  UNL     1     -34.580   5.754   3.932  1.00 20.00     0.035 C 
BRANCH   8   9
HETATM    9  C8  UNL     1     -34.108   5.295   5.323  1.00 20.00    -0.020 C 
HETATM   10  C2  UNL     1     -34.063   6.443   6.332  1.00 20.00     0.009 C 
HETATM   11  C3  UNL     1     -35.031   4.188   5.842  1.00 20.00     0.009 C 
ENDBRANCH   8   9
ENDBRANCH   6   8
ENDBRANCH   5   6
ENDBRANCH   4   5
ENDBRANCH   2   4
TORSDOF 5
ENDMDL
MODEL 2
REMARK VINA RESULT:      -4.2      1.170      1.860
REMARK  5 active torsions:
REMARK  status: ('A' for Active; 'I' for Inactive)
REMARK    1  A    between atoms: C5_5  and  C7_7 
REMARK    2  A    between atoms: C6_6  and  C8_8 
REMARK    3  A    between atoms: C6_6  and  C9_9 
REMARK    4  A    between atoms: C7_7  and  O11_11 
REMARK    5  A    between atoms: C9_9  and  O11_11 
ROOT
HETATM    1  C1  UNL     1     -31.993   8.306   1.994  1.00 20.00     0.061 C 
HETATM    2  C5  UNL     1     -31.831   7.585   3.265  1.00 20.00     0.150 C 
HETATM    3  N10 UNL     1     -32.121   8.877   0.992  1.00 20.00    -0.197 NA
ENDROOT
BRANCH   2   4
HETATM    4  C7  UNL     1     -32.178   6.110   3.117  1.00 20.00     0.182 C 
BRANCH   4   5
HETATM    5  O11 UNL     1     -33.528   5.977   2.701  1.00 20.00    -0.385 OA
BRANCH   5   6
HETATM    6  C9  UNL     1     -34.418   5.986   3.818  1.00 20.00     0.117 C 
HETATM    7  C4  UNL     1     -35.842   5.824   3.303  1.00 20.00     0.039 C 
BRANCH   6   8
HETATM    8  C6  UNL     1     -33.978   4.858   4.759  1.00 20.00     0.035 C 
BRANCH   8   9
HETATM    9  C8  UNL     1     -34.087   5.155   6.265  1.00 20.00    -0.020 C 
HETATM   10  C2  UNL     1     -34.021   6.652   6.571  1.00 20.00     0.009 C 
HETATM   11  C3  UNL     1     -35.393   4.573   6.813  1.00 20.00     0.009 C 
ENDBRANCH   8   9
ENDBRANCH   6   8
ENDBRANCH   5   6
ENDBRANCH   4   5
ENDBRANCH   2   4
TORSDOF 5
ENDMDL
MODEL 3
REMARK VINA RESULT:      -4.1     10.458     11.486
REMARK  5 active torsions:
REMARK  status: ('A' for Active; 'I' for Inactive)
REMARK    1  A    between atoms: C5_5  and  C7_7 
REMARK    2  A    between atoms: C6_6  and  C8_8 
REMARK    3  A    between atoms: C6_6  and  C9_9 
REMARK    4  A    between atoms: C7_7  and  O11_11 
REMARK    5  A    between atoms: C9_9  and  O11_11 
ROOT
HETATM    1  C1  UNL     1     -33.976  13.547  -4.190  1.00 20.00     0.061 C 
HETATM    2  C5  UNL     1     -32.925  14.477  -3.752  1.00 20.00     0.150 C 
HETATM    3  N10 UNL     1     -34.805  12.811  -4.535  1.00 20.00    -0.197 NA
ENDROOT
BRANCH   2   4
HETATM    4  C7  UNL     1     -33.284  15.919  -4.083  1.00 20.00     0.182 C 
BRANCH   4   5
HETATM    5  O11 UNL     1     -34.685  16.103  -3.955  1.00 20.00    -0.385 OA
BRANCH   5   6
HETATM    6  C9  UNL     1     -34.991  17.068  -2.946  1.00 20.00     0.117 C 
HETATM    7  C4  UNL     1     -36.352  17.674  -3.255  1.00 20.00     0.039 C 
BRANCH   6   8
HETATM    8  C6  UNL     1     -34.936  16.345  -1.595  1.00 20.00     0.035 C 
BRANCH   8   9
HETATM    9  C8  UNL     1     -34.236  17.104  -0.453  1.00 20.00    -0.020 C 
HETATM   10  C2  UNL     1     -33.381  18.265  -0.962  1.00 20.00     0.009 C 
HETATM   11  C3  UNL     1     -35.282  17.627   0.536  1.00 20.00     0.009 C 
ENDBRANCH   8   9
ENDBRANCH   6   8
ENDBRANCH   5   6
ENDBRANCH   4   5
ENDBRANCH   2   4
TORSDOF 5
ENDMDL
MODEL 4
REMARK VINA RESULT:      -4.1     10.450     12.958
REMARK  5 active torsions:
REMARK  status: ('A' for Active; 'I' for Inactive)
REMARK    1  A    between atoms: C5_5  and  C7_7 
REMARK    2  A    between atoms: C6_6  and  C8_8 
REMARK    3  A    between atoms: C6_6  and  C9_9 
REMARK    4  A    between atoms: C7_7  and  O11_11 
REMARK    5  A    between atoms: C9_9  and  O11_11 
ROOT
HETATM    1  C1  UNL     1     -34.085  13.455  -4.126  1.00 20.00     0.061 C 
HETATM    2  C5  UNL     1     -32.961  14.288  -3.672  1.00 20.00     0.150 C 
HETATM    3  N10 UNL     1     -34.970  12.796  -4.486  1.00 20.00    -0.197 NA
ENDROOT
BRANCH   2   4
HETATM    4  C7  UNL     1     -33.343  15.761  -3.627  1.00 20.00     0.182 C 
BRANCH   4   5
HETATM    5  O11 UNL     1     -32.880  16.409  -4.801  1.00 20.00    -0.385 OA
BRANCH   5   6
HETATM    6  C9  UNL     1     -33.956  17.029  -5.508  1.00 20.00     0.117 C 
HETATM    7  C4  UNL     1     -33.618  18.500  -5.709  1.00 20.00     0.039 C 
BRANCH   6   8
HETATM    8  C6  UNL     1     -34.140  16.260  -6.821  1.00 20.00     0.035 C 
BRANCH   8   9
HETATM    9  C8  UNL     1     -35.575  15.801  -7.138  1.00 20.00    -0.020 C 
HETATM   10  C2  UNL     1     -35.617  14.401  -7.752  1.00 20.00     0.009 C 
HETATM   11  C3  UNL     1     -36.420  15.829  -5.860  1.00 20.00     0.009 C 
ENDBRANCH   8   9
ENDBRANCH   6   8
ENDBRANCH   5   6
ENDBRANCH   4   5
ENDBRANCH   2   4
TORSDOF 5
ENDMDL
MODEL 5
REMARK VINA RESULT:      -4.1      2.668      5.213
REMARK  5 active torsions:
REMARK  status: ('A' for Active; 'I' for Inactive)
REMARK    1  A    between atoms: C5_5  and  C7_7 
REMARK    2  A    between atoms: C6_6  and  C8_8 
REMARK    3  A    between atoms: C6_6  and  C9_9 
REMARK    4  A    between atoms: C7_7  and  O11_11 
REMARK    5  A    between atoms: C9_9  and  O11_11 
ROOT
HETATM    1  C1  UNL     1     -34.896   4.589   5.593  1.00 20.00     0.061 C 
HETATM    2  C5  UNL     1     -34.603   5.800   6.374  1.00 20.00     0.150 C 
HETATM    3  N10 UNL     1     -35.128   3.633   4.978  1.00 20.00    -0.197 NA
ENDROOT
BRANCH   2   4
HETATM    4  C7  UNL     1     -33.428   6.570   5.789  1.00 20.00     0.182 C 
BRANCH   4   5
HETATM    5  O11 UNL     1     -33.697   6.894   4.434  1.00 20.00    -0.385 OA
BRANCH   5   6
HETATM    6  C9  UNL     1     -32.644   6.450   3.576  1.00 20.00     0.117 C 
HETATM    7  C4  UNL     1     -33.256   5.651   2.434  1.00 20.00     0.039 C 
BRANCH   6   8
HETATM    8  C6  UNL     1     -31.883   7.696   3.110  1.00 20.00     0.035 C 
BRANCH   8   9
HETATM    9  C8  UNL     1     -32.473   8.431   1.893  1.00 20.00    -0.020 C 
HETATM   10  C2  UNL     1     -32.813   9.890   2.201  1.00 20.00     0.009 C 
HETATM   11  C3  UNL     1     -31.487   8.367   0.723  1.00 20.00     0.009 C 
ENDBRANCH   8   9
ENDBRANCH   6   8
ENDBRANCH   5   6
ENDBRANCH   4   5
ENDBRANCH   2   4
TORSDOF 5
ENDMDL
MODEL 6
REMARK VINA RESULT:      -4.1     10.960     12.087
REMARK  5 active torsions:
REMARK  status: ('A' for Active; 'I' for Inactive)
REMARK    1  A    between atoms: C5_5  and  C7_7 
REMARK    2  A    between atoms: C6_6  and  C8_8 
REMARK    3  A    between atoms: C6_6  and  C9_9 
REMARK    4  A    between atoms: C7_7  and  O11_11 
REMARK    5  A    between atoms: C9_9  and  O11_11 
ROOT
HETATM    1  C1  UNL     1     -34.895  13.520  -5.276  1.00 20.00     0.061 C 
HETATM    2  C5  UNL     1     -34.991  14.354  -6.483  1.00 20.00     0.150 C 
HETATM    3  N10 UNL     1     -34.820  12.860  -4.325  1.00 20.00    -0.197 NA
ENDROOT
BRANCH   2   4
HETATM    4  C7  UNL     1     -35.047  15.835  -6.134  1.00 20.00     0.182 C 
BRANCH   4   5
HETATM    5  O11 UNL     1     -36.109  16.069  -5.222  1.00 20.00    -0.385 OA
BRANCH   5   6
HETATM    6  C9  UNL     1     -35.721  16.991  -4.201  1.00 20.00     0.117 C 
HETATM    7  C4  UNL     1     -36.501  18.283  -4.395  1.00 20.00     0.039 C 
BRANCH   6   8
HETATM    8  C6  UNL     1     -35.986  16.313  -2.853  1.00 20.00     0.035 C 
BRANCH   8   9
HETATM    9  C8  UNL     1     -34.740  15.890  -2.054  1.00 20.00    -0.020 C 
HETATM   10  C2  UNL     1     -33.450  16.054  -2.857  1.00 20.00     0.009 C 
HETATM   11  C3  UNL     1     -34.653  16.708  -0.762  1.00 20.00     0.009 C 
ENDBRANCH   8   9
ENDBRANCH   6   8
ENDBRANCH   5   6
ENDBRANCH   4   5
ENDBRANCH   2   4
TORSDOF 5
ENDMDL
MODEL 7
REMARK VINA RESULT:      -4.1     11.019     12.095
REMARK  5 active torsions:
REMARK  status: ('A' for Active; 'I' for Inactive)
REMARK    1  A    between atoms: C5_5  and  C7_7 
REMARK    2  A    between atoms: C6_6  and  C8_8 
REMARK    3  A    between atoms: C6_6  and  C9_9 
REMARK    4  A    between atoms: C7_7  and  O11_11 
REMARK    5  A    between atoms: C9_9  and  O11_11 
ROOT
HETATM    1  C1  UNL     1     -34.887  13.538  -5.489  1.00 20.00     0.061 C 
HETATM    2  C5  UNL     1     -35.054  14.476  -6.608  1.00 20.00     0.150 C 
HETATM    3  N10 UNL     1     -34.757  12.796  -4.606  1.00 20.00    -0.197 NA
ENDROOT
BRANCH   2   4
HETATM    4  C7  UNL     1     -34.672  15.894  -6.209  1.00 20.00     0.182 C 
BRANCH   4   5
HETATM    5  O11 UNL     1     -33.391  15.889  -5.599  1.00 20.00    -0.385 OA
BRANCH   5   6
HETATM    6  C9  UNL     1     -33.313  16.855  -4.549  1.00 20.00     0.117 C 
HETATM    7  C4  UNL     1     -34.297  17.977  -4.851  1.00 20.00     0.039 C 
BRANCH   6   8
HETATM    8  C6  UNL     1     -33.608  16.122  -3.235  1.00 20.00     0.035 C 
BRANCH   8   9
HETATM    9  C8  UNL     1     -34.874  16.570  -2.483  1.00 20.00    -0.020 C 
HETATM   10  C2  UNL     1     -36.080  15.681  -2.789  1.00 20.00     0.009 C 
HETATM   11  C3  UNL     1     -34.605  16.574  -0.975  1.00 20.00     0.009 C 
ENDBRANCH   8   9
ENDBRANCH   6   8
ENDBRANCH   5   6
ENDBRANCH   4   5
ENDBRANCH   2   4
TORSDOF 5
ENDMDL
MODEL 8
REMARK VINA RESULT:      -4.1     10.736     11.418
REMARK  5 active torsions:
REMARK  status: ('A' for Active; 'I' for Inactive)
REMARK    1  A    between atoms: C5_5  and  C7_7 
REMARK    2  A    between atoms: C6_6  and  C8_8 
REMARK    3  A    between atoms: C6_6  and  C9_9 
REMARK    4  A    between atoms: C7_7  and  O11_11 
REMARK    5  A    between atoms: C9_9  and  O11_11 
ROOT
HETATM    1  C1  UNL     1     -36.306  14.049  -4.109  1.00 20.00     0.061 C 
HETATM    2  C5  UNL     1     -34.945  13.696  -4.540  1.00 20.00     0.150 C 
HETATM    3  N10 UNL     1     -37.381  14.325  -3.770  1.00 20.00    -0.197 NA
ENDROOT
BRANCH   2   4
HETATM    4  C7  UNL     1     -34.013  14.898  -4.481  1.00 20.00     0.182 C 
BRANCH   4   5
HETATM    5  O11 UNL     1     -33.545  15.073  -3.153  1.00 20.00    -0.385 OA
BRANCH   5   6
HETATM    6  C9  UNL     1     -33.716  16.423  -2.717  1.00 20.00     0.117 C 
HETATM    7  C4  UNL     1     -34.309  17.229  -3.863  1.00 20.00     0.039 C 
BRANCH   6   8
HETATM    8  C6  UNL     1     -34.607  16.388  -1.470  1.00 20.00     0.035 C 
BRANCH   8   9
HETATM    9  C8  UNL     1     -34.576  17.647  -0.584  1.00 20.00    -0.020 C 
HETATM   10  C2  UNL     1     -35.129  17.388   0.818  1.00 20.00     0.009 C 
HETATM   11  C3  UNL     1     -33.141  18.172  -0.483  1.00 20.00     0.009 C 
ENDBRANCH   8   9
ENDBRANCH   6   8
ENDBRANCH   5   6
ENDBRANCH   4   5
ENDBRANCH   2   4
TORSDOF 5
ENDMDL
MODEL 9
REMARK VINA RESULT:      -4.1     10.630     12.304
REMARK  5 active torsions:
REMARK  status: ('A' for Active; 'I' for Inactive)
REMARK    1  A    between atoms: C5_5  and  C7_7 
REMARK    2  A    between atoms: C6_6  and  C8_8 
REMARK    3  A    between atoms: C6_6  and  C9_9 
REMARK    4  A    between atoms: C7_7  and  O11_11 
REMARK    5  A    between atoms: C9_9  and  O11_11 
ROOT
HETATM    1  C1  UNL     1     -35.791  13.570  -4.254  1.00 20.00     0.061 C 
HETATM    2  C5  UNL     1     -36.922  14.487  -4.050  1.00 20.00     0.150 C 
HETATM    3  N10 UNL     1     -34.899  12.845  -4.415  1.00 20.00    -0.197 NA
ENDROOT
BRANCH   2   4
HETATM    4  C7  UNL     1     -36.469  15.801  -3.430  1.00 20.00     0.182 C 
BRANCH   4   5
HETATM    5  O11 UNL     1     -35.316  15.580  -2.633  1.00 20.00    -0.385 OA
BRANCH   5   6
HETATM    6  C9  UNL     1     -34.353  16.621  -2.815  1.00 20.00     0.117 C 
HETATM    7  C4  UNL     1     -33.797  17.008  -1.452  1.00 20.00     0.039 C 
BRANCH   6   8
HETATM    8  C6  UNL     1     -33.288  16.091  -3.781  1.00 20.00     0.035 C 
BRANCH   8   9
HETATM    9  C8  UNL     1     -33.231  16.770  -5.161  1.00 20.00    -0.020 C 
HETATM   10  C2  UNL     1     -34.030  16.008  -6.219  1.00 20.00     0.009 C 
HETATM   11  C3  UNL     1     -33.756  18.205  -5.053  1.00 20.00     0.009 C 
ENDBRANCH   8   9
ENDBRANCH   6   8
ENDBRANCH   5   6
ENDBRANCH   4   5
ENDBRANCH   2   4
TORSDOF 5
ENDMDL
