MODEL 1
REMARK VINA RESULT:      -5.5      0.000      0.000
REMARK  0 active torsions:
REMARK  status: ('A' for Active; 'I' for Inactive)
ROOT
HETATM    1  C1  UNL     1     -34.335  15.119  -2.892  1.00 20.00     0.061 A 
HETATM    2  C2  UNL     1     -33.835  17.211  -4.733  1.00 20.00     0.053 A 
HETATM    3  C3  UNL     1     -34.441  14.938  -4.259  1.00 20.00     0.019 A 
HETATM    4  C4  UNL     1     -34.200  15.950  -5.179  1.00 20.00    -0.041 A 
HETATM    5  C5  UNL     1     -33.968  16.388  -2.442  1.00 20.00     0.155 A 
HETATM    6  C6  UNL     1     -33.720  17.425  -3.356  1.00 20.00     0.155 A 
HETATM    7  C7  UNL     1     -34.802  13.734  -4.992  1.00 20.00     0.160 A 
HETATM    8  C8  UNL     1     -34.382  15.505  -6.594  1.00 20.00     0.047 A 
HETATM    9  C9  UNL     1     -34.784  14.024  -6.474  1.00 20.00     0.088 A 
HETATM   10  O10 UNL     1     -35.072  12.669  -4.469  1.00 20.00    -0.292 OA
HETATM   11  F11 UNL     1     -33.851  16.618  -1.128  1.00 20.00    -0.203 F 
HETATM   12  F12 UNL     1     -33.367  18.636  -2.902  1.00 20.00    -0.203 F 
ENDROOT
TORSDOF 0
ENDMDL
MODEL 2
REMARK VINA RESULT:      -5.2      3.078      4.624
REMARK  0 active torsions:
REMARK  status: ('A' for Active; 'I' for Inactive)
ROOT
HETATM    1  C1  UNL     1     -33.883  16.411  -5.276  1.00 20.00     0.061 A 
HETATM    2  C2  UNL     1     -34.651  14.396  -3.442  1.00 20.00     0.053 A 
HETATM    3  C3  UNL     1     -34.017  16.660  -3.923  1.00 20.00     0.019 A 
HETATM    4  C4  UNL     1     -34.392  15.686  -3.006  1.00 20.00    -0.041 A 
HETATM    5  C5  UNL     1     -34.144  15.114  -5.716  1.00 20.00     0.155 A 
HETATM    6  C6  UNL     1     -34.525  14.114  -4.806  1.00 20.00     0.155 A 
HETATM    7  C7  UNL     1     -33.809  17.906  -3.202  1.00 20.00     0.160 A 
HETATM    8  C8  UNL     1     -34.465  16.203  -1.606  1.00 20.00     0.047 A 
HETATM    9  C9  UNL     1     -34.077  17.687  -1.732  1.00 20.00     0.088 A 
HETATM   10  O10 UNL     1     -33.471  18.952  -3.724  1.00 20.00    -0.292 OA
HETATM   11  F11 UNL     1     -34.031  14.818  -7.018  1.00 20.00    -0.203 F 
HETATM   12  F12 UNL     1     -34.769  12.873  -5.250  1.00 20.00    -0.203 F 
ENDROOT
TORSDOF 0
ENDMDL
MODEL 3
REMARK VINA RESULT:      -5.0      2.779      3.461
REMARK  0 active torsions:
REMARK  status: ('A' for Active; 'I' for Inactive)
ROOT
HETATM    1  C1  UNL     1     -35.376  13.715  -4.058  1.00 20.00     0.061 A 
HETATM    2  C2  UNL     1     -34.067  16.097  -3.266  1.00 20.00     0.053 A 
HETATM    3  C3  UNL     1     -36.073  14.848  -3.685  1.00 20.00     0.019 A 
HETATM    4  C4  UNL     1     -35.451  16.027  -3.293  1.00 20.00    -0.041 A 
HETATM    5  C5  UNL     1     -33.983  13.783  -4.031  1.00 20.00     0.155 A 
HETATM    6  C6  UNL     1     -33.334  14.965  -3.638  1.00 20.00     0.155 A 
HETATM    7  C7  UNL     1     -37.512  15.053  -3.623  1.00 20.00     0.160 A 
HETATM    8  C8  UNL     1     -36.422  17.107  -2.939  1.00 20.00     0.047 A 
HETATM    9  C9  UNL     1     -37.801  16.460  -3.157  1.00 20.00     0.088 A 
HETATM   10  O10 UNL     1     -38.338  14.205  -3.907  1.00 20.00    -0.292 OA
HETATM   11  F11 UNL     1     -33.258  12.713  -4.382  1.00 20.00    -0.203 F 
HETATM   12  F12 UNL     1     -31.994  15.009  -3.620  1.00 20.00    -0.203 F 
ENDROOT
TORSDOF 0
ENDMDL
MODEL 4
REMARK VINA RESULT:      -4.9      2.532      3.434
REMARK  0 active torsions:
REMARK  status: ('A' for Active; 'I' for Inactive)
ROOT
HETATM    1  C1  UNL     1     -35.448  14.993  -6.307  1.00 20.00     0.061 A 
HETATM    2  C2  UNL     1     -33.559  16.934  -5.483  1.00 20.00     0.053 A 
HETATM    3  C3  UNL     1     -34.543  14.753  -5.290  1.00 20.00     0.019 A 
HETATM    4  C4  UNL     1     -33.609  15.691  -4.870  1.00 20.00    -0.041 A 
HETATM    5  C5  UNL     1     -35.399  16.242  -6.925  1.00 20.00     0.155 A 
HETATM    6  C6  UNL     1     -34.462  17.205  -6.516  1.00 20.00     0.155 A 
HETATM    7  C7  UNL     1     -34.375  13.553  -4.485  1.00 20.00     0.160 A 
HETATM    8  C8  UNL     1     -32.745  15.194  -3.756  1.00 20.00     0.047 A 
HETATM    9  C9  UNL     1     -33.254  13.765  -3.496  1.00 20.00     0.088 A 
HETATM   10  O10 UNL     1     -35.047  12.546  -4.607  1.00 20.00    -0.292 OA
HETATM   11  F11 UNL     1     -36.253  16.527  -7.918  1.00 20.00    -0.203 F 
HETATM   12  F12 UNL     1     -34.433  18.400  -7.123  1.00 20.00    -0.203 F 
ENDROOT
TORSDOF 0
ENDMDL
MODEL 5
REMARK VINA RESULT:      -4.9      1.909      2.228
REMARK  0 active torsions:
REMARK  status: ('A' for Active; 'I' for Inactive)
ROOT
HETATM    1  C1  UNL     1     -33.613  16.001  -2.381  1.00 20.00     0.061 A 
HETATM    2  C2  UNL     1     -36.326  16.619  -2.902  1.00 20.00     0.053 A 
HETATM    3  C3  UNL     1     -34.437  15.151  -3.094  1.00 20.00     0.019 A 
HETATM    4  C4  UNL     1     -35.770  15.435  -3.362  1.00 20.00    -0.041 A 
HETATM    5  C5  UNL     1     -34.171  17.192  -1.917  1.00 20.00     0.155 A 
HETATM    6  C6  UNL     1     -35.517  17.499  -2.175  1.00 20.00     0.155 A 
HETATM    7  C7  UNL     1     -34.120  13.861  -3.687  1.00 20.00     0.160 A 
HETATM    8  C8  UNL     1     -36.447  14.360  -4.149  1.00 20.00     0.047 A 
HETATM    9  C9  UNL     1     -35.348  13.306  -4.369  1.00 20.00     0.088 A 
HETATM   10  O10 UNL     1     -33.026  13.331  -3.629  1.00 20.00    -0.292 OA
HETATM   11  F11 UNL     1     -33.417  18.052  -1.219  1.00 20.00    -0.203 F 
HETATM   12  F12 UNL     1     -36.032  18.650  -1.722  1.00 20.00    -0.203 F 
ENDROOT
TORSDOF 0
ENDMDL
MODEL 6
REMARK VINA RESULT:      -4.8      6.484      8.120
REMARK  0 active torsions:
REMARK  status: ('A' for Active; 'I' for Inactive)
ROOT
HETATM    1  C1  UNL     1     -31.386  19.131   2.988  1.00 20.00     0.061 A 
HETATM    2  C2  UNL     1     -33.966  18.261   3.763  1.00 20.00     0.053 A 
HETATM    3  C3  UNL     1     -32.370  18.831   2.065  1.00 20.00     0.019 A 
HETATM    4  C4  UNL     1     -33.642  18.404   2.423  1.00 20.00    -0.041 A 
HETATM    5  C5  UNL     1     -31.711  18.987   4.338  1.00 20.00     0.155 A 
HETATM    6  C6  UNL     1     -32.991  18.555   4.722  1.00 20.00     0.155 A 
HETATM    7  C7  UNL     1     -32.304  18.893   0.613  1.00 20.00     0.160 A 
HETATM    8  C8  UNL     1     -34.523  18.145   1.244  1.00 20.00     0.047 A 
HETATM    9  C9  UNL     1     -33.633  18.471   0.031  1.00 20.00     0.088 A 
HETATM   10  O10 UNL     1     -31.319  19.235  -0.015  1.00 20.00    -0.292 OA
HETATM   11  F11 UNL     1     -30.794  19.262   5.275  1.00 20.00    -0.203 F 
HETATM   12  F12 UNL     1     -33.282  18.425   6.024  1.00 20.00    -0.203 F 
ENDROOT
TORSDOF 0
ENDMDL
MODEL 7
REMARK VINA RESULT:      -4.8      2.824      3.962
REMARK  0 active torsions:
REMARK  status: ('A' for Active; 'I' for Inactive)
ROOT
HETATM    1  C1  UNL     1     -34.465  14.724  -3.408  1.00 20.00     0.061 A 
HETATM    2  C2  UNL     1     -33.856  16.502  -5.526  1.00 20.00     0.053 A 
HETATM    3  C3  UNL     1     -34.230  16.070  -3.195  1.00 20.00     0.019 A 
HETATM    4  C4  UNL     1     -33.930  16.959  -4.219  1.00 20.00    -0.041 A 
HETATM    5  C5  UNL     1     -34.390  14.263  -4.722  1.00 20.00     0.155 A 
HETATM    6  C6  UNL     1     -34.089  15.145  -5.773  1.00 20.00     0.155 A 
HETATM    7  C7  UNL     1     -34.242  16.809  -1.942  1.00 20.00     0.160 A 
HETATM    8  C8  UNL     1     -33.718  18.356  -3.733  1.00 20.00     0.047 A 
HETATM    9  C9  UNL     1     -33.926  18.261  -2.211  1.00 20.00     0.088 A 
HETATM   10  O10 UNL     1     -34.476  16.312  -0.856  1.00 20.00    -0.292 OA
HETATM   11  F11 UNL     1     -34.609  12.968  -4.985  1.00 20.00    -0.203 F 
HETATM   12  F12 UNL     1     -34.024  14.680  -7.028  1.00 20.00    -0.203 F 
ENDROOT
TORSDOF 0
ENDMDL
MODEL 8
REMARK VINA RESULT:      -4.8      1.910      2.285
REMARK  0 active torsions:
REMARK  status: ('A' for Active; 'I' for Inactive)
ROOT
HETATM    1  C1  UNL     1     -36.251  16.593  -2.697  1.00 20.00     0.061 A 
HETATM    2  C2  UNL     1     -33.445  16.217  -2.663  1.00 20.00     0.053 A 
HETATM    3  C3  UNL     1     -35.654  15.457  -3.210  1.00 20.00     0.019 A 
HETATM    4  C4  UNL     1     -34.281  15.252  -3.203  1.00 20.00    -0.041 A 
HETATM    5  C5  UNL     1     -35.411  17.566  -2.154  1.00 20.00     0.155 A 
HETATM    6  C6  UNL     1     -34.019  17.379  -2.137  1.00 20.00     0.155 A 
HETATM    7  C7  UNL     1     -36.283  14.299  -3.827  1.00 20.00     0.160 A 
HETATM    8  C8  UNL     1     -33.884  13.947  -3.815  1.00 20.00     0.047 A 
HETATM    9  C9  UNL     1     -35.219  13.307  -4.233  1.00 20.00     0.088 A 
HETATM   10  O10 UNL     1     -37.483  14.172  -3.982  1.00 20.00    -0.292 OA
HETATM   11  F11 UNL     1     -35.936  18.688  -1.643  1.00 20.00    -0.203 F 
HETATM   12  F12 UNL     1     -33.231  18.326  -1.609  1.00 20.00    -0.203 F 
ENDROOT
TORSDOF 0
ENDMDL
MODEL 9
REMARK VINA RESULT:      -4.8      1.280      2.409
REMARK  0 active torsions:
REMARK  status: ('A' for Active; 'I' for Inactive)
ROOT
HETATM    1  C1  UNL     1     -33.751  17.133  -4.519  1.00 20.00     0.061 A 
HETATM    2  C2  UNL     1     -34.422  15.513  -2.297  1.00 20.00     0.053 A 
HETATM    3  C3  UNL     1     -34.160  15.821  -4.662  1.00 20.00     0.019 A 
HETATM    4  C4  UNL     1     -34.494  15.009  -3.586  1.00 20.00    -0.041 A 
HETATM    5  C5  UNL     1     -33.677  17.642  -3.223  1.00 20.00     0.155 A 
HETATM    6  C6  UNL     1     -34.010  16.838  -2.120  1.00 20.00     0.155 A 
HETATM    7  C7  UNL     1     -34.324  15.046  -5.883  1.00 20.00     0.160 A 
HETATM    8  C8  UNL     1     -34.905  13.633  -4.001  1.00 20.00     0.047 A 
HETATM    9  C9  UNL     1     -34.793  13.653  -5.535  1.00 20.00     0.088 A 
HETATM   10  O10 UNL     1     -34.112  15.477  -7.001  1.00 20.00    -0.292 OA
HETATM   11  F11 UNL     1     -33.286  18.908  -3.027  1.00 20.00    -0.203 F 
HETATM   12  F12 UNL     1     -33.934  17.348  -0.883  1.00 20.00    -0.203 F 
ENDROOT
TORSDOF 0
ENDMDL
