MODEL 1
REMARK VINA RESULT:      -5.4      0.000      0.000
REMARK  0 active torsions:
REMARK  status: ('A' for Active; 'I' for Inactive)
ROOT
HETATM    1  C1  UNL     1     -33.480  18.738  -2.274  1.00 20.00     0.012 A 
HETATM    2  C2  UNL     1     -33.471  18.922  -0.891  1.00 20.00     0.024 A 
HETATM    3  C3  UNL     1     -34.610  16.809  -0.588  1.00 20.00     0.031 A 
HETATM    4  C4  UNL     1     -34.049  17.588  -2.832  1.00 20.00    -0.021 A 
HETATM    5  C5  UNL     1     -34.625  16.606  -1.974  1.00 20.00    -0.048 A 
HETATM    6  C6  UNL     1     -34.032  17.960  -0.052  1.00 20.00     0.034 A 
HETATM    7  C7  UNL     1     -35.306  15.365  -2.559  1.00 20.00     0.039 C 
HETATM    8  C8  UNL     1     -34.431  14.376  -3.376  1.00 20.00     0.007 C 
HETATM    9  C9  UNL     1     -33.913  14.889  -4.744  1.00 20.00     0.035 C 
HETATM   10  C10 UNL     1     -34.067  17.310  -4.299  1.00 20.00     0.184 A 
HETATM   11  C11 UNL     1     -33.118  16.109  -4.497  1.00 20.00     0.156 A 
HETATM   12  O12 UNL     1     -33.028  17.276  -5.278  1.00 20.00    -0.370 OA
HETATM   13 CL13 UNL     1     -34.017  18.198   1.654  1.00 20.00    -0.084 Cl
ENDROOT
TORSDOF 0
ENDMDL
MODEL 2
REMARK VINA RESULT:      -5.3      2.075      3.277
REMARK  0 active torsions:
REMARK  status: ('A' for Active; 'I' for Inactive)
ROOT
HETATM    1  C1  UNL     1     -34.401  15.321  -2.262  1.00 20.00     0.012 A 
HETATM    2  C2  UNL     1     -34.472  16.564  -1.633  1.00 20.00     0.024 A 
HETATM    3  C3  UNL     1     -33.976  17.668  -3.728  1.00 20.00     0.031 A 
HETATM    4  C4  UNL     1     -34.121  15.234  -3.630  1.00 20.00    -0.021 A 
HETATM    5  C5  UNL     1     -33.904  16.429  -4.376  1.00 20.00    -0.048 A 
HETATM    6  C6  UNL     1     -34.263  17.733  -2.364  1.00 20.00     0.034 A 
HETATM    7  C7  UNL     1     -33.539  16.362  -5.862  1.00 20.00     0.039 C 
HETATM    8  C8  UNL     1     -34.580  15.747  -6.837  1.00 20.00     0.007 C 
HETATM    9  C9  UNL     1     -34.826  14.222  -6.702  1.00 20.00     0.035 C 
HETATM   10  C10 UNL     1     -34.060  13.941  -4.374  1.00 20.00     0.184 A 
HETATM   11  C11 UNL     1     -35.279  13.959  -5.321  1.00 20.00     0.156 A 
HETATM   12  O12 UNL     1     -34.985  12.860  -4.492  1.00 20.00    -0.370 OA
HETATM   13 CL13 UNL     1     -34.352  19.263  -1.578  1.00 20.00    -0.084 Cl
ENDROOT
TORSDOF 0
ENDMDL
MODEL 3
REMARK VINA RESULT:      -5.0      2.212      2.913
REMARK  0 active torsions:
REMARK  status: ('A' for Active; 'I' for Inactive)
ROOT
HETATM    1  C1  UNL     1     -34.216  16.063  -1.788  1.00 20.00     0.012 A 
HETATM    2  C2  UNL     1     -35.013  17.024  -1.166  1.00 20.00     0.024 A 
HETATM    3  C3  UNL     1     -36.158  17.447  -3.254  1.00 20.00     0.031 A 
HETATM    4  C4  UNL     1     -34.382  15.778  -3.148  1.00 20.00    -0.021 A 
HETATM    5  C5  UNL     1     -35.370  16.483  -3.895  1.00 20.00    -0.048 A 
HETATM    6  C6  UNL     1     -35.982  17.712  -1.896  1.00 20.00     0.034 A 
HETATM    7  C7  UNL     1     -35.535  16.234  -5.397  1.00 20.00     0.039 C 
HETATM    8  C8  UNL     1     -35.968  14.813  -5.852  1.00 20.00     0.007 C 
HETATM    9  C9  UNL     1     -34.925  13.683  -5.654  1.00 20.00     0.035 C 
HETATM   10  C10 UNL     1     -33.587  14.741  -3.872  1.00 20.00     0.184 A 
HETATM   11  C11 UNL     1     -34.595  13.623  -4.216  1.00 20.00     0.156 A 
HETATM   12  O12 UNL     1     -33.353  13.358  -3.608  1.00 20.00    -0.370 OA
HETATM   13 CL13 UNL     1     -36.958  18.898  -1.118  1.00 20.00    -0.084 Cl
ENDROOT
TORSDOF 0
ENDMDL
MODEL 4
REMARK VINA RESULT:      -5.0      1.267      1.569
REMARK  0 active torsions:
REMARK  status: ('A' for Active; 'I' for Inactive)
ROOT
HETATM    1  C1  UNL     1     -33.945  18.024  -3.743  1.00 20.00     0.012 A 
HETATM    2  C2  UNL     1     -33.683  18.320  -2.404  1.00 20.00     0.024 A 
HETATM    3  C3  UNL     1     -34.821  16.298  -1.720  1.00 20.00     0.031 A 
HETATM    4  C4  UNL     1     -34.643  16.861  -4.087  1.00 20.00    -0.021 A 
HETATM    5  C5  UNL     1     -35.090  15.983  -3.057  1.00 20.00    -0.048 A 
HETATM    6  C6  UNL     1     -34.118  17.459  -1.398  1.00 20.00     0.034 A 
HETATM    7  C7  UNL     1     -35.905  14.733  -3.400  1.00 20.00     0.039 C 
HETATM    8  C8  UNL     1     -35.224  13.639  -4.266  1.00 20.00     0.007 C 
HETATM    9  C9  UNL     1     -34.942  14.011  -5.745  1.00 20.00     0.035 C 
HETATM   10  C10 UNL     1     -34.932  16.465  -5.498  1.00 20.00     0.184 A 
HETATM   11  C11 UNL     1     -34.075  15.206  -5.750  1.00 20.00     0.156 A 
HETATM   12  O12 UNL     1     -34.087  16.299  -6.637  1.00 20.00    -0.370 OA
HETATM   13 CL13 UNL     1     -33.791  17.835   0.251  1.00 20.00    -0.084 Cl
ENDROOT
TORSDOF 0
ENDMDL
MODEL 5
REMARK VINA RESULT:      -4.9      3.774      5.082
REMARK  0 active torsions:
REMARK  status: ('A' for Active; 'I' for Inactive)
ROOT
HETATM    1  C1  UNL     1     -36.599  15.188  -6.088  1.00 20.00     0.012 A 
HETATM    2  C2  UNL     1     -36.723  16.337  -6.870  1.00 20.00     0.024 A 
HETATM    3  C3  UNL     1     -34.952  17.401  -5.611  1.00 20.00     0.031 A 
HETATM    4  C4  UNL     1     -35.650  15.129  -5.062  1.00 20.00    -0.021 A 
HETATM    5  C5  UNL     1     -34.812  16.256  -4.818  1.00 20.00    -0.048 A 
HETATM    6  C6  UNL     1     -35.901  17.438  -6.633  1.00 20.00     0.034 A 
HETATM    7  C7  UNL     1     -33.803  16.241  -3.666  1.00 20.00     0.039 C 
HETATM    8  C8  UNL     1     -32.658  15.193  -3.719  1.00 20.00     0.007 C 
HETATM    9  C9  UNL     1     -33.077  13.711  -3.536  1.00 20.00     0.035 C 
HETATM   10  C10 UNL     1     -35.441  13.923  -4.206  1.00 20.00     0.184 A 
HETATM   11  C11 UNL     1     -34.048  13.383  -4.598  1.00 20.00     0.156 A 
HETATM   12  O12 UNL     1     -35.184  12.555  -4.527  1.00 20.00    -0.370 OA
HETATM   13 CL13 UNL     1     -36.063  18.852  -7.603  1.00 20.00    -0.084 Cl
ENDROOT
TORSDOF 0
ENDMDL
MODEL 6
REMARK VINA RESULT:      -4.8      2.222      3.801
REMARK  0 active torsions:
REMARK  status: ('A' for Active; 'I' for Inactive)
ROOT
HETATM    1  C1  UNL     1     -34.367  14.647  -4.290  1.00 20.00     0.012 A 
HETATM    2  C2  UNL     1     -34.511  14.918  -2.929  1.00 20.00     0.024 A 
HETATM    3  C3  UNL     1     -34.070  17.262  -3.335  1.00 20.00     0.031 A 
HETATM    4  C4  UNL     1     -34.077  15.678  -5.191  1.00 20.00    -0.021 A 
HETATM    5  C5  UNL     1     -33.925  17.009  -4.704  1.00 20.00    -0.048 A 
HETATM    6  C6  UNL     1     -34.366  16.221  -2.454  1.00 20.00     0.034 A 
HETATM    7  C7  UNL     1     -33.551  18.148  -5.658  1.00 20.00     0.039 C 
HETATM    8  C8  UNL     1     -34.551  18.500  -6.793  1.00 20.00     0.007 C 
HETATM    9  C9  UNL     1     -34.710  17.445  -7.918  1.00 20.00     0.035 C 
HETATM   10  C10 UNL     1     -33.939  15.467  -6.663  1.00 20.00     0.184 A 
HETATM   11  C11 UNL     1     -35.153  16.183  -7.291  1.00 20.00     0.156 A 
HETATM   12  O12 UNL     1     -34.801  14.862  -7.627  1.00 20.00    -0.370 OA
HETATM   13 CL13 UNL     1     -34.545  16.545  -0.772  1.00 20.00    -0.084 Cl
ENDROOT
TORSDOF 0
ENDMDL
MODEL 7
REMARK VINA RESULT:      -4.8      3.114      4.329
REMARK  0 active torsions:
REMARK  status: ('A' for Active; 'I' for Inactive)
ROOT
HETATM    1  C1  UNL     1     -37.613  14.756  -4.471  1.00 20.00     0.012 A 
HETATM    2  C2  UNL     1     -38.427  15.884  -4.370  1.00 20.00     0.024 A 
HETATM    3  C3  UNL     1     -36.770  16.973  -2.983  1.00 20.00     0.031 A 
HETATM    4  C4  UNL     1     -36.367  14.722  -3.834  1.00 20.00    -0.021 A 
HETATM    5  C5  UNL     1     -35.939  15.850  -3.075  1.00 20.00    -0.048 A 
HETATM    6  C6  UNL     1     -38.006  16.989  -3.631  1.00 20.00     0.034 A 
HETATM    7  C7  UNL     1     -34.607  15.820  -2.320  1.00 20.00     0.039 C 
HETATM    8  C8  UNL     1     -33.305  15.678  -3.154  1.00 20.00     0.007 C 
HETATM    9  C9  UNL     1     -33.083  14.310  -3.851  1.00 20.00     0.035 C 
HETATM   10  C10 UNL     1     -35.431  13.562  -3.923  1.00 20.00     0.184 A 
HETATM   11  C11 UNL     1     -34.230  14.071  -4.749  1.00 20.00     0.156 A 
HETATM   12  O12 UNL     1     -34.883  12.859  -5.039  1.00 20.00    -0.370 OA
HETATM   13 CL13 UNL     1     -39.020  18.376  -3.512  1.00 20.00    -0.084 Cl
ENDROOT
TORSDOF 0
ENDMDL
MODEL 8
REMARK VINA RESULT:      -4.7      2.526      3.302
REMARK  0 active torsions:
REMARK  status: ('A' for Active; 'I' for Inactive)
ROOT
HETATM    1  C1  UNL     1     -33.399  15.870  -4.310  1.00 20.00     0.012 A 
HETATM    2  C2  UNL     1     -33.446  16.026  -2.924  1.00 20.00     0.024 A 
HETATM    3  C3  UNL     1     -35.803  16.555  -3.049  1.00 20.00     0.031 A 
HETATM    4  C4  UNL     1     -34.552  16.050  -5.082  1.00 20.00    -0.021 A 
HETATM    5  C5  UNL     1     -35.776  16.400  -4.440  1.00 20.00    -0.048 A 
HETATM    6  C6  UNL     1     -34.644  16.364  -2.296  1.00 20.00     0.034 A 
HETATM    7  C7  UNL     1     -37.040  16.659  -5.265  1.00 20.00     0.039 C 
HETATM    8  C8  UNL     1     -37.619  15.481  -6.093  1.00 20.00     0.007 C 
HETATM    9  C9  UNL     1     -36.774  15.016  -7.307  1.00 20.00     0.035 C 
HETATM   10  C10 UNL     1     -34.583  15.871  -6.564  1.00 20.00     0.184 A 
HETATM   11  C11 UNL     1     -35.446  14.613  -6.803  1.00 20.00     0.156 A 
HETATM   12  O12 UNL     1     -34.186  14.787  -7.404  1.00 20.00    -0.370 OA
HETATM   13 CL13 UNL     1     -34.690  16.555  -0.585  1.00 20.00    -0.084 Cl
ENDROOT
TORSDOF 0
ENDMDL
MODEL 9
REMARK VINA RESULT:      -4.7      3.643      5.333
REMARK  0 active torsions:
REMARK  status: ('A' for Active; 'I' for Inactive)
ROOT
HETATM    1  C1  UNL     1     -34.635  14.490  -6.414  1.00 20.00     0.012 A 
HETATM    2  C2  UNL     1     -35.705  14.648  -7.296  1.00 20.00     0.024 A 
HETATM    3  C3  UNL     1     -37.140  15.298  -5.460  1.00 20.00     0.031 A 
HETATM    4  C4  UNL     1     -34.801  14.736  -5.047  1.00 20.00    -0.021 A 
HETATM    5  C5  UNL     1     -36.077  15.146  -4.561  1.00 20.00    -0.048 A 
HETATM    6  C6  UNL     1     -36.951  15.053  -6.820  1.00 20.00     0.034 A 
HETATM    7  C7  UNL     1     -36.304  15.367  -3.062  1.00 20.00     0.039 C 
HETATM    8  C8  UNL     1     -35.492  16.493  -2.365  1.00 20.00     0.007 C 
HETATM    9  C9  UNL     1     -33.967  16.250  -2.224  1.00 20.00     0.035 C 
HETATM   10  C10 UNL     1     -33.695  14.616  -4.051  1.00 20.00     0.184 A 
HETATM   11  C11 UNL     1     -33.415  16.059  -3.580  1.00 20.00     0.156 A 
HETATM   12  O12 UNL     1     -32.389  15.191  -3.998  1.00 20.00    -0.370 OA
HETATM   13 CL13 UNL     1     -38.265  15.245  -7.917  1.00 20.00    -0.084 Cl
ENDROOT
TORSDOF 0
ENDMDL
