MODEL 1
REMARK VINA RESULT:      -5.4      0.000      0.000
REMARK  0 active torsions:
REMARK  status: ('A' for Active; 'I' for Inactive)
ROOT
HETATM    1  C1  UNL     1     -34.793  15.637  -1.916  1.00 20.00     0.012 A 
HETATM    2  C2  UNL     1     -34.420  16.822  -1.280  1.00 20.00     0.024 A 
HETATM    3  C3  UNL     1     -33.455  17.582  -3.337  1.00 20.00     0.031 A 
HETATM    4  C4  UNL     1     -34.517  15.378  -3.281  1.00 20.00    -0.021 A 
HETATM    5  C5  UNL     1     -33.839  16.391  -3.993  1.00 20.00    -0.048 A 
HETATM    6  C6  UNL     1     -33.746  17.798  -1.993  1.00 20.00     0.034 A 
HETATM    7  C7  UNL     1     -33.470  16.263  -5.451  1.00 20.00     0.039 C 
HETATM    8  C8  UNL     1     -34.653  15.887  -6.335  1.00 20.00     0.007 C 
HETATM    9  C9  UNL     1     -34.793  14.385  -6.507  1.00 20.00     0.035 C 
HETATM   10  C10 UNL     1     -34.953  14.037  -3.827  1.00 20.00     0.184 A 
HETATM   11  C11 UNL     1     -35.129  13.626  -5.271  1.00 20.00     0.156 A 
HETATM   12  O12 UNL     1     -33.966  13.253  -4.511  1.00 20.00    -0.370 OA
HETATM   13 CL13 UNL     1     -33.272  19.263  -1.230  1.00 20.00    -0.084 Cl
ENDROOT
TORSDOF 0
ENDMDL
MODEL 2
REMARK VINA RESULT:      -5.3      1.793      2.972
REMARK  0 active torsions:
REMARK  status: ('A' for Active; 'I' for Inactive)
ROOT
HETATM    1  C1  UNL     1     -33.423  18.697  -2.172  1.00 20.00     0.012 A 
HETATM    2  C2  UNL     1     -33.572  18.870  -0.794  1.00 20.00     0.024 A 
HETATM    3  C3  UNL     1     -34.638  16.729  -0.675  1.00 20.00     0.031 A 
HETATM    4  C4  UNL     1     -33.871  17.539  -2.853  1.00 20.00    -0.021 A 
HETATM    5  C5  UNL     1     -34.482  16.538  -2.066  1.00 20.00    -0.048 A 
HETATM    6  C6  UNL     1     -34.184  17.882  -0.044  1.00 20.00     0.034 A 
HETATM    7  C7  UNL     1     -35.014  15.250  -2.645  1.00 20.00     0.039 C 
HETATM    8  C8  UNL     1     -33.987  14.509  -3.495  1.00 20.00     0.007 C 
HETATM    9  C9  UNL     1     -34.063  14.895  -4.960  1.00 20.00     0.035 C 
HETATM   10  C10 UNL     1     -33.672  17.504  -4.352  1.00 20.00     0.184 A 
HETATM   11  C11 UNL     1     -33.701  16.306  -5.273  1.00 20.00     0.156 A 
HETATM   12  O12 UNL     1     -34.818  17.206  -5.161  1.00 20.00    -0.370 OA
HETATM   13 CL13 UNL     1     -34.381  18.075   1.653  1.00 20.00    -0.084 Cl
ENDROOT
TORSDOF 0
ENDMDL
MODEL 3
REMARK VINA RESULT:      -5.2      1.367      2.462
REMARK  0 active torsions:
REMARK  status: ('A' for Active; 'I' for Inactive)
ROOT
HETATM    1  C1  UNL     1     -33.718  18.126  -3.436  1.00 20.00     0.012 A 
HETATM    2  C2  UNL     1     -33.642  18.490  -2.090  1.00 20.00     0.024 A 
HETATM    3  C3  UNL     1     -34.528  16.345  -1.495  1.00 20.00     0.031 A 
HETATM    4  C4  UNL     1     -34.197  16.863  -3.863  1.00 20.00    -0.021 A 
HETATM    5  C5  UNL     1     -34.598  15.962  -2.853  1.00 20.00    -0.048 A 
HETATM    6  C6  UNL     1     -34.051  17.596  -1.116  1.00 20.00     0.034 A 
HETATM    7  C7  UNL     1     -35.133  14.583  -3.149  1.00 20.00     0.039 C 
HETATM    8  C8  UNL     1     -34.219  13.770  -4.058  1.00 20.00     0.007 C 
HETATM    9  C9  UNL     1     -34.567  13.936  -5.526  1.00 20.00     0.035 C 
HETATM   10  C10 UNL     1     -34.253  16.619  -5.355  1.00 20.00     0.184 A 
HETATM   11  C11 UNL     1     -34.358  15.300  -6.085  1.00 20.00     0.156 A 
HETATM   12  O12 UNL     1     -35.498  16.160  -5.900  1.00 20.00    -0.370 OA
HETATM   13 CL13 UNL     1     -33.970  18.024   0.547  1.00 20.00    -0.084 Cl
ENDROOT
TORSDOF 0
ENDMDL
MODEL 4
REMARK VINA RESULT:      -4.9      3.216      5.112
REMARK  0 active torsions:
REMARK  status: ('A' for Active; 'I' for Inactive)
ROOT
HETATM    1  C1  UNL     1     -36.838  15.970  -3.880  1.00 20.00     0.012 A 
HETATM    2  C2  UNL     1     -36.326  14.824  -4.491  1.00 20.00     0.024 A 
HETATM    3  C3  UNL     1     -34.382  14.992  -3.101  1.00 20.00     0.031 A 
HETATM    4  C4  UNL     1     -36.148  16.669  -2.859  1.00 20.00    -0.021 A 
HETATM    5  C5  UNL     1     -34.896  16.146  -2.468  1.00 20.00    -0.048 A 
HETATM    6  C6  UNL     1     -35.092  14.334  -4.101  1.00 20.00     0.034 A 
HETATM    7  C7  UNL     1     -34.041  16.779  -1.399  1.00 20.00     0.039 C 
HETATM    8  C8  UNL     1     -34.793  17.013  -0.093  1.00 20.00     0.007 C 
HETATM    9  C9  UNL     1     -35.430  18.389  -0.032  1.00 20.00     0.035 C 
HETATM   10  C10 UNL     1     -36.810  17.914  -2.311  1.00 20.00     0.184 A 
HETATM   11  C11 UNL     1     -36.518  18.638  -1.017  1.00 20.00     0.156 A 
HETATM   12  O12 UNL     1     -36.027  19.116  -2.282  1.00 20.00    -0.370 OA
HETATM   13 CL13 UNL     1     -34.441  12.927  -4.842  1.00 20.00    -0.084 Cl
ENDROOT
TORSDOF 0
ENDMDL
MODEL 5
REMARK VINA RESULT:      -4.8      1.823      2.229
REMARK  0 active torsions:
REMARK  status: ('A' for Active; 'I' for Inactive)
ROOT
HETATM    1  C1  UNL     1     -36.588  17.430  -2.263  1.00 20.00     0.012 A 
HETATM    2  C2  UNL     1     -35.869  18.080  -1.257  1.00 20.00     0.024 A 
HETATM    3  C3  UNL     1     -34.108  16.478  -1.529  1.00 20.00     0.031 A 
HETATM    4  C4  UNL     1     -36.098  16.287  -2.940  1.00 20.00    -0.021 A 
HETATM    5  C5  UNL     1     -34.822  15.821  -2.556  1.00 20.00    -0.048 A 
HETATM    6  C6  UNL     1     -34.625  17.600  -0.888  1.00 20.00     0.034 A 
HETATM    7  C7  UNL     1     -34.167  14.614  -3.181  1.00 20.00     0.039 C 
HETATM    8  C8  UNL     1     -34.117  14.682  -4.703  1.00 20.00     0.007 C 
HETATM    9  C9  UNL     1     -35.328  14.036  -5.351  1.00 20.00     0.035 C 
HETATM   10  C10 UNL     1     -37.000  15.670  -3.986  1.00 20.00     0.184 A 
HETATM   11  C11 UNL     1     -36.631  14.711  -5.094  1.00 20.00     0.156 A 
HETATM   12  O12 UNL     1     -37.262  14.263  -3.880  1.00 20.00    -0.370 OA
HETATM   13 CL13 UNL     1     -33.724  18.380   0.350  1.00 20.00    -0.084 Cl
ENDROOT
TORSDOF 0
ENDMDL
MODEL 6
REMARK VINA RESULT:      -4.8      2.722      3.572
REMARK  0 active torsions:
REMARK  status: ('A' for Active; 'I' for Inactive)
ROOT
HETATM    1  C1  UNL     1     -37.335  15.360  -5.347  1.00 20.00     0.012 A 
HETATM    2  C2  UNL     1     -38.183  16.417  -5.011  1.00 20.00     0.024 A 
HETATM    3  C3  UNL     1     -36.817  16.859  -3.094  1.00 20.00     0.031 A 
HETATM    4  C4  UNL     1     -36.199  15.013  -4.576  1.00 20.00    -0.021 A 
HETATM    5  C5  UNL     1     -35.946  15.799  -3.431  1.00 20.00    -0.048 A 
HETATM    6  C6  UNL     1     -37.923  17.168  -3.879  1.00 20.00     0.034 A 
HETATM    7  C7  UNL     1     -34.778  15.552  -2.508  1.00 20.00     0.039 C 
HETATM    8  C8  UNL     1     -33.442  15.483  -3.239  1.00 20.00     0.007 C 
HETATM    9  C9  UNL     1     -33.081  14.068  -3.652  1.00 20.00     0.035 C 
HETATM   10  C10 UNL     1     -35.390  13.823  -5.043  1.00 20.00     0.184 A 
HETATM   11  C11 UNL     1     -33.975  13.446  -4.667  1.00 20.00     0.156 A 
HETATM   12  O12 UNL     1     -35.117  12.795  -4.081  1.00 20.00    -0.370 OA
HETATM   13 CL13 UNL     1     -38.956  18.472  -3.443  1.00 20.00    -0.084 Cl
ENDROOT
TORSDOF 0
ENDMDL
MODEL 7
REMARK VINA RESULT:      -4.8     12.576     14.426
REMARK  0 active torsions:
REMARK  status: ('A' for Active; 'I' for Inactive)
ROOT
HETATM    1  C1  UNL     1     -40.999   3.184  -2.296  1.00 20.00     0.012 A 
HETATM    2  C2  UNL     1     -41.563   2.374  -3.284  1.00 20.00     0.024 A 
HETATM    3  C3  UNL     1     -43.269   4.022  -3.614  1.00 20.00     0.031 A 
HETATM    4  C4  UNL     1     -41.543   4.440  -1.931  1.00 20.00    -0.021 A 
HETATM    5  C5  UNL     1     -42.701   4.855  -2.624  1.00 20.00    -0.048 A 
HETATM    6  C6  UNL     1     -42.704   2.794  -3.944  1.00 20.00     0.034 A 
HETATM    7  C7  UNL     1     -43.398   6.163  -2.346  1.00 20.00     0.039 C 
HETATM    8  C8  UNL     1     -42.459   7.363  -2.398  1.00 20.00     0.007 C 
HETATM    9  C9  UNL     1     -41.865   7.691  -1.040  1.00 20.00     0.035 C 
HETATM   10  C10 UNL     1     -40.844   5.194  -0.821  1.00 20.00     0.184 A 
HETATM   11  C11 UNL     1     -40.953   6.660  -0.472  1.00 20.00     0.156 A 
HETATM   12  O12 UNL     1     -41.651   5.648   0.275  1.00 20.00    -0.370 OA
HETATM   13 CL13 UNL     1     -43.417   1.812  -5.160  1.00 20.00    -0.084 Cl
ENDROOT
TORSDOF 0
ENDMDL
MODEL 8
REMARK VINA RESULT:      -4.8      2.005      2.662
REMARK  0 active torsions:
REMARK  status: ('A' for Active; 'I' for Inactive)
ROOT
HETATM    1  C1  UNL     1     -36.557  17.947  -2.218  1.00 20.00     0.012 A 
HETATM    2  C2  UNL     1     -36.310  18.164  -0.862  1.00 20.00     0.024 A 
HETATM    3  C3  UNL     1     -34.474  16.630  -0.985  1.00 20.00     0.031 A 
HETATM    4  C4  UNL     1     -35.777  17.069  -3.010  1.00 20.00    -0.021 A 
HETATM    5  C5  UNL     1     -34.709  16.411  -2.361  1.00 20.00    -0.048 A 
HETATM    6  C6  UNL     1     -35.265  17.501  -0.243  1.00 20.00     0.034 A 
HETATM    7  C7  UNL     1     -33.791  15.444  -3.068  1.00 20.00     0.039 C 
HETATM    8  C8  UNL     1     -33.181  16.021  -4.341  1.00 20.00     0.007 C 
HETATM    9  C9  UNL     1     -34.018  15.720  -5.570  1.00 20.00     0.035 C 
HETATM   10  C10 UNL     1     -36.181  16.908  -4.459  1.00 20.00     0.184 A 
HETATM   11  C11 UNL     1     -35.363  16.358  -5.604  1.00 20.00     0.156 A 
HETATM   12  O12 UNL     1     -36.371  15.571  -4.943  1.00 20.00    -0.370 OA
HETATM   13 CL13 UNL     1     -34.944  17.750   1.428  1.00 20.00    -0.084 Cl
ENDROOT
TORSDOF 0
ENDMDL
MODEL 9
REMARK VINA RESULT:      -4.7      2.784      4.777
REMARK  0 active torsions:
REMARK  status: ('A' for Active; 'I' for Inactive)
ROOT
HETATM    1  C1  UNL     1     -34.496  15.275  -2.746  1.00 20.00     0.012 A 
HETATM    2  C2  UNL     1     -34.350  15.022  -4.111  1.00 20.00     0.024 A 
HETATM    3  C3  UNL     1     -34.003  17.365  -4.473  1.00 20.00     0.031 A 
HETATM    4  C4  UNL     1     -34.400  16.575  -2.191  1.00 20.00    -0.021 A 
HETATM    5  C5  UNL     1     -34.137  17.630  -3.092  1.00 20.00    -0.048 A 
HETATM    6  C6  UNL     1     -34.104  16.072  -4.978  1.00 20.00     0.034 A 
HETATM    7  C7  UNL     1     -34.010  19.069  -2.655  1.00 20.00     0.039 C 
HETATM    8  C8  UNL     1     -33.009  19.263  -1.521  1.00 20.00     0.007 C 
HETATM    9  C9  UNL     1     -33.661  19.177  -0.153  1.00 20.00     0.035 C 
HETATM   10  C10 UNL     1     -34.612  16.702  -0.699  1.00 20.00     0.184 A 
HETATM   11  C11 UNL     1     -34.223  17.846   0.209  1.00 20.00     0.156 A 
HETATM   12  O12 UNL     1     -35.575  17.667  -0.252  1.00 20.00    -0.370 OA
HETATM   13 CL13 UNL     1     -33.925  15.785  -6.663  1.00 20.00    -0.084 Cl
ENDROOT
TORSDOF 0
ENDMDL
