MODEL 1
REMARK VINA RESULT:      -4.4      0.000      0.000
REMARK  1 active torsions:
REMARK  status: ('A' for Active; 'I' for Inactive)
REMARK    1  A    between atoms: C3_3  and  C8_8 
ROOT
HETATM    1  C1  UNL     1     -34.334  14.165  -3.394  1.00 20.00     0.058 A 
HETATM    2  C2  UNL     1     -34.092  15.777  -5.013  1.00 20.00    -0.037 A 
HETATM    3  C3  UNL     1     -34.014  15.492  -3.635  1.00 20.00    -0.031 A 
HETATM    4  C4  UNL     1     -34.460  14.683  -5.749  1.00 20.00    -0.011 A 
HETATM    5  C5  UNL     1     -33.876  16.960  -5.880  1.00 20.00     0.040 C 
HETATM    6  C6  UNL     1     -34.553  14.939  -7.204  1.00 20.00     0.047 C 
HETATM    7  C7  UNL     1     -34.512  16.500  -7.231  1.00 20.00     0.010 C 
HETATM    8  S9  UNL     1     -34.719  13.301  -4.844  1.00 20.00    -0.105 SA
ENDROOT
BRANCH   3   9
HETATM    9  C8  UNL     1     -33.642  16.467  -2.587  1.00 20.00     0.154 C 
HETATM   10 CL10 UNL     1     -34.707  16.320  -1.166  1.00 20.00    -0.126 Cl
ENDBRANCH   3   9
TORSDOF 1
ENDMDL
MODEL 2
REMARK VINA RESULT:      -4.3     12.347     13.780
REMARK  1 active torsions:
REMARK  status: ('A' for Active; 'I' for Inactive)
REMARK    1  A    between atoms: C3_3  and  C8_8 
ROOT
HETATM    1  C1  UNL     1     -43.327   4.872  -3.414  1.00 20.00     0.058 A 
HETATM    2  C2  UNL     1     -41.696   4.902  -1.797  1.00 20.00    -0.037 A 
HETATM    3  C3  UNL     1     -42.486   4.092  -2.637  1.00 20.00    -0.031 A 
HETATM    4  C4  UNL     1     -41.961   6.234  -1.963  1.00 20.00    -0.011 A 
HETATM    5  C5  UNL     1     -40.644   4.687  -0.775  1.00 20.00     0.040 C 
HETATM    6  C6  UNL     1     -41.150   7.122  -1.099  1.00 20.00     0.047 C 
HETATM    7  C7  UNL     1     -40.555   6.088  -0.092  1.00 20.00     0.010 C 
HETATM    8  S9  UNL     1     -43.136   6.564  -3.106  1.00 20.00    -0.105 SA
ENDROOT
BRANCH   3   9
HETATM    9  C8  UNL     1     -42.429   2.614  -2.689  1.00 20.00     0.154 C 
HETATM   10 CL10 UNL     1     -41.150   2.061  -3.800  1.00 20.00    -0.126 Cl
ENDBRANCH   3   9
TORSDOF 1
ENDMDL
MODEL 3
REMARK VINA RESULT:      -4.2      1.738      2.619
REMARK  1 active torsions:
REMARK  status: ('A' for Active; 'I' for Inactive)
REMARK    1  A    between atoms: C3_3  and  C8_8 
ROOT
HETATM    1  C1  UNL     1     -33.775  17.476  -3.526  1.00 20.00     0.058 A 
HETATM    2  C2  UNL     1     -34.570  15.339  -3.805  1.00 20.00    -0.037 A 
HETATM    3  C3  UNL     1     -34.317  16.374  -2.883  1.00 20.00    -0.031 A 
HETATM    4  C4  UNL     1     -34.218  15.683  -5.082  1.00 20.00    -0.011 A 
HETATM    5  C5  UNL     1     -35.123  13.964  -3.752  1.00 20.00     0.040 C 
HETATM    6  C6  UNL     1     -34.468  14.622  -6.083  1.00 20.00     0.047 C 
HETATM    7  C7  UNL     1     -34.727  13.395  -5.153  1.00 20.00     0.010 C 
HETATM    8  S9  UNL     1     -33.587  17.225  -5.228  1.00 20.00    -0.105 SA
ENDROOT
BRANCH   3   9
HETATM    9  C8  UNL     1     -34.592  16.304  -1.431  1.00 20.00     0.154 C 
HETATM   10 CL10 UNL     1     -33.727  17.589  -0.552  1.00 20.00    -0.126 Cl
ENDBRANCH   3   9
TORSDOF 1
ENDMDL
MODEL 4
REMARK VINA RESULT:      -4.1      2.550      4.214
REMARK  1 active torsions:
REMARK  status: ('A' for Active; 'I' for Inactive)
REMARK    1  A    between atoms: C3_3  and  C8_8 
ROOT
HETATM    1  C1  UNL     1     -33.311  16.362  -5.002  1.00 20.00     0.058 A 
HETATM    2  C2  UNL     1     -34.070  16.456  -2.837  1.00 20.00    -0.037 A 
HETATM    3  C3  UNL     1     -33.604  15.619  -3.870  1.00 20.00    -0.031 A 
HETATM    4  C4  UNL     1     -34.114  17.771  -3.214  1.00 20.00    -0.011 A 
HETATM    5  C5  UNL     1     -34.528  16.284  -1.437  1.00 20.00     0.040 C 
HETATM    6  C6  UNL     1     -34.598  18.686  -2.156  1.00 20.00     0.047 C 
HETATM    7  C7  UNL     1     -35.189  17.666  -1.133  1.00 20.00     0.010 C 
HETATM    8  S9  UNL     1     -33.608  18.052  -4.783  1.00 20.00    -0.105 SA
ENDROOT
BRANCH   3   9
HETATM    9  C8  UNL     1     -33.444  14.152  -3.766  1.00 20.00     0.154 C 
HETATM   10 CL10 UNL     1     -34.975  13.314  -4.126  1.00 20.00    -0.126 Cl
ENDBRANCH   3   9
TORSDOF 1
ENDMDL
MODEL 5
REMARK VINA RESULT:      -4.1      2.550      2.938
REMARK  1 active torsions:
REMARK  status: ('A' for Active; 'I' for Inactive)
REMARK    1  A    between atoms: C3_3  and  C8_8 
ROOT
HETATM    1  C1  UNL     1     -37.128  16.428  -3.190  1.00 20.00     0.058 A 
HETATM    2  C2  UNL     1     -35.118  15.316  -3.181  1.00 20.00    -0.037 A 
HETATM    3  C3  UNL     1     -35.820  16.454  -2.735  1.00 20.00    -0.031 A 
HETATM    4  C4  UNL     1     -35.900  14.489  -3.941  1.00 20.00    -0.011 A 
HETATM    5  C5  UNL     1     -33.745  14.776  -3.040  1.00 20.00     0.040 C 
HETATM    6  C6  UNL     1     -35.201  13.280  -4.430  1.00 20.00     0.047 C 
HETATM    7  C7  UNL     1     -33.717  13.657  -4.129  1.00 20.00     0.010 C 
HETATM    8  S9  UNL     1     -37.471  15.026  -4.145  1.00 20.00    -0.105 SA
ENDROOT
BRANCH   3   9
HETATM    9  C8  UNL     1     -35.247  17.529  -1.895  1.00 20.00     0.154 C 
HETATM   10 CL10 UNL     1     -34.748  16.901  -0.303  1.00 20.00    -0.126 Cl
ENDBRANCH   3   9
TORSDOF 1
ENDMDL
MODEL 6
REMARK VINA RESULT:      -4.0      2.741      4.331
REMARK  1 active torsions:
REMARK  status: ('A' for Active; 'I' for Inactive)
REMARK    1  A    between atoms: C3_3  and  C8_8 
ROOT
HETATM    1  C1  UNL     1     -34.384  16.847  -6.796  1.00 20.00     0.058 A 
HETATM    2  C2  UNL     1     -34.348  14.920  -5.546  1.00 20.00    -0.037 A 
HETATM    3  C3  UNL     1     -34.695  15.497  -6.784  1.00 20.00    -0.031 A 
HETATM    4  C4  UNL     1     -33.800  15.832  -4.685  1.00 20.00    -0.011 A 
HETATM    5  C5  UNL     1     -34.420  13.574  -4.929  1.00 20.00     0.040 C 
HETATM    6  C6  UNL     1     -33.419  15.266  -3.370  1.00 20.00     0.047 C 
HETATM    7  C7  UNL     1     -34.147  13.886  -3.423  1.00 20.00     0.010 C 
HETATM    8  S9  UNL     1     -33.679  17.379  -5.307  1.00 20.00    -0.105 SA
ENDROOT
BRANCH   3   9
HETATM    9  C8  UNL     1     -35.305  14.768  -7.918  1.00 20.00     0.154 C 
HETATM   10 CL10 UNL     1     -37.084  14.809  -7.824  1.00 20.00    -0.126 Cl
ENDBRANCH   3   9
TORSDOF 1
ENDMDL
MODEL 7
REMARK VINA RESULT:      -4.0      2.403      3.545
REMARK  1 active torsions:
REMARK  status: ('A' for Active; 'I' for Inactive)
REMARK    1  A    between atoms: C3_3  and  C8_8 
ROOT
HETATM    1  C1  UNL     1     -34.740  16.348  -7.120  1.00 20.00     0.058 A 
HETATM    2  C2  UNL     1     -33.995  15.548  -5.100  1.00 20.00    -0.037 A 
HETATM    3  C3  UNL     1     -34.098  16.677  -5.937  1.00 20.00    -0.031 A 
HETATM    4  C4  UNL     1     -34.549  14.431  -5.665  1.00 20.00    -0.011 A 
HETATM    5  C5  UNL     1     -33.441  15.252  -3.757  1.00 20.00     0.040 C 
HETATM    6  C6  UNL     1     -34.463  13.221  -4.817  1.00 20.00     0.047 C 
HETATM    7  C7  UNL     1     -33.436  13.690  -3.739  1.00 20.00     0.010 C 
HETATM    8  S9  UNL     1     -35.202  14.681  -7.184  1.00 20.00    -0.105 SA
ENDROOT
BRANCH   3   9
HETATM    9  C8  UNL     1     -33.595  18.028  -5.605  1.00 20.00     0.154 C 
HETATM   10 CL10 UNL     1     -33.623  19.091  -7.035  1.00 20.00    -0.126 Cl
ENDBRANCH   3   9
TORSDOF 1
ENDMDL
MODEL 8
REMARK VINA RESULT:      -4.0     11.725     13.243
REMARK  1 active torsions:
REMARK  status: ('A' for Active; 'I' for Inactive)
REMARK    1  A    between atoms: C3_3  and  C8_8 
ROOT
HETATM    1  C1  UNL     1     -33.165   5.934   2.382  1.00 20.00     0.058 A 
HETATM    2  C2  UNL     1     -33.570   6.287   4.616  1.00 20.00    -0.037 A 
HETATM    3  C3  UNL     1     -32.803   6.672   3.498  1.00 20.00    -0.031 A 
HETATM    4  C4  UNL     1     -34.463   5.295   4.315  1.00 20.00    -0.011 A 
HETATM    5  C5  UNL     1     -33.663   6.680   6.042  1.00 20.00     0.040 C 
HETATM    6  C6  UNL     1     -35.291   4.861   5.463  1.00 20.00     0.047 C 
HETATM    7  C7  UNL     1     -34.519   5.523   6.648  1.00 20.00     0.010 C 
HETATM    8  S9  UNL     1     -34.424   4.796   2.719  1.00 20.00    -0.105 SA
ENDROOT
BRANCH   3   9
HETATM    9  C8  UNL     1     -31.757   7.719   3.506  1.00 20.00     0.154 C 
HETATM   10 CL10 UNL     1     -31.712   8.592   1.954  1.00 20.00    -0.126 Cl
ENDBRANCH   3   9
TORSDOF 1
ENDMDL
MODEL 9
REMARK VINA RESULT:      -4.0      5.143      7.460
REMARK  1 active torsions:
REMARK  status: ('A' for Active; 'I' for Inactive)
REMARK    1  A    between atoms: C3_3  and  C8_8 
ROOT
HETATM    1  C1  UNL     1     -35.368  17.614   1.023  1.00 20.00     0.058 A 
HETATM    2  C2  UNL     1     -33.257  18.519   1.054  1.00 20.00    -0.037 A 
HETATM    3  C3  UNL     1     -34.267  17.950   0.252  1.00 20.00    -0.031 A 
HETATM    4  C4  UNL     1     -33.620  18.591   2.371  1.00 20.00    -0.011 A 
HETATM    5  C5  UNL     1     -31.895  19.066   0.841  1.00 20.00     0.040 C 
HETATM    6  C6  UNL     1     -32.586  19.185   3.250  1.00 20.00     0.047 C 
HETATM    7  C7  UNL     1     -31.347  19.164   2.300  1.00 20.00     0.010 C 
HETATM    8  S9  UNL     1     -35.149  17.997   2.697  1.00 20.00    -0.105 SA
ENDROOT
BRANCH   3   9
HETATM    9  C8  UNL     1     -34.172  17.740  -1.209  1.00 20.00     0.154 C 
HETATM   10 CL10 UNL     1     -34.628  16.075  -1.648  1.00 20.00    -0.126 Cl
ENDBRANCH   3   9
TORSDOF 1
ENDMDL
