MODEL 1
REMARK VINA RESULT:      -5.1      0.000      0.000
REMARK  0 active torsions:
REMARK  status: ('A' for Active; 'I' for Inactive)
ROOT
HETATM    1  C1  UNL     1     -33.662  16.887  -4.391  1.00 20.00     0.009 A 
HETATM    2  C2  UNL     1     -33.754  17.404  -3.098  1.00 20.00     0.019 A 
HETATM    3  C3  UNL     1     -34.981  15.437  -2.353  1.00 20.00     0.029 A 
HETATM    4  C4  UNL     1     -34.234  15.651  -4.645  1.00 20.00    -0.047 A 
HETATM    5  C5  UNL     1     -34.893  14.918  -3.637  1.00 20.00    -0.019 A 
HETATM    6  C6  UNL     1     -34.409  16.684  -2.086  1.00 20.00     0.011 A 
HETATM    7  C7  UNL     1     -34.247  14.908  -5.963  1.00 20.00     0.074 A 
HETATM    8  C8  UNL     1     -35.407  13.628  -4.179  1.00 20.00     0.185 A 
HETATM    9  C9  UNL     1     -35.049  13.658  -5.655  1.00 20.00     0.160 A 
HETATM   10  O10 UNL     1     -34.456  12.719  -4.757  1.00 20.00    -0.370 OA
HETATM   11 BR11 UNL     1     -34.514  17.409  -0.343  1.00 20.00    -0.051 Br
ENDROOT
TORSDOF 0
ENDMDL
MODEL 2
REMARK VINA RESULT:      -4.8      1.703      1.966
REMARK  0 active torsions:
REMARK  status: ('A' for Active; 'I' for Inactive)
ROOT
HETATM    1  C1  UNL     1     -34.014  16.117  -2.191  1.00 20.00     0.009 A 
HETATM    2  C2  UNL     1     -35.007  17.041  -1.862  1.00 20.00     0.019 A 
HETATM    3  C3  UNL     1     -36.547  16.014  -3.443  1.00 20.00     0.029 A 
HETATM    4  C4  UNL     1     -34.304  15.155  -3.144  1.00 20.00    -0.047 A 
HETATM    5  C5  UNL     1     -35.564  15.093  -3.775  1.00 20.00    -0.019 A 
HETATM    6  C6  UNL     1     -36.264  16.990  -2.484  1.00 20.00     0.011 A 
HETATM    7  C7  UNL     1     -33.385  14.061  -3.643  1.00 20.00     0.074 A 
HETATM    8  C8  UNL     1     -35.608  13.964  -4.748  1.00 20.00     0.185 A 
HETATM    9  C9  UNL     1     -34.214  13.360  -4.702  1.00 20.00     0.160 A 
HETATM   10  O10 UNL     1     -35.361  12.639  -4.248  1.00 20.00    -0.370 OA
HETATM   11 BR11 UNL     1     -37.590  18.255  -2.016  1.00 20.00    -0.051 Br
ENDROOT
TORSDOF 0
ENDMDL
MODEL 3
REMARK VINA RESULT:      -4.5      2.804      3.874
REMARK  0 active torsions:
REMARK  status: ('A' for Active; 'I' for Inactive)
ROOT
HETATM    1  C1  UNL     1     -35.100  14.622  -7.095  1.00 20.00     0.009 A 
HETATM    2  C2  UNL     1     -34.995  15.866  -7.718  1.00 20.00     0.019 A 
HETATM    3  C3  UNL     1     -33.948  16.819  -5.738  1.00 20.00     0.029 A 
HETATM    4  C4  UNL     1     -34.627  14.497  -5.799  1.00 20.00    -0.047 A 
HETATM    5  C5  UNL     1     -34.050  15.585  -5.112  1.00 20.00    -0.019 A 
HETATM    6  C6  UNL     1     -34.423  16.957  -7.045  1.00 20.00     0.011 A 
HETATM    7  C7  UNL     1     -34.636  13.249  -4.943  1.00 20.00     0.074 A 
HETATM    8  C8  UNL     1     -33.624  15.174  -3.743  1.00 20.00     0.185 A 
HETATM    9  C9  UNL     1     -34.051  13.722  -3.625  1.00 20.00     0.160 A 
HETATM   10  O10 UNL     1     -32.674  14.101  -3.633  1.00 20.00    -0.370 OA
HETATM   11 BR11 UNL     1     -34.293  18.629  -7.918  1.00 20.00    -0.051 Br
ENDROOT
TORSDOF 0
ENDMDL
MODEL 4
REMARK VINA RESULT:      -4.5      1.476      1.889
REMARK  0 active torsions:
REMARK  status: ('A' for Active; 'I' for Inactive)
ROOT
HETATM    1  C1  UNL     1     -36.463  16.667  -2.948  1.00 20.00     0.009 A 
HETATM    2  C2  UNL     1     -35.723  17.604  -2.227  1.00 20.00     0.019 A 
HETATM    3  C3  UNL     1     -33.738  16.201  -2.353  1.00 20.00     0.029 A 
HETATM    4  C4  UNL     1     -35.827  15.508  -3.361  1.00 20.00    -0.047 A 
HETATM    5  C5  UNL     1     -34.468  15.264  -3.071  1.00 20.00    -0.019 A 
HETATM    6  C6  UNL     1     -34.371  17.373  -1.931  1.00 20.00     0.011 A 
HETATM    7  C7  UNL     1     -36.432  14.369  -4.153  1.00 20.00     0.074 A 
HETATM    8  C8  UNL     1     -34.039  13.952  -3.634  1.00 20.00     0.185 A 
HETATM    9  C9  UNL     1     -35.296  13.370  -4.259  1.00 20.00     0.160 A 
HETATM   10  O10 UNL     1     -34.172  13.757  -5.052  1.00 20.00    -0.370 OA
HETATM   11 BR11 UNL     1     -33.394  18.664  -0.953  1.00 20.00    -0.051 Br
ENDROOT
TORSDOF 0
ENDMDL
MODEL 5
REMARK VINA RESULT:      -4.4      2.962      4.347
REMARK  0 active torsions:
REMARK  status: ('A' for Active; 'I' for Inactive)
ROOT
HETATM    1  C1  UNL     1     -33.548  17.308  -4.172  1.00 20.00     0.009 A 
HETATM    2  C2  UNL     1     -33.823  16.095  -4.803  1.00 20.00     0.019 A 
HETATM    3  C3  UNL     1     -34.646  15.147  -2.717  1.00 20.00     0.029 A 
HETATM    4  C4  UNL     1     -33.826  17.422  -2.820  1.00 20.00    -0.047 A 
HETATM    5  C5  UNL     1     -34.374  16.351  -2.084  1.00 20.00    -0.019 A 
HETATM    6  C6  UNL     1     -34.368  15.021  -4.081  1.00 20.00     0.011 A 
HETATM    7  C7  UNL     1     -33.613  18.638  -1.945  1.00 20.00     0.074 A 
HETATM    8  C8  UNL     1     -34.577  16.744  -0.659  1.00 20.00     0.185 A 
HETATM    9  C9  UNL     1     -34.039  18.162  -0.570  1.00 20.00     0.160 A 
HETATM   10  O10 UNL     1     -35.426  17.872  -0.391  1.00 20.00    -0.370 OA
HETATM   11 BR11 UNL     1     -34.732  13.390  -4.964  1.00 20.00    -0.051 Br
ENDROOT
TORSDOF 0
ENDMDL
MODEL 6
REMARK VINA RESULT:      -4.4     11.872     13.104
REMARK  0 active torsions:
REMARK  status: ('A' for Active; 'I' for Inactive)
ROOT
HETATM    1  C1  UNL     1     -40.792   5.121  -0.983  1.00 20.00     0.009 A 
HETATM    2  C2  UNL     1     -40.869   3.862  -1.577  1.00 20.00     0.019 A 
HETATM    3  C3  UNL     1     -42.684   4.604  -3.018  1.00 20.00     0.029 A 
HETATM    4  C4  UNL     1     -41.665   6.105  -1.416  1.00 20.00    -0.047 A 
HETATM    5  C5  UNL     1     -42.613   5.859  -2.431  1.00 20.00    -0.019 A 
HETATM    6  C6  UNL     1     -41.808   3.604  -2.587  1.00 20.00     0.011 A 
HETATM    7  C7  UNL     1     -41.751   7.531  -0.917  1.00 20.00     0.074 A 
HETATM    8  C8  UNL     1     -43.417   7.085  -2.704  1.00 20.00     0.185 A 
HETATM    9  C9  UNL     1     -42.909   8.112  -1.706  1.00 20.00     0.160 A 
HETATM   10  O10 UNL     1     -42.713   8.270  -3.112  1.00 20.00    -0.370 OA
HETATM   11 BR11 UNL     1     -41.887   1.887  -3.375  1.00 20.00    -0.051 Br
ENDROOT
TORSDOF 0
ENDMDL
MODEL 7
REMARK VINA RESULT:      -4.4      2.679      3.328
REMARK  0 active torsions:
REMARK  status: ('A' for Active; 'I' for Inactive)
ROOT
HETATM    1  C1  UNL     1     -33.310  16.803  -4.417  1.00 20.00     0.009 A 
HETATM    2  C2  UNL     1     -33.641  17.698  -5.434  1.00 20.00     0.019 A 
HETATM    3  C3  UNL     1     -34.773  15.936  -6.676  1.00 20.00     0.029 A 
HETATM    4  C4  UNL     1     -33.715  15.485  -4.546  1.00 20.00    -0.047 A 
HETATM    5  C5  UNL     1     -34.445  15.041  -5.668  1.00 20.00    -0.019 A 
HETATM    6  C6  UNL     1     -34.368  17.268  -6.556  1.00 20.00     0.011 A 
HETATM    7  C7  UNL     1     -33.470  14.357  -3.568  1.00 20.00     0.074 A 
HETATM    8  C8  UNL     1     -34.755  13.587  -5.549  1.00 20.00     0.185 A 
HETATM    9  C9  UNL     1     -34.085  13.153  -4.256  1.00 20.00     0.160 A 
HETATM   10  O10 UNL     1     -35.506  13.154  -4.402  1.00 20.00    -0.370 OA
HETATM   11 BR11 UNL     1     -34.804  18.506  -7.917  1.00 20.00    -0.051 Br
ENDROOT
TORSDOF 0
ENDMDL
MODEL 8
REMARK VINA RESULT:      -4.3     12.205     13.768
REMARK  0 active torsions:
REMARK  status: ('A' for Active; 'I' for Inactive)
ROOT
HETATM    1  C1  UNL     1     -43.417   5.041  -3.055  1.00 20.00     0.009 A 
HETATM    2  C2  UNL     1     -43.267   3.730  -3.509  1.00 20.00     0.019 A 
HETATM    3  C3  UNL     1     -41.256   3.449  -2.166  1.00 20.00     0.029 A 
HETATM    4  C4  UNL     1     -42.482   5.536  -2.162  1.00 20.00    -0.047 A 
HETATM    5  C5  UNL     1     -41.400   4.752  -1.711  1.00 20.00    -0.019 A 
HETATM    6  C6  UNL     1     -42.194   2.940  -3.068  1.00 20.00     0.011 A 
HETATM    7  C7  UNL     1     -42.456   6.917  -1.542  1.00 20.00     0.074 A 
HETATM    8  C8  UNL     1     -40.555   5.526  -0.756  1.00 20.00     0.185 A 
HETATM    9  C9  UNL     1     -41.192   6.904  -0.705  1.00 20.00     0.160 A 
HETATM   10  O10 UNL     1     -41.183   6.037   0.431  1.00 20.00    -0.370 OA
HETATM   11 BR11 UNL     1     -42.018   1.167  -3.700  1.00 20.00    -0.051 Br
ENDROOT
TORSDOF 0
ENDMDL
MODEL 9
REMARK VINA RESULT:      -4.3      3.130      4.532
REMARK  0 active torsions:
REMARK  status: ('A' for Active; 'I' for Inactive)
ROOT
HETATM    1  C1  UNL     1     -34.397  14.437  -3.388  1.00 20.00     0.009 A 
HETATM    2  C2  UNL     1     -34.487  14.172  -4.755  1.00 20.00     0.019 A 
HETATM    3  C3  UNL     1     -34.848  16.532  -5.233  1.00 20.00     0.029 A 
HETATM    4  C4  UNL     1     -34.535  15.748  -2.964  1.00 20.00    -0.047 A 
HETATM    5  C5  UNL     1     -34.759  16.802  -3.875  1.00 20.00    -0.019 A 
HETATM    6  C6  UNL     1     -34.711  15.212  -5.671  1.00 20.00     0.011 A 
HETATM    7  C7  UNL     1     -34.466  16.258  -1.541  1.00 20.00     0.074 A 
HETATM    8  C8  UNL     1     -34.863  18.104  -3.155  1.00 20.00     0.185 A 
HETATM    9  C9  UNL     1     -34.739  17.743  -1.684  1.00 20.00     0.160 A 
HETATM   10  O10 UNL     1     -33.743  18.517  -2.355  1.00 20.00    -0.370 OA
HETATM   11 BR11 UNL     1     -34.827  14.821  -7.517  1.00 20.00    -0.051 Br
ENDROOT
TORSDOF 0
ENDMDL
