MODEL 1
REMARK VINA RESULT:      -4.8      0.000      0.000
REMARK  0 active torsions:
REMARK  status: ('A' for Active; 'I' for Inactive)
ROOT
HETATM    1  C1  UNL     1     -36.384  16.671  -3.812  1.00 20.00     0.009 A 
HETATM    2  C2  UNL     1     -36.042  17.238  -2.583  1.00 20.00     0.024 A 
HETATM    3  C3  UNL     1     -34.338  15.539  -2.222  1.00 20.00     0.034 A 
HETATM    4  C4  UNL     1     -35.693  15.544  -4.228  1.00 20.00    -0.047 A 
HETATM    5  C5  UNL     1     -34.671  14.970  -3.443  1.00 20.00    -0.019 A 
HETATM    6  C6  UNL     1     -35.027  16.676  -1.795  1.00 20.00     0.034 A 
HETATM    7  C7  UNL     1     -35.901  14.770  -5.511  1.00 20.00     0.074 A 
HETATM    8  C8  UNL     1     -34.102  13.770  -4.121  1.00 20.00     0.185 A 
HETATM    9  C9  UNL     1     -34.839  13.690  -5.448  1.00 20.00     0.160 A 
HETATM   10  O10 UNL     1     -34.998  12.692  -4.438  1.00 20.00    -0.370 OA
HETATM   11 CL11 UNL     1     -34.628  17.397  -0.281  1.00 20.00    -0.084 Cl
ENDROOT
TORSDOF 0
ENDMDL
MODEL 2
REMARK VINA RESULT:      -4.6      1.384      1.411
REMARK  0 active torsions:
REMARK  status: ('A' for Active; 'I' for Inactive)
ROOT
HETATM    1  C1  UNL     1     -34.613  16.963  -5.114  1.00 20.00     0.009 A 
HETATM    2  C2  UNL     1     -34.310  17.805  -4.042  1.00 20.00     0.024 A 
HETATM    3  C3  UNL     1     -33.786  15.892  -2.631  1.00 20.00     0.034 A 
HETATM    4  C4  UNL     1     -34.496  15.596  -4.926  1.00 20.00    -0.047 A 
HETATM    5  C5  UNL     1     -34.085  15.049  -3.693  1.00 20.00    -0.019 A 
HETATM    6  C6  UNL     1     -33.899  17.272  -2.810  1.00 20.00     0.034 A 
HETATM    7  C7  UNL     1     -34.777  14.509  -5.941  1.00 20.00     0.074 A 
HETATM    8  C8  UNL     1     -34.049  13.560  -3.764  1.00 20.00     0.185 A 
HETATM    9  C9  UNL     1     -34.426  13.234  -5.201  1.00 20.00     0.160 A 
HETATM   10  O10 UNL     1     -35.268  12.877  -4.103  1.00 20.00    -0.370 OA
HETATM   11 CL11 UNL     1     -33.533  18.335  -1.505  1.00 20.00    -0.084 Cl
ENDROOT
TORSDOF 0
ENDMDL
MODEL 3
REMARK VINA RESULT:      -4.5     11.744     12.718
REMARK  0 active torsions:
REMARK  status: ('A' for Active; 'I' for Inactive)
ROOT
HETATM    1  C1  UNL     1     -32.717   7.175   5.432  1.00 20.00     0.009 A 
HETATM    2  C2  UNL     1     -32.152   7.651   4.247  1.00 20.00     0.024 A 
HETATM    3  C3  UNL     1     -33.556   6.164   2.928  1.00 20.00     0.034 A 
HETATM    4  C4  UNL     1     -33.696   6.199   5.345  1.00 20.00    -0.047 A 
HETATM    5  C5  UNL     1     -34.123   5.686   4.101  1.00 20.00    -0.019 A 
HETATM    6  C6  UNL     1     -32.569   7.149   3.005  1.00 20.00     0.034 A 
HETATM    7  C7  UNL     1     -34.433   5.542   6.491  1.00 20.00     0.074 A 
HETATM    8  C8  UNL     1     -35.177   4.650   4.296  1.00 20.00     0.185 A 
HETATM    9  C9  UNL     1     -35.408   4.612   5.798  1.00 20.00     0.160 A 
HETATM   10  O10 UNL     1     -34.847   3.501   5.095  1.00 20.00    -0.370 OA
HETATM   11 CL11 UNL     1     -31.853   7.754   1.560  1.00 20.00    -0.084 Cl
ENDROOT
TORSDOF 0
ENDMDL
MODEL 4
REMARK VINA RESULT:      -4.5     12.084     12.967
REMARK  0 active torsions:
REMARK  status: ('A' for Active; 'I' for Inactive)
ROOT
HETATM    1  C1  UNL     1     -40.957   4.257  -1.508  1.00 20.00     0.009 A 
HETATM    2  C2  UNL     1     -41.580   3.373  -2.391  1.00 20.00     0.024 A 
HETATM    3  C3  UNL     1     -43.111   5.116  -3.126  1.00 20.00     0.034 A 
HETATM    4  C4  UNL     1     -41.423   5.560  -1.449  1.00 20.00    -0.047 A 
HETATM    5  C5  UNL     1     -42.497   6.001  -2.251  1.00 20.00    -0.019 A 
HETATM    6  C6  UNL     1     -42.649   3.800  -3.194  1.00 20.00     0.034 A 
HETATM    7  C7  UNL     1     -40.905   6.675  -0.567  1.00 20.00     0.074 A 
HETATM    8  C8  UNL     1     -42.795   7.438  -1.986  1.00 20.00     0.185 A 
HETATM    9  C9  UNL     1     -41.748   7.867  -0.971  1.00 20.00     0.160 A 
HETATM   10  O10 UNL     1     -43.137   7.813  -0.641  1.00 20.00    -0.370 OA
HETATM   11 CL11 UNL     1     -43.398   2.686  -4.274  1.00 20.00    -0.084 Cl
ENDROOT
TORSDOF 0
ENDMDL
MODEL 5
REMARK VINA RESULT:      -4.5      3.253      4.512
REMARK  0 active torsions:
REMARK  status: ('A' for Active; 'I' for Inactive)
ROOT
HETATM    1  C1  UNL     1     -34.797  14.474  -3.405  1.00 20.00     0.009 A 
HETATM    2  C2  UNL     1     -34.736  14.212  -4.775  1.00 20.00     0.024 A 
HETATM    3  C3  UNL     1     -34.032  16.498  -5.225  1.00 20.00     0.034 A 
HETATM    4  C4  UNL     1     -34.472  15.747  -2.966  1.00 20.00    -0.047 A 
HETATM    5  C5  UNL     1     -34.089  16.766  -3.864  1.00 20.00    -0.019 A 
HETATM    6  C6  UNL     1     -34.357  15.218  -5.677  1.00 20.00     0.034 A 
HETATM    7  C7  UNL     1     -34.475  16.247  -1.538  1.00 20.00     0.074 A 
HETATM    8  C8  UNL     1     -33.801  18.031  -3.130  1.00 20.00     0.185 A 
HETATM    9  C9  UNL     1     -33.986  17.676  -1.663  1.00 20.00     0.160 A 
HETATM   10  O10 UNL     1     -34.853  18.596  -2.330  1.00 20.00    -0.370 OA
HETATM   11 CL11 UNL     1     -34.292  14.866  -7.363  1.00 20.00    -0.084 Cl
ENDROOT
TORSDOF 0
ENDMDL
MODEL 6
REMARK VINA RESULT:      -4.5      2.970      3.670
REMARK  0 active torsions:
REMARK  status: ('A' for Active; 'I' for Inactive)
ROOT
HETATM    1  C1  UNL     1     -33.346  16.683  -5.298  1.00 20.00     0.009 A 
HETATM    2  C2  UNL     1     -34.109  17.442  -6.187  1.00 20.00     0.024 A 
HETATM    3  C3  UNL     1     -35.959  15.871  -6.010  1.00 20.00     0.034 A 
HETATM    4  C4  UNL     1     -33.905  15.527  -4.777  1.00 20.00    -0.047 A 
HETATM    5  C5  UNL     1     -35.207  15.111  -5.125  1.00 20.00    -0.019 A 
HETATM    6  C6  UNL     1     -35.406  17.039  -6.540  1.00 20.00     0.034 A 
HETATM    7  C7  UNL     1     -33.260  14.558  -3.810  1.00 20.00     0.074 A 
HETATM    8  C8  UNL     1     -35.556  13.839  -4.429  1.00 20.00     0.185 A 
HETATM    9  C9  UNL     1     -34.348  13.534  -3.558  1.00 20.00     0.160 A 
HETATM   10  O10 UNL     1     -34.712  12.698  -4.658  1.00 20.00    -0.370 OA
HETATM   11 CL11 UNL     1     -36.323  17.996  -7.640  1.00 20.00    -0.084 Cl
ENDROOT
TORSDOF 0
ENDMDL
MODEL 7
REMARK VINA RESULT:      -4.4      1.484      1.553
REMARK  0 active torsions:
REMARK  status: ('A' for Active; 'I' for Inactive)
ROOT
HETATM    1  C1  UNL     1     -33.751  17.619  -4.032  1.00 20.00     0.009 A 
HETATM    2  C2  UNL     1     -33.777  18.125  -2.731  1.00 20.00     0.024 A 
HETATM    3  C3  UNL     1     -34.415  15.947  -1.850  1.00 20.00     0.034 A 
HETATM    4  C4  UNL     1     -34.057  16.282  -4.221  1.00 20.00    -0.047 A 
HETATM    5  C5  UNL     1     -34.390  15.437  -3.141  1.00 20.00    -0.019 A 
HETATM    6  C6  UNL     1     -34.107  17.295  -1.649  1.00 20.00     0.034 A 
HETATM    7  C7  UNL     1     -34.095  15.532  -5.535  1.00 20.00     0.074 A 
HETATM    8  C8  UNL     1     -34.677  14.056  -3.624  1.00 20.00     0.185 A 
HETATM    9  C9  UNL     1     -34.428  14.112  -5.122  1.00 20.00     0.160 A 
HETATM   10  O10 UNL     1     -35.733  13.889  -4.584  1.00 20.00    -0.370 OA
HETATM   11 CL11 UNL     1     -34.132  17.947  -0.054  1.00 20.00    -0.084 Cl
ENDROOT
TORSDOF 0
ENDMDL
MODEL 8
REMARK VINA RESULT:      -4.4      1.296      2.111
REMARK  0 active torsions:
REMARK  status: ('A' for Active; 'I' for Inactive)
ROOT
HETATM    1  C1  UNL     1     -33.756  16.186  -2.379  1.00 20.00     0.009 A 
HETATM    2  C2  UNL     1     -34.638  17.182  -1.957  1.00 20.00     0.024 A 
HETATM    3  C3  UNL     1     -36.472  16.133  -3.166  1.00 20.00     0.034 A 
HETATM    4  C4  UNL     1     -34.248  15.175  -3.189  1.00 20.00    -0.047 A 
HETATM    5  C5  UNL     1     -35.601  15.138  -3.589  1.00 20.00    -0.019 A 
HETATM    6  C6  UNL     1     -35.985  17.155  -2.348  1.00 20.00     0.034 A 
HETATM    7  C7  UNL     1     -33.475  14.008  -3.762  1.00 20.00     0.074 A 
HETATM    8  C8  UNL     1     -35.859  13.953  -4.457  1.00 20.00     0.185 A 
HETATM    9  C9  UNL     1     -34.530  13.216  -4.508  1.00 20.00     0.160 A 
HETATM   10  O10 UNL     1     -35.095  13.831  -5.668  1.00 20.00    -0.370 OA
HETATM   11 CL11 UNL     1     -37.051  18.399  -1.812  1.00 20.00    -0.084 Cl
ENDROOT
TORSDOF 0
ENDMDL
MODEL 9
REMARK VINA RESULT:      -4.4      1.762      2.459
REMARK  0 active torsions:
REMARK  status: ('A' for Active; 'I' for Inactive)
ROOT
HETATM    1  C1  UNL     1     -33.217  15.585  -4.332  1.00 20.00     0.009 A 
HETATM    2  C2  UNL     1     -33.341  15.937  -2.986  1.00 20.00     0.024 A 
HETATM    3  C3  UNL     1     -35.767  15.793  -3.127  1.00 20.00     0.034 A 
HETATM    4  C4  UNL     1     -34.374  15.342  -5.055  1.00 20.00    -0.047 A 
HETATM    5  C5  UNL     1     -35.651  15.442  -4.465  1.00 20.00    -0.019 A 
HETATM    6  C6  UNL     1     -34.607  16.040  -2.389  1.00 20.00     0.034 A 
HETATM    7  C7  UNL     1     -34.472  14.956  -6.514  1.00 20.00     0.074 A 
HETATM    8  C8  UNL     1     -36.716  15.134  -5.463  1.00 20.00     0.185 A 
HETATM    9  C9  UNL     1     -35.960  14.769  -6.731  1.00 20.00     0.160 A 
HETATM   10  O10 UNL     1     -36.773  15.941  -6.651  1.00 20.00    -0.370 OA
HETATM   11 CL11 UNL     1     -34.729  16.476  -0.727  1.00 20.00    -0.084 Cl
ENDROOT
TORSDOF 0
ENDMDL
