MODEL 1
REMARK VINA RESULT:      -5.0      0.000      0.000
REMARK  3 active torsions:
REMARK  status: ('A' for Active; 'I' for Inactive)
REMARK    1  A    between atoms: C5_5  and  C8_8 
REMARK    2  A    between atoms: C7_7  and  N9_9 
REMARK    3  A    between atoms: C8_8  and  N9_9 
ROOT
HETATM    1  C1  UNL     1     -31.940   8.405   1.773  1.00 20.00     0.013 C 
HETATM    2  C2  UNL     1     -32.222   7.520   2.534  1.00 20.00    -0.087 C 
HETATM    3  C7  UNL     1     -32.562   6.439   3.462  1.00 20.00     0.362 C 
ENDROOT
BRANCH   3   4
HETATM    4  N9  UNL     1     -33.735   6.780   4.239  1.00 20.00     0.098 N 
HETATM    5  H22 UNL     1     -34.569   6.422   3.795  1.00 20.00     0.317 HD
BRANCH   4   6
HETATM    6  C8  UNL     1     -33.641   6.173   5.588  1.00 20.00     0.221 C 
HETATM    7  C6  UNL     1     -33.570   7.285   6.625  1.00 20.00     0.043 C 
BRANCH   6   8
HETATM    8  C5  UNL     1     -34.845   5.270   5.813  1.00 20.00     0.018 A 
HETATM    9  C3  UNL     1     -35.440   4.500   4.667  1.00 20.00     0.007 A 
HETATM   10  C4  UNL     1     -34.693   3.776   5.752  1.00 20.00     0.007 A 
ENDBRANCH   6   8
ENDBRANCH   4   6
ENDBRANCH   3   4
TORSDOF 3
ENDMDL
MODEL 2
REMARK VINA RESULT:      -4.8      1.183      1.946
REMARK  3 active torsions:
REMARK  status: ('A' for Active; 'I' for Inactive)
REMARK    1  A    between atoms: C5_5  and  C8_8 
REMARK    2  A    between atoms: C7_7  and  N9_9 
REMARK    3  A    between atoms: C8_8  and  N9_9 
ROOT
HETATM    1  C1  UNL     1     -31.954   8.818   1.370  1.00 20.00     0.013 C 
HETATM    2  C2  UNL     1     -32.169   7.961   2.183  1.00 20.00    -0.087 C 
HETATM    3  C7  UNL     1     -32.426   6.914   3.174  1.00 20.00     0.362 C 
ENDROOT
BRANCH   3   4
HETATM    4  N9  UNL     1     -33.697   7.134   3.833  1.00 20.00     0.098 N 
HETATM    5  H22 UNL     1     -34.238   7.825   3.333  1.00 20.00     0.317 HD
BRANCH   4   6
HETATM    6  C8  UNL     1     -34.478   5.874   3.855  1.00 20.00     0.221 C 
HETATM    7  C6  UNL     1     -34.184   5.088   2.584  1.00 20.00     0.043 C 
BRANCH   6   8
HETATM    8  C5  UNL     1     -34.112   5.082   5.103  1.00 20.00     0.018 A 
HETATM    9  C3  UNL     1     -34.397   5.644   6.468  1.00 20.00     0.007 A 
HETATM   10  C4  UNL     1     -35.189   4.473   5.957  1.00 20.00     0.007 A 
ENDBRANCH   6   8
ENDBRANCH   4   6
ENDBRANCH   3   4
TORSDOF 3
ENDMDL
MODEL 3
REMARK VINA RESULT:      -4.2     11.644     13.134
REMARK  3 active torsions:
REMARK  status: ('A' for Active; 'I' for Inactive)
REMARK    1  A    between atoms: C5_5  and  C8_8 
REMARK    2  A    between atoms: C7_7  and  N9_9 
REMARK    3  A    between atoms: C8_8  and  N9_9 
ROOT
HETATM    1  C1  UNL     1     -34.394  16.342  -1.678  1.00 20.00     0.013 C 
HETATM    2  C2  UNL     1     -33.995  16.701  -2.752  1.00 20.00    -0.087 C 
HETATM    3  C7  UNL     1     -33.507  17.143  -4.060  1.00 20.00     0.362 C 
ENDROOT
BRANCH   3   4
HETATM    4  N9  UNL     1     -33.146  16.007  -4.883  1.00 20.00     0.098 N 
HETATM    5  H22 UNL     1     -32.733  15.279  -4.317  1.00 20.00     0.317 HD
BRANCH   4   6
HETATM    6  C8  UNL     1     -34.357  15.448  -5.531  1.00 20.00     0.221 C 
HETATM    7  C6  UNL     1     -34.304  15.753  -7.022  1.00 20.00     0.043 C 
BRANCH   6   8
HETATM    8  C5  UNL     1     -34.417  13.950  -5.266  1.00 20.00     0.018 A 
HETATM    9  C3  UNL     1     -33.785  13.373  -4.030  1.00 20.00     0.007 A 
HETATM   10  C4  UNL     1     -35.282  13.412  -4.160  1.00 20.00     0.007 A 
ENDBRANCH   6   8
ENDBRANCH   4   6
ENDBRANCH   3   4
TORSDOF 3
ENDMDL
MODEL 4
REMARK VINA RESULT:      -4.0      1.023      4.440
REMARK  3 active torsions:
REMARK  status: ('A' for Active; 'I' for Inactive)
REMARK    1  A    between atoms: C5_5  and  C8_8 
REMARK    2  A    between atoms: C7_7  and  N9_9 
REMARK    3  A    between atoms: C8_8  and  N9_9 
ROOT
HETATM    1  C1  UNL     1     -35.146   4.041   6.108  1.00 20.00     0.013 C 
HETATM    2  C2  UNL     1     -34.625   5.119   6.033  1.00 20.00    -0.087 C 
HETATM    3  C7  UNL     1     -33.986   6.435   5.947  1.00 20.00     0.362 C 
ENDROOT
BRANCH   3   4
HETATM    4  N9  UNL     1     -33.954   6.899   4.576  1.00 20.00     0.098 N 
HETATM    5  H22 UNL     1     -33.404   7.744   4.503  1.00 20.00     0.317 HD
BRANCH   4   6
HETATM    6  C8  UNL     1     -33.326   5.872   3.709  1.00 20.00     0.221 C 
HETATM    7  C6  UNL     1     -34.352   5.394   2.690  1.00 20.00     0.043 C 
BRANCH   6   8
HETATM    8  C5  UNL     1     -32.100   6.471   3.035  1.00 20.00     0.018 A 
HETATM    9  C3  UNL     1     -32.167   7.841   2.419  1.00 20.00     0.007 A 
HETATM   10  C4  UNL     1     -31.370   7.619   3.674  1.00 20.00     0.007 A 
ENDBRANCH   6   8
ENDBRANCH   4   6
ENDBRANCH   3   4
TORSDOF 3
ENDMDL
MODEL 5
REMARK VINA RESULT:      -3.9     11.584     13.239
REMARK  3 active torsions:
REMARK  status: ('A' for Active; 'I' for Inactive)
REMARK    1  A    between atoms: C5_5  and  C8_8 
REMARK    2  A    between atoms: C7_7  and  N9_9 
REMARK    3  A    between atoms: C8_8  and  N9_9 
ROOT
HETATM    1  C1  UNL     1     -34.452  16.917  -0.616  1.00 20.00     0.013 C 
HETATM    2  C2  UNL     1     -34.713  16.291  -1.606  1.00 20.00    -0.087 C 
HETATM    3  C7  UNL     1     -35.037  15.529  -2.814  1.00 20.00     0.362 C 
ENDROOT
BRANCH   3   4
HETATM    4  N9  UNL     1     -33.862  15.356  -3.642  1.00 20.00     0.098 N 
HETATM    5  H22 UNL     1     -33.103  14.969  -3.099  1.00 20.00     0.317 HD
BRANCH   4   6
HETATM    6  C8  UNL     1     -34.157  14.415  -4.748  1.00 20.00     0.221 C 
HETATM    7  C6  UNL     1     -35.017  13.278  -4.213  1.00 20.00     0.043 C 
BRANCH   6   8
HETATM    8  C5  UNL     1     -34.857  15.168  -5.871  1.00 20.00     0.018 A 
HETATM    9  C3  UNL     1     -34.171  16.318  -6.555  1.00 20.00     0.007 A 
HETATM   10  C4  UNL     1     -34.383  15.023  -7.290  1.00 20.00     0.007 A 
ENDBRANCH   6   8
ENDBRANCH   4   6
ENDBRANCH   3   4
TORSDOF 3
ENDMDL
MODEL 6
REMARK VINA RESULT:      -3.9     11.672     14.089
REMARK  3 active torsions:
REMARK  status: ('A' for Active; 'I' for Inactive)
REMARK    1  A    between atoms: C5_5  and  C8_8 
REMARK    2  A    between atoms: C7_7  and  N9_9 
REMARK    3  A    between atoms: C8_8  and  N9_9 
ROOT
HETATM    1  C1  UNL     1     -34.962  13.274  -4.061  1.00 20.00     0.013 C 
HETATM    2  C2  UNL     1     -34.108  14.105  -3.916  1.00 20.00    -0.087 C 
HETATM    3  C7  UNL     1     -33.065  15.117  -3.735  1.00 20.00     0.362 C 
ENDROOT
BRANCH   3   4
HETATM    4  N9  UNL     1     -32.799  15.807  -4.979  1.00 20.00     0.098 N 
HETATM    5  H22 UNL     1     -32.676  15.143  -5.731  1.00 20.00     0.317 HD
BRANCH   4   6
HETATM    6  C8  UNL     1     -33.946  16.681  -5.328  1.00 20.00     0.221 C 
HETATM    7  C6  UNL     1     -33.554  18.131  -5.079  1.00 20.00     0.043 C 
BRANCH   6   8
HETATM    8  C5  UNL     1     -34.329  16.444  -6.782  1.00 20.00     0.018 A 
HETATM    9  C3  UNL     1     -34.403  15.045  -7.328  1.00 20.00     0.007 A 
HETATM   10  C4  UNL     1     -35.663  15.840  -7.124  1.00 20.00     0.007 A 
ENDBRANCH   6   8
ENDBRANCH   4   6
ENDBRANCH   3   4
TORSDOF 3
ENDMDL
MODEL 7
REMARK VINA RESULT:      -3.9     11.798     13.354
REMARK  3 active torsions:
REMARK  status: ('A' for Active; 'I' for Inactive)
REMARK    1  A    between atoms: C5_5  and  C8_8 
REMARK    2  A    between atoms: C7_7  and  N9_9 
REMARK    3  A    between atoms: C8_8  and  N9_9 
ROOT
HETATM    1  C1  UNL     1     -34.823  15.001  -7.583  1.00 20.00     0.013 C 
HETATM    2  C2  UNL     1     -34.329  15.767  -6.801  1.00 20.00    -0.087 C 
HETATM    3  C7  UNL     1     -33.730  16.705  -5.849  1.00 20.00     0.362 C 
ENDROOT
BRANCH   3   4
HETATM    4  N9  UNL     1     -32.950  15.997  -4.855  1.00 20.00     0.098 N 
HETATM    5  H22 UNL     1     -32.329  16.634  -4.375  1.00 20.00     0.317 HD
BRANCH   4   6
HETATM    6  C8  UNL     1     -33.850  15.391  -3.844  1.00 20.00     0.221 C 
HETATM    7  C6  UNL     1     -33.633  13.884  -3.832  1.00 20.00     0.043 C 
BRANCH   6   8
HETATM    8  C5  UNL     1     -33.562  16.012  -2.485  1.00 20.00     0.018 A 
HETATM    9  C3  UNL     1     -33.856  17.466  -2.238  1.00 20.00     0.007 A 
HETATM   10  C4  UNL     1     -34.695  16.407  -1.578  1.00 20.00     0.007 A 
ENDBRANCH   6   8
ENDBRANCH   4   6
ENDBRANCH   3   4
TORSDOF 3
ENDMDL
MODEL 8
REMARK VINA RESULT:      -3.9     11.477     12.743
REMARK  3 active torsions:
REMARK  status: ('A' for Active; 'I' for Inactive)
REMARK    1  A    between atoms: C5_5  and  C8_8 
REMARK    2  A    between atoms: C7_7  and  N9_9 
REMARK    3  A    between atoms: C8_8  and  N9_9 
ROOT
HETATM    1  C1  UNL     1     -33.501  13.751  -3.749  1.00 20.00     0.013 C 
HETATM    2  C2  UNL     1     -34.662  14.047  -3.821  1.00 20.00    -0.087 C 
HETATM    3  C7  UNL     1     -36.080  14.403  -3.913  1.00 20.00     0.362 C 
ENDROOT
BRANCH   3   4
HETATM    4  N9  UNL     1     -36.413  15.431  -2.950  1.00 20.00     0.098 N 
HETATM    5  H22 UNL     1     -36.105  15.162  -2.026  1.00 20.00     0.317 HD
BRANCH   4   6
HETATM    6  C8  UNL     1     -35.730  16.698  -3.306  1.00 20.00     0.221 C 
HETATM    7  C6  UNL     1     -36.719  17.607  -4.022  1.00 20.00     0.043 C 
BRANCH   6   8
HETATM    8  C5  UNL     1     -35.186  17.344  -2.040  1.00 20.00     0.018 A 
HETATM    9  C3  UNL     1     -34.676  16.491  -0.912  1.00 20.00     0.007 A 
HETATM   10  C4  UNL     1     -33.714  17.299  -1.738  1.00 20.00     0.007 A 
ENDBRANCH   6   8
ENDBRANCH   4   6
ENDBRANCH   3   4
TORSDOF 3
ENDMDL
MODEL 9
REMARK VINA RESULT:      -3.8     12.137     13.224
REMARK  3 active torsions:
REMARK  status: ('A' for Active; 'I' for Inactive)
REMARK    1  A    between atoms: C5_5  and  C8_8 
REMARK    2  A    between atoms: C7_7  and  N9_9 
REMARK    3  A    between atoms: C8_8  and  N9_9 
ROOT
HETATM    1  C1  UNL     1     -34.447  16.285  -1.750  1.00 20.00     0.013 C 
HETATM    2  C2  UNL     1     -33.797  15.902  -2.684  1.00 20.00    -0.087 C 
HETATM    3  C7  UNL     1     -32.998  15.437  -3.820  1.00 20.00     0.362 C 
ENDROOT
BRANCH   3   4
HETATM    4  N9  UNL     1     -33.790  14.596  -4.692  1.00 20.00     0.098 N 
HETATM    5  H22 UNL     1     -34.342  13.946  -4.150  1.00 20.00     0.317 HD
BRANCH   4   6
HETATM    6  C8  UNL     1     -34.723  15.429  -5.489  1.00 20.00     0.221 C 
HETATM    7  C6  UNL     1     -34.203  15.522  -6.917  1.00 20.00     0.043 C 
BRANCH   6   8
HETATM    8  C5  UNL     1     -36.113  14.812  -5.436  1.00 20.00     0.018 A 
HETATM    9  C3  UNL     1     -36.729  14.443  -4.114  1.00 20.00     0.007 A 
HETATM   10  C4  UNL     1     -37.273  15.603  -4.900  1.00 20.00     0.007 A 
ENDBRANCH   6   8
ENDBRANCH   4   6
ENDBRANCH   3   4
TORSDOF 3
ENDMDL
