MODEL 1
REMARK VINA RESULT:      -3.3      0.000      0.000
REMARK  3 active torsions:
REMARK  status: ('A' for Active; 'I' for Inactive)
REMARK    1  A    between atoms: C2_2  and  C6_6 
REMARK    2  A    between atoms: C6_6  and  S9_9 
REMARK    3  A    between atoms: C7_7  and  S9_9 
ROOT
HETATM    1  S9  UNL     1     -35.961  16.652  -4.092  1.00 20.00    -0.158 SA
ENDROOT
BRANCH   1   2
HETATM    2  C6  UNL     1     -35.877  14.956  -3.480  1.00 20.00     0.108 C 
BRANCH   2   3
HETATM    3  C2  UNL     1     -35.625  13.990  -4.622  1.00 20.00     0.154 A 
HETATM    4  C1  UNL     1     -34.281  13.346  -4.814  1.00 20.00     0.201 A 
HETATM    5  O8  UNL     1     -35.379  12.639  -4.216  1.00 20.00    -0.380 OA
ENDBRANCH   2   3
ENDBRANCH   1   2
BRANCH   1   6
HETATM    6  C7  UNL     1     -34.257  17.162  -3.640  1.00 20.00    -0.003 C 
HETATM    7  C3  UNL     1     -33.339  16.925  -4.843  1.00 20.00     0.026 C 
HETATM    8  C4  UNL     1     -34.279  18.649  -3.274  1.00 20.00     0.026 C 
HETATM    9  C5  UNL     1     -33.795  16.326  -2.444  1.00 20.00     0.026 C 
ENDBRANCH   1   6
TORSDOF 3
ENDMDL
MODEL 2
REMARK VINA RESULT:      -3.3      0.020      1.453
REMARK  3 active torsions:
REMARK  status: ('A' for Active; 'I' for Inactive)
REMARK    1  A    between atoms: C2_2  and  C6_6 
REMARK    2  A    between atoms: C6_6  and  S9_9 
REMARK    3  A    between atoms: C7_7  and  S9_9 
ROOT
HETATM    1  S9  UNL     1     -35.959  16.648  -4.118  1.00 20.00    -0.158 SA
ENDROOT
BRANCH   1   2
HETATM    2  C6  UNL     1     -35.890  14.956  -3.493  1.00 20.00     0.108 C 
BRANCH   2   3
HETATM    3  C2  UNL     1     -35.639  13.980  -4.627  1.00 20.00     0.154 A 
HETATM    4  C1  UNL     1     -34.293  13.342  -4.823  1.00 20.00     0.201 A 
HETATM    5  O8  UNL     1     -35.382  12.635  -4.210  1.00 20.00    -0.380 OA
ENDBRANCH   2   3
ENDBRANCH   1   2
BRANCH   1   6
HETATM    6  C7  UNL     1     -34.256  17.151  -3.654  1.00 20.00    -0.003 C 
HETATM    7  C3  UNL     1     -33.805  16.311  -2.455  1.00 20.00     0.026 C 
HETATM    8  C4  UNL     1     -33.335  16.904  -4.853  1.00 20.00     0.026 C 
HETATM    9  C5  UNL     1     -34.265  18.638  -3.289  1.00 20.00     0.026 C 
ENDBRANCH   1   6
TORSDOF 3
ENDMDL
MODEL 3
REMARK VINA RESULT:      -3.3      0.806      1.689
REMARK  3 active torsions:
REMARK  status: ('A' for Active; 'I' for Inactive)
REMARK    1  A    between atoms: C2_2  and  C6_6 
REMARK    2  A    between atoms: C6_6  and  S9_9 
REMARK    3  A    between atoms: C7_7  and  S9_9 
ROOT
HETATM    1  S9  UNL     1     -36.328  16.523  -3.934  1.00 20.00    -0.158 SA
ENDROOT
BRANCH   1   2
HETATM    2  C6  UNL     1     -36.133  14.780  -3.512  1.00 20.00     0.108 C 
BRANCH   2   3
HETATM    3  C2  UNL     1     -35.390  14.045  -4.612  1.00 20.00     0.154 A 
HETATM    4  C1  UNL     1     -33.988  13.546  -4.406  1.00 20.00     0.201 A 
HETATM    5  O8  UNL     1     -35.122  12.667  -4.332  1.00 20.00    -0.380 OA
ENDBRANCH   2   3
ENDBRANCH   1   2
BRANCH   1   6
HETATM    6  C7  UNL     1     -34.962  17.181  -2.900  1.00 20.00    -0.003 C 
HETATM    7  C3  UNL     1     -35.359  18.570  -2.389  1.00 20.00     0.026 C 
HETATM    8  C4  UNL     1     -34.743  16.226  -1.724  1.00 20.00     0.026 C 
HETATM    9  C5  UNL     1     -33.696  17.270  -3.756  1.00 20.00     0.026 C 
ENDBRANCH   1   6
TORSDOF 3
ENDMDL
MODEL 4
REMARK VINA RESULT:      -3.3      2.067      2.634
REMARK  3 active torsions:
REMARK  status: ('A' for Active; 'I' for Inactive)
REMARK    1  A    between atoms: C2_2  and  C6_6 
REMARK    2  A    between atoms: C6_6  and  S9_9 
REMARK    3  A    between atoms: C7_7  and  S9_9 
ROOT
HETATM    1  S9  UNL     1     -34.410  15.361  -7.164  1.00 20.00    -0.158 SA
ENDROOT
BRANCH   1   2
HETATM    2  C6  UNL     1     -35.369  14.362  -6.007  1.00 20.00     0.108 C 
BRANCH   2   3
HETATM    3  C2  UNL     1     -34.449  13.538  -5.126  1.00 20.00     0.154 A 
HETATM    4  C1  UNL     1     -34.394  13.755  -3.639  1.00 20.00     0.201 A 
HETATM    5  O8  UNL     1     -35.122  12.660  -4.218  1.00 20.00    -0.380 OA
ENDBRANCH   2   3
ENDBRANCH   1   2
BRANCH   1   6
HETATM    6  C7  UNL     1     -34.544  16.962  -6.276  1.00 20.00    -0.003 C 
HETATM    7  C3  UNL     1     -33.403  17.055  -5.259  1.00 20.00     0.026 C 
HETATM    8  C4  UNL     1     -34.434  18.094  -7.302  1.00 20.00     0.026 C 
HETATM    9  C5  UNL     1     -35.898  17.018  -5.565  1.00 20.00     0.026 C 
ENDBRANCH   1   6
TORSDOF 3
ENDMDL
MODEL 5
REMARK VINA RESULT:      -3.3      1.423      1.985
REMARK  3 active torsions:
REMARK  status: ('A' for Active; 'I' for Inactive)
REMARK    1  A    between atoms: C2_2  and  C6_6 
REMARK    2  A    between atoms: C6_6  and  S9_9 
REMARK    3  A    between atoms: C7_7  and  S9_9 
ROOT
HETATM    1  S9  UNL     1     -33.779  16.270  -2.767  1.00 20.00    -0.158 SA
ENDROOT
BRANCH   1   2
HETATM    2  C6  UNL     1     -33.313  14.845  -3.771  1.00 20.00     0.108 C 
BRANCH   2   3
HETATM    3  C2  UNL     1     -34.295  13.707  -3.568  1.00 20.00     0.154 A 
HETATM    4  C1  UNL     1     -35.504  13.555  -4.448  1.00 20.00     0.201 A 
HETATM    5  O8  UNL     1     -34.329  12.751  -4.634  1.00 20.00    -0.380 OA
ENDBRANCH   2   3
ENDBRANCH   1   2
BRANCH   1   6
HETATM    6  C7  UNL     1     -34.220  17.405  -4.140  1.00 20.00    -0.003 C 
HETATM    7  C3  UNL     1     -35.734  17.340  -4.362  1.00 20.00     0.026 C 
HETATM    8  C4  UNL     1     -33.801  18.825  -3.746  1.00 20.00     0.026 C 
HETATM    9  C5  UNL     1     -33.476  16.962  -5.402  1.00 20.00     0.026 C 
ENDBRANCH   1   6
TORSDOF 3
ENDMDL
MODEL 6
REMARK VINA RESULT:      -3.3      2.230      3.171
REMARK  3 active torsions:
REMARK  status: ('A' for Active; 'I' for Inactive)
REMARK    1  A    between atoms: C2_2  and  C6_6 
REMARK    2  A    between atoms: C6_6  and  S9_9 
REMARK    3  A    between atoms: C7_7  and  S9_9 
ROOT
HETATM    1  S9  UNL     1     -35.377  15.695  -3.034  1.00 20.00    -0.158 SA
ENDROOT
BRANCH   1   2
HETATM    2  C6  UNL     1     -36.690  16.099  -4.205  1.00 20.00     0.108 C 
BRANCH   2   3
HETATM    3  C2  UNL     1     -38.026  15.582  -3.706  1.00 20.00     0.154 A 
HETATM    4  C1  UNL     1     -38.981  14.876  -4.627  1.00 20.00     0.201 A 
HETATM    5  O8  UNL     1     -38.150  14.156  -3.704  1.00 20.00    -0.380 OA
ENDBRANCH   2   3
ENDBRANCH   1   2
BRANCH   1   6
HETATM    6  C7  UNL     1     -34.291  14.773  -4.191  1.00 20.00    -0.003 C 
HETATM    7  C3  UNL     1     -34.753  13.314  -4.241  1.00 20.00     0.026 C 
HETATM    8  C4  UNL     1     -34.405  15.415  -5.577  1.00 20.00     0.026 C 
HETATM    9  C5  UNL     1     -32.849  14.858  -3.683  1.00 20.00     0.026 C 
ENDBRANCH   1   6
TORSDOF 3
ENDMDL
MODEL 7
REMARK VINA RESULT:      -3.2      1.677      2.316
REMARK  3 active torsions:
REMARK  status: ('A' for Active; 'I' for Inactive)
REMARK    1  A    between atoms: C2_2  and  C6_6 
REMARK    2  A    between atoms: C6_6  and  S9_9 
REMARK    3  A    between atoms: C7_7  and  S9_9 
ROOT
HETATM    1  S9  UNL     1     -35.746  16.223  -2.956  1.00 20.00    -0.158 SA
ENDROOT
BRANCH   1   2
HETATM    2  C6  UNL     1     -34.215  15.327  -3.285  1.00 20.00     0.108 C 
BRANCH   2   3
HETATM    3  C2  UNL     1     -34.498  13.852  -3.502  1.00 20.00     0.154 A 
HETATM    4  C1  UNL     1     -34.447  13.243  -4.874  1.00 20.00     0.201 A 
HETATM    5  O8  UNL     1     -33.369  13.087  -3.938  1.00 20.00    -0.380 OA
ENDBRANCH   2   3
ENDBRANCH   1   2
BRANCH   1   6
HETATM    6  C7  UNL     1     -35.054  17.484  -1.816  1.00 20.00    -0.003 C 
HETATM    7  C3  UNL     1     -34.660  16.796  -0.505  1.00 20.00     0.026 C 
HETATM    8  C4  UNL     1     -33.823  18.110  -2.478  1.00 20.00     0.026 C 
HETATM    9  C5  UNL     1     -36.120  18.552  -1.559  1.00 20.00     0.026 C 
ENDBRANCH   1   6
TORSDOF 3
ENDMDL
MODEL 8
REMARK VINA RESULT:      -3.2      2.342      4.075
REMARK  3 active torsions:
REMARK  status: ('A' for Active; 'I' for Inactive)
REMARK    1  A    between atoms: C2_2  and  C6_6 
REMARK    2  A    between atoms: C6_6  and  S9_9 
REMARK    3  A    between atoms: C7_7  and  S9_9 
ROOT
HETATM    1  S9  UNL     1     -33.800  16.354  -4.329  1.00 20.00    -0.158 SA
ENDROOT
BRANCH   1   2
HETATM    2  C6  UNL     1     -34.759  16.851  -2.883  1.00 20.00     0.108 C 
BRANCH   2   3
HETATM    3  C2  UNL     1     -33.923  16.734  -1.623  1.00 20.00     0.154 A 
HETATM    4  C1  UNL     1     -33.943  17.807  -0.572  1.00 20.00     0.201 A 
HETATM    5  O8  UNL     1     -34.680  16.584  -0.417  1.00 20.00    -0.380 OA
ENDBRANCH   2   3
ENDBRANCH   1   2
BRANCH   1   6
HETATM    6  C7  UNL     1     -34.510  14.674  -4.531  1.00 20.00    -0.003 C 
HETATM    7  C3  UNL     1     -34.653  14.379  -6.027  1.00 20.00     0.026 C 
HETATM    8  C4  UNL     1     -33.560  13.666  -3.879  1.00 20.00     0.026 C 
HETATM    9  C5  UNL     1     -35.879  14.634  -3.846  1.00 20.00     0.026 C 
ENDBRANCH   1   6
TORSDOF 3
ENDMDL
MODEL 9
REMARK VINA RESULT:      -3.2      2.243      3.982
REMARK  3 active torsions:
REMARK  status: ('A' for Active; 'I' for Inactive)
REMARK    1  A    between atoms: C2_2  and  C6_6 
REMARK    2  A    between atoms: C6_6  and  S9_9 
REMARK    3  A    between atoms: C7_7  and  S9_9 
ROOT
HETATM    1  S9  UNL     1     -33.349  16.270  -4.736  1.00 20.00    -0.158 SA
ENDROOT
BRANCH   1   2
HETATM    2  C6  UNL     1     -34.313  17.016  -3.405  1.00 20.00     0.108 C 
BRANCH   2   3
HETATM    3  C2  UNL     1     -33.735  16.639  -2.054  1.00 20.00     0.154 A 
HETATM    4  C1  UNL     1     -34.025  17.458  -0.827  1.00 20.00     0.201 A 
HETATM    5  O8  UNL     1     -34.704  16.219  -1.088  1.00 20.00    -0.380 OA
ENDBRANCH   2   3
ENDBRANCH   1   2
BRANCH   1   6
HETATM    6  C7  UNL     1     -34.562  14.983  -5.227  1.00 20.00    -0.003 C 
HETATM    7  C3  UNL     1     -34.185  13.666  -4.540  1.00 20.00     0.026 C 
HETATM    8  C4  UNL     1     -35.955  15.435  -4.780  1.00 20.00     0.026 C 
HETATM    9  C5  UNL     1     -34.518  14.822  -6.749  1.00 20.00     0.026 C 
ENDBRANCH   1   6
TORSDOF 3
ENDMDL
