MODEL 1
REMARK VINA RESULT:      -3.9      0.000      0.000
REMARK  1 active torsions:
REMARK  status: ('A' for Active; 'I' for Inactive)
REMARK    1  A    between atoms: C1_1  and  C8_8 
ROOT
HETATM    1  C1  UNL     1     -34.262  16.016  -3.294  1.00 20.00     0.014 C 
HETATM    2  C2  UNL     1     -34.745  16.007  -1.879  1.00 20.00     0.057 C 
HETATM    3  C3  UNL     1     -33.934  17.160  -1.340  1.00 20.00     0.027 C 
HETATM    4  C4  UNL     1     -33.738  18.032  -2.567  1.00 20.00     0.149 C 
HETATM    5  N9  UNL     1     -33.697  17.106  -3.717  1.00 20.00    -0.298 NA
ENDROOT
BRANCH   1   6
HETATM    6  C8  UNL     1     -34.467  14.828  -4.176  1.00 20.00    -0.011 C 
HETATM    7  C5  UNL     1     -33.449  13.744  -3.801  1.00 20.00     0.021 C 
HETATM    8  C6  UNL     1     -34.271  15.236  -5.643  1.00 20.00     0.021 C 
HETATM    9  C7  UNL     1     -35.891  14.286  -3.986  1.00 20.00     0.021 C 
ENDBRANCH   1   6
TORSDOF 1
ENDMDL
MODEL 2
REMARK VINA RESULT:      -3.9      0.040      1.449
REMARK  1 active torsions:
REMARK  status: ('A' for Active; 'I' for Inactive)
REMARK    1  A    between atoms: C1_1  and  C8_8 
ROOT
HETATM    1  C1  UNL     1     -34.256  16.041  -3.268  1.00 20.00     0.014 C 
HETATM    2  C2  UNL     1     -34.724  16.020  -1.847  1.00 20.00     0.057 C 
HETATM    3  C3  UNL     1     -33.914  17.175  -1.310  1.00 20.00     0.027 C 
HETATM    4  C4  UNL     1     -33.738  18.057  -2.534  1.00 20.00     0.149 C 
HETATM    5  N9  UNL     1     -33.703  17.138  -3.689  1.00 20.00    -0.298 NA
ENDROOT
BRANCH   1   6
HETATM    6  C8  UNL     1     -34.463  14.857  -4.154  1.00 20.00    -0.011 C 
HETATM    7  C5  UNL     1     -35.890  14.328  -3.959  1.00 20.00     0.021 C 
HETATM    8  C6  UNL     1     -33.451  13.761  -3.792  1.00 20.00     0.021 C 
HETATM    9  C7  UNL     1     -34.262  15.270  -5.619  1.00 20.00     0.021 C 
ENDBRANCH   1   6
TORSDOF 1
ENDMDL
MODEL 3
REMARK VINA RESULT:      -3.9      0.008      1.448
REMARK  1 active torsions:
REMARK  status: ('A' for Active; 'I' for Inactive)
REMARK    1  A    between atoms: C1_1  and  C8_8 
ROOT
HETATM    1  C1  UNL     1     -34.261  16.012  -3.295  1.00 20.00     0.014 C 
HETATM    2  C2  UNL     1     -34.747  16.006  -1.880  1.00 20.00     0.057 C 
HETATM    3  C3  UNL     1     -33.937  17.160  -1.343  1.00 20.00     0.027 C 
HETATM    4  C4  UNL     1     -33.739  18.030  -2.572  1.00 20.00     0.149 C 
HETATM    5  N9  UNL     1     -33.696  17.101  -3.719  1.00 20.00    -0.298 NA
ENDROOT
BRANCH   1   6
HETATM    6  C8  UNL     1     -34.464  14.822  -4.174  1.00 20.00    -0.011 C 
HETATM    7  C5  UNL     1     -34.264  15.239  -5.636  1.00 20.00     0.021 C 
HETATM    8  C6  UNL     1     -35.887  14.277  -3.981  1.00 20.00     0.021 C 
HETATM    9  C7  UNL     1     -33.449  13.731  -3.805  1.00 20.00     0.021 C 
ENDBRANCH   1   6
TORSDOF 1
ENDMDL
MODEL 4
REMARK VINA RESULT:      -3.9      1.493      3.632
REMARK  1 active torsions:
REMARK  status: ('A' for Active; 'I' for Inactive)
REMARK    1  A    between atoms: C1_1  and  C8_8 
ROOT
HETATM    1  C1  UNL     1     -34.629  15.521  -3.117  1.00 20.00     0.014 C 
HETATM    2  C2  UNL     1     -33.263  15.114  -3.571  1.00 20.00     0.057 C 
HETATM    3  C3  UNL     1     -33.519  13.647  -3.818  1.00 20.00     0.027 C 
HETATM    4  C4  UNL     1     -34.994  13.622  -4.180  1.00 20.00     0.149 C 
HETATM    5  N9  UNL     1     -35.612  14.730  -3.424  1.00 20.00    -0.298 NA
ENDROOT
BRANCH   1   6
HETATM    6  C8  UNL     1     -34.835  16.804  -2.381  1.00 20.00    -0.011 C 
HETATM    7  C5  UNL     1     -33.833  17.845  -2.898  1.00 20.00     0.021 C 
HETATM    8  C6  UNL     1     -34.615  16.575  -0.879  1.00 20.00     0.021 C 
HETATM    9  C7  UNL     1     -36.267  17.306  -2.614  1.00 20.00     0.021 C 
ENDBRANCH   1   6
TORSDOF 1
ENDMDL
MODEL 5
REMARK VINA RESULT:      -3.9      1.495      3.626
REMARK  1 active torsions:
REMARK  status: ('A' for Active; 'I' for Inactive)
REMARK    1  A    between atoms: C1_1  and  C8_8 
ROOT
HETATM    1  C1  UNL     1     -34.631  15.520  -3.114  1.00 20.00     0.014 C 
HETATM    2  C2  UNL     1     -33.265  15.114  -3.570  1.00 20.00     0.057 C 
HETATM    3  C3  UNL     1     -33.520  13.647  -3.816  1.00 20.00     0.027 C 
HETATM    4  C4  UNL     1     -34.995  13.620  -4.176  1.00 20.00     0.149 C 
HETATM    5  N9  UNL     1     -35.613  14.727  -3.419  1.00 20.00    -0.298 NA
ENDROOT
BRANCH   1   6
HETATM    6  C8  UNL     1     -34.838  16.802  -2.377  1.00 20.00    -0.011 C 
HETATM    7  C5  UNL     1     -36.270  17.294  -2.619  1.00 20.00     0.021 C 
HETATM    8  C6  UNL     1     -33.838  17.852  -2.882  1.00 20.00     0.021 C 
HETATM    9  C7  UNL     1     -34.618  16.573  -0.875  1.00 20.00     0.021 C 
ENDBRANCH   1   6
TORSDOF 1
ENDMDL
MODEL 6
REMARK VINA RESULT:      -3.7     11.849     12.919
REMARK  1 active torsions:
REMARK  status: ('A' for Active; 'I' for Inactive)
REMARK    1  A    between atoms: C1_1  and  C8_8 
ROOT
HETATM    1  C1  UNL     1     -34.013   5.765   4.515  1.00 20.00     0.014 C 
HETATM    2  C2  UNL     1     -35.075   4.719   4.644  1.00 20.00     0.057 C 
HETATM    3  C3  UNL     1     -35.010   4.492   6.134  1.00 20.00     0.027 C 
HETATM    4  C4  UNL     1     -34.541   5.838   6.657  1.00 20.00     0.149 C 
HETATM    5  N9  UNL     1     -33.683   6.404   5.597  1.00 20.00    -0.298 NA
ENDROOT
BRANCH   1   6
HETATM    6  C8  UNL     1     -33.404   6.072   3.187  1.00 20.00    -0.011 C 
HETATM    7  C5  UNL     1     -34.196   5.345   2.093  1.00 20.00     0.021 C 
HETATM    8  C6  UNL     1     -31.944   5.598   3.170  1.00 20.00     0.021 C 
HETATM    9  C7  UNL     1     -33.450   7.586   2.938  1.00 20.00     0.021 C 
ENDBRANCH   1   6
TORSDOF 1
ENDMDL
MODEL 7
REMARK VINA RESULT:      -3.7     11.849     12.931
REMARK  1 active torsions:
REMARK  status: ('A' for Active; 'I' for Inactive)
REMARK    1  A    between atoms: C1_1  and  C8_8 
ROOT
HETATM    1  C1  UNL     1     -34.014   5.764   4.514  1.00 20.00     0.014 C 
HETATM    2  C2  UNL     1     -35.075   4.716   4.642  1.00 20.00     0.057 C 
HETATM    3  C3  UNL     1     -35.010   4.489   6.133  1.00 20.00     0.027 C 
HETATM    4  C4  UNL     1     -34.543   5.835   6.656  1.00 20.00     0.149 C 
HETATM    5  N9  UNL     1     -33.685   6.402   5.596  1.00 20.00    -0.298 NA
ENDROOT
BRANCH   1   6
HETATM    6  C8  UNL     1     -33.405   6.072   3.187  1.00 20.00    -0.011 C 
HETATM    7  C5  UNL     1     -33.467   7.585   2.946  1.00 20.00     0.021 C 
HETATM    8  C6  UNL     1     -34.182   5.340   2.083  1.00 20.00     0.021 C 
HETATM    9  C7  UNL     1     -31.942   5.606   3.171  1.00 20.00     0.021 C 
ENDBRANCH   1   6
TORSDOF 1
ENDMDL
MODEL 8
REMARK VINA RESULT:      -3.7      2.001      4.038
REMARK  1 active torsions:
REMARK  status: ('A' for Active; 'I' for Inactive)
REMARK    1  A    between atoms: C1_1  and  C8_8 
ROOT
HETATM    1  C1  UNL     1     -35.050  15.007  -5.484  1.00 20.00     0.014 C 
HETATM    2  C2  UNL     1     -34.355  14.967  -6.808  1.00 20.00     0.057 C 
HETATM    3  C3  UNL     1     -35.510  14.521  -7.672  1.00 20.00     0.027 C 
HETATM    4  C4  UNL     1     -36.714  15.076  -6.932  1.00 20.00     0.149 C 
HETATM    5  N9  UNL     1     -36.347  15.063  -5.501  1.00 20.00    -0.298 NA
ENDROOT
BRANCH   1   6
HETATM    6  C8  UNL     1     -34.266  15.023  -4.213  1.00 20.00    -0.011 C 
HETATM    7  C5  UNL     1     -33.128  16.044  -4.339  1.00 20.00     0.021 C 
HETATM    8  C6  UNL     1     -33.682  13.627  -3.952  1.00 20.00     0.021 C 
HETATM    9  C7  UNL     1     -35.184  15.416  -3.047  1.00 20.00     0.021 C 
ENDBRANCH   1   6
TORSDOF 1
ENDMDL
MODEL 9
REMARK VINA RESULT:      -3.7      2.022      4.073
REMARK  1 active torsions:
REMARK  status: ('A' for Active; 'I' for Inactive)
REMARK    1  A    between atoms: C1_1  and  C8_8 
ROOT
HETATM    1  C1  UNL     1     -35.057  14.992  -5.513  1.00 20.00     0.014 C 
HETATM    2  C2  UNL     1     -34.361  14.976  -6.837  1.00 20.00     0.057 C 
HETATM    3  C3  UNL     1     -35.509  14.525  -7.707  1.00 20.00     0.027 C 
HETATM    4  C4  UNL     1     -36.721  15.056  -6.961  1.00 20.00     0.149 C 
HETATM    5  N9  UNL     1     -36.355  15.031  -5.530  1.00 20.00    -0.298 NA
ENDROOT
BRANCH   1   6
HETATM    6  C8  UNL     1     -34.273  15.003  -4.242  1.00 20.00    -0.011 C 
HETATM    7  C5  UNL     1     -35.199  15.402  -3.086  1.00 20.00     0.021 C 
HETATM    8  C6  UNL     1     -33.123  16.014  -4.356  1.00 20.00     0.021 C 
HETATM    9  C7  UNL     1     -33.696  13.605  -3.981  1.00 20.00     0.021 C 
ENDBRANCH   1   6
TORSDOF 1
ENDMDL
