MODEL 1
REMARK VINA RESULT:      -4.4      0.000      0.000
REMARK  5 active torsions:
REMARK  status: ('A' for Active; 'I' for Inactive)
REMARK    1  A    between atoms: C3_3  and  C5_5 
REMARK    2  A    between atoms: C4_4  and  C6_6 
REMARK    3  A    between atoms: C5_5  and  C7_7 
REMARK    4  A    between atoms: C6_6  and  S9_9 
REMARK    5  A    between atoms: C7_7  and  S9_9 
ROOT
HETATM    1  C1  UNL     1     -34.868   4.452   5.671  1.00 20.00     0.059 C 
HETATM    2  C3  UNL     1     -34.520   5.652   6.444  1.00 20.00     0.124 C 
HETATM    3  N8  UNL     1     -35.142   3.504   5.061  1.00 20.00    -0.197 NA
ENDROOT
BRANCH   2   4
HETATM    4  C5  UNL     1     -33.684   6.622   5.609  1.00 20.00     0.024 C 
BRANCH   4   5
HETATM    5  C7  UNL     1     -34.050   6.527   4.131  1.00 20.00     0.075 C 
BRANCH   5   6
HETATM    6  S9  UNL     1     -32.587   6.130   3.130  1.00 20.00    -0.169 SA
BRANCH   6   7
HETATM    7  C6  UNL     1     -31.880   7.789   3.030  1.00 20.00     0.073 C 
BRANCH   7   8
HETATM    8  C4  UNL     1     -31.929   8.306   1.596  1.00 20.00     0.006 C 
HETATM    9  C2  UNL     1     -32.549   9.694   1.534  1.00 20.00     0.006 C 
ENDBRANCH   7   8
ENDBRANCH   6   7
ENDBRANCH   5   6
ENDBRANCH   4   5
ENDBRANCH   2   4
TORSDOF 5
ENDMDL
MODEL 2
REMARK VINA RESULT:      -4.3      2.773      5.042
REMARK  5 active torsions:
REMARK  status: ('A' for Active; 'I' for Inactive)
REMARK    1  A    between atoms: C3_3  and  C5_5 
REMARK    2  A    between atoms: C4_4  and  C6_6 
REMARK    3  A    between atoms: C5_5  and  C7_7 
REMARK    4  A    between atoms: C6_6  and  S9_9 
REMARK    5  A    between atoms: C7_7  and  S9_9 
ROOT
HETATM    1  C1  UNL     1     -32.102   8.031   2.183  1.00 20.00     0.059 C 
HETATM    2  C3  UNL     1     -32.424   7.294   3.412  1.00 20.00     0.124 C 
HETATM    3  N8  UNL     1     -31.848   8.614   1.212  1.00 20.00    -0.197 NA
ENDROOT
BRANCH   2   4
HETATM    4  C5  UNL     1     -32.478   5.788   3.153  1.00 20.00     0.024 C 
BRANCH   4   5
HETATM    5  C7  UNL     1     -33.843   5.376   2.608  1.00 20.00     0.075 C 
BRANCH   5   6
HETATM    6  S9  UNL     1     -35.148   5.716   3.825  1.00 20.00    -0.169 SA
BRANCH   6   7
HETATM    7  C6  UNL     1     -34.991   4.206   4.806  1.00 20.00     0.073 C 
BRANCH   7   8
HETATM    8  C4  UNL     1     -34.626   4.542   6.248  1.00 20.00     0.006 C 
HETATM    9  C2  UNL     1     -34.315   6.023   6.405  1.00 20.00     0.006 C 
ENDBRANCH   7   8
ENDBRANCH   6   7
ENDBRANCH   5   6
ENDBRANCH   4   5
ENDBRANCH   2   4
TORSDOF 5
ENDMDL
MODEL 3
REMARK VINA RESULT:      -4.2      1.534      1.788
REMARK  5 active torsions:
REMARK  status: ('A' for Active; 'I' for Inactive)
REMARK    1  A    between atoms: C3_3  and  C5_5 
REMARK    2  A    between atoms: C4_4  and  C6_6 
REMARK    3  A    between atoms: C5_5  and  C7_7 
REMARK    4  A    between atoms: C6_6  and  S9_9 
REMARK    5  A    between atoms: C7_7  and  S9_9 
ROOT
HETATM    1  C1  UNL     1     -34.205   6.140   6.358  1.00 20.00     0.059 C 
HETATM    2  C3  UNL     1     -34.870   4.966   5.779  1.00 20.00     0.124 C 
HETATM    3  N8  UNL     1     -33.680   7.068   6.817  1.00 20.00    -0.197 NA
ENDROOT
BRANCH   2   4
HETATM    4  C5  UNL     1     -34.877   5.034   4.251  1.00 20.00     0.024 C 
BRANCH   4   5
HETATM    5  C7  UNL     1     -34.256   6.339   3.760  1.00 20.00     0.075 C 
BRANCH   5   6
HETATM    6  S9  UNL     1     -32.605   6.043   3.063  1.00 20.00    -0.169 SA
BRANCH   6   7
HETATM    7  C6  UNL     1     -32.027   7.755   3.023  1.00 20.00     0.073 C 
BRANCH   7   8
HETATM    8  C4  UNL     1     -31.924   8.250   1.584  1.00 20.00     0.006 C 
HETATM    9  C2  UNL     1     -32.420   9.683   1.461  1.00 20.00     0.006 C 
ENDBRANCH   7   8
ENDBRANCH   6   7
ENDBRANCH   5   6
ENDBRANCH   4   5
ENDBRANCH   2   4
TORSDOF 5
ENDMDL
MODEL 4
REMARK VINA RESULT:      -4.0      2.935      5.597
REMARK  5 active torsions:
REMARK  status: ('A' for Active; 'I' for Inactive)
REMARK    1  A    between atoms: C3_3  and  C5_5 
REMARK    2  A    between atoms: C4_4  and  C6_6 
REMARK    3  A    between atoms: C5_5  and  C7_7 
REMARK    4  A    between atoms: C6_6  and  S9_9 
REMARK    5  A    between atoms: C7_7  and  S9_9 
ROOT
HETATM    1  C1  UNL     1     -32.512   8.980   0.635  1.00 20.00     0.059 C 
HETATM    2  C3  UNL     1     -32.120   8.711   2.024  1.00 20.00     0.124 C 
HETATM    3  N8  UNL     1     -32.822   9.194  -0.463  1.00 20.00    -0.197 NA
ENDROOT
BRANCH   2   4
HETATM    4  C5  UNL     1     -32.047   7.207   2.295  1.00 20.00     0.024 C 
BRANCH   4   5
HETATM    5  C7  UNL     1     -32.302   6.905   3.769  1.00 20.00     0.075 C 
BRANCH   5   6
HETATM    6  S9  UNL     1     -33.970   6.227   4.007  1.00 20.00    -0.169 SA
BRANCH   6   7
HETATM    7  C6  UNL     1     -34.021   6.285   5.812  1.00 20.00     0.073 C 
BRANCH   7   8
HETATM    8  C4  UNL     1     -34.706   5.041   6.367  1.00 20.00     0.006 C 
HETATM    9  C2  UNL     1     -35.026   4.049   5.258  1.00 20.00     0.006 C 
ENDBRANCH   7   8
ENDBRANCH   6   7
ENDBRANCH   5   6
ENDBRANCH   4   5
ENDBRANCH   2   4
TORSDOF 5
ENDMDL
MODEL 5
REMARK VINA RESULT:      -3.9     11.725     12.792
REMARK  5 active torsions:
REMARK  status: ('A' for Active; 'I' for Inactive)
REMARK    1  A    between atoms: C3_3  and  C5_5 
REMARK    2  A    between atoms: C4_4  and  C6_6 
REMARK    3  A    between atoms: C5_5  and  C7_7 
REMARK    4  A    between atoms: C6_6  and  S9_9 
REMARK    5  A    between atoms: C7_7  and  S9_9 
ROOT
HETATM    1  C1  UNL     1     -34.884  13.541  -5.301  1.00 20.00     0.059 C 
HETATM    2  C3  UNL     1     -34.908  14.475  -6.434  1.00 20.00     0.124 C 
HETATM    3  N8  UNL     1     -34.865  12.802  -4.406  1.00 20.00    -0.197 NA
ENDROOT
BRANCH   2   4
HETATM    4  C5  UNL     1     -34.069  15.720  -6.140  1.00 20.00     0.024 C 
BRANCH   4   5
HETATM    5  C7  UNL     1     -34.884  16.759  -5.375  1.00 20.00     0.075 C 
BRANCH   5   6
HETATM    6  S9  UNL     1     -33.865  17.569  -4.108  1.00 20.00    -0.169 SA
BRANCH   6   7
HETATM    7  C6  UNL     1     -33.585  16.138  -3.041  1.00 20.00     0.073 C 
BRANCH   7   8
HETATM    8  C4  UNL     1     -34.775  15.924  -2.112  1.00 20.00     0.006 C 
HETATM    9  C2  UNL     1     -34.602  16.699  -0.814  1.00 20.00     0.006 C 
ENDBRANCH   7   8
ENDBRANCH   6   7
ENDBRANCH   5   6
ENDBRANCH   4   5
ENDBRANCH   2   4
TORSDOF 5
ENDMDL
MODEL 6
REMARK VINA RESULT:      -3.8     11.510     12.368
REMARK  5 active torsions:
REMARK  status: ('A' for Active; 'I' for Inactive)
REMARK    1  A    between atoms: C3_3  and  C5_5 
REMARK    2  A    between atoms: C4_4  and  C6_6 
REMARK    3  A    between atoms: C5_5  and  C7_7 
REMARK    4  A    between atoms: C6_6  and  S9_9 
REMARK    5  A    between atoms: C7_7  and  S9_9 
ROOT
HETATM    1  C1  UNL     1     -34.051  13.663  -4.144  1.00 20.00     0.059 C 
HETATM    2  C3  UNL     1     -33.119  14.701  -3.685  1.00 20.00     0.124 C 
HETATM    3  N8  UNL     1     -34.787  12.842  -4.506  1.00 20.00    -0.197 NA
ENDROOT
BRANCH   2   4
HETATM    4  C5  UNL     1     -33.218  15.955  -4.556  1.00 20.00     0.024 C 
BRANCH   4   5
HETATM    5  C7  UNL     1     -34.637  16.514  -4.547  1.00 20.00     0.075 C 
BRANCH   5   6
HETATM    6  S9  UNL     1     -34.781  17.881  -3.359  1.00 20.00    -0.169 SA
BRANCH   6   7
HETATM    7  C6  UNL     1     -35.605  16.984  -2.025  1.00 20.00     0.073 C 
BRANCH   7   8
HETATM    8  C4  UNL     1     -34.623  16.682  -0.898  1.00 20.00     0.006 C 
HETATM    9  C2  UNL     1     -33.499  17.708  -0.860  1.00 20.00     0.006 C 
ENDBRANCH   7   8
ENDBRANCH   6   7
ENDBRANCH   5   6
ENDBRANCH   4   5
ENDBRANCH   2   4
TORSDOF 5
ENDMDL
MODEL 7
REMARK VINA RESULT:      -3.8     11.445     12.849
REMARK  5 active torsions:
REMARK  status: ('A' for Active; 'I' for Inactive)
REMARK    1  A    between atoms: C3_3  and  C5_5 
REMARK    2  A    between atoms: C4_4  and  C6_6 
REMARK    3  A    between atoms: C5_5  and  C7_7 
REMARK    4  A    between atoms: C6_6  and  S9_9 
REMARK    5  A    between atoms: C7_7  and  S9_9 
ROOT
HETATM    1  C1  UNL     1     -34.131  13.538  -4.034  1.00 20.00     0.059 C 
HETATM    2  C3  UNL     1     -33.076  14.484  -3.648  1.00 20.00     0.124 C 
HETATM    3  N8  UNL     1     -34.964  12.791  -4.340  1.00 20.00    -0.197 NA
ENDROOT
BRANCH   2   4
HETATM    4  C5  UNL     1     -33.671  15.771  -3.075  1.00 20.00     0.024 C 
BRANCH   4   5
HETATM    5  C7  UNL     1     -34.598  16.441  -4.086  1.00 20.00     0.075 C 
BRANCH   5   6
HETATM    6  S9  UNL     1     -33.637  17.275  -5.383  1.00 20.00    -0.169 SA
BRANCH   6   7
HETATM    7  C6  UNL     1     -34.599  16.732  -6.812  1.00 20.00     0.073 C 
BRANCH   7   8
HETATM    8  C4  UNL     1     -34.260  15.289  -7.167  1.00 20.00     0.006 C 
HETATM    9  C2  UNL     1     -35.514  14.501  -7.517  1.00 20.00     0.006 C 
ENDBRANCH   7   8
ENDBRANCH   6   7
ENDBRANCH   5   6
ENDBRANCH   4   5
ENDBRANCH   2   4
TORSDOF 5
ENDMDL
MODEL 8
REMARK VINA RESULT:      -3.7     11.838     12.563
REMARK  5 active torsions:
REMARK  status: ('A' for Active; 'I' for Inactive)
REMARK    1  A    between atoms: C3_3  and  C5_5 
REMARK    2  A    between atoms: C4_4  and  C6_6 
REMARK    3  A    between atoms: C5_5  and  C7_7 
REMARK    4  A    between atoms: C6_6  and  S9_9 
REMARK    5  A    between atoms: C7_7  and  S9_9 
ROOT
HETATM    1  C1  UNL     1     -36.367  14.085  -4.155  1.00 20.00     0.059 C 
HETATM    2  C3  UNL     1     -35.041  13.762  -4.698  1.00 20.00     0.124 C 
HETATM    3  N8  UNL     1     -37.415  14.338  -3.725  1.00 20.00    -0.197 NA
ENDROOT
BRANCH   2   4
HETATM    4  C5  UNL     1     -34.818  14.444  -6.049  1.00 20.00     0.024 C 
BRANCH   4   5
HETATM    5  C7  UNL     1     -34.803  15.963  -5.898  1.00 20.00     0.075 C 
BRANCH   5   6
HETATM    6  S9  UNL     1     -33.350  16.499  -4.947  1.00 20.00    -0.169 SA
BRANCH   6   7
HETATM    7  C6  UNL     1     -34.209  17.116  -3.482  1.00 20.00     0.073 C 
BRANCH   7   8
HETATM    8  C4  UNL     1     -33.831  16.293  -2.255  1.00 20.00     0.006 C 
HETATM    9  C2  UNL     1     -34.686  16.673  -1.055  1.00 20.00     0.006 C 
ENDBRANCH   7   8
ENDBRANCH   6   7
ENDBRANCH   5   6
ENDBRANCH   4   5
ENDBRANCH   2   4
TORSDOF 5
ENDMDL
MODEL 9
REMARK VINA RESULT:      -3.6     11.719     12.607
REMARK  5 active torsions:
REMARK  status: ('A' for Active; 'I' for Inactive)
REMARK    1  A    between atoms: C3_3  and  C5_5 
REMARK    2  A    between atoms: C4_4  and  C6_6 
REMARK    3  A    between atoms: C5_5  and  C7_7 
REMARK    4  A    between atoms: C6_6  and  S9_9 
REMARK    5  A    between atoms: C7_7  and  S9_9 
ROOT
HETATM    1  C1  UNL     1     -32.723  18.656  -0.177  1.00 20.00     0.059 C 
HETATM    2  C3  UNL     1     -33.976  17.890  -0.186  1.00 20.00     0.124 C 
HETATM    3  N8  UNL     1     -31.733  19.262  -0.169  1.00 20.00    -0.197 NA
ENDROOT
BRANCH   2   4
HETATM    4  C5  UNL     1     -34.003  16.890  -1.344  1.00 20.00     0.024 C 
BRANCH   4   5
HETATM    5  C7  UNL     1     -33.838  17.603  -2.683  1.00 20.00     0.075 C 
BRANCH   5   6
HETATM    6  S9  UNL     1     -34.326  16.515  -4.054  1.00 20.00    -0.169 SA
BRANCH   6   7
HETATM    7  C6  UNL     1     -33.079  15.228  -3.823  1.00 20.00     0.073 C 
BRANCH   7   8
HETATM    8  C4  UNL     1     -33.743  13.876  -3.587  1.00 20.00     0.006 C 
HETATM    9  C2  UNL     1     -34.490  13.408  -4.828  1.00 20.00     0.006 C 
ENDBRANCH   7   8
ENDBRANCH   6   7
ENDBRANCH   5   6
ENDBRANCH   4   5
ENDBRANCH   2   4
TORSDOF 5
ENDMDL
