MODEL 1
REMARK VINA RESULT:      -5.3      0.000      0.000
REMARK  0 active torsions:
REMARK  status: ('A' for Active; 'I' for Inactive)
ROOT
HETATM    1  C1  UNL     1     -35.506  17.697   1.634  1.00 20.00     0.010 A 
HETATM    2  C2  UNL     1     -35.267  17.922   2.994  1.00 20.00     0.019 A 
HETATM    3  C3  UNL     1     -33.046  18.783   2.512  1.00 20.00     0.034 A 
HETATM    4  C4  UNL     1     -33.312  18.551   1.175  1.00 20.00     0.018 A 
HETATM    5  C5  UNL     1     -34.511  18.013   0.721  1.00 20.00    -0.040 A 
HETATM    6  C6  UNL     1     -34.045  18.461   3.430  1.00 20.00     0.011 A 
HETATM    7  C7  UNL     1     -32.457  18.802   0.026  1.00 20.00     0.160 A 
HETATM    8  C8  UNL     1     -33.188  18.423  -1.239  1.00 20.00     0.093 A 
HETATM    9  C9  UNL     1     -34.549  17.855  -0.773  1.00 20.00     0.023 A 
HETATM   10  C10 UNL     1     -34.736  16.404  -1.203  1.00 20.00     0.015 C 
HETATM   11  O11 UNL     1     -31.332  19.262   0.098  1.00 20.00    -0.292 OA
HETATM   12 BR12 UNL     1     -33.755  18.753   5.276  1.00 20.00    -0.051 Br
ENDROOT
TORSDOF 0
ENDMDL
MODEL 2
REMARK VINA RESULT:      -5.3      4.990      6.821
REMARK  0 active torsions:
REMARK  status: ('A' for Active; 'I' for Inactive)
ROOT
HETATM    1  C1  UNL     1     -33.888  17.250  -4.918  1.00 20.00     0.010 A 
HETATM    2  C2  UNL     1     -33.870  17.603  -3.565  1.00 20.00     0.019 A 
HETATM    3  C3  UNL     1     -34.541  15.358  -2.920  1.00 20.00     0.034 A 
HETATM    4  C4  UNL     1     -34.549  15.039  -4.265  1.00 20.00     0.018 A 
HETATM    5  C5  UNL     1     -34.238  15.953  -5.265  1.00 20.00    -0.040 A 
HETATM    6  C6  UNL     1     -34.195  16.664  -2.573  1.00 20.00     0.011 A 
HETATM    7  C7  UNL     1     -34.861  13.764  -4.890  1.00 20.00     0.160 A 
HETATM    8  C8  UNL     1     -34.701  13.882  -6.386  1.00 20.00     0.093 A 
HETATM    9  C9  UNL     1     -34.324  15.360  -6.643  1.00 20.00     0.023 A 
HETATM   10  C10 UNL     1     -35.354  16.065  -7.519  1.00 20.00     0.015 C 
HETATM   11  O11 UNL     1     -35.186  12.763  -4.277  1.00 20.00    -0.292 OA
HETATM   12 BR12 UNL     1     -34.160  17.174  -0.752  1.00 20.00    -0.051 Br
ENDROOT
TORSDOF 0
ENDMDL
MODEL 3
REMARK VINA RESULT:      -5.0      4.522      6.330
REMARK  0 active torsions:
REMARK  status: ('A' for Active; 'I' for Inactive)
ROOT
HETATM    1  C1  UNL     1     -33.250  16.101  -3.684  1.00 20.00     0.010 A 
HETATM    2  C2  UNL     1     -33.404  16.688  -2.423  1.00 20.00     0.019 A 
HETATM    3  C3  UNL     1     -35.657  15.798  -2.229  1.00 20.00     0.034 A 
HETATM    4  C4  UNL     1     -35.475  15.229  -3.477  1.00 20.00     0.018 A 
HETATM    5  C5  UNL     1     -34.304  15.369  -4.212  1.00 20.00    -0.040 A 
HETATM    6  C6  UNL     1     -34.599  16.538  -1.702  1.00 20.00     0.011 A 
HETATM    7  C7  UNL     1     -36.403  14.413  -4.241  1.00 20.00     0.160 A 
HETATM    8  C8  UNL     1     -35.751  13.985  -5.534  1.00 20.00     0.093 A 
HETATM    9  C9  UNL     1     -34.359  14.660  -5.535  1.00 20.00     0.023 A 
HETATM   10  C10 UNL     1     -34.190  15.610  -6.716  1.00 20.00     0.015 C 
HETATM   11  O11 UNL     1     -37.525  14.120  -3.869  1.00 20.00    -0.292 OA
HETATM   12 BR12 UNL     1     -34.773  17.345   0.000  1.00 20.00    -0.051 Br
ENDROOT
TORSDOF 0
ENDMDL
MODEL 4
REMARK VINA RESULT:      -4.9      4.868      6.669
REMARK  0 active torsions:
REMARK  status: ('A' for Active; 'I' for Inactive)
ROOT
HETATM    1  C1  UNL     1     -34.329  14.738  -3.145  1.00 20.00     0.010 A 
HETATM    2  C2  UNL     1     -34.643  14.262  -4.423  1.00 20.00     0.019 A 
HETATM    3  C3  UNL     1     -34.455  16.497  -5.356  1.00 20.00     0.034 A 
HETATM    4  C4  UNL     1     -34.147  16.938  -4.082  1.00 20.00     0.018 A 
HETATM    5  C5  UNL     1     -34.084  16.093  -2.980  1.00 20.00    -0.040 A 
HETATM    6  C6  UNL     1     -34.706  15.135  -5.520  1.00 20.00     0.011 A 
HETATM    7  C7  UNL     1     -33.837  18.289  -3.644  1.00 20.00     0.160 A 
HETATM    8  C8  UNL     1     -33.528  18.281  -2.166  1.00 20.00     0.093 A 
HETATM    9  C9  UNL     1     -33.733  16.817  -1.711  1.00 20.00     0.023 A 
HETATM   10  C10 UNL     1     -34.823  16.700  -0.651  1.00 20.00     0.015 C 
HETATM   11  O11 UNL     1     -33.823  19.260  -4.378  1.00 20.00    -0.292 OA
HETATM   12 BR12 UNL     1     -35.134  14.458  -7.233  1.00 20.00    -0.051 Br
ENDROOT
TORSDOF 0
ENDMDL
MODEL 5
REMARK VINA RESULT:      -4.7      6.230      7.072
REMARK  0 active torsions:
REMARK  status: ('A' for Active; 'I' for Inactive)
ROOT
HETATM    1  C1  UNL     1     -36.306  17.002  -3.124  1.00 20.00     0.010 A 
HETATM    2  C2  UNL     1     -37.690  16.845  -3.253  1.00 20.00     0.019 A 
HETATM    3  C3  UNL     1     -37.412  14.530  -3.939  1.00 20.00     0.034 A 
HETATM    4  C4  UNL     1     -36.048  14.716  -3.802  1.00 20.00     0.018 A 
HETATM    5  C5  UNL     1     -35.482  15.923  -3.408  1.00 20.00    -0.040 A 
HETATM    6  C6  UNL     1     -38.239  15.617  -3.658  1.00 20.00     0.011 A 
HETATM    7  C7  UNL     1     -34.978  13.757  -4.020  1.00 20.00     0.160 A 
HETATM    8  C8  UNL     1     -33.650  14.403  -3.709  1.00 20.00     0.093 A 
HETATM    9  C9  UNL     1     -33.982  15.867  -3.338  1.00 20.00     0.023 A 
HETATM   10  C10 UNL     1     -33.316  16.858  -4.287  1.00 20.00     0.015 C 
HETATM   11  O11 UNL     1     -35.153  12.608  -4.385  1.00 20.00    -0.292 OA
HETATM   12 BR12 UNL     1     -40.114  15.438  -3.822  1.00 20.00    -0.051 Br
ENDROOT
TORSDOF 0
ENDMDL
MODEL 6
REMARK VINA RESULT:      -4.7      4.134      5.615
REMARK  0 active torsions:
REMARK  status: ('A' for Active; 'I' for Inactive)
ROOT
HETATM    1  C1  UNL     1     -36.376  17.256  -3.116  1.00 20.00     0.010 A 
HETATM    2  C2  UNL     1     -35.547  17.938  -2.218  1.00 20.00     0.019 A 
HETATM    3  C3  UNL     1     -34.005  16.061  -2.143  1.00 20.00     0.034 A 
HETATM    4  C4  UNL     1     -34.844  15.413  -3.031  1.00 20.00     0.018 A 
HETATM    5  C5  UNL     1     -36.017  15.979  -3.519  1.00 20.00    -0.040 A 
HETATM    6  C6  UNL     1     -34.370  17.344  -1.735  1.00 20.00     0.011 A 
HETATM    7  C7  UNL     1     -34.694  14.091  -3.615  1.00 20.00     0.160 A 
HETATM    8  C8  UNL     1     -35.841  13.824  -4.560  1.00 20.00     0.093 A 
HETATM    9  C9  UNL     1     -36.751  15.071  -4.465  1.00 20.00     0.023 A 
HETATM   10  C10 UNL     1     -38.149  14.718  -3.970  1.00 20.00     0.015 C 
HETATM   11  O11 UNL     1     -33.769  13.337  -3.374  1.00 20.00    -0.292 OA
HETATM   12 BR12 UNL     1     -33.272  18.293  -0.523  1.00 20.00    -0.051 Br
ENDROOT
TORSDOF 0
ENDMDL
MODEL 7
REMARK VINA RESULT:      -4.6      3.538      4.932
REMARK  0 active torsions:
REMARK  status: ('A' for Active; 'I' for Inactive)
ROOT
HETATM    1  C1  UNL     1     -34.785  15.761  -1.915  1.00 20.00     0.010 A 
HETATM    2  C2  UNL     1     -34.475  16.740  -0.965  1.00 20.00     0.019 A 
HETATM    3  C3  UNL     1     -33.627  18.220  -2.696  1.00 20.00     0.034 A 
HETATM    4  C4  UNL     1     -33.945  17.233  -3.611  1.00 20.00     0.018 A 
HETATM    5  C5  UNL     1     -34.510  16.015  -3.250  1.00 20.00    -0.040 A 
HETATM    6  C6  UNL     1     -33.899  17.960  -1.353  1.00 20.00     0.011 A 
HETATM    7  C7  UNL     1     -33.775  17.250  -5.055  1.00 20.00     0.160 A 
HETATM    8  C8  UNL     1     -34.302  15.962  -5.640  1.00 20.00     0.093 A 
HETATM    9  C9  UNL     1     -34.756  15.116  -4.428  1.00 20.00     0.023 A 
HETATM   10  C10 UNL     1     -33.987  13.803  -4.332  1.00 20.00     0.015 C 
HETATM   11  O11 UNL     1     -33.292  18.180  -5.676  1.00 20.00    -0.292 OA
HETATM   12 BR12 UNL     1     -33.493  19.263  -0.044  1.00 20.00    -0.051 Br
ENDROOT
TORSDOF 0
ENDMDL
MODEL 8
REMARK VINA RESULT:      -4.5      5.120      6.934
REMARK  0 active torsions:
REMARK  status: ('A' for Active; 'I' for Inactive)
ROOT
HETATM    1  C1  UNL     1     -33.804  14.838  -4.199  1.00 20.00     0.010 A 
HETATM    2  C2  UNL     1     -33.704  15.404  -2.923  1.00 20.00     0.019 A 
HETATM    3  C3  UNL     1     -35.948  16.318  -3.098  1.00 20.00     0.034 A 
HETATM    4  C4  UNL     1     -36.018  15.747  -4.356  1.00 20.00     0.018 A 
HETATM    5  C5  UNL     1     -34.976  15.020  -4.919  1.00 20.00    -0.040 A 
HETATM    6  C6  UNL     1     -34.768  16.139  -2.377  1.00 20.00     0.011 A 
HETATM    7  C7  UNL     1     -37.122  15.774  -5.301  1.00 20.00     0.160 A 
HETATM    8  C8  UNL     1     -36.754  14.980  -6.530  1.00 20.00     0.093 A 
HETATM    9  C9  UNL     1     -35.299  14.508  -6.294  1.00 20.00     0.023 A 
HETATM   10  C10 UNL     1     -34.348  15.047  -7.357  1.00 20.00     0.015 C 
HETATM   11  O11 UNL     1     -38.179  16.346  -5.102  1.00 20.00    -0.292 OA
HETATM   12 BR12 UNL     1     -34.599  16.890  -0.650  1.00 20.00    -0.051 Br
ENDROOT
TORSDOF 0
ENDMDL
MODEL 9
REMARK VINA RESULT:      -4.5      5.420      7.303
REMARK  0 active torsions:
REMARK  status: ('A' for Active; 'I' for Inactive)
ROOT
HETATM    1  C1  UNL     1     -36.917  15.120  -3.420  1.00 20.00     0.010 A 
HETATM    2  C2  UNL     1     -37.627  15.059  -4.623  1.00 20.00     0.019 A 
HETATM    3  C3  UNL     1     -35.670  15.776  -5.872  1.00 20.00     0.034 A 
HETATM    4  C4  UNL     1     -34.993  15.826  -4.667  1.00 20.00     0.018 A 
HETATM    5  C5  UNL     1     -35.587  15.514  -3.449  1.00 20.00    -0.040 A 
HETATM    6  C6  UNL     1     -37.008  15.385  -5.841  1.00 20.00     0.011 A 
HETATM    7  C7  UNL     1     -33.607  16.188  -4.423  1.00 20.00     0.160 A 
HETATM    8  C8  UNL     1     -33.305  16.062  -2.949  1.00 20.00     0.093 A 
HETATM    9  C9  UNL     1     -34.641  15.650  -2.289  1.00 20.00     0.023 A 
HETATM   10  C10 UNL     1     -35.112  16.681  -1.270  1.00 20.00     0.015 C 
HETATM   11  O11 UNL     1     -32.824  16.525  -5.293  1.00 20.00    -0.292 OA
HETATM   12 BR12 UNL     1     -37.998  15.291  -7.450  1.00 20.00    -0.051 Br
ENDROOT
TORSDOF 0
ENDMDL
