MODEL 1
REMARK VINA RESULT:      -5.0      0.000      0.000
REMARK  0 active torsions:
REMARK  status: ('A' for Active; 'I' for Inactive)
ROOT
HETATM    1  C1  UNL     1     -36.383  16.632  -3.928  1.00 20.00     0.010 A 
HETATM    2  C2  UNL     1     -36.074  17.201  -2.687  1.00 20.00     0.019 A 
HETATM    3  C3  UNL     1     -34.355  15.529  -2.293  1.00 20.00     0.034 A 
HETATM    4  C4  UNL     1     -34.684  14.989  -3.524  1.00 20.00     0.018 A 
HETATM    5  C5  UNL     1     -35.673  15.516  -4.346  1.00 20.00    -0.040 A 
HETATM    6  C6  UNL     1     -35.067  16.653  -1.877  1.00 20.00     0.011 A 
HETATM    7  C7  UNL     1     -34.111  13.826  -4.182  1.00 20.00     0.160 A 
HETATM    8  C8  UNL     1     -34.815  13.595  -5.498  1.00 20.00     0.093 A 
HETATM    9  C9  UNL     1     -35.836  14.750  -5.628  1.00 20.00     0.023 A 
HETATM   10  C10 UNL     1     -35.567  15.608  -6.860  1.00 20.00     0.015 C 
HETATM   11  O11 UNL     1     -33.210  13.152  -3.718  1.00 20.00    -0.292 OA
HETATM   12 BR12 UNL     1     -34.676  17.447  -0.205  1.00 20.00    -0.051 Br
ENDROOT
TORSDOF 0
ENDMDL
MODEL 2
REMARK VINA RESULT:      -4.9      5.332      6.634
REMARK  0 active torsions:
REMARK  status: ('A' for Active; 'I' for Inactive)
ROOT
HETATM    1  C1  UNL     1     -35.140  17.790   2.461  1.00 20.00     0.010 A 
HETATM    2  C2  UNL     1     -34.644  18.092   3.734  1.00 20.00     0.019 A 
HETATM    3  C3  UNL     1     -32.566  18.918   2.783  1.00 20.00     0.034 A 
HETATM    4  C4  UNL     1     -33.084  18.608   1.538  1.00 20.00     0.018 A 
HETATM    5  C5  UNL     1     -34.347  18.058   1.355  1.00 20.00    -0.040 A 
HETATM    6  C6  UNL     1     -33.367  18.652   3.893  1.00 20.00     0.011 A 
HETATM    7  C7  UNL     1     -32.462  18.773   0.234  1.00 20.00     0.160 A 
HETATM    8  C8  UNL     1     -33.393  18.261  -0.837  1.00 20.00     0.093 A 
HETATM    9  C9  UNL     1     -34.674  17.817  -0.091  1.00 20.00     0.023 A 
HETATM   10  C10 UNL     1     -35.899  18.601  -0.552  1.00 20.00     0.015 C 
HETATM   11  O11 UNL     1     -31.353  19.244   0.059  1.00 20.00    -0.292 OA
HETATM   12 BR12 UNL     1     -32.727  19.047   5.628  1.00 20.00    -0.051 Br
ENDROOT
TORSDOF 0
ENDMDL
MODEL 3
REMARK VINA RESULT:      -4.8      2.835      3.889
REMARK  0 active torsions:
REMARK  status: ('A' for Active; 'I' for Inactive)
ROOT
HETATM    1  C1  UNL     1     -34.958  17.213  -5.249  1.00 20.00     0.010 A 
HETATM    2  C2  UNL     1     -35.993  17.241  -6.190  1.00 20.00     0.019 A 
HETATM    3  C3  UNL     1     -36.145  14.815  -6.167  1.00 20.00     0.034 A 
HETATM    4  C4  UNL     1     -35.120  14.820  -5.238  1.00 20.00     0.018 A 
HETATM    5  C5  UNL     1     -34.524  15.986  -4.769  1.00 20.00    -0.040 A 
HETATM    6  C6  UNL     1     -36.582  16.050  -6.644  1.00 20.00     0.011 A 
HETATM    7  C7  UNL     1     -34.478  13.686  -4.595  1.00 20.00     0.160 A 
HETATM    8  C8  UNL     1     -33.383  14.178  -3.680  1.00 20.00     0.093 A 
HETATM    9  C9  UNL     1     -33.439  15.722  -3.765  1.00 20.00     0.023 A 
HETATM   10  C10 UNL     1     -33.730  16.355  -2.408  1.00 20.00     0.015 C 
HETATM   11  O11 UNL     1     -34.786  12.524  -4.789  1.00 20.00    -0.292 OA
HETATM   12 BR12 UNL     1     -37.979  16.124  -7.918  1.00 20.00    -0.051 Br
ENDROOT
TORSDOF 0
ENDMDL
MODEL 4
REMARK VINA RESULT:      -4.8      2.599      3.522
REMARK  0 active torsions:
REMARK  status: ('A' for Active; 'I' for Inactive)
ROOT
HETATM    1  C1  UNL     1     -36.752  17.014  -3.214  1.00 20.00     0.010 A 
HETATM    2  C2  UNL     1     -38.057  16.662  -3.575  1.00 20.00     0.019 A 
HETATM    3  C3  UNL     1     -37.350  14.404  -4.127  1.00 20.00     0.034 A 
HETATM    4  C4  UNL     1     -36.069  14.781  -3.764  1.00 20.00     0.018 A 
HETATM    5  C5  UNL     1     -35.752  16.056  -3.308  1.00 20.00    -0.040 A 
HETATM    6  C6  UNL     1     -38.353  15.367  -4.027  1.00 20.00     0.011 A 
HETATM    7  C7  UNL     1     -34.853  13.985  -3.782  1.00 20.00     0.160 A 
HETATM    8  C8  UNL     1     -33.688  14.833  -3.333  1.00 20.00     0.093 A 
HETATM    9  C9  UNL     1     -34.296  16.211  -2.977  1.00 20.00     0.023 A 
HETATM   10  C10 UNL     1     -34.064  16.572  -1.513  1.00 20.00     0.015 C 
HETATM   11  O11 UNL     1     -34.805  12.817  -4.123  1.00 20.00    -0.292 OA
HETATM   12 BR12 UNL     1     -40.129  14.926  -4.508  1.00 20.00    -0.051 Br
ENDROOT
TORSDOF 0
ENDMDL
MODEL 5
REMARK VINA RESULT:      -4.7     11.725     12.962
REMARK  0 active torsions:
REMARK  status: ('A' for Active; 'I' for Inactive)
ROOT
HETATM    1  C1  UNL     1     -34.298   5.352   3.003  1.00 20.00     0.010 A 
HETATM    2  C2  UNL     1     -33.508   6.154   2.170  1.00 20.00     0.019 A 
HETATM    3  C3  UNL     1     -32.729   7.449   4.073  1.00 20.00     0.034 A 
HETATM    4  C4  UNL     1     -33.519   6.640   4.870  1.00 20.00     0.018 A 
HETATM    5  C5  UNL     1     -34.295   5.601   4.367  1.00 20.00    -0.040 A 
HETATM    6  C6  UNL     1     -32.729   7.193   2.703  1.00 20.00     0.011 A 
HETATM    7  C7  UNL     1     -33.707   6.697   6.311  1.00 20.00     0.160 A 
HETATM    8  C8  UNL     1     -34.694   5.635   6.733  1.00 20.00     0.093 A 
HETATM    9  C9  UNL     1     -35.059   4.874   5.437  1.00 20.00     0.023 A 
HETATM   10  C10 UNL     1     -34.685   3.398   5.521  1.00 20.00     0.015 C 
HETATM   11  O11 UNL     1     -33.151   7.495   7.042  1.00 20.00    -0.292 OA
HETATM   12 BR12 UNL     1     -31.675   8.258   1.549  1.00 20.00    -0.051 Br
ENDROOT
TORSDOF 0
ENDMDL
MODEL 6
REMARK VINA RESULT:      -4.6      2.357      3.158
REMARK  0 active torsions:
REMARK  status: ('A' for Active; 'I' for Inactive)
ROOT
HETATM    1  C1  UNL     1     -34.085  14.581  -4.561  1.00 20.00     0.010 A 
HETATM    2  C2  UNL     1     -34.162  14.936  -3.210  1.00 20.00     0.019 A 
HETATM    3  C3  UNL     1     -34.729  17.226  -3.794  1.00 20.00     0.034 A 
HETATM    4  C4  UNL     1     -34.646  16.845  -5.121  1.00 20.00     0.018 A 
HETATM    5  C5  UNL     1     -34.335  15.550  -5.522  1.00 20.00    -0.040 A 
HETATM    6  C6  UNL     1     -34.482  16.249  -2.830  1.00 20.00     0.011 A 
HETATM    7  C7  UNL     1     -34.844  17.658  -6.309  1.00 20.00     0.160 A 
HETATM    8  C8  UNL     1     -34.612  16.817  -7.540  1.00 20.00     0.093 A 
HETATM    9  C9  UNL     1     -34.309  15.393  -7.015  1.00 20.00     0.023 A 
HETATM   10  C10 UNL     1     -35.331  14.376  -7.514  1.00 20.00     0.015 C 
HETATM   11  O11 UNL     1     -35.140  18.839  -6.288  1.00 20.00    -0.292 OA
HETATM   12 BR12 UNL     1     -34.576  16.696  -0.994  1.00 20.00    -0.051 Br
ENDROOT
TORSDOF 0
ENDMDL
MODEL 7
REMARK VINA RESULT:      -4.6      1.816      2.129
REMARK  0 active torsions:
REMARK  status: ('A' for Active; 'I' for Inactive)
ROOT
HETATM    1  C1  UNL     1     -34.013  17.213  -4.670  1.00 20.00     0.010 A 
HETATM    2  C2  UNL     1     -33.767  17.540  -3.331  1.00 20.00     0.019 A 
HETATM    3  C3  UNL     1     -35.524  16.034  -2.589  1.00 20.00     0.034 A 
HETATM    4  C4  UNL     1     -35.744  15.732  -3.922  1.00 20.00     0.018 A 
HETATM    5  C5  UNL     1     -35.012  16.295  -4.960  1.00 20.00    -0.040 A 
HETATM    6  C6  UNL     1     -34.517  16.953  -2.300  1.00 20.00     0.011 A 
HETATM    7  C7  UNL     1     -36.727  14.825  -4.492  1.00 20.00     0.160 A 
HETATM    8  C8  UNL     1     -36.619  14.847  -5.997  1.00 20.00     0.093 A 
HETATM    9  C9  UNL     1     -35.443  15.802  -6.312  1.00 20.00     0.023 A 
HETATM   10  C10 UNL     1     -34.320  15.092  -7.061  1.00 20.00     0.015 C 
HETATM   11  O11 UNL     1     -37.514  14.168  -3.836  1.00 20.00    -0.292 OA
HETATM   12 BR12 UNL     1     -34.158  17.418  -0.502  1.00 20.00    -0.051 Br
ENDROOT
TORSDOF 0
ENDMDL
MODEL 8
REMARK VINA RESULT:      -4.5      2.873      3.632
REMARK  0 active torsions:
REMARK  status: ('A' for Active; 'I' for Inactive)
ROOT
HETATM    1  C1  UNL     1     -33.780  16.256  -5.744  1.00 20.00     0.010 A 
HETATM    2  C2  UNL     1     -34.424  17.446  -6.100  1.00 20.00     0.019 A 
HETATM    3  C3  UNL     1     -36.522  16.648  -5.168  1.00 20.00     0.034 A 
HETATM    4  C4  UNL     1     -35.858  15.483  -4.829  1.00 20.00     0.018 A 
HETATM    5  C5  UNL     1     -34.511  15.269  -5.098  1.00 20.00    -0.040 A 
HETATM    6  C6  UNL     1     -35.784  17.640  -5.812  1.00 20.00     0.011 A 
HETATM    7  C7  UNL     1     -36.387  14.301  -4.168  1.00 20.00     0.160 A 
HETATM    8  C8  UNL     1     -35.298  13.264  -4.042  1.00 20.00     0.093 A 
HETATM    9  C9  UNL     1     -34.029  13.926  -4.629  1.00 20.00     0.023 A 
HETATM   10  C10 UNL     1     -32.914  14.034  -3.593  1.00 20.00     0.015 C 
HETATM   11  O11 UNL     1     -37.540  14.185  -3.793  1.00 20.00    -0.292 OA
HETATM   12 BR12 UNL     1     -36.624  19.261  -6.308  1.00 20.00    -0.051 Br
ENDROOT
TORSDOF 0
ENDMDL
MODEL 9
REMARK VINA RESULT:      -4.5      2.352      2.800
REMARK  0 active torsions:
REMARK  status: ('A' for Active; 'I' for Inactive)
ROOT
HETATM    1  C1  UNL     1     -34.649  15.443  -2.655  1.00 20.00     0.010 A 
HETATM    2  C2  UNL     1     -34.464  16.273  -1.543  1.00 20.00     0.019 A 
HETATM    3  C3  UNL     1     -33.758  18.109  -2.969  1.00 20.00     0.034 A 
HETATM    4  C4  UNL     1     -33.949  17.265  -4.048  1.00 20.00     0.018 A 
HETATM    5  C5  UNL     1     -34.390  15.953  -3.919  1.00 20.00    -0.040 A 
HETATM    6  C6  UNL     1     -34.023  17.596  -1.700  1.00 20.00     0.011 A 
HETATM    7  C7  UNL     1     -33.739  17.542  -5.460  1.00 20.00     0.160 A 
HETATM    8  C8  UNL     1     -34.044  16.303  -6.267  1.00 20.00     0.093 A 
HETATM    9  C9  UNL     1     -34.519  15.249  -5.239  1.00 20.00     0.023 A 
HETATM   10  C10 UNL     1     -35.945  14.786  -5.519  1.00 20.00     0.015 C 
HETATM   11  O11 UNL     1     -33.364  18.614  -5.899  1.00 20.00    -0.292 OA
HETATM   12 BR12 UNL     1     -33.783  18.690  -0.176  1.00 20.00    -0.051 Br
ENDROOT
TORSDOF 0
ENDMDL
