MODEL 1
REMARK VINA RESULT:      -4.7      0.000      0.000
REMARK  0 active torsions:
REMARK  status: ('A' for Active; 'I' for Inactive)
ROOT
HETATM    1  C1  UNL     1     -34.392  15.504  -2.262  1.00 20.00     0.033 A 
HETATM    2  C2  UNL     1     -33.812  17.660  -3.225  1.00 20.00     0.033 A 
HETATM    3  C3  UNL     1     -34.414  14.985  -3.544  1.00 20.00    -0.028 A 
HETATM    4  C4  UNL     1     -33.829  17.119  -4.514  1.00 20.00    -0.033 A 
HETATM    5  C5  UNL     1     -34.152  15.782  -4.661  1.00 20.00     0.040 A 
HETATM    6  C6  UNL     1     -34.095  16.859  -2.107  1.00 20.00     0.035 A 
HETATM    7  C7  UNL     1     -34.641  13.577  -3.985  1.00 20.00     0.060 C 
HETATM    8  C8  UNL     1     -34.747  13.746  -5.516  1.00 20.00     0.124 C 
HETATM    9  C9  UNL     1     -33.506  17.978  -5.687  1.00 20.00     0.050 C 
HETATM   10  N10 UNL     1     -34.169  15.044  -5.844  1.00 20.00    -0.389 N 
HETATM   11 CL11 UNL     1     -34.060  17.551  -0.531  1.00 20.00    -0.084 Cl
HETATM   12  H21 UNL     1     -34.274  15.480  -6.749  1.00 20.00     0.159 HD
ENDROOT
TORSDOF 0
ENDMDL
MODEL 2
REMARK VINA RESULT:      -4.7      2.491      3.608
REMARK  0 active torsions:
REMARK  status: ('A' for Active; 'I' for Inactive)
ROOT
HETATM    1  C1  UNL     1     -34.443  14.897  -3.020  1.00 20.00     0.033 A 
HETATM    2  C2  UNL     1     -34.021  15.792  -5.241  1.00 20.00     0.033 A 
HETATM    3  C3  UNL     1     -34.228  16.167  -2.514  1.00 20.00    -0.028 A 
HETATM    4  C4  UNL     1     -33.815  17.071  -4.716  1.00 20.00    -0.033 A 
HETATM    5  C5  UNL     1     -33.901  17.241  -3.345  1.00 20.00     0.040 A 
HETATM    6  C6  UNL     1     -34.329  14.712  -4.399  1.00 20.00     0.035 A 
HETATM    7  C7  UNL     1     -34.342  16.649  -1.106  1.00 20.00     0.060 C 
HETATM    8  C8  UNL     1     -33.764  18.077  -1.222  1.00 20.00     0.124 C 
HETATM    9  C9  UNL     1     -33.508  18.210  -5.626  1.00 20.00     0.050 C 
HETATM   10  N10 UNL     1     -33.787  18.435  -2.635  1.00 20.00    -0.389 N 
HETATM   11 CL11 UNL     1     -34.585  13.149  -5.074  1.00 20.00    -0.084 Cl
HETATM   12  H21 UNL     1     -33.301  19.238  -3.008  1.00 20.00     0.159 HD
ENDROOT
TORSDOF 0
ENDMDL
MODEL 3
REMARK VINA RESULT:      -4.6      2.456      4.071
REMARK  0 active torsions:
REMARK  status: ('A' for Active; 'I' for Inactive)
ROOT
HETATM    1  C1  UNL     1     -34.066  15.651  -5.308  1.00 20.00     0.033 A 
HETATM    2  C2  UNL     1     -34.527  14.971  -3.019  1.00 20.00     0.033 A 
HETATM    3  C3  UNL     1     -33.881  16.941  -4.842  1.00 20.00    -0.028 A 
HETATM    4  C4  UNL     1     -34.328  16.277  -2.562  1.00 20.00    -0.033 A 
HETATM    5  C5  UNL     1     -34.026  17.259  -3.489  1.00 20.00     0.040 A 
HETATM    6  C6  UNL     1     -34.401  14.661  -4.382  1.00 20.00     0.035 A 
HETATM    7  C7  UNL     1     -33.467  18.162  -5.595  1.00 20.00     0.060 C 
HETATM    8  C8  UNL     1     -33.669  19.263  -4.531  1.00 20.00     0.124 C 
HETATM    9  C9  UNL     1     -34.446  16.585  -1.109  1.00 20.00     0.050 C 
HETATM   10  N10 UNL     1     -33.737  18.599  -3.235  1.00 20.00    -0.389 N 
HETATM   11 CL11 UNL     1     -34.645  13.042  -4.915  1.00 20.00    -0.084 Cl
HETATM   12  H21 UNL     1     -34.044  19.064  -2.393  1.00 20.00     0.159 HD
ENDROOT
TORSDOF 0
ENDMDL
MODEL 4
REMARK VINA RESULT:      -4.5      2.444      3.504
REMARK  0 active torsions:
REMARK  status: ('A' for Active; 'I' for Inactive)
ROOT
HETATM    1  C1  UNL     1     -33.405  17.111  -5.111  1.00 20.00     0.033 A 
HETATM    2  C2  UNL     1     -34.580  16.713  -7.203  1.00 20.00     0.033 A 
HETATM    3  C3  UNL     1     -33.642  15.790  -4.776  1.00 20.00    -0.028 A 
HETATM    4  C4  UNL     1     -34.803  15.377  -6.855  1.00 20.00    -0.033 A 
HETATM    5  C5  UNL     1     -34.346  14.933  -5.626  1.00 20.00     0.040 A 
HETATM    6  C6  UNL     1     -33.889  17.574  -6.337  1.00 20.00     0.035 A 
HETATM    7  C7  UNL     1     -33.193  15.030  -3.572  1.00 20.00     0.060 C 
HETATM    8  C8  UNL     1     -33.976  13.709  -3.731  1.00 20.00     0.124 C 
HETATM    9  C9  UNL     1     -35.520  14.471  -7.795  1.00 20.00     0.050 C 
HETATM   10  N10 UNL     1     -34.417  13.637  -5.119  1.00 20.00    -0.389 N 
HETATM   11 CL11 UNL     1     -33.622  19.212  -6.795  1.00 20.00    -0.084 Cl
HETATM   12  H21 UNL     1     -35.099  12.968  -5.446  1.00 20.00     0.159 HD
ENDROOT
TORSDOF 0
ENDMDL
MODEL 5
REMARK VINA RESULT:      -4.4      2.109      3.004
REMARK  0 active torsions:
REMARK  status: ('A' for Active; 'I' for Inactive)
ROOT
HETATM    1  C1  UNL     1     -34.094  16.585  -6.113  1.00 20.00     0.033 A 
HETATM    2  C2  UNL     1     -33.772  17.735  -3.995  1.00 20.00     0.033 A 
HETATM    3  C3  UNL     1     -34.344  15.427  -5.398  1.00 20.00    -0.028 A 
HETATM    4  C4  UNL     1     -34.036  16.560  -3.286  1.00 20.00    -0.033 A 
HETATM    5  C5  UNL     1     -34.301  15.405  -4.002  1.00 20.00     0.040 A 
HETATM    6  C6  UNL     1     -33.797  17.747  -5.398  1.00 20.00     0.035 A 
HETATM    7  C7  UNL     1     -34.738  14.078  -5.901  1.00 20.00     0.060 C 
HETATM    8  C8  UNL     1     -34.638  13.229  -4.615  1.00 20.00     0.124 C 
HETATM    9  C9  UNL     1     -34.026  16.569  -1.796  1.00 20.00     0.050 C 
HETATM   10  N10 UNL     1     -34.642  14.155  -3.489  1.00 20.00    -0.389 N 
HETATM   11 CL11 UNL     1     -33.475  19.211  -6.245  1.00 20.00    -0.084 Cl
HETATM   12  H21 UNL     1     -34.405  13.877  -2.547  1.00 20.00     0.159 HD
ENDROOT
TORSDOF 0
ENDMDL
MODEL 6
REMARK VINA RESULT:      -4.3     12.513     13.664
REMARK  0 active torsions:
REMARK  status: ('A' for Active; 'I' for Inactive)
ROOT
HETATM    1  C1  UNL     1     -42.864   4.683  -3.345  1.00 20.00     0.033 A 
HETATM    2  C2  UNL     1     -41.342   4.257  -1.497  1.00 20.00     0.033 A 
HETATM    3  C3  UNL     1     -42.794   6.030  -3.037  1.00 20.00    -0.028 A 
HETATM    4  C4  UNL     1     -41.273   5.622  -1.204  1.00 20.00    -0.033 A 
HETATM    5  C5  UNL     1     -42.022   6.498  -1.970  1.00 20.00     0.040 A 
HETATM    6  C6  UNL     1     -42.134   3.790  -2.557  1.00 20.00     0.035 A 
HETATM    7  C7  UNL     1     -43.417   7.189  -3.741  1.00 20.00     0.060 C 
HETATM    8  C8  UNL     1     -43.117   8.343  -2.760  1.00 20.00     0.124 C 
HETATM    9  C9  UNL     1     -40.411   6.103  -0.088  1.00 20.00     0.050 C 
HETATM   10  N10 UNL     1     -42.049   7.888  -1.878  1.00 20.00    -0.389 N 
HETATM   11 CL11 UNL     1     -42.194   2.104  -2.900  1.00 20.00    -0.084 Cl
HETATM   12  H21 UNL     1     -41.787   8.376  -1.034  1.00 20.00     0.159 HD
ENDROOT
TORSDOF 0
ENDMDL
MODEL 7
REMARK VINA RESULT:      -4.3      3.149      4.333
REMARK  0 active torsions:
REMARK  status: ('A' for Active; 'I' for Inactive)
ROOT
HETATM    1  C1  UNL     1     -34.375  14.894  -3.043  1.00 20.00     0.033 A 
HETATM    2  C2  UNL     1     -36.431  14.763  -4.334  1.00 20.00     0.033 A 
HETATM    3  C3  UNL     1     -34.934  15.945  -2.338  1.00 20.00    -0.028 A 
HETATM    4  C4  UNL     1     -36.987  15.820  -3.607  1.00 20.00    -0.033 A 
HETATM    5  C5  UNL     1     -36.218  16.417  -2.624  1.00 20.00     0.040 A 
HETATM    6  C6  UNL     1     -35.134  14.305  -4.057  1.00 20.00     0.035 A 
HETATM    7  C7  UNL     1     -34.374  16.706  -1.182  1.00 20.00     0.060 C 
HETATM    8  C8  UNL     1     -35.402  17.849  -1.039  1.00 20.00     0.124 C 
HETATM    9  C9  UNL     1     -38.373  16.280  -3.901  1.00 20.00     0.050 C 
HETATM   10  N10 UNL     1     -36.603  17.438  -1.756  1.00 20.00    -0.389 N 
HETATM   11 CL11 UNL     1     -34.478  12.997  -4.963  1.00 20.00    -0.084 Cl
HETATM   12  H21 UNL     1     -37.359  18.072  -1.973  1.00 20.00     0.159 HD
ENDROOT
TORSDOF 0
ENDMDL
MODEL 8
REMARK VINA RESULT:      -4.3     12.239     13.433
REMARK  0 active torsions:
REMARK  status: ('A' for Active; 'I' for Inactive)
ROOT
HETATM    1  C1  UNL     1     -43.205   6.210  -3.427  1.00 20.00     0.033 A 
HETATM    2  C2  UNL     1     -41.899   7.348  -1.721  1.00 20.00     0.033 A 
HETATM    3  C3  UNL     1     -42.689   5.013  -2.965  1.00 20.00    -0.028 A 
HETATM    4  C4  UNL     1     -41.392   6.129  -1.258  1.00 20.00    -0.033 A 
HETATM    5  C5  UNL     1     -41.781   4.968  -1.904  1.00 20.00     0.040 A 
HETATM    6  C6  UNL     1     -42.796   7.388  -2.800  1.00 20.00     0.035 A 
HETATM    7  C7  UNL     1     -42.998   3.621  -3.409  1.00 20.00     0.060 C 
HETATM    8  C8  UNL     1     -41.932   2.809  -2.642  1.00 20.00     0.124 C 
HETATM    9  C9  UNL     1     -40.457   6.102  -0.099  1.00 20.00     0.050 C 
HETATM   10  N10 UNL     1     -41.438   3.660  -1.566  1.00 20.00    -0.389 N 
HETATM   11 CL11 UNL     1     -43.409   8.903  -3.343  1.00 20.00    -0.084 Cl
HETATM   12  H21 UNL     1     -40.611   3.443  -1.028  1.00 20.00     0.159 HD
ENDROOT
TORSDOF 0
ENDMDL
MODEL 9
REMARK VINA RESULT:      -4.2      1.843      2.264
REMARK  0 active torsions:
REMARK  status: ('A' for Active; 'I' for Inactive)
ROOT
HETATM    1  C1  UNL     1     -33.738  16.021  -2.348  1.00 20.00     0.033 A 
HETATM    2  C2  UNL     1     -35.806  17.295  -2.231  1.00 20.00     0.033 A 
HETATM    3  C3  UNL     1     -34.397  15.106  -3.151  1.00 20.00    -0.028 A 
HETATM    4  C4  UNL     1     -36.456  16.367  -3.051  1.00 20.00    -0.033 A 
HETATM    5  C5  UNL     1     -35.743  15.264  -3.488  1.00 20.00     0.040 A 
HETATM    6  C6  UNL     1     -34.459  17.122  -1.880  1.00 20.00     0.035 A 
HETATM    7  C7  UNL     1     -33.858  13.889  -3.825  1.00 20.00     0.060 C 
HETATM    8  C8  UNL     1     -35.151  13.235  -4.359  1.00 20.00     0.124 C 
HETATM    9  C9  UNL     1     -37.881  16.577  -3.432  1.00 20.00     0.050 C 
HETATM   10  N10 UNL     1     -36.186  14.262  -4.350  1.00 20.00    -0.389 N 
HETATM   11 CL11 UNL     1     -33.682  18.285  -0.875  1.00 20.00    -0.084 Cl
HETATM   12  H21 UNL     1     -37.167  14.057  -4.477  1.00 20.00     0.159 HD
ENDROOT
TORSDOF 0
ENDMDL
