MODEL 1
REMARK VINA RESULT:      -4.2      0.000      0.000
REMARK  2 active torsions:
REMARK  status: ('A' for Active; 'I' for Inactive)
REMARK    1  A    between atoms: C2_2  and  C8_8 
REMARK    2  A    between atoms: C8_8  and  N9_9 
ROOT
HETATM    1  C3  UNL     1     -34.557  13.400  -4.628  1.00 20.00     0.003 C 
HETATM    2  C4  UNL     1     -35.748  14.149  -4.040  1.00 20.00     0.030 C 
HETATM    3  C5  UNL     1     -33.306  13.650  -3.794  1.00 20.00     0.030 C 
HETATM    4  C6  UNL     1     -35.425  15.630  -3.831  1.00 20.00     0.273 C 
HETATM    5  C7  UNL     1     -33.061  15.146  -3.593  1.00 20.00     0.273 C 
HETATM    6  N9  UNL     1     -34.232  15.799  -2.990  1.00 20.00     0.093 N 
ENDROOT
BRANCH   6   7
HETATM    7  C8  UNL     1     -33.965  17.218  -2.760  1.00 20.00     0.317 C 
BRANCH   7   8
HETATM    8  C2  UNL     1     -33.997  17.585  -1.303  1.00 20.00     0.007 C 
HETATM    9  C1  UNL     1     -34.680  16.886  -0.386  1.00 20.00     0.029 C 
HETATM   10 BR10 UNL     1     -32.950  19.062  -0.817  1.00 20.00    -0.055 Br
ENDBRANCH   7   8
ENDBRANCH   6   7
TORSDOF 2
ENDMDL
MODEL 2
REMARK VINA RESULT:      -4.1     11.461     12.265
REMARK  2 active torsions:
REMARK  status: ('A' for Active; 'I' for Inactive)
REMARK    1  A    between atoms: C2_2  and  C8_8 
REMARK    2  A    between atoms: C8_8  and  N9_9 
ROOT
HETATM    1  C3  UNL     1     -35.152   4.758   6.249  1.00 20.00     0.003 C 
HETATM    2  C4  UNL     1     -34.100   5.841   6.456  1.00 20.00     0.030 C 
HETATM    3  C5  UNL     1     -34.918   4.035   4.928  1.00 20.00     0.030 C 
HETATM    4  C6  UNL     1     -34.012   6.771   5.245  1.00 20.00     0.273 C 
HETATM    5  C7  UNL     1     -34.805   5.021   3.765  1.00 20.00     0.273 C 
HETATM    6  N9  UNL     1     -33.750   6.014   4.013  1.00 20.00     0.093 N 
ENDROOT
BRANCH   6   7
HETATM    7  C8  UNL     1     -33.623   6.921   2.873  1.00 20.00     0.317 C 
BRANCH   7   8
HETATM    8  C2  UNL     1     -32.266   7.564   2.793  1.00 20.00     0.007 C 
HETATM    9  C1  UNL     1     -31.284   7.314   3.669  1.00 20.00     0.029 C 
HETATM   10 BR10 UNL     1     -31.996   8.704   1.330  1.00 20.00    -0.055 Br
ENDBRANCH   7   8
ENDBRANCH   6   7
TORSDOF 2
ENDMDL
MODEL 3
REMARK VINA RESULT:      -4.1      1.134      1.323
REMARK  2 active torsions:
REMARK  status: ('A' for Active; 'I' for Inactive)
REMARK    1  A    between atoms: C2_2  and  C8_8 
REMARK    2  A    between atoms: C8_8  and  N9_9 
ROOT
HETATM    1  C3  UNL     1     -34.599  13.348  -4.513  1.00 20.00     0.003 C 
HETATM    2  C4  UNL     1     -35.757  14.240  -4.079  1.00 20.00     0.030 C 
HETATM    3  C5  UNL     1     -33.341  13.684  -3.721  1.00 20.00     0.030 C 
HETATM    4  C6  UNL     1     -35.368  15.719  -4.127  1.00 20.00     0.273 C 
HETATM    5  C7  UNL     1     -33.029  15.180  -3.781  1.00 20.00     0.273 C 
HETATM    6  N9  UNL     1     -34.172  15.979  -3.315  1.00 20.00     0.093 N 
ENDROOT
BRANCH   6   7
HETATM    7  C8  UNL     1     -33.841  17.404  -3.333  1.00 20.00     0.317 C 
BRANCH   7   8
HETATM    8  C2  UNL     1     -33.781  18.002  -1.956  1.00 20.00     0.007 C 
HETATM    9  C1  UNL     1     -33.243  19.203  -1.701  1.00 20.00     0.029 C 
HETATM   10 BR10 UNL     1     -34.582  16.989  -0.598  1.00 20.00    -0.055 Br
ENDBRANCH   7   8
ENDBRANCH   6   7
TORSDOF 2
ENDMDL
MODEL 4
REMARK VINA RESULT:      -3.8     11.229     12.007
REMARK  2 active torsions:
REMARK  status: ('A' for Active; 'I' for Inactive)
REMARK    1  A    between atoms: C2_2  and  C8_8 
REMARK    2  A    between atoms: C8_8  and  N9_9 
ROOT
HETATM    1  C3  UNL     1     -35.112   4.914   5.941  1.00 20.00     0.003 C 
HETATM    2  C4  UNL     1     -35.638   4.908   4.510  1.00 20.00     0.030 C 
HETATM    3  C5  UNL     1     -34.225   6.130   6.178  1.00 20.00     0.030 C 
HETATM    4  C6  UNL     1     -34.499   5.054   3.499  1.00 20.00     0.273 C 
HETATM    5  C7  UNL     1     -33.131   6.237   5.115  1.00 20.00     0.273 C 
HETATM    6  N9  UNL     1     -33.707   6.263   3.763  1.00 20.00     0.093 N 
ENDROOT
BRANCH   6   7
HETATM    7  C8  UNL     1     -32.653   6.413   2.760  1.00 20.00     0.317 C 
BRANCH   7   8
HETATM    8  C2  UNL     1     -31.955   7.742   2.848  1.00 20.00     0.007 C 
HETATM    9  C1  UNL     1     -31.101   8.057   3.831  1.00 20.00     0.029 C 
HETATM   10 BR10 UNL     1     -32.297   8.929   1.439  1.00 20.00    -0.055 Br
ENDBRANCH   7   8
ENDBRANCH   6   7
TORSDOF 2
ENDMDL
MODEL 5
REMARK VINA RESULT:      -3.8      2.296      2.603
REMARK  2 active torsions:
REMARK  status: ('A' for Active; 'I' for Inactive)
REMARK    1  A    between atoms: C2_2  and  C8_8 
REMARK    2  A    between atoms: C8_8  and  N9_9 
ROOT
HETATM    1  C3  UNL     1     -34.424  14.863  -7.164  1.00 20.00     0.003 C 
HETATM    2  C4  UNL     1     -34.298  16.326  -6.755  1.00 20.00     0.030 C 
HETATM    3  C5  UNL     1     -35.143  14.067  -6.081  1.00 20.00     0.030 C 
HETATM    4  C6  UNL     1     -33.673  16.463  -5.365  1.00 20.00     0.273 C 
HETATM    5  C7  UNL     1     -34.492  14.275  -4.713  1.00 20.00     0.273 C 
HETATM    6  N9  UNL     1     -34.434  15.702  -4.365  1.00 20.00     0.093 N 
ENDROOT
BRANCH   6   7
HETATM    7  C8  UNL     1     -33.852  15.881  -3.035  1.00 20.00     0.317 C 
BRANCH   7   8
HETATM    8  C2  UNL     1     -34.812  16.506  -2.062  1.00 20.00     0.007 C 
HETATM    9  C1  UNL     1     -34.544  16.651  -0.757  1.00 20.00     0.029 C 
HETATM   10 BR10 UNL     1     -36.408  17.152  -2.802  1.00 20.00    -0.055 Br
ENDBRANCH   7   8
ENDBRANCH   6   7
TORSDOF 2
ENDMDL
MODEL 6
REMARK VINA RESULT:      -3.7      2.808      4.700
REMARK  2 active torsions:
REMARK  status: ('A' for Active; 'I' for Inactive)
REMARK    1  A    between atoms: C2_2  and  C8_8 
REMARK    2  A    between atoms: C8_8  and  N9_9 
ROOT
HETATM    1  C3  UNL     1     -35.475  17.747  -1.216  1.00 20.00     0.003 C 
HETATM    2  C4  UNL     1     -34.572  16.522  -1.126  1.00 20.00     0.030 C 
HETATM    3  C5  UNL     1     -36.308  17.702  -2.492  1.00 20.00     0.030 C 
HETATM    4  C6  UNL     1     -33.746  16.344  -2.401  1.00 20.00     0.273 C 
HETATM    5  C7  UNL     1     -35.428  17.486  -3.724  1.00 20.00     0.273 C 
HETATM    6  N9  UNL     1     -34.612  16.271  -3.587  1.00 20.00     0.093 N 
ENDROOT
BRANCH   6   7
HETATM    7  C8  UNL     1     -33.812  16.054  -4.792  1.00 20.00     0.317 C 
BRANCH   7   8
HETATM    8  C2  UNL     1     -34.343  14.937  -5.646  1.00 20.00     0.007 C 
HETATM    9  C1  UNL     1     -34.403  15.001  -6.983  1.00 20.00     0.029 C 
HETATM   10 BR10 UNL     1     -34.860  13.389  -4.723  1.00 20.00    -0.055 Br
ENDBRANCH   7   8
ENDBRANCH   6   7
TORSDOF 2
ENDMDL
MODEL 7
REMARK VINA RESULT:      -3.6      2.162      2.908
REMARK  2 active torsions:
REMARK  status: ('A' for Active; 'I' for Inactive)
REMARK    1  A    between atoms: C2_2  and  C8_8 
REMARK    2  A    between atoms: C8_8  and  N9_9 
ROOT
HETATM    1  C3  UNL     1     -35.927  14.682  -7.300  1.00 20.00     0.003 C 
HETATM    2  C4  UNL     1     -34.478  14.884  -6.870  1.00 20.00     0.030 C 
HETATM    3  C5  UNL     1     -36.866  15.475  -6.398  1.00 20.00     0.030 C 
HETATM    4  C6  UNL     1     -34.296  14.599  -5.378  1.00 20.00     0.273 C 
HETATM    5  C7  UNL     1     -36.608  15.171  -4.921  1.00 20.00     0.273 C 
HETATM    6  N9  UNL     1     -35.203  15.421  -4.566  1.00 20.00     0.093 N 
ENDROOT
BRANCH   6   7
HETATM    7  C8  UNL     1     -34.984  15.171  -3.142  1.00 20.00     0.317 C 
BRANCH   7   8
HETATM    8  C2  UNL     1     -34.588  16.411  -2.391  1.00 20.00     0.007 C 
HETATM    9  C1  UNL     1     -34.630  16.503  -1.054  1.00 20.00     0.029 C 
HETATM   10 BR10 UNL     1     -33.953  17.826  -3.443  1.00 20.00    -0.055 Br
ENDBRANCH   7   8
ENDBRANCH   6   7
TORSDOF 2
ENDMDL
MODEL 8
REMARK VINA RESULT:      -3.5      1.369      1.638
REMARK  2 active torsions:
REMARK  status: ('A' for Active; 'I' for Inactive)
REMARK    1  A    between atoms: C2_2  and  C8_8 
REMARK    2  A    between atoms: C8_8  and  N9_9 
ROOT
HETATM    1  C3  UNL     1     -35.031  14.061  -5.902  1.00 20.00     0.003 C 
HETATM    2  C4  UNL     1     -35.181  13.648  -4.442  1.00 20.00     0.030 C 
HETATM    3  C5  UNL     1     -34.287  15.388  -6.007  1.00 20.00     0.030 C 
HETATM    4  C6  UNL     1     -35.795  14.773  -3.607  1.00 20.00     0.273 C 
HETATM    5  C7  UNL     1     -34.929  16.457  -5.122  1.00 20.00     0.273 C 
HETATM    6  N9  UNL     1     -35.010  16.010  -3.724  1.00 20.00     0.093 N 
ENDROOT
BRANCH   6   7
HETATM    7  C8  UNL     1     -35.582  17.061  -2.883  1.00 20.00     0.317 C 
BRANCH   7   8
HETATM    8  C2  UNL     1     -34.687  17.435  -1.735  1.00 20.00     0.007 C 
HETATM    9  C1  UNL     1     -34.648  16.750  -0.583  1.00 20.00     0.029 C 
HETATM   10 BR10 UNL     1     -33.555  18.897  -2.034  1.00 20.00    -0.055 Br
ENDBRANCH   7   8
ENDBRANCH   6   7
TORSDOF 2
ENDMDL
MODEL 9
REMARK VINA RESULT:      -3.5      2.412      4.569
REMARK  2 active torsions:
REMARK  status: ('A' for Active; 'I' for Inactive)
REMARK    1  A    between atoms: C2_2  and  C8_8 
REMARK    2  A    between atoms: C8_8  and  N9_9 
ROOT
HETATM    1  C3  UNL     1     -33.833  19.058  -1.346  1.00 20.00     0.003 C 
HETATM    2  C4  UNL     1     -33.619  18.832  -2.838  1.00 20.00     0.030 C 
HETATM    3  C5  UNL     1     -33.645  17.756  -0.577  1.00 20.00     0.030 C 
HETATM    4  C6  UNL     1     -34.478  17.675  -3.354  1.00 20.00     0.273 C 
HETATM    5  C7  UNL     1     -34.503  16.634  -1.164  1.00 20.00     0.273 C 
HETATM    6  N9  UNL     1     -34.221  16.444  -2.594  1.00 20.00     0.093 N 
ENDROOT
BRANCH   6   7
HETATM    7  C8  UNL     1     -35.014  15.338  -3.129  1.00 20.00     0.317 C 
BRANCH   7   8
HETATM    8  C2  UNL     1     -34.242  14.489  -4.100  1.00 20.00     0.007 C 
HETATM    9  C1  UNL     1     -33.307  13.606  -3.720  1.00 20.00     0.029 C 
HETATM   10 BR10 UNL     1     -34.718  14.683  -5.902  1.00 20.00    -0.055 Br
ENDBRANCH   7   8
ENDBRANCH   6   7
TORSDOF 2
ENDMDL
