MODEL 1
REMARK VINA RESULT:      -4.7      0.000      0.000
REMARK  1 active torsions:
REMARK  status: ('A' for Active; 'I' for Inactive)
REMARK    1  A    between atoms: C1_1  and  C6_6 
ROOT
HETATM    1  C2  UNL     1     -35.136   4.438   4.845  1.00 20.00     0.005 C 
HETATM    2  C3  UNL     1     -34.182   5.151   5.816  1.00 20.00     0.006 C 
HETATM    3  C4  UNL     1     -33.846   5.325   2.884  1.00 20.00     0.018 C 
HETATM    4  C5  UNL     1     -35.088   6.758   4.322  1.00 20.00     0.010 C 
HETATM    5  C6  UNL     1     -32.862   5.983   3.866  1.00 20.00     0.076 C 
HETATM    6  C7  UNL     1     -35.187   5.396   3.641  1.00 20.00    -0.013 C 
HETATM    7  C8  UNL     1     -33.776   6.412   5.033  1.00 20.00    -0.002 C 
ENDROOT
BRANCH   5   8
HETATM    8  C1  UNL     1     -32.166   7.155   3.246  1.00 20.00     0.223 C 
HETATM    9  O9  UNL     1     -32.439   7.543   2.114  1.00 20.00    -0.279 OA
HETATM   10 CL10 UNL     1     -30.976   7.845   4.308  1.00 20.00    -0.043 Cl
ENDBRANCH   5   8
TORSDOF 1
ENDMDL
MODEL 2
REMARK VINA RESULT:      -4.6     11.637     12.593
REMARK  1 active torsions:
REMARK  status: ('A' for Active; 'I' for Inactive)
REMARK    1  A    between atoms: C1_1  and  C6_6 
ROOT
HETATM    1  C2  UNL     1     -34.136  17.336  -2.784  1.00 20.00     0.005 C 
HETATM    2  C3  UNL     1     -34.557  16.079  -2.007  1.00 20.00     0.006 C 
HETATM    3  C4  UNL     1     -34.731  16.227  -4.954  1.00 20.00     0.018 C 
HETATM    4  C5  UNL     1     -32.919  15.468  -3.611  1.00 20.00     0.010 C 
HETATM    5  C6  UNL     1     -35.208  14.998  -4.162  1.00 20.00     0.076 C 
HETATM    6  C7  UNL     1     -33.569  16.761  -4.095  1.00 20.00    -0.013 C 
HETATM    7  C8  UNL     1     -34.213  14.941  -2.983  1.00 20.00    -0.002 C 
ENDROOT
BRANCH   5   8
HETATM    8  C1  UNL     1     -35.157  13.753  -4.993  1.00 20.00     0.223 C 
HETATM    9  O9  UNL     1     -35.078  12.640  -4.483  1.00 20.00    -0.279 OA
HETATM   10 CL10 UNL     1     -35.222  14.100  -6.694  1.00 20.00    -0.043 Cl
ENDBRANCH   5   8
TORSDOF 1
ENDMDL
MODEL 3
REMARK VINA RESULT:      -4.4     11.357     12.409
REMARK  1 active torsions:
REMARK  status: ('A' for Active; 'I' for Inactive)
REMARK    1  A    between atoms: C1_1  and  C6_6 
ROOT
HETATM    1  C2  UNL     1     -34.405  13.932  -5.300  1.00 20.00     0.005 C 
HETATM    2  C3  UNL     1     -34.956  13.644  -3.895  1.00 20.00     0.006 C 
HETATM    3  C4  UNL     1     -33.304  16.028  -4.469  1.00 20.00     0.018 C 
HETATM    4  C5  UNL     1     -35.672  15.805  -4.564  1.00 20.00     0.010 C 
HETATM    5  C6  UNL     1     -33.809  15.697  -3.054  1.00 20.00     0.076 C 
HETATM    6  C7  UNL     1     -34.421  15.470  -5.372  1.00 20.00    -0.013 C 
HETATM    7  C8  UNL     1     -35.186  15.053  -3.321  1.00 20.00    -0.002 C 
ENDROOT
BRANCH   5   8
HETATM    8  C1  UNL     1     -33.925  16.928  -2.209  1.00 20.00     0.223 C 
HETATM    9  O9  UNL     1     -33.563  18.027  -2.616  1.00 20.00    -0.279 OA
HETATM   10 CL10 UNL     1     -34.611  16.587  -0.649  1.00 20.00    -0.043 Cl
ENDBRANCH   5   8
TORSDOF 1
ENDMDL
MODEL 4
REMARK VINA RESULT:      -4.4     11.281     12.197
REMARK  1 active torsions:
REMARK  status: ('A' for Active; 'I' for Inactive)
REMARK    1  A    between atoms: C1_1  and  C6_6 
ROOT
HETATM    1  C2  UNL     1     -35.495  17.244  -2.025  1.00 20.00     0.005 C 
HETATM    2  C3  UNL     1     -34.124  16.677  -1.623  1.00 20.00     0.006 C 
HETATM    3  C4  UNL     1     -35.913  15.261  -3.504  1.00 20.00     0.018 C 
HETATM    4  C5  UNL     1     -34.211  16.853  -3.988  1.00 20.00     0.010 C 
HETATM    5  C6  UNL     1     -34.567  14.674  -3.047  1.00 20.00     0.076 C 
HETATM    6  C7  UNL     1     -35.650  16.779  -3.485  1.00 20.00    -0.013 C 
HETATM    7  C8  UNL     1     -33.679  15.926  -2.891  1.00 20.00    -0.002 C 
ENDROOT
BRANCH   5   8
HETATM    8  C1  UNL     1     -34.010  13.720  -4.059  1.00 20.00     0.223 C 
HETATM    9  O9  UNL     1     -33.000  13.059  -3.835  1.00 20.00    -0.279 OA
HETATM   10 CL10 UNL     1     -34.952  13.691  -5.518  1.00 20.00    -0.043 Cl
ENDBRANCH   5   8
TORSDOF 1
ENDMDL
MODEL 5
REMARK VINA RESULT:      -4.4     11.505     12.522
REMARK  1 active torsions:
REMARK  status: ('A' for Active; 'I' for Inactive)
REMARK    1  A    between atoms: C1_1  and  C6_6 
ROOT
HETATM    1  C2  UNL     1     -34.533  14.161  -5.206  1.00 20.00     0.005 C 
HETATM    2  C3  UNL     1     -33.965  15.520  -5.644  1.00 20.00     0.006 C 
HETATM    3  C4  UNL     1     -35.076  15.086  -2.939  1.00 20.00     0.018 C 
HETATM    4  C5  UNL     1     -32.831  14.818  -3.680  1.00 20.00     0.010 C 
HETATM    5  C6  UNL     1     -34.562  16.458  -3.407  1.00 20.00     0.076 C 
HETATM    6  C7  UNL     1     -34.177  14.100  -3.709  1.00 20.00    -0.013 C 
HETATM    7  C8  UNL     1     -33.386  16.087  -4.335  1.00 20.00    -0.002 C 
ENDROOT
BRANCH   5   8
HETATM    8  C1  UNL     1     -34.115  17.303  -2.254  1.00 20.00     0.223 C 
HETATM    9  O9  UNL     1     -33.516  18.360  -2.423  1.00 20.00    -0.279 OA
HETATM   10 CL10 UNL     1     -34.546  16.601  -0.725  1.00 20.00    -0.043 Cl
ENDBRANCH   5   8
TORSDOF 1
ENDMDL
MODEL 6
REMARK VINA RESULT:      -4.4     11.471     12.540
REMARK  1 active torsions:
REMARK  status: ('A' for Active; 'I' for Inactive)
REMARK    1  A    between atoms: C1_1  and  C6_6 
ROOT
HETATM    1  C2  UNL     1     -32.693  14.901  -3.705  1.00 20.00     0.005 C 
HETATM    2  C3  UNL     1     -33.492  13.591  -3.790  1.00 20.00     0.006 C 
HETATM    3  C4  UNL     1     -34.807  16.198  -3.327  1.00 20.00     0.018 C 
HETATM    4  C5  UNL     1     -34.353  15.112  -5.396  1.00 20.00     0.010 C 
HETATM    5  C6  UNL     1     -35.589  14.874  -3.352  1.00 20.00     0.076 C 
HETATM    6  C7  UNL     1     -33.656  15.936  -4.317  1.00 20.00    -0.013 C 
HETATM    7  C8  UNL     1     -34.828  14.044  -4.406  1.00 20.00    -0.002 C 
ENDROOT
BRANCH   5   8
HETATM    8  C1  UNL     1     -37.020  15.087  -3.740  1.00 20.00     0.223 C 
HETATM    9  O9  UNL     1     -37.827  14.162  -3.764  1.00 20.00    -0.279 OA
HETATM   10 CL10 UNL     1     -37.351  16.747  -4.132  1.00 20.00    -0.043 Cl
ENDBRANCH   5   8
TORSDOF 1
ENDMDL
MODEL 7
REMARK VINA RESULT:      -4.3     11.455     12.690
REMARK  1 active torsions:
REMARK  status: ('A' for Active; 'I' for Inactive)
REMARK    1  A    between atoms: C1_1  and  C6_6 
ROOT
HETATM    1  C2  UNL     1     -33.752  16.979  -2.707  1.00 20.00     0.005 C 
HETATM    2  C3  UNL     1     -33.709  17.200  -4.227  1.00 20.00     0.006 C 
HETATM    3  C4  UNL     1     -34.133  14.523  -3.047  1.00 20.00     0.018 C 
HETATM    4  C5  UNL     1     -35.760  16.145  -3.670  1.00 20.00     0.010 C 
HETATM    5  C6  UNL     1     -34.027  14.746  -4.565  1.00 20.00     0.076 C 
HETATM    6  C7  UNL     1     -34.770  15.835  -2.551  1.00 20.00    -0.013 C 
HETATM    7  C8  UNL     1     -34.681  16.131  -4.757  1.00 20.00    -0.002 C 
ENDROOT
BRANCH   5   8
HETATM    8  C1  UNL     1     -34.748  13.680  -5.331  1.00 20.00     0.223 C 
HETATM    9  O9  UNL     1     -34.887  12.546  -4.884  1.00 20.00    -0.279 OA
HETATM   10 CL10 UNL     1     -35.327  14.256  -6.865  1.00 20.00    -0.043 Cl
ENDBRANCH   5   8
TORSDOF 1
ENDMDL
MODEL 8
REMARK VINA RESULT:      -4.3     12.225     13.446
REMARK  1 active torsions:
REMARK  status: ('A' for Active; 'I' for Inactive)
REMARK    1  A    between atoms: C1_1  and  C6_6 
ROOT
HETATM    1  C2  UNL     1     -35.788  16.905  -6.880  1.00 20.00     0.005 C 
HETATM    2  C3  UNL     1     -34.386  16.984  -6.258  1.00 20.00     0.006 C 
HETATM    3  C4  UNL     1     -36.305  14.859  -5.523  1.00 20.00     0.018 C 
HETATM    4  C5  UNL     1     -34.661  14.843  -7.244  1.00 20.00     0.010 C 
HETATM    5  C6  UNL     1     -34.922  14.984  -4.862  1.00 20.00     0.076 C 
HETATM    6  C7  UNL     1     -36.055  15.390  -6.948  1.00 20.00    -0.013 C 
HETATM    7  C8  UNL     1     -34.036  15.505  -6.012  1.00 20.00    -0.002 C 
ENDROOT
BRANCH   5   8
HETATM    8  C1  UNL     1     -34.439  13.665  -4.342  1.00 20.00     0.223 C 
HETATM    9  O9  UNL     1     -35.110  12.643  -4.451  1.00 20.00    -0.279 OA
HETATM   10 CL10 UNL     1     -32.872  13.789  -3.601  1.00 20.00    -0.043 Cl
ENDBRANCH   5   8
TORSDOF 1
ENDMDL
MODEL 9
REMARK VINA RESULT:      -4.2     11.100     12.360
REMARK  1 active torsions:
REMARK  status: ('A' for Active; 'I' for Inactive)
REMARK    1  A    between atoms: C1_1  and  C6_6 
ROOT
HETATM    1  C2  UNL     1     -35.107  17.848  -2.942  1.00 20.00     0.005 C 
HETATM    2  C3  UNL     1     -34.210  17.065  -1.971  1.00 20.00     0.006 C 
HETATM    3  C4  UNL     1     -35.694  15.730  -4.151  1.00 20.00     0.018 C 
HETATM    4  C5  UNL     1     -33.491  16.629  -4.190  1.00 20.00     0.010 C 
HETATM    5  C6  UNL     1     -34.843  14.949  -3.136  1.00 20.00     0.076 C 
HETATM    6  C7  UNL     1     -34.949  17.073  -4.264  1.00 20.00    -0.013 C 
HETATM    7  C8  UNL     1     -33.677  15.917  -2.847  1.00 20.00    -0.002 C 
ENDROOT
BRANCH   5   8
HETATM    8  C1  UNL     1     -34.359  13.651  -3.706  1.00 20.00     0.223 C 
HETATM    9  O9  UNL     1     -35.124  12.857  -4.243  1.00 20.00    -0.279 OA
HETATM   10 CL10 UNL     1     -32.645  13.447  -3.502  1.00 20.00    -0.043 Cl
ENDBRANCH   5   8
TORSDOF 1
ENDMDL
