MODEL 1
REMARK VINA RESULT:      -4.8      0.000      0.000
REMARK  3 active torsions:
REMARK  status: ('A' for Active; 'I' for Inactive)
REMARK    1  A    between atoms: C5_5  and  N9_9 
REMARK    2  A    between atoms: C6_6  and  C7_7 
REMARK    3  A    between atoms: C7_7  and  N9_9 
ROOT
HETATM    1  C1  UNL     1     -32.117   8.050   2.157  1.00 20.00     0.089 C 
HETATM    2  C5  UNL     1     -32.081   6.809   2.929  1.00 20.00     0.393 C 
HETATM    3  N8  UNL     1     -32.142   9.034   1.542  1.00 20.00    -0.195 NA
ENDROOT
BRANCH   2   4
HETATM    4  N9  UNL     1     -33.039   6.853   4.029  1.00 20.00     0.100 N 
HETATM    5  H23 UNL     1     -33.705   7.610   3.857  1.00 20.00     0.317 HD
BRANCH   4   6
HETATM    6  C7  UNL     1     -33.751   5.598   4.155  1.00 20.00     0.221 C 
HETATM    7  C4  UNL     1     -34.538   5.341   2.872  1.00 20.00     0.043 C 
BRANCH   6   8
HETATM    8  C6  UNL     1     -34.639   5.589   5.421  1.00 20.00     0.010 C 
HETATM    9  C2  UNL     1     -34.903   4.189   5.985  1.00 20.00     0.011 C 
HETATM   10  C3  UNL     1     -34.053   6.487   6.517  1.00 20.00     0.011 C 
ENDBRANCH   6   8
ENDBRANCH   4   6
ENDBRANCH   2   4
TORSDOF 3
ENDMDL
MODEL 2
REMARK VINA RESULT:      -4.4      0.833      1.863
REMARK  3 active torsions:
REMARK  status: ('A' for Active; 'I' for Inactive)
REMARK    1  A    between atoms: C5_5  and  N9_9 
REMARK    2  A    between atoms: C6_6  and  C7_7 
REMARK    3  A    between atoms: C7_7  and  N9_9 
ROOT
HETATM    1  C1  UNL     1     -32.249   7.683   2.344  1.00 20.00     0.089 C 
HETATM    2  C5  UNL     1     -32.491   6.418   3.035  1.00 20.00     0.393 C 
HETATM    3  N8  UNL     1     -32.057   8.686   1.792  1.00 20.00    -0.195 NA
ENDROOT
BRANCH   2   4
HETATM    4  N9  UNL     1     -32.535   6.615   4.480  1.00 20.00     0.100 N 
HETATM    5  H23 UNL     1     -32.155   7.538   4.700  1.00 20.00     0.317 HD
BRANCH   4   6
HETATM    6  C7  UNL     1     -33.890   6.515   4.982  1.00 20.00     0.221 C 
HETATM    7  C4  UNL     1     -33.875   6.712   6.497  1.00 20.00     0.043 C 
BRANCH   6   8
HETATM    8  C6  UNL     1     -34.545   5.182   4.552  1.00 20.00     0.010 C 
HETATM    9  C2  UNL     1     -34.850   4.235   5.717  1.00 20.00     0.011 C 
HETATM   10  C3  UNL     1     -35.818   5.427   3.734  1.00 20.00     0.011 C 
ENDBRANCH   6   8
ENDBRANCH   4   6
ENDBRANCH   2   4
TORSDOF 3
ENDMDL
MODEL 3
REMARK VINA RESULT:      -4.0     11.318     12.117
REMARK  3 active torsions:
REMARK  status: ('A' for Active; 'I' for Inactive)
REMARK    1  A    between atoms: C5_5  and  N9_9 
REMARK    2  A    between atoms: C6_6  and  C7_7 
REMARK    3  A    between atoms: C7_7  and  N9_9 
ROOT
HETATM    1  C1  UNL     1     -35.590  13.677  -4.415  1.00 20.00     0.089 C 
HETATM    2  C5  UNL     1     -36.448  14.860  -4.402  1.00 20.00     0.393 C 
HETATM    3  N8  UNL     1     -34.908  12.738  -4.430  1.00 20.00    -0.195 NA
ENDROOT
BRANCH   2   4
HETATM    4  N9  UNL     1     -36.767  15.255  -3.034  1.00 20.00     0.100 N 
HETATM    5  H23 UNL     1     -36.523  14.488  -2.403  1.00 20.00     0.317 HD
BRANCH   4   6
HETATM    6  C7  UNL     1     -36.044  16.450  -2.650  1.00 20.00     0.221 C 
HETATM    7  C4  UNL     1     -35.786  17.296  -3.894  1.00 20.00     0.043 C 
BRANCH   6   8
HETATM    8  C6  UNL     1     -34.752  16.093  -1.881  1.00 20.00     0.010 C 
HETATM    9  C2  UNL     1     -33.469  16.296  -2.695  1.00 20.00     0.011 C 
HETATM   10  C3  UNL     1     -34.656  16.869  -0.562  1.00 20.00     0.011 C 
ENDBRANCH   6   8
ENDBRANCH   4   6
ENDBRANCH   2   4
TORSDOF 3
ENDMDL
MODEL 4
REMARK VINA RESULT:      -4.0     10.924     12.341
REMARK  3 active torsions:
REMARK  status: ('A' for Active; 'I' for Inactive)
REMARK    1  A    between atoms: C5_5  and  N9_9 
REMARK    2  A    between atoms: C6_6  and  C7_7 
REMARK    3  A    between atoms: C7_7  and  N9_9 
ROOT
HETATM    1  C1  UNL     1     -34.053  13.355  -4.099  1.00 20.00     0.089 C 
HETATM    2  C5  UNL     1     -32.865  14.006  -3.552  1.00 20.00     0.393 C 
HETATM    3  N8  UNL     1     -34.997  12.835  -4.531  1.00 20.00    -0.195 NA
ENDROOT
BRANCH   2   4
HETATM    4  N9  UNL     1     -32.653  15.309  -4.176  1.00 20.00     0.100 N 
HETATM    5  H23 UNL     1     -32.549  15.180  -5.184  1.00 20.00     0.317 HD
BRANCH   4   6
HETATM    6  C7  UNL     1     -33.762  16.204  -3.912  1.00 20.00     0.221 C 
HETATM    7  C4  UNL     1     -33.826  17.256  -5.017  1.00 20.00     0.043 C 
BRANCH   6   8
HETATM    8  C6  UNL     1     -33.654  16.818  -2.497  1.00 20.00     0.010 C 
HETATM    9  C2  UNL     1     -33.700  18.349  -2.480  1.00 20.00     0.011 C 
HETATM   10  C3  UNL     1     -34.733  16.256  -1.563  1.00 20.00     0.011 C 
ENDBRANCH   6   8
ENDBRANCH   4   6
ENDBRANCH   2   4
TORSDOF 3
ENDMDL
MODEL 5
REMARK VINA RESULT:      -3.9     11.260     12.381
REMARK  3 active torsions:
REMARK  status: ('A' for Active; 'I' for Inactive)
REMARK    1  A    between atoms: C5_5  and  N9_9 
REMARK    2  A    between atoms: C6_6  and  C7_7 
REMARK    3  A    between atoms: C7_7  and  N9_9 
ROOT
HETATM    1  C1  UNL     1     -37.576  15.352  -3.569  1.00 20.00     0.089 C 
HETATM    2  C5  UNL     1     -37.089  16.698  -3.272  1.00 20.00     0.393 C 
HETATM    3  N8  UNL     1     -37.965  14.284  -3.804  1.00 20.00    -0.195 NA
ENDROOT
BRANCH   2   4
HETATM    4  N9  UNL     1     -35.636  16.762  -3.385  1.00 20.00     0.100 N 
HETATM    5  H23 UNL     1     -35.326  17.706  -3.145  1.00 20.00     0.317 HD
BRANCH   4   6
HETATM    6  C7  UNL     1     -34.999  15.803  -2.504  1.00 20.00     0.221 C 
HETATM    7  C4  UNL     1     -34.597  16.508  -1.210  1.00 20.00     0.043 C 
BRANCH   6   8
HETATM    8  C6  UNL     1     -33.811  15.107  -3.208  1.00 20.00     0.010 C 
HETATM    9  C2  UNL     1     -34.152  13.730  -3.786  1.00 20.00     0.011 C 
HETATM   10  C3  UNL     1     -33.216  15.997  -4.306  1.00 20.00     0.011 C 
ENDBRANCH   6   8
ENDBRANCH   4   6
ENDBRANCH   2   4
TORSDOF 3
ENDMDL
MODEL 6
REMARK VINA RESULT:      -3.8     11.023     13.378
REMARK  3 active torsions:
REMARK  status: ('A' for Active; 'I' for Inactive)
REMARK    1  A    between atoms: C5_5  and  N9_9 
REMARK    2  A    between atoms: C6_6  and  C7_7 
REMARK    3  A    between atoms: C7_7  and  N9_9 
ROOT
HETATM    1  C1  UNL     1     -34.143  13.772  -3.941  1.00 20.00     0.089 C 
HETATM    2  C5  UNL     1     -33.329  14.938  -3.604  1.00 20.00     0.393 C 
HETATM    3  N8  UNL     1     -34.790  12.845  -4.204  1.00 20.00    -0.195 NA
ENDROOT
BRANCH   2   4
HETATM    4  N9  UNL     1     -32.773  15.548  -4.807  1.00 20.00     0.100 N 
HETATM    5  H23 UNL     1     -32.971  14.944  -5.607  1.00 20.00     0.317 HD
BRANCH   4   6
HETATM    6  C7  UNL     1     -33.339  16.862  -5.039  1.00 20.00     0.221 C 
HETATM    7  C4  UNL     1     -33.852  17.423  -3.714  1.00 20.00     0.043 C 
BRANCH   6   8
HETATM    8  C6  UNL     1     -34.427  16.811  -6.137  1.00 20.00     0.010 C 
HETATM    9  C2  UNL     1     -34.298  15.614  -7.084  1.00 20.00     0.011 C 
HETATM   10  C3  UNL     1     -35.833  16.841  -5.528  1.00 20.00     0.011 C 
ENDBRANCH   6   8
ENDBRANCH   4   6
ENDBRANCH   2   4
TORSDOF 3
ENDMDL
MODEL 7
REMARK VINA RESULT:      -3.7     11.173     12.647
REMARK  3 active torsions:
REMARK  status: ('A' for Active; 'I' for Inactive)
REMARK    1  A    between atoms: C5_5  and  N9_9 
REMARK    2  A    between atoms: C6_6  and  C7_7 
REMARK    3  A    between atoms: C7_7  and  N9_9 
ROOT
HETATM    1  C1  UNL     1     -35.583  13.629  -4.181  1.00 20.00     0.089 C 
HETATM    2  C5  UNL     1     -36.573  14.694  -4.024  1.00 20.00     0.393 C 
HETATM    3  N8  UNL     1     -34.800  12.782  -4.309  1.00 20.00    -0.195 NA
ENDROOT
BRANCH   2   4
HETATM    4  N9  UNL     1     -36.311  15.473  -2.819  1.00 20.00     0.100 N 
HETATM    5  H23 UNL     1     -36.472  14.882  -2.001  1.00 20.00     0.317 HD
BRANCH   4   6
HETATM    6  C7  UNL     1     -34.948  15.967  -2.799  1.00 20.00     0.221 C 
HETATM    7  C4  UNL     1     -34.586  16.370  -1.371  1.00 20.00     0.043 C 
BRANCH   6   8
HETATM    8  C6  UNL     1     -34.760  17.115  -3.818  1.00 20.00     0.010 C 
HETATM    9  C2  UNL     1     -34.707  18.507  -3.181  1.00 20.00     0.011 C 
HETATM   10  C3  UNL     1     -33.515  16.892  -4.683  1.00 20.00     0.011 C 
ENDBRANCH   6   8
ENDBRANCH   4   6
ENDBRANCH   2   4
TORSDOF 3
ENDMDL
MODEL 8
REMARK VINA RESULT:      -3.7     11.629     12.403
REMARK  3 active torsions:
REMARK  status: ('A' for Active; 'I' for Inactive)
REMARK    1  A    between atoms: C5_5  and  N9_9 
REMARK    2  A    between atoms: C6_6  and  C7_7 
REMARK    3  A    between atoms: C7_7  and  N9_9 
ROOT
HETATM    1  C1  UNL     1     -37.279  14.655  -3.876  1.00 20.00     0.089 C 
HETATM    2  C5  UNL     1     -35.871  15.044  -3.928  1.00 20.00     0.393 C 
HETATM    3  N8  UNL     1     -38.396  14.343  -3.837  1.00 20.00    -0.195 NA
ENDROOT
BRANCH   2   4
HETATM    4  N9  UNL     1     -35.523  15.889  -2.791  1.00 20.00     0.100 N 
HETATM    5  H23 UNL     1     -35.563  15.329  -1.937  1.00 20.00     0.317 HD
BRANCH   4   6
HETATM    6  C7  UNL     1     -34.195  16.451  -2.941  1.00 20.00     0.221 C 
HETATM    7  C4  UNL     1     -33.252  15.366  -3.456  1.00 20.00     0.043 C 
BRANCH   6   8
HETATM    8  C6  UNL     1     -33.714  17.095  -1.621  1.00 20.00     0.010 C 
HETATM    9  C2  UNL     1     -33.474  18.606  -1.719  1.00 20.00     0.011 C 
HETATM   10  C3  UNL     1     -34.682  16.797  -0.471  1.00 20.00     0.011 C 
ENDBRANCH   6   8
ENDBRANCH   4   6
ENDBRANCH   2   4
TORSDOF 3
ENDMDL
MODEL 9
REMARK VINA RESULT:      -3.7     11.338     12.586
REMARK  3 active torsions:
REMARK  status: ('A' for Active; 'I' for Inactive)
REMARK    1  A    between atoms: C5_5  and  N9_9 
REMARK    2  A    between atoms: C6_6  and  C7_7 
REMARK    3  A    between atoms: C7_7  and  N9_9 
ROOT
HETATM    1  C1  UNL     1     -34.311  15.491  -6.774  1.00 20.00     0.089 C 
HETATM    2  C5  UNL     1     -33.873  16.338  -5.667  1.00 20.00     0.393 C 
HETATM    3  N8  UNL     1     -34.662  14.820  -7.655  1.00 20.00    -0.195 NA
ENDROOT
BRANCH   2   4
HETATM    4  N9  UNL     1     -32.734  15.741  -4.976  1.00 20.00     0.100 N 
HETATM    5  H23 UNL     1     -31.991  16.439  -4.899  1.00 20.00     0.317 HD
BRANCH   4   6
HETATM    6  C7  UNL     1     -33.106  15.279  -3.653  1.00 20.00     0.221 C 
HETATM    7  C4  UNL     1     -33.441  13.791  -3.723  1.00 20.00     0.043 C 
BRANCH   6   8
HETATM    8  C6  UNL     1     -34.256  16.133  -3.071  1.00 20.00     0.010 C 
HETATM    9  C2  UNL     1     -35.554  15.352  -2.842  1.00 20.00     0.011 C 
HETATM   10  C3  UNL     1     -33.831  16.826  -1.771  1.00 20.00     0.011 C 
ENDBRANCH   6   8
ENDBRANCH   4   6
ENDBRANCH   2   4
TORSDOF 3
ENDMDL
