MODEL 1
REMARK VINA RESULT:      -4.0      0.000      0.000
REMARK  1 active torsions:
REMARK  status: ('A' for Active; 'I' for Inactive)
REMARK    1  A    between atoms: C1_1  and  C5_5 
ROOT
HETATM    1  C2  UNL     1     -35.056   4.818   5.757  1.00 20.00     0.193 C 
HETATM    2  C3  UNL     1     -34.307   6.062   6.208  1.00 20.00     0.195 C 
HETATM    3  C4  UNL     1     -34.500   5.291   3.522  1.00 20.00     0.206 C 
HETATM    4  C5  UNL     1     -33.746   6.531   3.976  1.00 20.00     0.206 C 
HETATM    5  O7  UNL     1     -35.564   5.015   4.435  1.00 20.00    -0.386 OA
HETATM    6  O8  UNL     1     -33.241   6.339   5.296  1.00 20.00    -0.375 OA
ENDROOT
BRANCH   4   7
HETATM    7  C1  UNL     1     -32.541   6.771   3.131  1.00 20.00     0.265 C 
HETATM    8  O6  UNL     1     -32.379   7.783   2.456  1.00 20.00    -0.304 OA
ENDBRANCH   4   7
TORSDOF 1
ENDMDL
MODEL 2
REMARK VINA RESULT:      -3.6     11.287     12.156
REMARK  1 active torsions:
REMARK  status: ('A' for Active; 'I' for Inactive)
REMARK    1  A    between atoms: C1_1  and  C5_5 
ROOT
HETATM    1  C2  UNL     1     -33.011  14.540  -3.807  1.00 20.00     0.193 C 
HETATM    2  C3  UNL     1     -33.806  15.641  -3.123  1.00 20.00     0.195 C 
HETATM    3  C4  UNL     1     -35.004  13.373  -4.250  1.00 20.00     0.206 C 
HETATM    4  C5  UNL     1     -35.797  14.479  -3.571  1.00 20.00     0.206 C 
HETATM    5  O7  UNL     1     -33.699  13.294  -3.672  1.00 20.00    -0.386 OA
HETATM    6  O8  UNL     1     -35.111  15.722  -3.702  1.00 20.00    -0.375 OA
ENDROOT
BRANCH   4   7
HETATM    7  C1  UNL     1     -37.113  14.690  -4.240  1.00 20.00     0.265 C 
HETATM    8  O6  UNL     1     -38.170  14.239  -3.810  1.00 20.00    -0.304 OA
ENDBRANCH   4   7
TORSDOF 1
ENDMDL
MODEL 3
REMARK VINA RESULT:      -3.5     11.449     12.710
REMARK  1 active torsions:
REMARK  status: ('A' for Active; 'I' for Inactive)
REMARK    1  A    between atoms: C1_1  and  C5_5 
ROOT
HETATM    1  C2  UNL     1     -33.645  17.351  -3.653  1.00 20.00     0.193 C 
HETATM    2  C3  UNL     1     -33.837  16.462  -2.434  1.00 20.00     0.195 C 
HETATM    3  C4  UNL     1     -33.870  15.478  -5.057  1.00 20.00     0.206 C 
HETATM    4  C5  UNL     1     -34.068  14.592  -3.837  1.00 20.00     0.206 C 
HETATM    5  O7  UNL     1     -33.050  16.596  -4.711  1.00 20.00    -0.386 OA
HETATM    6  O8  UNL     1     -34.659  15.344  -2.779  1.00 20.00    -0.375 OA
ENDROOT
BRANCH   4   7
HETATM    7  C1  UNL     1     -35.035  13.492  -4.118  1.00 20.00     0.265 C 
HETATM    8  O6  UNL     1     -34.776  12.532  -4.837  1.00 20.00    -0.304 OA
ENDBRANCH   4   7
TORSDOF 1
ENDMDL
MODEL 4
REMARK VINA RESULT:      -3.4     11.540     13.498
REMARK  1 active torsions:
REMARK  status: ('A' for Active; 'I' for Inactive)
REMARK    1  A    between atoms: C1_1  and  C5_5 
ROOT
HETATM    1  C2  UNL     1     -33.490  17.434  -5.324  1.00 20.00     0.193 C 
HETATM    2  C3  UNL     1     -34.595  16.647  -6.013  1.00 20.00     0.195 C 
HETATM    3  C4  UNL     1     -33.238  15.704  -3.750  1.00 20.00     0.206 C 
HETATM    4  C5  UNL     1     -34.338  14.918  -4.444  1.00 20.00     0.206 C 
HETATM    5  O7  UNL     1     -33.460  17.105  -3.933  1.00 20.00    -0.386 OA
HETATM    6  O8  UNL     1     -34.373  15.247  -5.832  1.00 20.00    -0.375 OA
ENDROOT
BRANCH   4   7
HETATM    7  C1  UNL     1     -34.066  13.452  -4.400  1.00 20.00     0.265 C 
HETATM    8  O6  UNL     1     -34.939  12.599  -4.523  1.00 20.00    -0.304 OA
ENDBRANCH   4   7
TORSDOF 1
ENDMDL
MODEL 5
REMARK VINA RESULT:      -3.3      1.061      1.830
REMARK  1 active torsions:
REMARK  status: ('A' for Active; 'I' for Inactive)
REMARK    1  A    between atoms: C1_1  and  C5_5 
ROOT
HETATM    1  C2  UNL     1     -35.289   4.823   6.136  1.00 20.00     0.193 C 
HETATM    2  C3  UNL     1     -35.002   4.164   4.796  1.00 20.00     0.195 C 
HETATM    3  C4  UNL     1     -33.755   6.532   5.625  1.00 20.00     0.206 C 
HETATM    4  C5  UNL     1     -33.476   5.873   4.283  1.00 20.00     0.206 C 
HETATM    5  O7  UNL     1     -34.131   5.536   6.579  1.00 20.00    -0.386 OA
HETATM    6  O8  UNL     1     -34.628   5.159   3.840  1.00 20.00    -0.375 OA
ENDROOT
BRANCH   4   7
HETATM    7  C1  UNL     1     -33.220   6.891   3.224  1.00 20.00     0.265 C 
HETATM    8  O6  UNL     1     -32.096   7.210   2.849  1.00 20.00    -0.304 OA
ENDBRANCH   4   7
TORSDOF 1
ENDMDL
MODEL 6
REMARK VINA RESULT:      -3.3     11.722     12.160
REMARK  1 active torsions:
REMARK  status: ('A' for Active; 'I' for Inactive)
REMARK    1  A    between atoms: C1_1  and  C5_5 
ROOT
HETATM    1  C2  UNL     1     -34.801  16.302  -1.765  1.00 20.00     0.193 C 
HETATM    2  C3  UNL     1     -33.608  16.037  -2.669  1.00 20.00     0.195 C 
HETATM    3  C4  UNL     1     -36.218  15.261  -3.328  1.00 20.00     0.206 C 
HETATM    4  C5  UNL     1     -35.021  14.992  -4.227  1.00 20.00     0.206 C 
HETATM    5  O7  UNL     1     -35.983  16.442  -2.557  1.00 20.00    -0.386 OA
HETATM    6  O8  UNL     1     -33.840  14.855  -3.439  1.00 20.00    -0.375 OA
ENDROOT
BRANCH   4   7
HETATM    7  C1  UNL     1     -35.164  13.691  -4.942  1.00 20.00     0.265 C 
HETATM    8  O6  UNL     1     -34.949  12.604  -4.416  1.00 20.00    -0.304 OA
ENDBRANCH   4   7
TORSDOF 1
ENDMDL
MODEL 7
REMARK VINA RESULT:      -3.3     11.581     12.943
REMARK  1 active torsions:
REMARK  status: ('A' for Active; 'I' for Inactive)
REMARK    1  A    between atoms: C1_1  and  C5_5 
ROOT
HETATM    1  C2  UNL     1     -38.643  15.347  -5.329  1.00 20.00     0.193 C 
HETATM    2  C3  UNL     1     -38.525  14.824  -3.907  1.00 20.00     0.195 C 
HETATM    3  C4  UNL     1     -36.300  15.312  -5.537  1.00 20.00     0.206 C 
HETATM    4  C5  UNL     1     -36.187  14.783  -4.116  1.00 20.00     0.206 C 
HETATM    5  O7  UNL     1     -37.480  16.110  -5.659  1.00 20.00    -0.386 OA
HETATM    6  O8  UNL     1     -37.347  14.023  -3.784  1.00 20.00    -0.375 OA
ENDROOT
BRANCH   4   7
HETATM    7  C1  UNL     1     -35.048  13.829  -3.984  1.00 20.00     0.265 C 
HETATM    8  O6  UNL     1     -35.093  12.665  -4.369  1.00 20.00    -0.304 OA
ENDBRANCH   4   7
TORSDOF 1
ENDMDL
MODEL 8
REMARK VINA RESULT:      -3.3     11.671     13.544
REMARK  1 active torsions:
REMARK  status: ('A' for Active; 'I' for Inactive)
REMARK    1  A    between atoms: C1_1  and  C5_5 
ROOT
HETATM    1  C2  UNL     1     -34.201  17.008  -6.277  1.00 20.00     0.193 C 
HETATM    2  C3  UNL     1     -33.551  16.978  -4.903  1.00 20.00     0.195 C 
HETATM    3  C4  UNL     1     -34.584  14.690  -6.148  1.00 20.00     0.206 C 
HETATM    4  C5  UNL     1     -33.938  14.665  -4.772  1.00 20.00     0.206 C 
HETATM    5  O7  UNL     1     -34.015  15.747  -6.925  1.00 20.00    -0.386 OA
HETATM    6  O8  UNL     1     -34.120  15.923  -4.124  1.00 20.00    -0.375 OA
ENDROOT
BRANCH   4   7
HETATM    7  C1  UNL     1     -34.603  13.671  -3.881  1.00 20.00     0.265 C 
HETATM    8  O6  UNL     1     -35.121  12.637  -4.290  1.00 20.00    -0.304 OA
ENDBRANCH   4   7
TORSDOF 1
ENDMDL
MODEL 9
REMARK VINA RESULT:      -3.3     11.312     12.897
REMARK  1 active torsions:
REMARK  status: ('A' for Active; 'I' for Inactive)
REMARK    1  A    between atoms: C1_1  and  C5_5 
ROOT
HETATM    1  C2  UNL     1     -33.091  14.145  -3.602  1.00 20.00     0.193 C 
HETATM    2  C3  UNL     1     -33.430  15.503  -4.197  1.00 20.00     0.195 C 
HETATM    3  C4  UNL     1     -34.738  13.142  -4.948  1.00 20.00     0.206 C 
HETATM    4  C5  UNL     1     -35.070  14.500  -5.546  1.00 20.00     0.206 C 
HETATM    5  O7  UNL     1     -34.252  13.311  -3.614  1.00 20.00    -0.386 OA
HETATM    6  O8  UNL     1     -33.914  15.336  -5.532  1.00 20.00    -0.375 OA
ENDROOT
BRANCH   4   7
HETATM    7  C1  UNL     1     -35.445  14.381  -6.984  1.00 20.00     0.265 C 
HETATM    8  O6  UNL     1     -34.745  14.796  -7.902  1.00 20.00    -0.304 OA
ENDBRANCH   4   7
TORSDOF 1
ENDMDL
