MODEL 1
REMARK VINA RESULT:      -3.0      0.000      0.000
REMARK  1 active torsions:
REMARK  status: ('A' for Active; 'I' for Inactive)
REMARK    1  A    between atoms: C4_4  and  S6_6 
ROOT
HETATM    1  C1  UNL     1     -34.625   5.505   3.516  1.00 20.00     0.026 C 
HETATM    2  C2  UNL     1     -35.218   4.623   4.603  1.00 20.00     0.075 C 
HETATM    3  C3  UNL     1     -33.453   6.481   5.421  1.00 20.00     0.088 C 
HETATM    4  C4  UNL     1     -33.248   5.926   4.018  1.00 20.00     0.054 C 
HETATM    5  S5  UNL     1     -34.704   5.391   6.165  1.00 20.00    -0.168 SA
ENDROOT
BRANCH   4   6
HETATM    6  S6  UNL     1     -32.494   7.167   2.928  1.00 20.00    -0.177 SA
HETATM    7  H14 UNL     1     -32.979   8.227   3.586  1.00 20.00     0.102 HD
ENDBRANCH   4   6
TORSDOF 1
ENDMDL
MODEL 2
REMARK VINA RESULT:      -2.8      0.988      1.795
REMARK  1 active torsions:
REMARK  status: ('A' for Active; 'I' for Inactive)
REMARK    1  A    between atoms: C4_4  and  S6_6 
ROOT
HETATM    1  C1  UNL     1     -33.433   6.371   5.524  1.00 20.00     0.026 C 
HETATM    2  C2  UNL     1     -34.596   5.714   6.250  1.00 20.00     0.075 C 
HETATM    3  C3  UNL     1     -34.345   5.118   3.640  1.00 20.00     0.088 C 
HETATM    4  C4  UNL     1     -33.862   6.497   4.067  1.00 20.00     0.054 C 
HETATM    5  S5  UNL     1     -35.239   4.478   5.087  1.00 20.00    -0.168 SA
ENDROOT
BRANCH   4   6
HETATM    6  S6  UNL     1     -32.493   7.065   3.017  1.00 20.00    -0.177 SA
HETATM    7  H14 UNL     1     -32.762   8.370   3.152  1.00 20.00     0.102 HD
ENDBRANCH   4   6
TORSDOF 1
ENDMDL
MODEL 3
REMARK VINA RESULT:      -2.6     11.745     12.661
REMARK  1 active torsions:
REMARK  status: ('A' for Active; 'I' for Inactive)
REMARK    1  A    between atoms: C4_4  and  S6_6 
ROOT
HETATM    1  C1  UNL     1     -34.176  13.914  -3.557  1.00 20.00     0.026 C 
HETATM    2  C2  UNL     1     -34.571  13.194  -4.837  1.00 20.00     0.075 C 
HETATM    3  C3  UNL     1     -35.126  15.824  -4.742  1.00 20.00     0.088 C 
HETATM    4  C4  UNL     1     -35.146  15.080  -3.413  1.00 20.00     0.054 C 
HETATM    5  S5  UNL     1     -35.028  14.512  -5.997  1.00 20.00    -0.168 SA
ENDROOT
BRANCH   4   6
HETATM    6  S6  UNL     1     -34.670  16.176  -2.044  1.00 20.00    -0.177 SA
HETATM    7  H14 UNL     1     -34.957  15.300  -1.074  1.00 20.00     0.102 HD
ENDBRANCH   4   6
TORSDOF 1
ENDMDL
MODEL 4
REMARK VINA RESULT:      -2.5     12.290     13.234
REMARK  1 active torsions:
REMARK  status: ('A' for Active; 'I' for Inactive)
REMARK    1  A    between atoms: C4_4  and  S6_6 
ROOT
HETATM    1  C1  UNL     1     -34.784  13.565  -4.945  1.00 20.00     0.026 C 
HETATM    2  C2  UNL     1     -33.673  13.683  -3.913  1.00 20.00     0.075 C 
HETATM    3  C3  UNL     1     -34.185  15.895  -5.356  1.00 20.00     0.088 C 
HETATM    4  C4  UNL     1     -34.444  14.562  -6.047  1.00 20.00     0.054 C 
HETATM    5  S5  UNL     1     -33.288  15.455  -3.838  1.00 20.00    -0.168 SA
ENDROOT
BRANCH   4   6
HETATM    6  S6  UNL     1     -35.792  14.703  -7.256  1.00 20.00    -0.177 SA
HETATM    7  H14 UNL     1     -35.039  14.408  -8.322  1.00 20.00     0.102 HD
ENDBRANCH   4   6
TORSDOF 1
ENDMDL
MODEL 5
REMARK VINA RESULT:      -2.5      9.512     10.177
REMARK  1 active torsions:
REMARK  status: ('A' for Active; 'I' for Inactive)
REMARK    1  A    between atoms: C4_4  and  S6_6 
ROOT
HETATM    1  C1  UNL     1     -41.162   7.187  -1.116  1.00 20.00     0.026 C 
HETATM    2  C2  UNL     1     -40.766   6.036  -0.205  1.00 20.00     0.075 C 
HETATM    3  C3  UNL     1     -42.120   5.369  -2.432  1.00 20.00     0.088 C 
HETATM    4  C4  UNL     1     -42.426   6.738  -1.839  1.00 20.00     0.054 C 
HETATM    5  S5  UNL     1     -41.122   4.535  -1.162  1.00 20.00    -0.168 SA
ENDROOT
BRANCH   4   6
HETATM    6  S6  UNL     1     -42.907   7.918  -3.134  1.00 20.00    -0.177 SA
HETATM    7  H14 UNL     1     -41.700   7.971  -3.712  1.00 20.00     0.102 HD
ENDBRANCH   4   6
TORSDOF 1
ENDMDL
MODEL 6
REMARK VINA RESULT:      -2.5     12.273     13.197
REMARK  1 active torsions:
REMARK  status: ('A' for Active; 'I' for Inactive)
REMARK    1  A    between atoms: C4_4  and  S6_6 
ROOT
HETATM    1  C1  UNL     1     -33.421  15.253  -3.696  1.00 20.00     0.026 C 
HETATM    2  C2  UNL     1     -34.066  13.898  -3.448  1.00 20.00     0.075 C 
HETATM    3  C3  UNL     1     -34.547  15.014  -5.848  1.00 20.00     0.088 C 
HETATM    4  C4  UNL     1     -34.326  15.975  -4.687  1.00 20.00     0.054 C 
HETATM    5  S5  UNL     1     -34.714  13.383  -5.063  1.00 20.00    -0.168 SA
ENDROOT
BRANCH   4   6
HETATM    6  S6  UNL     1     -33.578  17.529  -5.260  1.00 20.00    -0.177 SA
HETATM    7  H14 UNL     1     -34.650  18.289  -5.001  1.00 20.00     0.102 HD
ENDBRANCH   4   6
TORSDOF 1
ENDMDL
MODEL 7
REMARK VINA RESULT:      -2.5      9.384     10.055
REMARK  1 active torsions:
REMARK  status: ('A' for Active; 'I' for Inactive)
REMARK    1  A    between atoms: C4_4  and  S6_6 
ROOT
HETATM    1  C1  UNL     1     -40.730   4.600  -1.114  1.00 20.00     0.026 C 
HETATM    2  C2  UNL     1     -41.013   5.733  -0.140  1.00 20.00     0.075 C 
HETATM    3  C3  UNL     1     -43.119   4.203  -0.816  1.00 20.00     0.088 C 
HETATM    4  C4  UNL     1     -42.031   4.359  -1.870  1.00 20.00     0.054 C 
HETATM    5  S5  UNL     1     -42.699   5.429   0.458  1.00 20.00    -0.168 SA
ENDROOT
BRANCH   4   6
HETATM    6  S6  UNL     1     -41.925   2.882  -2.923  1.00 20.00    -0.177 SA
HETATM    7  H14 UNL     1     -42.341   2.025  -1.983  1.00 20.00     0.102 HD
ENDBRANCH   4   6
TORSDOF 1
ENDMDL
MODEL 8
REMARK VINA RESULT:      -2.5     12.676     13.512
REMARK  1 active torsions:
REMARK  status: ('A' for Active; 'I' for Inactive)
REMARK    1  A    between atoms: C4_4  and  S6_6 
ROOT
HETATM    1  C1  UNL     1     -34.746  15.568  -5.717  1.00 20.00     0.026 C 
HETATM    2  C2  UNL     1     -34.577  14.071  -5.508  1.00 20.00     0.075 C 
HETATM    3  C3  UNL     1     -33.310  15.660  -3.746  1.00 20.00     0.088 C 
HETATM    4  C4  UNL     1     -33.488  16.218  -5.152  1.00 20.00     0.054 C 
HETATM    5  S5  UNL     1     -33.779  13.909  -3.887  1.00 20.00    -0.168 SA
ENDROOT
BRANCH   4   6
HETATM    6  S6  UNL     1     -33.629  18.029  -5.124  1.00 20.00    -0.177 SA
HETATM    7  H14 UNL     1     -32.939  18.193  -3.989  1.00 20.00     0.102 HD
ENDBRANCH   4   6
TORSDOF 1
ENDMDL
MODEL 9
REMARK VINA RESULT:      -2.5     12.247     13.228
REMARK  1 active torsions:
REMARK  status: ('A' for Active; 'I' for Inactive)
REMARK    1  A    between atoms: C4_4  and  S6_6 
ROOT
HETATM    1  C1  UNL     1     -33.692  17.060  -3.814  1.00 20.00     0.026 C 
HETATM    2  C2  UNL     1     -33.330  16.341  -5.104  1.00 20.00     0.075 C 
HETATM    3  C3  UNL     1     -34.854  14.961  -3.371  1.00 20.00     0.088 C 
HETATM    4  C4  UNL     1     -33.889  15.971  -2.765  1.00 20.00     0.054 C 
HETATM    5  S5  UNL     1     -34.362  14.849  -5.117  1.00 20.00    -0.168 SA
ENDROOT
BRANCH   4   6
HETATM    6  S6  UNL     1     -34.544  16.652  -1.214  1.00 20.00    -0.177 SA
HETATM    7  H14 UNL     1     -35.804  16.251  -1.420  1.00 20.00     0.102 HD
ENDBRANCH   4   6
TORSDOF 1
ENDMDL
