MODEL 1
REMARK VINA RESULT:      -4.0      0.000      0.000
REMARK  4 active torsions:
REMARK  status: ('A' for Active; 'I' for Inactive)
REMARK    1  A    between atoms: C2_2  and  C5_5 
REMARK    2  A    between atoms: C5_5  and  S9_9 
REMARK    3  A    between atoms: C6_6  and  C7_7 
REMARK    4  A    between atoms: C6_6  and  S9_9 
ROOT
HETATM    1  S9  UNL     1     -32.477   5.944   3.147  1.00 20.00    -0.166 SA
ENDROOT
BRANCH   1   2
HETATM    2  C5  UNL     1     -31.986   7.679   3.017  1.00 20.00     0.108 C 
BRANCH   2   3
HETATM    3  C2  UNL     1     -32.502   8.283   1.725  1.00 20.00     0.154 A 
HETATM    4  C1  UNL     1     -32.306   9.740   1.414  1.00 20.00     0.201 A 
HETATM    5  O8  UNL     1     -31.479   8.723   0.825  1.00 20.00    -0.380 OA
ENDBRANCH   2   3
ENDBRANCH   1   2
BRANCH   1   6
HETATM    6  C6  UNL     1     -34.012   6.180   4.096  1.00 20.00     0.077 C 
BRANCH   6   7
HETATM    7  C7  UNL     1     -33.986   5.634   5.534  1.00 20.00    -0.013 C 
HETATM    8  C3  UNL     1     -33.981   6.743   6.588  1.00 20.00     0.010 C 
HETATM    9  C4  UNL     1     -35.114   4.637   5.808  1.00 20.00     0.010 C 
ENDBRANCH   6   7
ENDBRANCH   1   6
TORSDOF 4
ENDMDL
MODEL 2
REMARK VINA RESULT:      -3.9      0.396      1.246
REMARK  4 active torsions:
REMARK  status: ('A' for Active; 'I' for Inactive)
REMARK    1  A    between atoms: C2_2  and  C5_5 
REMARK    2  A    between atoms: C5_5  and  S9_9 
REMARK    3  A    between atoms: C6_6  and  C7_7 
REMARK    4  A    between atoms: C6_6  and  S9_9 
ROOT
HETATM    1  S9  UNL     1     -32.580   5.882   3.388  1.00 20.00    -0.166 SA
ENDROOT
BRANCH   1   2
HETATM    2  C5  UNL     1     -31.965   7.564   3.149  1.00 20.00     0.108 C 
BRANCH   2   3
HETATM    3  C2  UNL     1     -32.467   8.134   1.836  1.00 20.00     0.154 A 
HETATM    4  C1  UNL     1     -32.389   9.606   1.545  1.00 20.00     0.201 A 
HETATM    5  O8  UNL     1     -31.445   8.674   0.993  1.00 20.00    -0.380 OA
ENDBRANCH   2   3
ENDBRANCH   1   2
BRANCH   1   6
HETATM    6  C6  UNL     1     -34.283   6.297   3.879  1.00 20.00     0.077 C 
BRANCH   6   7
HETATM    7  C7  UNL     1     -34.679   5.872   5.303  1.00 20.00    -0.013 C 
HETATM    8  C3  UNL     1     -34.692   4.353   5.486  1.00 20.00     0.010 C 
HETATM    9  C4  UNL     1     -33.818   6.535   6.380  1.00 20.00     0.010 C 
ENDBRANCH   6   7
ENDBRANCH   1   6
TORSDOF 4
ENDMDL
MODEL 3
REMARK VINA RESULT:      -3.7     10.690     11.197
REMARK  4 active torsions:
REMARK  status: ('A' for Active; 'I' for Inactive)
REMARK    1  A    between atoms: C2_2  and  C5_5 
REMARK    2  A    between atoms: C5_5  and  S9_9 
REMARK    3  A    between atoms: C6_6  and  C7_7 
REMARK    4  A    between atoms: C6_6  and  S9_9 
ROOT
HETATM    1  S9  UNL     1     -33.939  16.397  -2.991  1.00 20.00    -0.166 SA
ENDROOT
BRANCH   1   2
HETATM    2  C5  UNL     1     -33.811  14.619  -3.289  1.00 20.00     0.108 C 
BRANCH   2   3
HETATM    3  C2  UNL     1     -35.045  14.110  -4.009  1.00 20.00     0.154 A 
HETATM    4  C1  UNL     1     -34.981  13.663  -5.442  1.00 20.00     0.201 A 
HETATM    5  O8  UNL     1     -35.000  12.722  -4.356  1.00 20.00    -0.380 OA
ENDBRANCH   2   3
ENDBRANCH   1   2
BRANCH   1   6
HETATM    6  C6  UNL     1     -34.667  16.329  -1.325  1.00 20.00     0.077 C 
BRANCH   6   7
HETATM    7  C7  UNL     1     -34.572  17.632  -0.512  1.00 20.00    -0.013 C 
HETATM    8  C3  UNL     1     -35.141  17.490   0.901  1.00 20.00     0.010 C 
HETATM    9  C4  UNL     1     -33.152  18.199  -0.465  1.00 20.00     0.010 C 
ENDBRANCH   6   7
ENDBRANCH   1   6
TORSDOF 4
ENDMDL
MODEL 4
REMARK VINA RESULT:      -3.7     10.712     11.263
REMARK  4 active torsions:
REMARK  status: ('A' for Active; 'I' for Inactive)
REMARK    1  A    between atoms: C2_2  and  C5_5 
REMARK    2  A    between atoms: C5_5  and  S9_9 
REMARK    3  A    between atoms: C6_6  and  C7_7 
REMARK    4  A    between atoms: C6_6  and  S9_9 
ROOT
HETATM    1  S9  UNL     1     -34.366  16.992  -3.486  1.00 20.00    -0.166 SA
ENDROOT
BRANCH   1   2
HETATM    2  C5  UNL     1     -33.450  15.531  -4.028  1.00 20.00     0.108 C 
BRANCH   2   3
HETATM    3  C2  UNL     1     -34.116  14.267  -3.520  1.00 20.00     0.154 A 
HETATM    4  C1  UNL     1     -34.834  13.335  -4.454  1.00 20.00     0.201 A 
HETATM    5  O8  UNL     1     -33.510  13.053  -3.973  1.00 20.00    -0.380 OA
ENDBRANCH   2   3
ENDBRANCH   1   2
BRANCH   1   6
HETATM    6  C6  UNL     1     -34.864  16.390  -1.843  1.00 20.00     0.077 C 
BRANCH   6   7
HETATM    7  C7  UNL     1     -34.166  17.071  -0.653  1.00 20.00    -0.013 C 
HETATM    8  C3  UNL     1     -33.384  18.321  -1.061  1.00 20.00     0.010 C 
HETATM    9  C4  UNL     1     -35.127  17.389   0.495  1.00 20.00     0.010 C 
ENDBRANCH   6   7
ENDBRANCH   1   6
TORSDOF 4
ENDMDL
MODEL 5
REMARK VINA RESULT:      -3.6     10.876     11.578
REMARK  4 active torsions:
REMARK  status: ('A' for Active; 'I' for Inactive)
REMARK    1  A    between atoms: C2_2  and  C5_5 
REMARK    2  A    between atoms: C5_5  and  S9_9 
REMARK    3  A    between atoms: C6_6  and  C7_7 
REMARK    4  A    between atoms: C6_6  and  S9_9 
ROOT
HETATM    1  S9  UNL     1     -36.712  16.303  -4.185  1.00 20.00    -0.166 SA
ENDROOT
BRANCH   1   2
HETATM    2  C5  UNL     1     -36.377  14.570  -3.798  1.00 20.00     0.108 C 
BRANCH   2   3
HETATM    3  C2  UNL     1     -35.344  14.002  -4.753  1.00 20.00     0.154 A 
HETATM    4  C1  UNL     1     -33.979  13.595  -4.271  1.00 20.00     0.201 A 
HETATM    5  O8  UNL     1     -35.013  12.629  -4.522  1.00 20.00    -0.380 OA
ENDBRANCH   2   3
ENDBRANCH   1   2
BRANCH   1   6
HETATM    6  C6  UNL     1     -36.214  17.026  -2.591  1.00 20.00     0.077 C 
BRANCH   6   7
HETATM    7  C7  UNL     1     -34.888  16.498  -2.015  1.00 20.00    -0.013 C 
HETATM    8  C3  UNL     1     -33.670  16.952  -2.822  1.00 20.00     0.010 C 
HETATM    9  C4  UNL     1     -34.709  16.838  -0.534  1.00 20.00     0.010 C 
ENDBRANCH   6   7
ENDBRANCH   1   6
TORSDOF 4
ENDMDL
MODEL 6
REMARK VINA RESULT:      -3.5     10.924     11.920
REMARK  4 active torsions:
REMARK  status: ('A' for Active; 'I' for Inactive)
REMARK    1  A    between atoms: C2_2  and  C5_5 
REMARK    2  A    between atoms: C5_5  and  S9_9 
REMARK    3  A    between atoms: C6_6  and  C7_7 
REMARK    4  A    between atoms: C6_6  and  S9_9 
ROOT
HETATM    1  S9  UNL     1     -34.749  14.135  -5.299  1.00 20.00    -0.166 SA
ENDROOT
BRANCH   1   2
HETATM    2  C5  UNL     1     -36.433  14.792  -5.296  1.00 20.00     0.108 C 
BRANCH   2   3
HETATM    3  C2  UNL     1     -37.027  14.727  -3.902  1.00 20.00     0.154 A 
HETATM    4  C1  UNL     1     -38.231  15.546  -3.530  1.00 20.00     0.201 A 
HETATM    5  O8  UNL     1     -38.333  14.147  -3.840  1.00 20.00    -0.380 OA
ENDBRANCH   2   3
ENDBRANCH   1   2
BRANCH   1   6
HETATM    6  C6  UNL     1     -34.399  14.311  -3.522  1.00 20.00     0.077 C 
BRANCH   6   7
HETATM    7  C7  UNL     1     -33.564  15.544  -3.135  1.00 20.00    -0.013 C 
HETATM    8  C3  UNL     1     -33.260  16.451  -4.329  1.00 20.00     0.010 C 
HETATM    9  C4  UNL     1     -34.189  16.348  -1.993  1.00 20.00     0.010 C 
ENDBRANCH   6   7
ENDBRANCH   1   6
TORSDOF 4
ENDMDL
MODEL 7
REMARK VINA RESULT:      -3.5     11.098     12.383
REMARK  4 active torsions:
REMARK  status: ('A' for Active; 'I' for Inactive)
REMARK    1  A    between atoms: C2_2  and  C5_5 
REMARK    2  A    between atoms: C5_5  and  S9_9 
REMARK    3  A    between atoms: C6_6  and  C7_7 
REMARK    4  A    between atoms: C6_6  and  S9_9 
ROOT
HETATM    1  S9  UNL     1     -34.256  16.374  -6.263  1.00 20.00    -0.166 SA
ENDROOT
BRANCH   1   2
HETATM    2  C5  UNL     1     -34.567  14.596  -6.341  1.00 20.00     0.108 C 
BRANCH   2   3
HETATM    3  C2  UNL     1     -34.353  13.958  -4.981  1.00 20.00     0.154 A 
HETATM    4  C1  UNL     1     -35.515  13.580  -4.107  1.00 20.00     0.201 A 
HETATM    5  O8  UNL     1     -34.802  12.603  -4.883  1.00 20.00    -0.380 OA
ENDBRANCH   2   3
ENDBRANCH   1   2
BRANCH   1   6
HETATM    6  C6  UNL     1     -33.248  16.395  -4.748  1.00 20.00     0.077 C 
BRANCH   6   7
HETATM    7  C7  UNL     1     -33.812  17.244  -3.595  1.00 20.00    -0.013 C 
HETATM    8  C3  UNL     1     -35.200  17.811  -3.901  1.00 20.00     0.010 C 
HETATM    9  C4  UNL     1     -33.819  16.497  -2.259  1.00 20.00     0.010 C 
ENDBRANCH   6   7
ENDBRANCH   1   6
TORSDOF 4
ENDMDL
MODEL 8
REMARK VINA RESULT:      -3.4      2.616      5.422
REMARK  4 active torsions:
REMARK  status: ('A' for Active; 'I' for Inactive)
REMARK    1  A    between atoms: C2_2  and  C5_5 
REMARK    2  A    between atoms: C5_5  and  S9_9 
REMARK    3  A    between atoms: C6_6  and  C7_7 
REMARK    4  A    between atoms: C6_6  and  S9_9 
ROOT
HETATM    1  S9  UNL     1     -32.938   6.159   3.017  1.00 20.00    -0.166 SA
ENDROOT
BRANCH   1   2
HETATM    2  C5  UNL     1     -33.421   6.341   4.749  1.00 20.00     0.108 C 
BRANCH   2   3
HETATM    3  C2  UNL     1     -34.653   5.509   5.049  1.00 20.00     0.154 A 
HETATM    4  C1  UNL     1     -34.554   4.216   5.810  1.00 20.00     0.201 A 
HETATM    5  O8  UNL     1     -34.996   5.432   6.436  1.00 20.00    -0.380 OA
ENDBRANCH   2   3
ENDBRANCH   1   2
BRANCH   1   6
HETATM    6  C6  UNL     1     -32.015   7.717   2.841  1.00 20.00     0.077 C 
BRANCH   6   7
HETATM    7  C7  UNL     1     -32.425   8.592   1.644  1.00 20.00    -0.013 C 
HETATM    8  C3  UNL     1     -32.728  10.037   2.044  1.00 20.00     0.010 C 
HETATM    9  C4  UNL     1     -31.404   8.552   0.504  1.00 20.00     0.010 C 
ENDBRANCH   6   7
ENDBRANCH   1   6
TORSDOF 4
ENDMDL
MODEL 9
REMARK VINA RESULT:      -3.4     11.002     12.251
REMARK  4 active torsions:
REMARK  status: ('A' for Active; 'I' for Inactive)
REMARK    1  A    between atoms: C2_2  and  C5_5 
REMARK    2  A    between atoms: C5_5  and  S9_9 
REMARK    3  A    between atoms: C6_6  and  C7_7 
REMARK    4  A    between atoms: C6_6  and  S9_9 
ROOT
HETATM    1  S9  UNL     1     -35.245  17.102  -4.917  1.00 20.00    -0.166 SA
ENDROOT
BRANCH   1   2
HETATM    2  C5  UNL     1     -36.509  15.845  -5.213  1.00 20.00     0.108 C 
BRANCH   2   3
HETATM    3  C2  UNL     1     -37.188  15.456  -3.913  1.00 20.00     0.154 A 
HETATM    4  C1  UNL     1     -38.583  14.898  -3.900  1.00 20.00     0.201 A 
HETATM    5  O8  UNL     1     -37.428  14.054  -3.765  1.00 20.00    -0.380 OA
ENDBRANCH   2   3
ENDBRANCH   1   2
BRANCH   1   6
HETATM    6  C6  UNL     1     -33.777  16.043  -5.103  1.00 20.00     0.077 C 
BRANCH   6   7
HETATM    7  C7  UNL     1     -33.284  15.370  -3.810  1.00 20.00    -0.013 C 
HETATM    8  C3  UNL     1     -33.772  16.083  -2.548  1.00 20.00     0.010 C 
HETATM    9  C4  UNL     1     -33.625  13.879  -3.752  1.00 20.00     0.010 C 
ENDBRANCH   6   7
ENDBRANCH   1   6
TORSDOF 4
ENDMDL
