MODEL 1
REMARK VINA RESULT:      -4.4      0.000      0.000
REMARK  1 active torsions:
REMARK  status: ('A' for Active; 'I' for Inactive)
REMARK    1  A    between atoms: C1_1  and  C6_6 
ROOT
HETATM    1  C2  UNL     1     -35.481   4.803   4.481  1.00 20.00     0.027 C 
HETATM    2  C3  UNL     1     -34.378   5.229   3.518  1.00 20.00     0.015 C 
HETATM    3  C4  UNL     1     -34.978   4.822   5.918  1.00 20.00     0.167 C 
HETATM    4  C5  UNL     1     -33.343   6.469   5.438  1.00 20.00     0.179 C 
HETATM    5  C6  UNL     1     -33.756   6.542   3.975  1.00 20.00     0.071 C 
HETATM    6  O8  UNL     1     -34.458   6.108   6.255  1.00 20.00    -0.390 OA
ENDROOT
BRANCH   5   7
HETATM    7  C1  UNL     1     -32.516   6.799   3.144  1.00 20.00     0.237 C 
HETATM    8  O7  UNL     1     -32.329   7.833   2.510  1.00 20.00    -0.306 OA
ENDBRANCH   5   7
TORSDOF 1
ENDMDL
MODEL 2
REMARK VINA RESULT:      -4.0      1.127      1.834
REMARK  1 active torsions:
REMARK  status: ('A' for Active; 'I' for Inactive)
REMARK    1  A    between atoms: C1_1  and  C6_6 
ROOT
HETATM    1  C2  UNL     1     -34.175   5.518   6.352  1.00 20.00     0.027 C 
HETATM    2  C3  UNL     1     -33.619   6.576   5.404  1.00 20.00     0.015 C 
HETATM    3  C4  UNL     1     -35.362   4.802   5.722  1.00 20.00     0.167 C 
HETATM    4  C5  UNL     1     -34.591   5.231   3.522  1.00 20.00     0.179 C 
HETATM    5  C6  UNL     1     -33.362   5.970   4.031  1.00 20.00     0.071 C 
HETATM    6  O8  UNL     1     -35.000   4.235   4.461  1.00 20.00    -0.390 OA
ENDROOT
BRANCH   5   7
HETATM    7  C1  UNL     1     -33.050   7.094   3.063  1.00 20.00     0.237 C 
HETATM    8  O7  UNL     1     -31.928   7.567   2.915  1.00 20.00    -0.306 OA
ENDBRANCH   5   7
TORSDOF 1
ENDMDL
MODEL 3
REMARK VINA RESULT:      -3.8     11.385     12.250
REMARK  1 active torsions:
REMARK  status: ('A' for Active; 'I' for Inactive)
REMARK    1  A    between atoms: C1_1  and  C6_6 
ROOT
HETATM    1  C2  UNL     1     -33.329  15.231  -3.537  1.00 20.00     0.027 C 
HETATM    2  C3  UNL     1     -34.778  15.558  -3.188  1.00 20.00     0.015 C 
HETATM    3  C4  UNL     1     -33.127  13.726  -3.644  1.00 20.00     0.167 C 
HETATM    4  C5  UNL     1     -35.397  13.353  -4.213  1.00 20.00     0.179 C 
HETATM    5  C6  UNL     1     -35.725  14.838  -4.139  1.00 20.00     0.071 C 
HETATM    6  O8  UNL     1     -34.034  13.160  -4.592  1.00 20.00    -0.390 OA
ENDROOT
BRANCH   5   7
HETATM    7  C1  UNL     1     -37.137  14.986  -3.611  1.00 20.00     0.237 C 
HETATM    8  O7  UNL     1     -38.017  14.150  -3.791  1.00 20.00    -0.306 OA
ENDBRANCH   5   7
TORSDOF 1
ENDMDL
MODEL 4
REMARK VINA RESULT:      -3.8     11.566     12.341
REMARK  1 active torsions:
REMARK  status: ('A' for Active; 'I' for Inactive)
REMARK    1  A    between atoms: C1_1  and  C6_6 
ROOT
HETATM    1  C2  UNL     1     -33.482  13.700  -3.745  1.00 20.00     0.027 C 
HETATM    2  C3  UNL     1     -34.944  13.713  -4.180  1.00 20.00     0.015 C 
HETATM    3  C4  UNL     1     -32.903  15.109  -3.763  1.00 20.00     0.167 C 
HETATM    4  C5  UNL     1     -35.027  16.103  -3.419  1.00 20.00     0.179 C 
HETATM    5  C6  UNL     1     -35.723  14.750  -3.382  1.00 20.00     0.071 C 
HETATM    6  O8  UNL     1     -33.682  15.987  -2.950  1.00 20.00    -0.390 OA
ENDROOT
BRANCH   5   7
HETATM    7  C1  UNL     1     -37.094  14.905  -4.008  1.00 20.00     0.237 C 
HETATM    8  O7  UNL     1     -38.045  14.177  -3.741  1.00 20.00    -0.306 OA
ENDBRANCH   5   7
TORSDOF 1
ENDMDL
MODEL 5
REMARK VINA RESULT:      -3.7     11.600     12.337
REMARK  1 active torsions:
REMARK  status: ('A' for Active; 'I' for Inactive)
REMARK    1  A    between atoms: C1_1  and  C6_6 
ROOT
HETATM    1  C2  UNL     1     -33.844  16.615  -2.288  1.00 20.00     0.027 C 
HETATM    2  C3  UNL     1     -33.401  15.497  -3.227  1.00 20.00     0.015 C 
HETATM    3  C4  UNL     1     -35.214  17.144  -2.690  1.00 20.00     0.167 C 
HETATM    4  C5  UNL     1     -35.832  15.090  -3.697  1.00 20.00     0.179 C 
HETATM    5  C6  UNL     1     -34.497  14.446  -3.350  1.00 20.00     0.071 C 
HETATM    6  O8  UNL     1     -36.173  16.086  -2.732  1.00 20.00    -0.390 OA
ENDROOT
BRANCH   5   7
HETATM    7  C1  UNL     1     -34.125  13.495  -4.469  1.00 20.00     0.237 C 
HETATM    8  O7  UNL     1     -34.832  12.557  -4.822  1.00 20.00    -0.306 OA
ENDBRANCH   5   7
TORSDOF 1
ENDMDL
MODEL 6
REMARK VINA RESULT:      -3.7     11.512     12.916
REMARK  1 active torsions:
REMARK  status: ('A' for Active; 'I' for Inactive)
REMARK    1  A    between atoms: C1_1  and  C6_6 
ROOT
HETATM    1  C2  UNL     1     -33.323  16.768  -5.082  1.00 20.00     0.027 C 
HETATM    2  C3  UNL     1     -34.097  15.466  -5.261  1.00 20.00     0.015 C 
HETATM    3  C4  UNL     1     -33.780  17.498  -3.826  1.00 20.00     0.167 C 
HETATM    4  C5  UNL     1     -34.474  15.488  -2.780  1.00 20.00     0.179 C 
HETATM    5  C6  UNL     1     -34.055  14.647  -3.977  1.00 20.00     0.071 C 
HETATM    6  O8  UNL     1     -33.658  16.656  -2.679  1.00 20.00    -0.390 OA
ENDROOT
BRANCH   5   7
HETATM    7  C1  UNL     1     -35.030  13.495  -4.112  1.00 20.00     0.237 C 
HETATM    8  O7  UNL     1     -34.818  12.509  -4.810  1.00 20.00    -0.306 OA
ENDBRANCH   5   7
TORSDOF 1
ENDMDL
MODEL 7
REMARK VINA RESULT:      -3.6     11.639     12.034
REMARK  1 active torsions:
REMARK  status: ('A' for Active; 'I' for Inactive)
REMARK    1  A    between atoms: C1_1  and  C6_6 
ROOT
HETATM    1  C2  UNL     1     -35.942  13.895  -4.197  1.00 20.00     0.027 C 
HETATM    2  C3  UNL     1     -35.567  15.264  -3.639  1.00 20.00     0.015 C 
HETATM    3  C4  UNL     1     -34.765  13.276  -4.940  1.00 20.00     0.167 C 
HETATM    4  C5  UNL     1     -33.181  14.489  -3.661  1.00 20.00     0.179 C 
HETATM    5  C6  UNL     1     -34.269  15.174  -2.847  1.00 20.00     0.071 C 
HETATM    6  O8  UNL     1     -33.617  13.199  -4.094  1.00 20.00    -0.390 OA
ENDROOT
BRANCH   5   7
HETATM    7  C1  UNL     1     -33.805  16.580  -2.526  1.00 20.00     0.237 C 
HETATM    8  O7  UNL     1     -33.724  17.020  -1.383  1.00 20.00    -0.306 OA
ENDBRANCH   5   7
TORSDOF 1
ENDMDL
MODEL 8
REMARK VINA RESULT:      -3.6     11.583     12.707
REMARK  1 active torsions:
REMARK  status: ('A' for Active; 'I' for Inactive)
REMARK    1  A    between atoms: C1_1  and  C6_6 
ROOT
HETATM    1  C2  UNL     1     -34.855  16.220  -2.137  1.00 20.00     0.027 C 
HETATM    2  C3  UNL     1     -34.872  14.875  -2.856  1.00 20.00     0.015 C 
HETATM    3  C4  UNL     1     -33.634  17.034  -2.544  1.00 20.00     0.167 C 
HETATM    4  C5  UNL     1     -33.479  15.949  -4.646  1.00 20.00     0.179 C 
HETATM    5  C6  UNL     1     -34.692  15.077  -4.355  1.00 20.00     0.071 C 
HETATM    6  O8  UNL     1     -33.586  17.199  -3.962  1.00 20.00    -0.390 OA
ENDROOT
BRANCH   5   7
HETATM    7  C1  UNL     1     -34.466  13.723  -4.997  1.00 20.00     0.237 C 
HETATM    8  O7  UNL     1     -34.913  12.676  -4.539  1.00 20.00    -0.306 OA
ENDBRANCH   5   7
TORSDOF 1
ENDMDL
MODEL 9
REMARK VINA RESULT:      -3.5     11.483     12.742
REMARK  1 active torsions:
REMARK  status: ('A' for Active; 'I' for Inactive)
REMARK    1  A    between atoms: C1_1  and  C6_6 
ROOT
HETATM    1  C2  UNL     1     -34.511  13.260  -4.768  1.00 20.00     0.027 C 
HETATM    2  C3  UNL     1     -34.438  14.082  -3.485  1.00 20.00     0.015 C 
HETATM    3  C4  UNL     1     -34.972  14.124  -5.934  1.00 20.00     0.167 C 
HETATM    4  C5  UNL     1     -34.139  16.105  -4.937  1.00 20.00     0.179 C 
HETATM    5  C6  UNL     1     -33.631  15.352  -3.717  1.00 20.00     0.071 C 
HETATM    6  O8  UNL     1     -34.122  15.261  -6.089  1.00 20.00    -0.390 OA
ENDROOT
BRANCH   5   7
HETATM    7  C1  UNL     1     -33.790  16.248  -2.506  1.00 20.00     0.237 C 
HETATM    8  O7  UNL     1     -34.603  16.037  -1.611  1.00 20.00    -0.306 OA
ENDBRANCH   5   7
TORSDOF 1
ENDMDL
