MODEL 1
REMARK VINA RESULT:      -4.2      0.000      0.000
REMARK  3 active torsions:
REMARK  status: ('A' for Active; 'I' for Inactive)
REMARK    1  A    between atoms: C5_5  and  O9_9 
REMARK    2  A    between atoms: C6_6  and  C7_7 
REMARK    3  A    between atoms: C7_7  and  O9_9 
ROOT
HETATM    1  C1  UNL     1     -32.534   7.073   2.805  1.00 20.00     0.085 C 
HETATM    2  C5  UNL     1     -33.468   5.980   3.073  1.00 20.00     0.292 C 
HETATM    3  N8  UNL     1     -31.794   7.941   2.592  1.00 20.00    -0.195 NA
ENDROOT
BRANCH   2   4
HETATM    4  O9  UNL     1     -33.286   5.482   4.388  1.00 20.00    -0.367 OA
BRANCH   4   5
HETATM    5  C7  UNL     1     -34.538   5.178   5.006  1.00 20.00     0.054 C 
HETATM    6  C3  UNL     1     -35.642   5.596   4.032  1.00 20.00     0.045 C 
HETATM    7  C4  UNL     1     -34.597   3.664   5.233  1.00 20.00     0.045 C 
BRANCH   5   8
HETATM    8  C6  UNL     1     -34.637   5.916   6.355  1.00 20.00     0.033 C 
HETATM    9  C2  UNL     1     -33.582   6.997   6.564  1.00 20.00     0.008 C 
ENDBRANCH   5   8
ENDBRANCH   4   5
ENDBRANCH   2   4
TORSDOF 3
ENDMDL
MODEL 2
REMARK VINA RESULT:      -3.8      1.082      2.048
REMARK  3 active torsions:
REMARK  status: ('A' for Active; 'I' for Inactive)
REMARK    1  A    between atoms: C5_5  and  O9_9 
REMARK    2  A    between atoms: C6_6  and  C7_7 
REMARK    3  A    between atoms: C7_7  and  O9_9 
ROOT
HETATM    1  C1  UNL     1     -32.225   7.509   2.549  1.00 20.00     0.085 C 
HETATM    2  C5  UNL     1     -32.485   6.479   3.554  1.00 20.00     0.292 C 
HETATM    3  N8  UNL     1     -32.019   8.327   1.752  1.00 20.00    -0.195 NA
ENDROOT
BRANCH   2   4
HETATM    4  O9  UNL     1     -33.543   5.633   3.136  1.00 20.00    -0.367 OA
BRANCH   4   5
HETATM    5  C7  UNL     1     -34.576   5.568   4.122  1.00 20.00     0.054 C 
HETATM    6  C3  UNL     1     -34.177   6.504   5.264  1.00 20.00     0.045 C 
HETATM    7  C4  UNL     1     -35.875   6.062   3.479  1.00 20.00     0.045 C 
BRANCH   5   8
HETATM    8  C6  UNL     1     -34.744   4.109   4.591  1.00 20.00     0.033 C 
HETATM    9  C2  UNL     1     -34.816   3.935   6.104  1.00 20.00     0.008 C 
ENDBRANCH   5   8
ENDBRANCH   4   5
ENDBRANCH   2   4
TORSDOF 3
ENDMDL
MODEL 3
REMARK VINA RESULT:      -3.8     12.144     12.919
REMARK  3 active torsions:
REMARK  status: ('A' for Active; 'I' for Inactive)
REMARK    1  A    between atoms: C5_5  and  O9_9 
REMARK    2  A    between atoms: C6_6  and  C7_7 
REMARK    3  A    between atoms: C7_7  and  O9_9 
ROOT
HETATM    1  C1  UNL     1     -37.319  14.500  -4.027  1.00 20.00     0.085 C 
HETATM    2  C5  UNL     1     -35.896  14.562  -4.357  1.00 20.00     0.292 C 
HETATM    3  N8  UNL     1     -38.449  14.449  -3.766  1.00 20.00    -0.195 NA
ENDROOT
BRANCH   2   4
HETATM    4  O9  UNL     1     -35.354  15.819  -3.984  1.00 20.00    -0.367 OA
BRANCH   4   5
HETATM    5  C7  UNL     1     -33.950  15.725  -3.734  1.00 20.00     0.054 C 
HETATM    6  C3  UNL     1     -33.593  14.238  -3.682  1.00 20.00     0.045 C 
HETATM    7  C4  UNL     1     -33.217  16.391  -4.903  1.00 20.00     0.045 C 
BRANCH   5   8
HETATM    8  C6  UNL     1     -33.615  16.455  -2.419  1.00 20.00     0.033 C 
HETATM    9  C2  UNL     1     -34.710  16.388  -1.361  1.00 20.00     0.008 C 
ENDBRANCH   5   8
ENDBRANCH   4   5
ENDBRANCH   2   4
TORSDOF 3
ENDMDL
MODEL 4
REMARK VINA RESULT:      -3.8     11.965     12.929
REMARK  3 active torsions:
REMARK  status: ('A' for Active; 'I' for Inactive)
REMARK    1  A    between atoms: C5_5  and  O9_9 
REMARK    2  A    between atoms: C6_6  and  C7_7 
REMARK    3  A    between atoms: C7_7  and  O9_9 
ROOT
HETATM    1  C1  UNL     1     -37.652  15.023  -3.647  1.00 20.00     0.085 C 
HETATM    2  C5  UNL     1     -36.552  15.939  -3.350  1.00 20.00     0.292 C 
HETATM    3  N8  UNL     1     -38.526  14.296  -3.882  1.00 20.00    -0.195 NA
ENDROOT
BRANCH   2   4
HETATM    4  O9  UNL     1     -35.503  15.776  -4.289  1.00 20.00    -0.367 OA
BRANCH   4   5
HETATM    5  C7  UNL     1     -34.271  15.453  -3.641  1.00 20.00     0.054 C 
HETATM    6  C3  UNL     1     -33.147  16.120  -4.436  1.00 20.00     0.045 C 
HETATM    7  C4  UNL     1     -34.316  16.035  -2.224  1.00 20.00     0.045 C 
BRANCH   5   8
HETATM    8  C6  UNL     1     -34.113  13.921  -3.575  1.00 20.00     0.033 C 
HETATM    9  C2  UNL     1     -34.589  13.182  -4.821  1.00 20.00     0.008 C 
ENDBRANCH   5   8
ENDBRANCH   4   5
ENDBRANCH   2   4
TORSDOF 3
ENDMDL
MODEL 5
REMARK VINA RESULT:      -3.7     11.913     12.968
REMARK  3 active torsions:
REMARK  status: ('A' for Active; 'I' for Inactive)
REMARK    1  A    between atoms: C5_5  and  O9_9 
REMARK    2  A    between atoms: C6_6  and  C7_7 
REMARK    3  A    between atoms: C7_7  and  O9_9 
ROOT
HETATM    1  C1  UNL     1     -34.183  13.636  -4.219  1.00 20.00     0.085 C 
HETATM    2  C5  UNL     1     -33.388  14.774  -3.757  1.00 20.00     0.292 C 
HETATM    3  N8  UNL     1     -34.812  12.733  -4.585  1.00 20.00    -0.195 NA
ENDROOT
BRANCH   2   4
HETATM    4  O9  UNL     1     -33.812  15.967  -4.395  1.00 20.00    -0.367 OA
BRANCH   4   5
HETATM    5  C7  UNL     1     -34.284  16.925  -3.445  1.00 20.00     0.054 C 
HETATM    6  C3  UNL     1     -33.869  18.309  -3.947  1.00 20.00     0.045 C 
HETATM    7  C4  UNL     1     -35.812  16.830  -3.398  1.00 20.00     0.045 C 
BRANCH   5   8
HETATM    8  C6  UNL     1     -33.694  16.603  -2.058  1.00 20.00     0.033 C 
HETATM    9  C2  UNL     1     -34.703  16.647  -0.916  1.00 20.00     0.008 C 
ENDBRANCH   5   8
ENDBRANCH   4   5
ENDBRANCH   2   4
TORSDOF 3
ENDMDL
MODEL 6
REMARK VINA RESULT:      -3.6      1.598      2.204
REMARK  3 active torsions:
REMARK  status: ('A' for Active; 'I' for Inactive)
REMARK    1  A    between atoms: C5_5  and  O9_9 
REMARK    2  A    between atoms: C6_6  and  C7_7 
REMARK    3  A    between atoms: C7_7  and  O9_9 
ROOT
HETATM    1  C1  UNL     1     -32.267   8.863   1.750  1.00 20.00     0.085 C 
HETATM    2  C5  UNL     1     -32.215   7.690   2.622  1.00 20.00     0.292 C 
HETATM    3  N8  UNL     1     -32.306   9.793   1.058  1.00 20.00    -0.195 NA
ENDROOT
BRANCH   2   4
HETATM    4  O9  UNL     1     -33.479   7.462   3.223  1.00 20.00    -0.367 OA
BRANCH   4   5
HETATM    5  C7  UNL     1     -33.551   6.157   3.800  1.00 20.00     0.054 C 
HETATM    6  C3  UNL     1     -34.740   5.438   3.158  1.00 20.00     0.045 C 
HETATM    7  C4  UNL     1     -32.255   5.417   3.458  1.00 20.00     0.045 C 
BRANCH   5   8
HETATM    8  C6  UNL     1     -33.699   6.281   5.329  1.00 20.00     0.033 C 
HETATM    9  C2  UNL     1     -34.640   5.260   5.960  1.00 20.00     0.008 C 
ENDBRANCH   5   8
ENDBRANCH   4   5
ENDBRANCH   2   4
TORSDOF 3
ENDMDL
MODEL 7
REMARK VINA RESULT:      -3.6     12.167     13.192
REMARK  3 active torsions:
REMARK  status: ('A' for Active; 'I' for Inactive)
REMARK    1  A    between atoms: C5_5  and  O9_9 
REMARK    2  A    between atoms: C6_6  and  C7_7 
REMARK    3  A    between atoms: C7_7  and  O9_9 
ROOT
HETATM    1  C1  UNL     1     -37.503  14.951  -3.788  1.00 20.00     0.085 C 
HETATM    2  C5  UNL     1     -36.272  15.741  -3.806  1.00 20.00     0.292 C 
HETATM    3  N8  UNL     1     -38.480  14.325  -3.774  1.00 20.00    -0.195 NA
ENDROOT
BRANCH   2   4
HETATM    4  O9  UNL     1     -35.187  14.981  -3.299  1.00 20.00    -0.367 OA
BRANCH   4   5
HETATM    5  C7  UNL     1     -34.210  14.732  -4.311  1.00 20.00     0.054 C 
HETATM    6  C3  UNL     1     -32.833  14.923  -3.675  1.00 20.00     0.045 C 
HETATM    7  C4  UNL     1     -34.368  13.280  -4.773  1.00 20.00     0.045 C 
BRANCH   5   8
HETATM    8  C6  UNL     1     -34.446  15.689  -5.497  1.00 20.00     0.033 C 
HETATM    9  C2  UNL     1     -34.355  15.032  -6.869  1.00 20.00     0.008 C 
ENDBRANCH   5   8
ENDBRANCH   4   5
ENDBRANCH   2   4
TORSDOF 3
ENDMDL
MODEL 8
REMARK VINA RESULT:      -3.5     11.840     12.783
REMARK  3 active torsions:
REMARK  status: ('A' for Active; 'I' for Inactive)
REMARK    1  A    between atoms: C5_5  and  O9_9 
REMARK    2  A    between atoms: C6_6  and  C7_7 
REMARK    3  A    between atoms: C7_7  and  O9_9 
ROOT
HETATM    1  C1  UNL     1     -34.448  16.477  -1.386  1.00 20.00     0.085 C 
HETATM    2  C5  UNL     1     -34.052  16.088  -2.739  1.00 20.00     0.292 C 
HETATM    3  N8  UNL     1     -34.762  16.787  -0.313  1.00 20.00    -0.195 NA
ENDROOT
BRANCH   2   4
HETATM    4  O9  UNL     1     -34.373  14.727  -2.977  1.00 20.00    -0.367 OA
BRANCH   4   5
HETATM    5  C7  UNL     1     -35.061  14.567  -4.219  1.00 20.00     0.054 C 
HETATM    6  C3  UNL     1     -34.706  13.182  -4.763  1.00 20.00     0.045 C 
HETATM    7  C4  UNL     1     -36.565  14.641  -3.939  1.00 20.00     0.045 C 
BRANCH   5   8
HETATM    8  C6  UNL     1     -34.649  15.698  -5.183  1.00 20.00     0.033 C 
HETATM    9  C2  UNL     1     -34.331  15.237  -6.601  1.00 20.00     0.008 C 
ENDBRANCH   5   8
ENDBRANCH   4   5
ENDBRANCH   2   4
TORSDOF 3
ENDMDL
MODEL 9
REMARK VINA RESULT:      -3.5     11.697     12.906
REMARK  3 active torsions:
REMARK  status: ('A' for Active; 'I' for Inactive)
REMARK    1  A    between atoms: C5_5  and  O9_9 
REMARK    2  A    between atoms: C6_6  and  C7_7 
REMARK    3  A    between atoms: C7_7  and  O9_9 
ROOT
HETATM    1  C1  UNL     1     -34.475  16.777  -0.926  1.00 20.00     0.085 C 
HETATM    2  C5  UNL     1     -33.923  16.431  -2.235  1.00 20.00     0.292 C 
HETATM    3  N8  UNL     1     -34.911  17.052   0.114  1.00 20.00    -0.195 NA
ENDROOT
BRANCH   2   4
HETATM    4  O9  UNL     1     -34.741  15.468  -2.880  1.00 20.00    -0.367 OA
BRANCH   4   5
HETATM    5  C7  UNL     1     -34.141  15.005  -4.091  1.00 20.00     0.054 C 
HETATM    6  C3  UNL     1     -33.141  16.071  -4.543  1.00 20.00     0.045 C 
HETATM    7  C4  UNL     1     -33.399  13.701  -3.782  1.00 20.00     0.045 C 
BRANCH   5   8
HETATM    8  C6  UNL     1     -35.239  14.749  -5.141  1.00 20.00     0.033 C 
HETATM    9  C2  UNL     1     -34.737  14.676  -6.578  1.00 20.00     0.008 C 
ENDBRANCH   5   8
ENDBRANCH   4   5
ENDBRANCH   2   4
TORSDOF 3
ENDMDL
