MODEL 1
REMARK VINA RESULT:      -3.7      0.000      0.000
REMARK  3 active torsions:
REMARK  status: ('A' for Active; 'I' for Inactive)
REMARK    1  A    between atoms: C5_5  and  C6_6 
REMARK    2  A    between atoms: C5_5  and  C7_7 
REMARK    3  A    between atoms: C7_7  and  O8_8 
ROOT
HETATM    1  C2  UNL     1     -36.356  15.192  -5.520  1.00 20.00     0.045 C 
HETATM    2  C3  UNL     1     -35.203  13.465  -4.117  1.00 20.00     0.045 C 
HETATM    3  C7  UNL     1     -36.272  14.561  -4.125  1.00 20.00     0.054 C 
ENDROOT
BRANCH   3   4
HETATM    4  C5  UNL     1     -35.998  15.669  -3.081  1.00 20.00     0.057 C 
BRANCH   4   5
HETATM    5  C6  UNL     1     -34.570  15.769  -2.509  1.00 20.00     0.081 C 
HETATM    6  C1  UNL     1     -34.578  16.499  -1.169  1.00 20.00     0.026 C 
HETATM    7 CL9  UNL     1     -33.463  16.632  -3.615  1.00 20.00    -0.125 Cl
ENDBRANCH   4   5
ENDBRANCH   3   4
BRANCH   3   8
HETATM    8  O8  UNL     1     -37.539  13.960  -3.857  1.00 20.00    -0.386 OA
HETATM    9  C4  UNL     1     -38.574  14.931  -3.837  1.00 20.00     0.202 C 
ENDBRANCH   3   8
TORSDOF 3
ENDMDL
MODEL 2
REMARK VINA RESULT:      -3.7      2.207      2.509
REMARK  3 active torsions:
REMARK  status: ('A' for Active; 'I' for Inactive)
REMARK    1  A    between atoms: C5_5  and  C6_6 
REMARK    2  A    between atoms: C5_5  and  C7_7 
REMARK    3  A    between atoms: C7_7  and  O8_8 
ROOT
HETATM    1  C2  UNL     1     -34.299  15.288  -5.104  1.00 20.00     0.045 C 
HETATM    2  C3  UNL     1     -32.418  14.777  -3.529  1.00 20.00     0.045 C 
HETATM    3  C7  UNL     1     -33.936  14.742  -3.718  1.00 20.00     0.054 C 
ENDROOT
BRANCH   3   4
HETATM    4  C5  UNL     1     -34.690  15.555  -2.638  1.00 20.00     0.057 C 
BRANCH   4   5
HETATM    5  C6  UNL     1     -33.893  16.629  -1.872  1.00 20.00     0.081 C 
HETATM    6  C1  UNL     1     -34.555  16.933  -0.531  1.00 20.00     0.026 C 
HETATM    7 CL9  UNL     1     -33.762  18.153  -2.796  1.00 20.00    -0.125 Cl
ENDBRANCH   4   5
ENDBRANCH   3   4
BRANCH   3   8
HETATM    8  O8  UNL     1     -34.368  13.382  -3.673  1.00 20.00    -0.386 OA
HETATM    9  C4  UNL     1     -34.832  12.948  -4.943  1.00 20.00     0.202 C 
ENDBRANCH   3   8
TORSDOF 3
ENDMDL
MODEL 3
REMARK VINA RESULT:      -3.6      2.162      2.650
REMARK  3 active torsions:
REMARK  status: ('A' for Active; 'I' for Inactive)
REMARK    1  A    between atoms: C5_5  and  C6_6 
REMARK    2  A    between atoms: C5_5  and  C7_7 
REMARK    3  A    between atoms: C7_7  and  O8_8 
ROOT
HETATM    1  C2  UNL     1     -32.680  14.753  -3.616  1.00 20.00     0.045 C 
HETATM    2  C3  UNL     1     -34.751  13.416  -4.068  1.00 20.00     0.045 C 
HETATM    3  C7  UNL     1     -34.182  14.828  -3.917  1.00 20.00     0.054 C 
ENDROOT
BRANCH   3   4
HETATM    4  C5  UNL     1     -34.885  15.637  -2.801  1.00 20.00     0.057 C 
BRANCH   4   5
HETATM    5  C6  UNL     1     -34.008  16.567  -1.938  1.00 20.00     0.081 C 
HETATM    6  C1  UNL     1     -34.651  16.796  -0.573  1.00 20.00     0.026 C 
HETATM    7 CL9  UNL     1     -33.748  18.155  -2.714  1.00 20.00    -0.125 Cl
ENDBRANCH   4   5
ENDBRANCH   3   4
BRANCH   3   8
HETATM    8  O8  UNL     1     -34.329  15.512  -5.161  1.00 20.00    -0.386 OA
HETATM    9  C4  UNL     1     -34.720  14.622  -6.195  1.00 20.00     0.202 C 
ENDBRANCH   3   8
TORSDOF 3
ENDMDL
MODEL 4
REMARK VINA RESULT:      -3.4     11.306     12.185
REMARK  3 active torsions:
REMARK  status: ('A' for Active; 'I' for Inactive)
REMARK    1  A    between atoms: C5_5  and  C6_6 
REMARK    2  A    between atoms: C5_5  and  C7_7 
REMARK    3  A    between atoms: C7_7  and  O8_8 
ROOT
HETATM    1  C2  UNL     1     -31.297   7.625   4.076  1.00 20.00     0.045 C 
HETATM    2  C3  UNL     1     -32.043   5.532   2.918  1.00 20.00     0.045 C 
HETATM    3  C7  UNL     1     -32.502   6.866   3.509  1.00 20.00     0.054 C 
ENDROOT
BRANCH   3   4
HETATM    4  C5  UNL     1     -33.563   6.692   4.623  1.00 20.00     0.057 C 
BRANCH   4   5
HETATM    5  C6  UNL     1     -34.345   5.364   4.657  1.00 20.00     0.081 C 
HETATM    6  C1  UNL     1     -35.580   5.447   3.764  1.00 20.00     0.026 C 
HETATM    7 CL9  UNL     1     -34.871   4.936   6.310  1.00 20.00    -0.125 Cl
ENDBRANCH   4   5
ENDBRANCH   3   4
BRANCH   3   8
HETATM    8  O8  UNL     1     -33.048   7.664   2.459  1.00 20.00    -0.386 OA
HETATM    9  C4  UNL     1     -32.033   8.396   1.788  1.00 20.00     0.202 C 
ENDBRANCH   3   8
TORSDOF 3
ENDMDL
MODEL 5
REMARK VINA RESULT:      -3.4      2.460      3.498
REMARK  3 active torsions:
REMARK  status: ('A' for Active; 'I' for Inactive)
REMARK    1  A    between atoms: C5_5  and  C6_6 
REMARK    2  A    between atoms: C5_5  and  C7_7 
REMARK    3  A    between atoms: C7_7  and  O8_8 
ROOT
HETATM    1  C2  UNL     1     -32.990  15.048  -3.555  1.00 20.00     0.045 C 
HETATM    2  C3  UNL     1     -34.516  16.104  -1.871  1.00 20.00     0.045 C 
HETATM    3  C7  UNL     1     -34.401  15.595  -3.309  1.00 20.00     0.054 C 
ENDROOT
BRANCH   3   4
HETATM    4  C5  UNL     1     -34.711  16.691  -4.357  1.00 20.00     0.057 C 
BRANCH   4   5
HETATM    5  C6  UNL     1     -33.714  16.865  -5.519  1.00 20.00     0.081 C 
HETATM    6  C1  UNL     1     -33.652  18.325  -5.959  1.00 20.00     0.026 C 
HETATM    7 CL9  UNL     1     -34.151  15.866  -6.935  1.00 20.00    -0.125 Cl
ENDBRANCH   4   5
ENDBRANCH   3   4
BRANCH   3   8
HETATM    8  O8  UNL     1     -35.310  14.508  -3.479  1.00 20.00    -0.386 OA
HETATM    9  C4  UNL     1     -34.712  13.445  -4.207  1.00 20.00     0.202 C 
ENDBRANCH   3   8
TORSDOF 3
ENDMDL
MODEL 6
REMARK VINA RESULT:      -3.4      1.959      3.004
REMARK  3 active torsions:
REMARK  status: ('A' for Active; 'I' for Inactive)
REMARK    1  A    between atoms: C5_5  and  C6_6 
REMARK    2  A    between atoms: C5_5  and  C7_7 
REMARK    3  A    between atoms: C7_7  and  O8_8 
ROOT
HETATM    1  C2  UNL     1     -35.027  13.355  -4.263  1.00 20.00     0.045 C 
HETATM    2  C3  UNL     1     -35.430  15.419  -2.899  1.00 20.00     0.045 C 
HETATM    3  C7  UNL     1     -35.942  14.569  -4.064  1.00 20.00     0.054 C 
ENDROOT
BRANCH   3   4
HETATM    4  C5  UNL     1     -36.030  15.363  -5.389  1.00 20.00     0.057 C 
BRANCH   4   5
HETATM    5  C6  UNL     1     -34.721  15.580  -6.174  1.00 20.00     0.081 C 
HETATM    6  C1  UNL     1     -34.458  17.070  -6.379  1.00 20.00     0.026 C 
HETATM    7 CL9  UNL     1     -34.760  14.789  -7.776  1.00 20.00    -0.125 Cl
ENDBRANCH   4   5
ENDBRANCH   3   4
BRANCH   3   8
HETATM    8  O8  UNL     1     -37.237  14.071  -3.726  1.00 20.00    -0.386 OA
HETATM    9  C4  UNL     1     -38.219  15.092  -3.808  1.00 20.00     0.202 C 
ENDBRANCH   3   8
TORSDOF 3
ENDMDL
MODEL 7
REMARK VINA RESULT:      -3.3      2.244      3.116
REMARK  3 active torsions:
REMARK  status: ('A' for Active; 'I' for Inactive)
REMARK    1  A    between atoms: C5_5  and  C6_6 
REMARK    2  A    between atoms: C5_5  and  C7_7 
REMARK    3  A    between atoms: C7_7  and  O8_8 
ROOT
HETATM    1  C2  UNL     1     -34.277  13.759  -3.639  1.00 20.00     0.045 C 
HETATM    2  C3  UNL     1     -36.421  15.045  -3.466  1.00 20.00     0.045 C 
HETATM    3  C7  UNL     1     -34.900  15.159  -3.587  1.00 20.00     0.054 C 
ENDROOT
BRANCH   3   4
HETATM    4  C5  UNL     1     -34.266  15.955  -2.421  1.00 20.00     0.057 C 
BRANCH   4   5
HETATM    5  C6  UNL     1     -35.160  16.975  -1.689  1.00 20.00     0.081 C 
HETATM    6  C1  UNL     1     -34.960  18.374  -2.265  1.00 20.00     0.026 C 
HETATM    7 CL9  UNL     1     -34.817  17.031   0.064  1.00 20.00    -0.125 Cl
ENDBRANCH   4   5
ENDBRANCH   3   4
BRANCH   3   8
HETATM    8  O8  UNL     1     -34.590  15.804  -4.823  1.00 20.00    -0.386 OA
HETATM    9  C4  UNL     1     -33.250  16.272  -4.838  1.00 20.00     0.202 C 
ENDBRANCH   3   8
TORSDOF 3
ENDMDL
MODEL 8
REMARK VINA RESULT:      -3.3      1.348      1.905
REMARK  3 active torsions:
REMARK  status: ('A' for Active; 'I' for Inactive)
REMARK    1  A    between atoms: C5_5  and  C6_6 
REMARK    2  A    between atoms: C5_5  and  C7_7 
REMARK    3  A    between atoms: C7_7  and  O8_8 
ROOT
HETATM    1  C2  UNL     1     -37.380  16.540  -3.580  1.00 20.00     0.045 C 
HETATM    2  C3  UNL     1     -36.794  15.205  -5.619  1.00 20.00     0.045 C 
HETATM    3  C7  UNL     1     -36.935  15.166  -4.095  1.00 20.00     0.054 C 
ENDROOT
BRANCH   3   4
HETATM    4  C5  UNL     1     -35.623  14.757  -3.385  1.00 20.00     0.057 C 
BRANCH   4   5
HETATM    5  C6  UNL     1     -34.608  15.874  -3.069  1.00 20.00     0.081 C 
HETATM    6  C1  UNL     1     -33.206  15.467  -3.515  1.00 20.00     0.026 C 
HETATM    7 CL9  UNL     1     -34.556  16.260  -1.325  1.00 20.00    -0.125 Cl
ENDBRANCH   4   5
ENDBRANCH   3   4
BRANCH   3   8
HETATM    8  O8  UNL     1     -37.964  14.235  -3.759  1.00 20.00    -0.386 OA
HETATM    9  C4  UNL     1     -39.211  14.624  -4.314  1.00 20.00     0.202 C 
ENDBRANCH   3   8
TORSDOF 3
ENDMDL
MODEL 9
REMARK VINA RESULT:      -3.3     11.799     12.972
REMARK  3 active torsions:
REMARK  status: ('A' for Active; 'I' for Inactive)
REMARK    1  A    between atoms: C5_5  and  C6_6 
REMARK    2  A    between atoms: C5_5  and  C7_7 
REMARK    3  A    between atoms: C7_7  and  O8_8 
ROOT
HETATM    1  C2  UNL     1     -42.716   5.698  -2.925  1.00 20.00     0.045 C 
HETATM    2  C3  UNL     1     -42.826   5.185  -0.474  1.00 20.00     0.045 C 
HETATM    3  C7  UNL     1     -41.935   5.165  -1.718  1.00 20.00     0.054 C 
ENDROOT
BRANCH   3   4
HETATM    4  C5  UNL     1     -41.397   3.751  -2.043  1.00 20.00     0.057 C 
BRANCH   4   5
HETATM    5  C6  UNL     1     -42.186   2.909  -3.065  1.00 20.00     0.081 C 
HETATM    6  C1  UNL     1     -43.217   2.034  -2.358  1.00 20.00     0.026 C 
HETATM    7 CL9  UNL     1     -41.118   1.853  -4.033  1.00 20.00    -0.125 Cl
ENDBRANCH   4   5
ENDBRANCH   3   4
BRANCH   3   8
HETATM    8  O8  UNL     1     -40.836   6.050  -1.502  1.00 20.00    -0.386 OA
HETATM    9  C4  UNL     1     -41.275   7.301  -0.994  1.00 20.00     0.202 C 
ENDBRANCH   3   8
TORSDOF 3
ENDMDL
