MODEL 1
REMARK VINA RESULT:      -3.5      0.000      0.000
REMARK  4 active torsions:
REMARK  status: ('A' for Active; 'I' for Inactive)
REMARK    1  A    between atoms: C5_5  and  C6_6 
REMARK    2  A    between atoms: C5_5  and  C7_7 
REMARK    3  A    between atoms: C6_6  and  S9_9 
REMARK    4  A    between atoms: C7_7  and  O8_8 
ROOT
HETATM    1  C5  UNL     1     -34.972  15.489  -3.071  1.00 20.00     0.051 C 
ENDROOT
BRANCH   1   2
HETATM    2  C6  UNL     1     -34.095  16.404  -2.192  1.00 20.00     0.043 C 
HETATM    3  C1  UNL     1     -34.633  16.636  -0.785  1.00 20.00     0.021 C 
BRANCH   2   4
HETATM    4  S9  UNL     1     -33.943  18.032  -3.026  1.00 20.00    -0.178 SA
HETATM    5  H25 UNL     1     -35.198  18.052  -3.485  1.00 20.00     0.102 HD
ENDBRANCH   2   4
ENDBRANCH   1   2
BRANCH   1   6
HETATM    6  C7  UNL     1     -34.237  14.545  -4.051  1.00 20.00     0.054 C 
HETATM    7  C2  UNL     1     -32.843  14.151  -3.559  1.00 20.00     0.045 C 
HETATM    8  C3  UNL     1     -35.085  13.286  -4.272  1.00 20.00     0.045 C 
BRANCH   6   9
HETATM    9  O8  UNL     1     -34.111  15.195  -5.316  1.00 20.00    -0.386 OA
HETATM   10  C4  UNL     1     -34.854  14.519  -6.318  1.00 20.00     0.202 C 
ENDBRANCH   6   9
ENDBRANCH   1   6
TORSDOF 4
ENDMDL
MODEL 2
REMARK VINA RESULT:      -3.5      2.140      2.660
REMARK  4 active torsions:
REMARK  status: ('A' for Active; 'I' for Inactive)
REMARK    1  A    between atoms: C5_5  and  C6_6 
REMARK    2  A    between atoms: C5_5  and  C7_7 
REMARK    3  A    between atoms: C6_6  and  S9_9 
REMARK    4  A    between atoms: C7_7  and  O8_8 
ROOT
HETATM    1  C5  UNL     1     -36.127  15.816  -3.136  1.00 20.00     0.051 C 
ENDROOT
BRANCH   1   2
HETATM    2  C6  UNL     1     -34.688  15.970  -2.604  1.00 20.00     0.043 C 
HETATM    3  C1  UNL     1     -34.595  16.456  -1.163  1.00 20.00     0.021 C 
BRANCH   2   4
HETATM    4  S9  UNL     1     -33.803  17.170  -3.675  1.00 20.00    -0.178 SA
HETATM    5  H25 UNL     1     -32.893  17.506  -2.755  1.00 20.00     0.102 HD
ENDBRANCH   2   4
ENDBRANCH   1   2
BRANCH   1   6
HETATM    6  C7  UNL     1     -36.380  14.680  -4.155  1.00 20.00     0.054 C 
HETATM    7  C2  UNL     1     -36.467  15.188  -5.596  1.00 20.00     0.045 C 
HETATM    8  C3  UNL     1     -35.261  13.638  -4.039  1.00 20.00     0.045 C 
BRANCH   6   9
HETATM    9  O8  UNL     1     -37.604  14.023  -3.825  1.00 20.00    -0.386 OA
HETATM   10  C4  UNL     1     -38.691  14.934  -3.814  1.00 20.00     0.202 C 
ENDBRANCH   6   9
ENDBRANCH   1   6
TORSDOF 4
ENDMDL
MODEL 3
REMARK VINA RESULT:      -3.5      1.059      1.725
REMARK  4 active torsions:
REMARK  status: ('A' for Active; 'I' for Inactive)
REMARK    1  A    between atoms: C5_5  and  C6_6 
REMARK    2  A    between atoms: C5_5  and  C7_7 
REMARK    3  A    between atoms: C6_6  and  S9_9 
REMARK    4  A    between atoms: C7_7  and  O8_8 
ROOT
HETATM    1  C5  UNL     1     -34.786  15.572  -2.704  1.00 20.00     0.051 C 
ENDROOT
BRANCH   1   2
HETATM    2  C6  UNL     1     -34.013  16.639  -1.902  1.00 20.00     0.043 C 
HETATM    3  C1  UNL     1     -34.558  16.896  -0.502  1.00 20.00     0.021 C 
BRANCH   2   4
HETATM    4  S9  UNL     1     -34.066  18.215  -2.839  1.00 20.00    -0.178 SA
HETATM    5  H25 UNL     1     -33.512  17.717  -3.949  1.00 20.00     0.102 HD
ENDBRANCH   2   4
ENDBRANCH   1   2
BRANCH   1   6
HETATM    6  C7  UNL     1     -33.995  14.800  -3.786  1.00 20.00     0.054 C 
HETATM    7  C2  UNL     1     -34.271  15.313  -5.200  1.00 20.00     0.045 C 
HETATM    8  C3  UNL     1     -32.495  14.897  -3.482  1.00 20.00     0.045 C 
BRANCH   6   9
HETATM    9  O8  UNL     1     -34.348  13.417  -3.722  1.00 20.00    -0.386 OA
HETATM   10  C4  UNL     1     -34.827  12.950  -4.973  1.00 20.00     0.202 C 
ENDBRANCH   6   9
ENDBRANCH   1   6
TORSDOF 4
ENDMDL
MODEL 4
REMARK VINA RESULT:      -3.4      1.291      1.813
REMARK  4 active torsions:
REMARK  status: ('A' for Active; 'I' for Inactive)
REMARK    1  A    between atoms: C5_5  and  C6_6 
REMARK    2  A    between atoms: C5_5  and  C7_7 
REMARK    3  A    between atoms: C6_6  and  S9_9 
REMARK    4  A    between atoms: C7_7  and  O8_8 
ROOT
HETATM    1  C5  UNL     1     -34.867  15.485  -3.214  1.00 20.00     0.051 C 
ENDROOT
BRANCH   1   2
HETATM    2  C6  UNL     1     -34.821  16.792  -2.397  1.00 20.00     0.043 C 
HETATM    3  C1  UNL     1     -34.599  16.597  -0.902  1.00 20.00     0.021 C 
BRANCH   2   4
HETATM    4  S9  UNL     1     -36.412  17.676  -2.633  1.00 20.00    -0.178 SA
HETATM    5  H25 UNL     1     -36.798  17.574  -1.357  1.00 20.00     0.102 HD
ENDBRANCH   2   4
ENDBRANCH   1   2
BRANCH   1   6
HETATM    6  C7  UNL     1     -33.754  15.278  -4.267  1.00 20.00     0.054 C 
HETATM    7  C2  UNL     1     -33.316  16.585  -4.930  1.00 20.00     0.045 C 
HETATM    8  C3  UNL     1     -32.547  14.603  -3.603  1.00 20.00     0.045 C 
BRANCH   6   9
HETATM    9  O8  UNL     1     -34.230  14.387  -5.278  1.00 20.00    -0.386 OA
HETATM   10  C4  UNL     1     -34.792  13.216  -4.708  1.00 20.00     0.202 C 
ENDBRANCH   6   9
ENDBRANCH   1   6
TORSDOF 4
ENDMDL
MODEL 5
REMARK VINA RESULT:      -3.3      2.884      4.339
REMARK  4 active torsions:
REMARK  status: ('A' for Active; 'I' for Inactive)
REMARK    1  A    between atoms: C5_5  and  C6_6 
REMARK    2  A    between atoms: C5_5  and  C7_7 
REMARK    3  A    between atoms: C6_6  and  S9_9 
REMARK    4  A    between atoms: C7_7  and  O8_8 
ROOT
HETATM    1  C5  UNL     1     -35.952  15.405  -5.355  1.00 20.00     0.051 C 
ENDROOT
BRANCH   1   2
HETATM    2  C6  UNL     1     -35.885  14.675  -6.712  1.00 20.00     0.043 C 
HETATM    3  C1  UNL     1     -34.639  14.981  -7.534  1.00 20.00     0.021 C 
BRANCH   2   4
HETATM    4  S9  UNL     1     -37.357  15.154  -7.698  1.00 20.00    -0.178 SA
HETATM    5  H25 UNL     1     -38.242  14.551  -6.898  1.00 20.00     0.102 HD
ENDBRANCH   2   4
ENDBRANCH   1   2
BRANCH   1   6
HETATM    6  C7  UNL     1     -35.925  14.523  -4.084  1.00 20.00     0.054 C 
HETATM    7  C2  UNL     1     -34.997  13.315  -4.222  1.00 20.00     0.045 C 
HETATM    8  C3  UNL     1     -35.491  15.377  -2.886  1.00 20.00     0.045 C 
BRANCH   6   9
HETATM    9  O8  UNL     1     -37.247  14.058  -3.813  1.00 20.00    -0.386 OA
HETATM   10  C4  UNL     1     -38.162  15.137  -3.711  1.00 20.00     0.202 C 
ENDBRANCH   6   9
ENDBRANCH   1   6
TORSDOF 4
ENDMDL
MODEL 6
REMARK VINA RESULT:      -3.2      1.923      3.758
REMARK  4 active torsions:
REMARK  status: ('A' for Active; 'I' for Inactive)
REMARK    1  A    between atoms: C5_5  and  C6_6 
REMARK    2  A    between atoms: C5_5  and  C7_7 
REMARK    3  A    between atoms: C6_6  and  S9_9 
REMARK    4  A    between atoms: C7_7  and  O8_8 
ROOT
HETATM    1  C5  UNL     1     -33.618  15.981  -4.995  1.00 20.00     0.051 C 
ENDROOT
BRANCH   1   2
HETATM    2  C6  UNL     1     -34.656  16.025  -6.134  1.00 20.00     0.043 C 
HETATM    3  C1  UNL     1     -34.462  14.961  -7.208  1.00 20.00     0.021 C 
BRANCH   2   4
HETATM    4  S9  UNL     1     -34.566  17.674  -6.933  1.00 20.00    -0.178 SA
HETATM    5  H25 UNL     1     -35.611  17.475  -7.743  1.00 20.00     0.102 HD
ENDBRANCH   2   4
ENDBRANCH   1   2
BRANCH   1   6
HETATM    6  C7  UNL     1     -34.022  15.224  -3.708  1.00 20.00     0.054 C 
HETATM    7  C2  UNL     1     -35.536  15.056  -3.572  1.00 20.00     0.045 C 
HETATM    8  C3  UNL     1     -33.344  13.848  -3.696  1.00 20.00     0.045 C 
BRANCH   6   9
HETATM    9  O8  UNL     1     -33.536  15.943  -2.574  1.00 20.00    -0.386 OA
HETATM   10  C4  UNL     1     -34.587  16.258  -1.675  1.00 20.00     0.202 C 
ENDBRANCH   6   9
ENDBRANCH   1   6
TORSDOF 4
ENDMDL
MODEL 7
REMARK VINA RESULT:      -3.1      1.757      3.190
REMARK  4 active torsions:
REMARK  status: ('A' for Active; 'I' for Inactive)
REMARK    1  A    between atoms: C5_5  and  C6_6 
REMARK    2  A    between atoms: C5_5  and  C7_7 
REMARK    3  A    between atoms: C6_6  and  S9_9 
REMARK    4  A    between atoms: C7_7  and  O8_8 
ROOT
HETATM    1  C5  UNL     1     -33.282  16.181  -4.902  1.00 20.00     0.051 C 
ENDROOT
BRANCH   1   2
HETATM    2  C6  UNL     1     -34.308  16.903  -5.798  1.00 20.00     0.043 C 
HETATM    3  C1  UNL     1     -34.477  16.293  -7.184  1.00 20.00     0.021 C 
BRANCH   2   4
HETATM    4  S9  UNL     1     -33.773  18.647  -5.998  1.00 20.00    -0.178 SA
HETATM    5  H25 UNL     1     -34.800  19.169  -5.320  1.00 20.00     0.102 HD
ENDBRANCH   2   4
ENDBRANCH   1   2
BRANCH   1   6
HETATM    6  C7  UNL     1     -33.846  15.284  -3.775  1.00 20.00     0.054 C 
HETATM    7  C2  UNL     1     -33.038  13.999  -3.582  1.00 20.00     0.045 C 
HETATM    8  C3  UNL     1     -33.877  16.079  -2.464  1.00 20.00     0.045 C 
BRANCH   6   9
HETATM    9  O8  UNL     1     -35.195  14.936  -4.088  1.00 20.00    -0.386 OA
HETATM   10  C4  UNL     1     -35.326  13.542  -4.319  1.00 20.00     0.202 C 
ENDBRANCH   6   9
ENDBRANCH   1   6
TORSDOF 4
ENDMDL
MODEL 8
REMARK VINA RESULT:      -3.1      2.091      2.780
REMARK  4 active torsions:
REMARK  status: ('A' for Active; 'I' for Inactive)
REMARK    1  A    between atoms: C5_5  and  C6_6 
REMARK    2  A    between atoms: C5_5  and  C7_7 
REMARK    3  A    between atoms: C6_6  and  S9_9 
REMARK    4  A    between atoms: C7_7  and  O8_8 
ROOT
HETATM    1  C5  UNL     1     -35.186  15.635  -4.557  1.00 20.00     0.051 C 
ENDROOT
BRANCH   1   2
HETATM    2  C6  UNL     1     -36.427  15.755  -3.649  1.00 20.00     0.043 C 
HETATM    3  C1  UNL     1     -37.498  14.700  -3.899  1.00 20.00     0.021 C 
BRANCH   2   4
HETATM    4  S9  UNL     1     -37.176  17.409  -3.911  1.00 20.00    -0.178 SA
HETATM    5  H25 UNL     1     -36.062  17.973  -4.390  1.00 20.00     0.102 HD
ENDBRANCH   2   4
ENDBRANCH   1   2
BRANCH   1   6
HETATM    6  C7  UNL     1     -33.809  15.565  -3.856  1.00 20.00     0.054 C 
HETATM    7  C2  UNL     1     -33.827  16.182  -2.456  1.00 20.00     0.045 C 
HETATM    8  C3  UNL     1     -33.357  14.102  -3.774  1.00 20.00     0.045 C 
BRANCH   6   9
HETATM    9  O8  UNL     1     -32.847  16.259  -4.651  1.00 20.00    -0.386 OA
HETATM   10  C4  UNL     1     -33.422  17.392  -5.283  1.00 20.00     0.202 C 
ENDBRANCH   6   9
ENDBRANCH   1   6
TORSDOF 4
ENDMDL
MODEL 9
REMARK VINA RESULT:      -3.1      1.730      3.115
REMARK  4 active torsions:
REMARK  status: ('A' for Active; 'I' for Inactive)
REMARK    1  A    between atoms: C5_5  and  C6_6 
REMARK    2  A    between atoms: C5_5  and  C7_7 
REMARK    3  A    between atoms: C6_6  and  S9_9 
REMARK    4  A    between atoms: C7_7  and  O8_8 
ROOT
HETATM    1  C5  UNL     1     -33.796  15.881  -4.558  1.00 20.00     0.051 C 
ENDROOT
BRANCH   1   2
HETATM    2  C6  UNL     1     -34.490  16.772  -5.608  1.00 20.00     0.043 C 
HETATM    3  C1  UNL     1     -34.393  16.256  -7.039  1.00 20.00     0.021 C 
BRANCH   2   4
HETATM    4  S9  UNL     1     -33.728  18.440  -5.544  1.00 20.00    -0.178 SA
HETATM    5  H25 UNL     1     -33.717  18.519  -4.210  1.00 20.00     0.102 HD
ENDBRANCH   2   4
ENDBRANCH   1   2
BRANCH   1   6
HETATM    6  C7  UNL     1     -34.687  15.291  -3.440  1.00 20.00     0.054 C 
HETATM    7  C2  UNL     1     -34.455  15.959  -2.084  1.00 20.00     0.045 C 
HETATM    8  C3  UNL     1     -36.161  15.431  -3.842  1.00 20.00     0.045 C 
BRANCH   6   9
HETATM    9  O8  UNL     1     -34.415  13.895  -3.317  1.00 20.00    -0.386 OA
HETATM   10  C4  UNL     1     -34.623  13.219  -4.547  1.00 20.00     0.202 C 
ENDBRANCH   6   9
ENDBRANCH   1   6
TORSDOF 4
ENDMDL
