MODEL 1
REMARK VINA RESULT:      -5.1      0.000      0.000
REMARK  1 active torsions:
REMARK  status: ('A' for Active; 'I' for Inactive)
REMARK    1  A    between atoms: C9_9  and  O10_10 
ROOT
HETATM    1  C1  UNL     1     -34.235  15.606  -5.949  1.00 20.00     0.001 C 
HETATM    2  C2  UNL     1     -33.283  16.242  -4.939  1.00 20.00     0.005 C 
HETATM    3  C3  UNL     1     -35.635  15.304  -5.427  1.00 20.00     0.007 C 
HETATM    4  C4  UNL     1     -34.143  16.011  -2.563  1.00 20.00     0.005 C 
HETATM    5  C5  UNL     1     -35.590  15.677  -2.915  1.00 20.00     0.007 C 
HETATM    6  C6  UNL     1     -33.257  13.977  -3.741  1.00 20.00     0.036 C 
HETATM    7  C7  UNL     1     -33.135  15.501  -3.597  1.00 20.00    -0.012 C 
HETATM    8  C8  UNL     1     -35.723  14.639  -4.040  1.00 20.00     0.014 C 
HETATM    9  C9  UNL     1     -34.716  13.498  -3.827  1.00 20.00     0.122 C 
ENDROOT
BRANCH   9  10
HETATM   10  O10 UNL     1     -34.854  12.530  -4.862  1.00 20.00    -0.395 OA
HETATM   11  H26 UNL     1     -34.148  11.877  -4.728  1.00 20.00     0.210 HD
ENDBRANCH   9  10
TORSDOF 1
ENDMDL
MODEL 2
REMARK VINA RESULT:      -4.8      0.921      2.304
REMARK  1 active torsions:
REMARK  status: ('A' for Active; 'I' for Inactive)
REMARK    1  A    between atoms: C9_9  and  O10_10 
ROOT
HETATM    1  C1  UNL     1     -36.521  15.656  -4.171  1.00 20.00     0.001 C 
HETATM    2  C2  UNL     1     -35.860  16.423  -5.313  1.00 20.00     0.005 C 
HETATM    3  C3  UNL     1     -35.600  15.286  -3.013  1.00 20.00     0.007 C 
HETATM    4  C4  UNL     1     -33.329  16.280  -5.201  1.00 20.00     0.005 C 
HETATM    5  C5  UNL     1     -33.228  15.819  -3.749  1.00 20.00     0.007 C 
HETATM    6  C6  UNL     1     -34.636  14.245  -5.884  1.00 20.00     0.036 C 
HETATM    7  C7  UNL     1     -34.592  15.780  -5.908  1.00 20.00    -0.012 C 
HETATM    8  C8  UNL     1     -34.223  14.705  -3.389  1.00 20.00     0.014 C 
HETATM    9  C9  UNL     1     -34.272  13.657  -4.512  1.00 20.00     0.122 C 
ENDROOT
BRANCH   9  10
HETATM   10  O10 UNL     1     -35.182  12.617  -4.166  1.00 20.00    -0.395 OA
HETATM   11  H26 UNL     1     -36.074  12.994  -4.238  1.00 20.00     0.210 HD
ENDBRANCH   9  10
TORSDOF 1
ENDMDL
MODEL 3
REMARK VINA RESULT:      -4.7      1.507      2.479
REMARK  1 active torsions:
REMARK  status: ('A' for Active; 'I' for Inactive)
REMARK    1  A    between atoms: C9_9  and  O10_10 
ROOT
HETATM    1  C1  UNL     1     -34.716  13.646  -5.414  1.00 20.00     0.001 C 
HETATM    2  C2  UNL     1     -35.400  14.885  -5.986  1.00 20.00     0.005 C 
HETATM    3  C3  UNL     1     -34.706  13.551  -3.892  1.00 20.00     0.007 C 
HETATM    4  C4  UNL     1     -35.734  16.676  -4.220  1.00 20.00     0.005 C 
HETATM    5  C5  UNL     1     -35.534  15.780  -3.000  1.00 20.00     0.007 C 
HETATM    6  C6  UNL     1     -33.415  16.231  -5.080  1.00 20.00     0.036 C 
HETATM    7  C7  UNL     1     -34.910  16.238  -5.434  1.00 20.00    -0.012 C 
HETATM    8  C8  UNL     1     -34.331  14.834  -3.125  1.00 20.00     0.014 C 
HETATM    9  C9  UNL     1     -33.126  15.585  -3.715  1.00 20.00     0.122 C 
ENDROOT
BRANCH   9  10
HETATM   10  O10 UNL     1     -32.008  14.709  -3.813  1.00 20.00    -0.395 OA
HETATM   11  H26 UNL     1     -31.316  15.194  -4.291  1.00 20.00     0.210 HD
ENDBRANCH   9  10
TORSDOF 1
ENDMDL
MODEL 4
REMARK VINA RESULT:      -4.7      1.412      2.446
REMARK  1 active torsions:
REMARK  status: ('A' for Active; 'I' for Inactive)
REMARK    1  A    between atoms: C9_9  and  O10_10 
ROOT
HETATM    1  C1  UNL     1     -34.590  13.278  -4.164  1.00 20.00     0.001 C 
HETATM    2  C2  UNL     1     -33.299  13.992  -3.770  1.00 20.00     0.005 C 
HETATM    3  C3  UNL     1     -35.475  14.027  -5.154  1.00 20.00     0.007 C 
HETATM    4  C4  UNL     1     -33.354  16.449  -4.401  1.00 20.00     0.005 C 
HETATM    5  C5  UNL     1     -34.514  16.366  -5.390  1.00 20.00     0.007 C 
HETATM    6  C6  UNL     1     -34.770  15.651  -2.485  1.00 20.00     0.036 C 
HETATM    7  C7  UNL     1     -33.460  15.436  -3.257  1.00 20.00    -0.012 C 
HETATM    8  C8  UNL     1     -35.695  15.528  -4.880  1.00 20.00     0.014 C 
HETATM    9  C9  UNL     1     -35.982  15.859  -3.407  1.00 20.00     0.122 C 
ENDROOT
BRANCH   9  10
HETATM   10  O10 UNL     1     -37.089  15.092  -2.943  1.00 20.00    -0.395 OA
HETATM   11  H26 UNL     1     -37.890  15.560  -3.227  1.00 20.00     0.210 HD
ENDBRANCH   9  10
TORSDOF 1
ENDMDL
MODEL 5
REMARK VINA RESULT:      -4.6      1.605      2.965
REMARK  1 active torsions:
REMARK  status: ('A' for Active; 'I' for Inactive)
REMARK    1  A    between atoms: C9_9  and  O10_10 
ROOT
HETATM    1  C1  UNL     1     -33.257  16.383  -4.433  1.00 20.00     0.001 C 
HETATM    2  C2  UNL     1     -33.817  16.169  -5.838  1.00 20.00     0.005 C 
HETATM    3  C3  UNL     1     -33.204  15.138  -3.554  1.00 20.00     0.007 C 
HETATM    4  C4  UNL     1     -35.050  13.959  -6.032  1.00 20.00     0.005 C 
HETATM    5  C5  UNL     1     -34.475  13.309  -4.776  1.00 20.00     0.007 C 
HETATM    6  C6  UNL     1     -36.102  15.832  -4.728  1.00 20.00     0.036 C 
HETATM    7  C7  UNL     1     -35.193  15.480  -5.915  1.00 20.00    -0.012 C 
HETATM    8  C8  UNL     1     -34.458  14.242  -3.556  1.00 20.00     0.014 C 
HETATM    9  C9  UNL     1     -35.782  15.017  -3.465  1.00 20.00     0.122 C 
ENDROOT
BRANCH   9  10
HETATM   10  O10 UNL     1     -35.769  15.868  -2.323  1.00 20.00    -0.395 OA
HETATM   11  H26 UNL     1     -35.756  16.779  -2.656  1.00 20.00     0.210 HD
ENDBRANCH   9  10
TORSDOF 1
ENDMDL
MODEL 6
REMARK VINA RESULT:      -4.5      1.151      1.581
REMARK  1 active torsions:
REMARK  status: ('A' for Active; 'I' for Inactive)
REMARK    1  A    between atoms: C9_9  and  O10_10 
ROOT
HETATM    1  C1  UNL     1     -34.149  15.515  -6.045  1.00 20.00     0.001 C 
HETATM    2  C2  UNL     1     -34.660  16.631  -5.138  1.00 20.00     0.005 C 
HETATM    3  C3  UNL     1     -34.940  14.213  -5.986  1.00 20.00     0.007 C 
HETATM    4  C4  UNL     1     -36.264  15.754  -3.378  1.00 20.00     0.005 C 
HETATM    5  C5  UNL     1     -36.568  14.417  -4.048  1.00 20.00     0.007 C 
HETATM    6  C6  UNL     1     -33.816  15.230  -3.165  1.00 20.00     0.036 C 
HETATM    7  C7  UNL     1     -34.845  16.260  -3.654  1.00 20.00    -0.012 C 
HETATM    8  C8  UNL     1     -35.319  13.701  -4.583  1.00 20.00     0.014 C 
HETATM    9  C9  UNL     1     -34.179  13.788  -3.556  1.00 20.00     0.122 C 
ENDROOT
BRANCH   9  10
HETATM   10  O10 UNL     1     -33.029  13.109  -4.049  1.00 20.00    -0.395 OA
HETATM   11  H26 UNL     1     -33.191  12.934  -4.990  1.00 20.00     0.210 HD
ENDBRANCH   9  10
TORSDOF 1
ENDMDL
MODEL 7
REMARK VINA RESULT:      -4.5      1.688      2.947
REMARK  1 active torsions:
REMARK  status: ('A' for Active; 'I' for Inactive)
REMARK    1  A    between atoms: C9_9  and  O10_10 
ROOT
HETATM    1  C1  UNL     1     -33.847  16.404  -5.728  1.00 20.00     0.001 C 
HETATM    2  C2  UNL     1     -34.396  15.164  -6.431  1.00 20.00     0.005 C 
HETATM    3  C3  UNL     1     -33.136  16.144  -4.405  1.00 20.00     0.007 C 
HETATM    4  C4  UNL     1     -34.496  13.166  -4.869  1.00 20.00     0.005 C 
HETATM    5  C5  UNL     1     -33.555  13.713  -3.799  1.00 20.00     0.007 C 
HETATM    6  C6  UNL     1     -36.139  15.041  -4.556  1.00 20.00     0.036 C 
HETATM    7  C7  UNL     1     -35.304  14.256  -5.579  1.00 20.00    -0.012 C 
HETATM    8  C8  UNL     1     -33.833  15.177  -3.428  1.00 20.00     0.014 C 
HETATM    9  C9  UNL     1     -35.346  15.409  -3.291  1.00 20.00     0.122 C 
ENDROOT
BRANCH   9  10
HETATM   10  O10 UNL     1     -35.599  16.763  -2.931  1.00 20.00    -0.395 OA
HETATM   11  H26 UNL     1     -35.578  17.278  -3.753  1.00 20.00     0.210 HD
ENDBRANCH   9  10
TORSDOF 1
ENDMDL
MODEL 8
REMARK VINA RESULT:      -4.5      0.997      2.799
REMARK  1 active torsions:
REMARK  status: ('A' for Active; 'I' for Inactive)
REMARK    1  A    between atoms: C9_9  and  O10_10 
ROOT
HETATM    1  C1  UNL     1     -34.408  15.582  -2.500  1.00 20.00     0.001 C 
HETATM    2  C2  UNL     1     -35.534  16.519  -2.931  1.00 20.00     0.005 C 
HETATM    3  C3  UNL     1     -33.467  15.136  -3.614  1.00 20.00     0.007 C 
HETATM    4  C4  UNL     1     -35.841  16.523  -5.450  1.00 20.00     0.005 C 
HETATM    5  C5  UNL     1     -34.494  15.901  -5.807  1.00 20.00     0.007 C 
HETATM    6  C6  UNL     1     -36.563  14.505  -4.138  1.00 20.00     0.036 C 
HETATM    7  C7  UNL     1     -36.398  16.032  -4.110  1.00 20.00    -0.012 C 
HETATM    8  C8  UNL     1     -34.126  14.692  -4.934  1.00 20.00     0.014 C 
HETATM    9  C9  UNL     1     -35.350  13.783  -4.747  1.00 20.00     0.122 C 
ENDROOT
BRANCH   9  10
HETATM   10  O10 UNL     1     -35.001  12.655  -3.951  1.00 20.00    -0.395 OA
HETATM   11  H26 UNL     1     -34.161  12.872  -3.515  1.00 20.00     0.210 HD
ENDBRANCH   9  10
TORSDOF 1
ENDMDL
MODEL 9
REMARK VINA RESULT:      -4.5      1.706      3.154
REMARK  1 active torsions:
REMARK  status: ('A' for Active; 'I' for Inactive)
REMARK    1  A    between atoms: C9_9  and  O10_10 
ROOT
HETATM    1  C1  UNL     1     -34.217  13.800  -3.519  1.00 20.00     0.001 C 
HETATM    2  C2  UNL     1     -35.340  13.369  -4.458  1.00 20.00     0.005 C 
HETATM    3  C3  UNL     1     -34.326  15.222  -2.980  1.00 20.00     0.007 C 
HETATM    4  C4  UNL     1     -36.673  15.356  -5.305  1.00 20.00     0.005 C 
HETATM    5  C5  UNL     1     -36.204  16.361  -4.256  1.00 20.00     0.007 C 
HETATM    6  C6  UNL     1     -34.343  14.991  -6.174  1.00 20.00     0.036 C 
HETATM    7  C7  UNL     1     -35.614  14.305  -5.652  1.00 20.00    -0.012 C 
HETATM    8  C8  UNL     1     -34.690  16.318  -4.000  1.00 20.00     0.014 C 
HETATM    9  C9  UNL     1     -33.931  16.210  -5.332  1.00 20.00     0.122 C 
ENDROOT
BRANCH   9  10
HETATM   10  O10 UNL     1     -32.528  16.188  -5.092  1.00 20.00    -0.395 OA
HETATM   11  H26 UNL     1     -32.285  15.259  -4.950  1.00 20.00     0.210 HD
ENDBRANCH   9  10
TORSDOF 1
ENDMDL
