MODEL 1
REMARK VINA RESULT:      -5.5      0.000      0.000
REMARK  3 active torsions:
REMARK  status: ('A' for Active; 'I' for Inactive)
REMARK    1  A    between atoms: C1_1  and  C7_7 
REMARK    2  A    between atoms: C1_1  and  C9_9 
REMARK    3  A    between atoms: C8_8  and  C9_9 
ROOT
HETATM    1  C1  UNL     1     -32.523   6.809   2.967  1.00 20.00     0.131 C 
HETATM    2  O10 UNL     1     -32.087   5.740   2.541  1.00 20.00    -0.298 OA
ENDROOT
BRANCH   1   3
HETATM    3  C7  UNL     1     -31.892   8.119   2.571  1.00 20.00     0.055 A 
HETATM    4  C3  UNL     1     -31.759   8.420   1.123  1.00 20.00     0.013 A 
HETATM    5  C4  UNL     1     -32.763   9.154   1.959  1.00 20.00     0.013 A 
ENDBRANCH   1   3
BRANCH   1   6
HETATM    6  C9  UNL     1     -33.711   6.894   3.910  1.00 20.00     0.083 C 
BRANCH   6   7
HETATM    7  C8  UNL     1     -33.857   5.664   4.782  1.00 20.00    -0.008 C 
HETATM    8  C5  UNL     1     -35.153   4.832   4.598  1.00 20.00     0.005 C 
HETATM    9  C2  UNL     1     -35.126   4.590   6.121  1.00 20.00     0.001 C 
HETATM   10  C6  UNL     1     -34.321   5.900   6.243  1.00 20.00     0.005 C 
ENDBRANCH   6   7
ENDBRANCH   1   6
TORSDOF 3
ENDMDL
MODEL 2
REMARK VINA RESULT:      -5.4      1.048      1.585
REMARK  3 active torsions:
REMARK  status: ('A' for Active; 'I' for Inactive)
REMARK    1  A    between atoms: C1_1  and  C7_7 
REMARK    2  A    between atoms: C1_1  and  C9_9 
REMARK    3  A    between atoms: C8_8  and  C9_9 
ROOT
HETATM    1  C1  UNL     1     -32.219   7.359   3.018  1.00 20.00     0.131 C 
HETATM    2  O10 UNL     1     -31.303   7.770   3.730  1.00 20.00    -0.298 OA
ENDROOT
BRANCH   1   3
HETATM    3  C7  UNL     1     -32.703   8.159   1.837  1.00 20.00     0.055 A 
HETATM    4  C3  UNL     1     -32.437   9.621   1.827  1.00 20.00     0.013 A 
HETATM    5  C4  UNL     1     -31.686   8.709   0.904  1.00 20.00     0.013 A 
ENDBRANCH   1   3
BRANCH   1   6
HETATM    6  C9  UNL     1     -32.923   6.037   3.267  1.00 20.00     0.083 C 
BRANCH   6   7
HETATM    7  C8  UNL     1     -34.062   6.157   4.259  1.00 20.00    -0.008 C 
HETATM    8  C5  UNL     1     -33.672   6.231   5.759  1.00 20.00     0.005 C 
HETATM    9  C2  UNL     1     -34.930   5.388   6.051  1.00 20.00     0.001 C 
HETATM   10  C6  UNL     1     -34.817   4.848   4.610  1.00 20.00     0.005 C 
ENDBRANCH   6   7
ENDBRANCH   1   6
TORSDOF 3
ENDMDL
MODEL 3
REMARK VINA RESULT:      -5.0      0.915      1.520
REMARK  3 active torsions:
REMARK  status: ('A' for Active; 'I' for Inactive)
REMARK    1  A    between atoms: C1_1  and  C7_7 
REMARK    2  A    between atoms: C1_1  and  C9_9 
REMARK    3  A    between atoms: C8_8  and  C9_9 
ROOT
HETATM    1  C1  UNL     1     -32.953   6.030   3.064  1.00 20.00     0.131 C 
HETATM    2  O10 UNL     1     -31.965   5.300   3.138  1.00 20.00    -0.298 OA
ENDROOT
BRANCH   1   3
HETATM    3  C7  UNL     1     -32.809   7.530   3.027  1.00 20.00     0.055 A 
HETATM    4  C3  UNL     1     -31.486   8.113   3.366  1.00 20.00     0.013 A 
HETATM    5  C4  UNL     1     -31.977   8.123   1.950  1.00 20.00     0.013 A 
ENDBRANCH   1   3
BRANCH   1   6
HETATM    6  C9  UNL     1     -34.370   5.489   3.004  1.00 20.00     0.083 C 
BRANCH   6   7
HETATM    7  C8  UNL     1     -35.025   5.409   4.368  1.00 20.00    -0.008 C 
HETATM    8  C5  UNL     1     -34.196   5.935   5.569  1.00 20.00     0.005 C 
HETATM    9  C2  UNL     1     -34.805   4.785   6.398  1.00 20.00     0.001 C 
HETATM   10  C6  UNL     1     -35.000   4.026   5.069  1.00 20.00     0.005 C 
ENDBRANCH   6   7
ENDBRANCH   1   6
TORSDOF 3
ENDMDL
MODEL 4
REMARK VINA RESULT:      -4.7      0.897      4.829
REMARK  3 active torsions:
REMARK  status: ('A' for Active; 'I' for Inactive)
REMARK    1  A    between atoms: C1_1  and  C7_7 
REMARK    2  A    between atoms: C1_1  and  C9_9 
REMARK    3  A    between atoms: C8_8  and  C9_9 
ROOT
HETATM    1  C1  UNL     1     -32.622   6.351   3.447  1.00 20.00     0.131 C 
HETATM    2  O10 UNL     1     -32.093   5.280   3.154  1.00 20.00    -0.298 OA
ENDROOT
BRANCH   1   3
HETATM    3  C7  UNL     1     -33.966   6.392   4.127  1.00 20.00     0.055 A 
HETATM    4  C3  UNL     1     -34.965   5.355   3.764  1.00 20.00     0.013 A 
HETATM    5  C4  UNL     1     -34.287   5.317   5.100  1.00 20.00     0.013 A 
ENDBRANCH   1   3
BRANCH   1   6
HETATM    6  C9  UNL     1     -31.977   7.694   3.153  1.00 20.00     0.083 C 
BRANCH   6   7
HETATM    7  C8  UNL     1     -32.539   8.355   1.911  1.00 20.00    -0.008 C 
HETATM    8  C5  UNL     1     -31.566   8.528   0.715  1.00 20.00     0.005 C 
HETATM    9  C2  UNL     1     -32.260   9.879   0.442  1.00 20.00     0.001 C 
HETATM   10  C6  UNL     1     -32.645   9.902   1.936  1.00 20.00     0.005 C 
ENDBRANCH   6   7
ENDBRANCH   1   6
TORSDOF 3
ENDMDL
MODEL 5
REMARK VINA RESULT:      -4.6     11.099     11.999
REMARK  3 active torsions:
REMARK  status: ('A' for Active; 'I' for Inactive)
REMARK    1  A    between atoms: C1_1  and  C7_7 
REMARK    2  A    between atoms: C1_1  and  C9_9 
REMARK    3  A    between atoms: C8_8  and  C9_9 
ROOT
HETATM    1  C1  UNL     1     -35.019  13.948  -4.466  1.00 20.00     0.131 C 
HETATM    2  O10 UNL     1     -35.042  12.742  -4.221  1.00 20.00    -0.298 OA
ENDROOT
BRANCH   1   3
HETATM    3  C7  UNL     1     -34.499  14.463  -5.783  1.00 20.00     0.055 A 
HETATM    4  C3  UNL     1     -35.375  14.341  -6.976  1.00 20.00     0.013 A 
HETATM    5  C4  UNL     1     -35.129  15.681  -6.352  1.00 20.00     0.013 A 
ENDBRANCH   1   3
BRANCH   1   6
HETATM    6  C9  UNL     1     -35.503  14.996  -3.479  1.00 20.00     0.083 C 
BRANCH   6   7
HETATM    7  C8  UNL     1     -34.382  15.577  -2.643  1.00 20.00    -0.008 C 
HETATM    8  C5  UNL     1     -34.793  16.281  -1.323  1.00 20.00     0.005 C 
HETATM    9  C2  UNL     1     -33.666  17.297  -1.600  1.00 20.00     0.001 C 
HETATM   10  C6  UNL     1     -33.816  16.947  -3.096  1.00 20.00     0.005 C 
ENDBRANCH   6   7
ENDBRANCH   1   6
TORSDOF 3
ENDMDL
MODEL 6
REMARK VINA RESULT:      -4.6      1.535      4.694
REMARK  3 active torsions:
REMARK  status: ('A' for Active; 'I' for Inactive)
REMARK    1  A    between atoms: C1_1  and  C7_7 
REMARK    2  A    between atoms: C1_1  and  C9_9 
REMARK    3  A    between atoms: C8_8  and  C9_9 
ROOT
HETATM    1  C1  UNL     1     -34.702   5.377   3.926  1.00 20.00     0.131 C 
HETATM    2  O10 UNL     1     -35.910   5.444   3.699  1.00 20.00    -0.298 OA
ENDROOT
BRANCH   1   3
HETATM    3  C7  UNL     1     -34.188   4.911   5.264  1.00 20.00     0.055 A 
HETATM    4  C3  UNL     1     -34.408   5.790   6.441  1.00 20.00     0.013 A 
HETATM    5  C4  UNL     1     -35.183   4.516   6.293  1.00 20.00     0.013 A 
ENDBRANCH   1   3
BRANCH   1   6
HETATM    6  C9  UNL     1     -33.651   5.750   2.896  1.00 20.00     0.083 C 
BRANCH   6   7
HETATM    7  C8  UNL     1     -33.042   7.114   3.147  1.00 20.00    -0.008 C 
HETATM    8  C5  UNL     1     -32.407   7.827   1.925  1.00 20.00     0.005 C 
HETATM    9  C2  UNL     1     -31.324   8.355   2.888  1.00 20.00     0.001 C 
HETATM   10  C6  UNL     1     -31.628   7.136   3.784  1.00 20.00     0.005 C 
ENDBRANCH   6   7
ENDBRANCH   1   6
TORSDOF 3
ENDMDL
MODEL 7
REMARK VINA RESULT:      -4.5      1.364      4.754
REMARK  3 active torsions:
REMARK  status: ('A' for Active; 'I' for Inactive)
REMARK    1  A    between atoms: C1_1  and  C7_7 
REMARK    2  A    between atoms: C1_1  and  C9_9 
REMARK    3  A    between atoms: C8_8  and  C9_9 
ROOT
HETATM    1  C1  UNL     1     -33.238   6.259   3.823  1.00 20.00     0.131 C 
HETATM    2  O10 UNL     1     -33.179   6.771   4.941  1.00 20.00    -0.298 OA
ENDROOT
BRANCH   1   3
HETATM    3  C7  UNL     1     -34.363   5.328   3.454  1.00 20.00     0.055 A 
HETATM    4  C3  UNL     1     -35.073   4.621   4.551  1.00 20.00     0.013 A 
HETATM    5  C4  UNL     1     -35.747   5.734   3.808  1.00 20.00     0.013 A 
ENDBRANCH   1   3
BRANCH   1   6
HETATM    6  C9  UNL     1     -32.200   6.519   2.746  1.00 20.00     0.083 C 
BRANCH   6   7
HETATM    7  C8  UNL     1     -31.953   7.995   2.513  1.00 20.00    -0.008 C 
HETATM    8  C5  UNL     1     -33.207   8.892   2.351  1.00 20.00     0.005 C 
HETATM    9  C2  UNL     1     -32.410   9.691   1.300  1.00 20.00     0.001 C 
HETATM   10  C6  UNL     1     -31.573   8.416   1.069  1.00 20.00     0.005 C 
ENDBRANCH   6   7
ENDBRANCH   1   6
TORSDOF 3
ENDMDL
MODEL 8
REMARK VINA RESULT:      -4.5     10.835     12.030
REMARK  3 active torsions:
REMARK  status: ('A' for Active; 'I' for Inactive)
REMARK    1  A    between atoms: C1_1  and  C7_7 
REMARK    2  A    between atoms: C1_1  and  C9_9 
REMARK    3  A    between atoms: C8_8  and  C9_9 
ROOT
HETATM    1  C1  UNL     1     -33.775  15.973  -4.385  1.00 20.00     0.131 C 
HETATM    2  O10 UNL     1     -32.922  16.646  -4.964  1.00 20.00    -0.298 OA
ENDROOT
BRANCH   1   3
HETATM    3  C7  UNL     1     -34.012  14.533  -4.759  1.00 20.00     0.055 A 
HETATM    4  C3  UNL     1     -33.518  13.480  -3.834  1.00 20.00     0.013 A 
HETATM    5  C4  UNL     1     -34.986  13.755  -3.952  1.00 20.00     0.013 A 
ENDBRANCH   1   3
BRANCH   1   6
HETATM    6  C9  UNL     1     -34.641  16.528  -3.269  1.00 20.00     0.083 C 
BRANCH   6   7
HETATM    7  C8  UNL     1     -33.863  16.788  -1.996  1.00 20.00    -0.008 C 
HETATM    8  C5  UNL     1     -34.660  16.716  -0.667  1.00 20.00     0.005 C 
HETATM    9  C2  UNL     1     -33.787  17.884  -0.165  1.00 20.00     0.001 C 
HETATM   10  C6  UNL     1     -33.582  18.272  -1.645  1.00 20.00     0.005 C 
ENDBRANCH   6   7
ENDBRANCH   1   6
TORSDOF 3
ENDMDL
MODEL 9
REMARK VINA RESULT:      -4.4     10.615     12.800
REMARK  3 active torsions:
REMARK  status: ('A' for Active; 'I' for Inactive)
REMARK    1  A    between atoms: C1_1  and  C7_7 
REMARK    2  A    between atoms: C1_1  and  C9_9 
REMARK    3  A    between atoms: C8_8  and  C9_9 
ROOT
HETATM    1  C1  UNL     1     -34.944  13.630  -4.419  1.00 20.00     0.131 C 
HETATM    2  O10 UNL     1     -34.804  12.488  -4.857  1.00 20.00    -0.298 OA
ENDROOT
BRANCH   1   3
HETATM    3  C7  UNL     1     -34.055  14.154  -3.321  1.00 20.00     0.055 A 
HETATM    4  C3  UNL     1     -33.003  15.139  -3.684  1.00 20.00     0.013 A 
HETATM    5  C4  UNL     1     -34.213  15.574  -2.915  1.00 20.00     0.013 A 
ENDBRANCH   1   3
BRANCH   1   6
HETATM    6  C9  UNL     1     -36.004  14.585  -4.938  1.00 20.00     0.083 C 
BRANCH   6   7
HETATM    7  C8  UNL     1     -35.872  14.856  -6.423  1.00 20.00    -0.008 C 
HETATM    8  C5  UNL     1     -34.438  15.101  -6.960  1.00 20.00     0.005 C 
HETATM    9  C2  UNL     1     -35.053  16.142  -7.917  1.00 20.00     0.001 C 
HETATM   10  C6  UNL     1     -36.201  16.295  -6.898  1.00 20.00     0.005 C 
ENDBRANCH   6   7
ENDBRANCH   1   6
TORSDOF 3
ENDMDL
