MODEL 1
REMARK VINA RESULT:      -3.4      0.000      0.000
REMARK  2 active torsions:
REMARK  status: ('A' for Active; 'I' for Inactive)
REMARK    1  A    between atoms: C1_1  and  C2_2 
REMARK    2  A    between atoms: C2_2  and  O3_3 
ROOT
HETATM    1  C2  UNL     1     -34.810  13.822  -4.314  1.00 20.00     0.226 C 
HETATM    2 CL5  UNL     1     -34.760  14.207  -6.054  1.00 20.00    -0.070 Cl
HETATM    3 CL6  UNL     1     -33.135  13.754  -3.693  1.00 20.00    -0.070 Cl
ENDROOT
BRANCH   1   4
HETATM    4  C1  UNL     1     -35.597  14.861  -3.518  1.00 20.00     0.187 C 
HETATM    5 CL4  UNL     1     -34.593  15.692  -2.296  1.00 20.00    -0.125 Cl
ENDBRANCH   1   4
BRANCH   1   6
HETATM    6  O3  UNL     1     -35.389  12.537  -4.142  1.00 20.00    -0.361 OA
HETATM    7  H9  UNL     1     -35.905  12.575  -3.319  1.00 20.00     0.213 HD
ENDBRANCH   1   6
TORSDOF 2
ENDMDL
MODEL 2
REMARK VINA RESULT:      -3.3      1.169      2.523
REMARK  2 active torsions:
REMARK  status: ('A' for Active; 'I' for Inactive)
REMARK    1  A    between atoms: C1_1  and  C2_2 
REMARK    2  A    between atoms: C2_2  and  O3_3 
ROOT
HETATM    1  C2  UNL     1     -34.795  13.778  -4.328  1.00 20.00     0.226 C 
HETATM    2 CL5  UNL     1     -33.121  13.734  -3.716  1.00 20.00    -0.070 Cl
HETATM    3 CL6  UNL     1     -35.720  14.980  -3.382  1.00 20.00    -0.070 Cl
ENDROOT
BRANCH   1   4
HETATM    4  C1  UNL     1     -34.856  14.151  -5.807  1.00 20.00     0.187 C 
HETATM    5 CL4  UNL     1     -34.035  15.699  -6.159  1.00 20.00    -0.125 Cl
ENDBRANCH   1   4
BRANCH   1   6
HETATM    6  O3  UNL     1     -35.395  12.508  -4.121  1.00 20.00    -0.361 OA
HETATM    7  H9  UNL     1     -35.118  12.213  -3.237  1.00 20.00     0.213 HD
ENDBRANCH   1   6
TORSDOF 2
ENDMDL
MODEL 3
REMARK VINA RESULT:      -3.2     12.420     12.660
REMARK  2 active torsions:
REMARK  status: ('A' for Active; 'I' for Inactive)
REMARK    1  A    between atoms: C1_1  and  C2_2 
REMARK    2  A    between atoms: C2_2  and  O3_3 
ROOT
HETATM    1  C2  UNL     1     -34.905   4.951   4.747  1.00 20.00     0.226 C 
HETATM    2 CL5  UNL     1     -36.192   5.749   3.808  1.00 20.00    -0.070 Cl
HETATM    3 CL6  UNL     1     -33.327   5.344   4.005  1.00 20.00    -0.070 Cl
ENDROOT
BRANCH   1   4
HETATM    4  C1  UNL     1     -34.897   5.399   6.207  1.00 20.00     0.187 C 
HETATM    5 CL4  UNL     1     -33.823   6.800   6.488  1.00 20.00    -0.125 Cl
ENDBRANCH   1   4
BRANCH   1   6
HETATM    6  O3  UNL     1     -35.081   3.545   4.671  1.00 20.00    -0.361 OA
HETATM    7  H9  UNL     1     -34.192   3.159   4.601  1.00 20.00     0.213 HD
ENDBRANCH   1   6
TORSDOF 2
ENDMDL
MODEL 4
REMARK VINA RESULT:      -3.2      1.338      1.822
REMARK  2 active torsions:
REMARK  status: ('A' for Active; 'I' for Inactive)
REMARK    1  A    between atoms: C1_1  and  C2_2 
REMARK    2  A    between atoms: C2_2  and  O3_3 
ROOT
HETATM    1  C2  UNL     1     -35.158  13.945  -4.287  1.00 20.00     0.226 C 
HETATM    2 CL5  UNL     1     -36.780  14.568  -3.888  1.00 20.00    -0.070 Cl
HETATM    3 CL6  UNL     1     -34.794  14.345  -5.991  1.00 20.00    -0.070 Cl
ENDROOT
BRANCH   1   4
HETATM    4  C1  UNL     1     -34.077  14.544  -3.391  1.00 20.00     0.187 C 
HETATM    5 CL4  UNL     1     -34.729  15.741  -2.235  1.00 20.00    -0.125 Cl
ENDBRANCH   1   4
BRANCH   1   6
HETATM    6  O3  UNL     1     -35.163  12.531  -4.166  1.00 20.00    -0.361 OA
HETATM    7  H9  UNL     1     -34.234  12.259  -4.080  1.00 20.00     0.213 HD
ENDBRANCH   1   6
TORSDOF 2
ENDMDL
MODEL 5
REMARK VINA RESULT:      -3.2     11.845     12.210
REMARK  2 active torsions:
REMARK  status: ('A' for Active; 'I' for Inactive)
REMARK    1  A    between atoms: C1_1  and  C2_2 
REMARK    2  A    between atoms: C2_2  and  O3_3 
ROOT
HETATM    1  C2  UNL     1     -34.783   5.342   3.965  1.00 20.00     0.226 C 
HETATM    2 CL5  UNL     1     -33.929   4.980   2.442  1.00 20.00    -0.070 Cl
HETATM    3 CL6  UNL     1     -34.944   3.830   4.905  1.00 20.00    -0.070 Cl
ENDROOT
BRANCH   1   4
HETATM    4  C1  UNL     1     -34.041   6.378   4.807  1.00 20.00     0.187 C 
HETATM    5 CL4  UNL     1     -34.273   6.128   6.561  1.00 20.00    -0.125 Cl
ENDBRANCH   1   4
BRANCH   1   6
HETATM    6  O3  UNL     1     -36.090   5.806   3.663  1.00 20.00    -0.361 OA
HETATM    7  H9  UNL     1     -36.405   5.273   2.914  1.00 20.00     0.213 HD
ENDBRANCH   1   6
TORSDOF 2
ENDMDL
MODEL 6
REMARK VINA RESULT:      -3.1      2.225      2.919
REMARK  2 active torsions:
REMARK  status: ('A' for Active; 'I' for Inactive)
REMARK    1  A    between atoms: C1_1  and  C2_2 
REMARK    2  A    between atoms: C2_2  and  O3_3 
ROOT
HETATM    1  C2  UNL     1     -33.316  15.088  -3.772  1.00 20.00     0.226 C 
HETATM    2 CL5  UNL     1     -33.638  15.914  -5.318  1.00 20.00    -0.070 Cl
HETATM    3 CL6  UNL     1     -33.641  16.229  -2.434  1.00 20.00    -0.070 Cl
ENDROOT
BRANCH   1   4
HETATM    4  C1  UNL     1     -34.185  13.846  -3.592  1.00 20.00     0.187 C 
HETATM    5 CL4  UNL     1     -34.785  13.198  -5.146  1.00 20.00    -0.125 Cl
ENDBRANCH   1   4
BRANCH   1   6
HETATM    6  O3  UNL     1     -31.943  14.733  -3.715  1.00 20.00    -0.361 OA
HETATM    7  H9  UNL     1     -31.591  14.848  -4.614  1.00 20.00     0.213 HD
ENDBRANCH   1   6
TORSDOF 2
ENDMDL
MODEL 7
REMARK VINA RESULT:      -3.1      2.245      3.301
REMARK  2 active torsions:
REMARK  status: ('A' for Active; 'I' for Inactive)
REMARK    1  A    between atoms: C1_1  and  C2_2 
REMARK    2  A    between atoms: C2_2  and  O3_3 
ROOT
HETATM    1  C2  UNL     1     -33.343  15.168  -3.793  1.00 20.00     0.226 C 
HETATM    2 CL5  UNL     1     -33.675  16.214  -2.389  1.00 20.00    -0.070 Cl
HETATM    3 CL6  UNL     1     -34.342  13.692  -3.658  1.00 20.00    -0.070 Cl
ENDROOT
BRANCH   1   4
HETATM    4  C1  UNL     1     -33.656  15.865  -5.115  1.00 20.00     0.187 C 
HETATM    5 CL4  UNL     1     -34.417  14.770  -6.304  1.00 20.00    -0.125 Cl
ENDBRANCH   1   4
BRANCH   1   6
HETATM    6  O3  UNL     1     -31.979  14.773  -3.763  1.00 20.00    -0.361 OA
HETATM    7  H9  UNL     1     -31.882  14.069  -4.427  1.00 20.00     0.213 HD
ENDBRANCH   1   6
TORSDOF 2
ENDMDL
MODEL 8
REMARK VINA RESULT:      -3.1     11.575     12.146
REMARK  2 active torsions:
REMARK  status: ('A' for Active; 'I' for Inactive)
REMARK    1  A    between atoms: C1_1  and  C2_2 
REMARK    2  A    between atoms: C2_2  and  O3_3 
ROOT
HETATM    1  C2  UNL     1     -34.735   5.317   4.232  1.00 20.00     0.226 C 
HETATM    2 CL5  UNL     1     -34.879   3.686   4.935  1.00 20.00    -0.070 Cl
HETATM    3 CL6  UNL     1     -34.165   6.440   5.500  1.00 20.00    -0.070 Cl
ENDROOT
BRANCH   1   4
HETATM    4  C1  UNL     1     -33.760   5.352   3.058  1.00 20.00     0.187 C 
HETATM    5 CL4  UNL     1     -32.370   6.436   3.353  1.00 20.00    -0.125 Cl
ENDBRANCH   1   4
BRANCH   1   6
HETATM    6  O3  UNL     1     -36.019   5.754   3.811  1.00 20.00    -0.361 OA
HETATM    7  H9  UNL     1     -36.017   6.723   3.883  1.00 20.00     0.213 HD
ENDBRANCH   1   6
TORSDOF 2
ENDMDL
MODEL 9
REMARK VINA RESULT:      -3.1     12.109     12.374
REMARK  2 active torsions:
REMARK  status: ('A' for Active; 'I' for Inactive)
REMARK    1  A    between atoms: C1_1  and  C2_2 
REMARK    2  A    between atoms: C2_2  and  O3_3 
ROOT
HETATM    1  C2  UNL     1     -41.299   4.745  -1.116  1.00 20.00     0.226 C 
HETATM    2 CL5  UNL     1     -40.937   6.490  -1.146  1.00 20.00    -0.070 Cl
HETATM    3 CL6  UNL     1     -42.189   4.370   0.388  1.00 20.00    -0.070 Cl
ENDROOT
BRANCH   1   4
HETATM    4  C1  UNL     1     -42.139   4.311  -2.315  1.00 20.00     0.187 C 
HETATM    5 CL4  UNL     1     -41.575   2.772  -3.027  1.00 20.00    -0.125 Cl
ENDBRANCH   1   4
BRANCH   1   6
HETATM    6  O3  UNL     1     -40.078   4.021  -1.089  1.00 20.00    -0.361 OA
HETATM    7  H9  UNL     1     -39.497   4.483  -0.462  1.00 20.00     0.213 HD
ENDBRANCH   1   6
TORSDOF 2
ENDMDL
