MODEL 1
REMARK VINA RESULT:      -4.5      0.000      0.000
REMARK  3 active torsions:
REMARK  status: ('A' for Active; 'I' for Inactive)
REMARK    1  A    between atoms: C2_2  and  C5_5 
REMARK    2  A    between atoms: C2_2  and  C8_8 
REMARK    3  A    between atoms: C7_7  and  C8_8 
ROOT
HETATM    1  C1  UNL     1     -37.248  14.655  -3.890  1.00 20.00     0.071 C 
HETATM    2  C8  UNL     1     -35.827  14.953  -4.150  1.00 20.00     0.162 C 
HETATM    3  N9  UNL     1     -38.367  14.425  -3.689  1.00 20.00    -0.196 NA
ENDROOT
BRANCH   2   4
HETATM    4  C2  UNL     1     -35.141  13.792  -4.852  1.00 20.00     0.148 C 
HETATM    5  O10 UNL     1     -34.979  12.682  -4.355  1.00 20.00    -0.296 OA
BRANCH   4   6
HETATM    6  C5  UNL     1     -34.635  14.063  -6.231  1.00 20.00     0.057 A 
HETATM    7  C3  UNL     1     -35.601  14.544  -7.261  1.00 20.00     0.013 A 
HETATM    8  C4  UNL     1     -34.572  15.478  -6.698  1.00 20.00     0.013 A 
ENDBRANCH   4   6
ENDBRANCH   2   4
BRANCH   2   9
HETATM    9  C7  UNL     1     -35.086  15.348  -2.863  1.00 20.00     0.022 C 
HETATM   10  C6  UNL     1     -33.643  15.796  -3.072  1.00 20.00     0.007 C 
ENDBRANCH   2   9
TORSDOF 3
ENDMDL
MODEL 2
REMARK VINA RESULT:      -4.3      2.431      4.296
REMARK  3 active torsions:
REMARK  status: ('A' for Active; 'I' for Inactive)
REMARK    1  A    between atoms: C2_2  and  C5_5 
REMARK    2  A    between atoms: C2_2  and  C8_8 
REMARK    3  A    between atoms: C7_7  and  C8_8 
ROOT
HETATM    1  C1  UNL     1     -34.318  13.738  -4.029  1.00 20.00     0.071 C 
HETATM    2  C8  UNL     1     -33.662  14.921  -3.442  1.00 20.00     0.162 C 
HETATM    3  N9  UNL     1     -34.830  12.804  -4.489  1.00 20.00    -0.196 NA
ENDROOT
BRANCH   2   4
HETATM    4  C2  UNL     1     -34.633  15.719  -2.586  1.00 20.00     0.148 C 
HETATM    5  O10 UNL     1     -35.854  15.644  -2.671  1.00 20.00    -0.296 OA
BRANCH   4   6
HETATM    6  C5  UNL     1     -34.020  16.654  -1.595  1.00 20.00     0.057 A 
HETATM    7  C3  UNL     1     -34.645  17.994  -1.399  1.00 20.00     0.013 A 
HETATM    8  C4  UNL     1     -34.766  16.944  -0.336  1.00 20.00     0.013 A 
ENDBRANCH   4   6
ENDBRANCH   2   4
BRANCH   2   9
HETATM    9  C7  UNL     1     -33.010  15.801  -4.519  1.00 20.00     0.022 C 
HETATM   10  C6  UNL     1     -33.934  16.189  -5.670  1.00 20.00     0.007 C 
ENDBRANCH   2   9
TORSDOF 3
ENDMDL
MODEL 3
REMARK VINA RESULT:      -4.1      2.946      3.760
REMARK  3 active torsions:
REMARK  status: ('A' for Active; 'I' for Inactive)
REMARK    1  A    between atoms: C2_2  and  C5_5 
REMARK    2  A    between atoms: C2_2  and  C8_8 
REMARK    3  A    between atoms: C7_7  and  C8_8 
ROOT
HETATM    1  C1  UNL     1     -33.802  18.055  -2.878  1.00 20.00     0.071 C 
HETATM    2  C8  UNL     1     -33.664  16.657  -2.429  1.00 20.00     0.162 C 
HETATM    3  N9  UNL     1     -33.906  19.155  -3.229  1.00 20.00    -0.196 NA
ENDROOT
BRANCH   2   4
HETATM    4  C2  UNL     1     -33.642  15.699  -3.610  1.00 20.00     0.148 C 
HETATM    5  O10 UNL     1     -33.146  15.958  -4.701  1.00 20.00    -0.296 OA
BRANCH   4   6
HETATM    6  C5  UNL     1     -34.288  14.370  -3.391  1.00 20.00     0.057 A 
HETATM    7  C3  UNL     1     -35.514  14.038  -4.172  1.00 20.00     0.013 A 
HETATM    8  C4  UNL     1     -34.216  13.356  -4.482  1.00 20.00     0.013 A 
ENDBRANCH   4   6
ENDBRANCH   2   4
BRANCH   2   9
HETATM    9  C7  UNL     1     -34.755  16.276  -1.417  1.00 20.00     0.022 C 
HETATM   10  C6  UNL     1     -34.760  17.111  -0.141  1.00 20.00     0.007 C 
ENDBRANCH   2   9
TORSDOF 3
ENDMDL
MODEL 4
REMARK VINA RESULT:      -4.1      2.446      3.219
REMARK  3 active torsions:
REMARK  status: ('A' for Active; 'I' for Inactive)
REMARK    1  A    between atoms: C2_2  and  C5_5 
REMARK    2  A    between atoms: C2_2  and  C8_8 
REMARK    3  A    between atoms: C7_7  and  C8_8 
ROOT
HETATM    1  C1  UNL     1     -34.393  16.390  -1.866  1.00 20.00     0.071 C 
HETATM    2  C8  UNL     1     -34.256  16.120  -3.309  1.00 20.00     0.162 C 
HETATM    3  N9  UNL     1     -34.504  16.602  -0.731  1.00 20.00    -0.196 NA
ENDROOT
BRANCH   2   4
HETATM    4  C2  UNL     1     -33.476  14.838  -3.558  1.00 20.00     0.148 C 
HETATM    5  O10 UNL     1     -32.254  14.752  -3.512  1.00 20.00    -0.296 OA
BRANCH   4   6
HETATM    6  C5  UNL     1     -34.288  13.628  -3.887  1.00 20.00     0.057 A 
HETATM    7  C3  UNL     1     -35.734  13.807  -4.208  1.00 20.00     0.013 A 
HETATM    8  C4  UNL     1     -34.761  13.450  -5.291  1.00 20.00     0.013 A 
ENDBRANCH   4   6
ENDBRANCH   2   4
BRANCH   2   9
HETATM    9  C7  UNL     1     -33.631  17.310  -4.053  1.00 20.00     0.022 C 
HETATM   10  C6  UNL     1     -33.672  17.202  -5.574  1.00 20.00     0.007 C 
ENDBRANCH   2   9
TORSDOF 3
ENDMDL
MODEL 5
REMARK VINA RESULT:      -4.1     10.826     11.624
REMARK  3 active torsions:
REMARK  status: ('A' for Active; 'I' for Inactive)
REMARK    1  A    between atoms: C2_2  and  C5_5 
REMARK    2  A    between atoms: C2_2  and  C8_8 
REMARK    3  A    between atoms: C7_7  and  C8_8 
ROOT
HETATM    1  C1  UNL     1     -33.452   6.468   5.253  1.00 20.00     0.071 C 
HETATM    2  C8  UNL     1     -32.942   6.167   3.902  1.00 20.00     0.162 C 
HETATM    3  N9  UNL     1     -33.851   6.701   6.317  1.00 20.00    -0.196 NA
ENDROOT
BRANCH   2   4
HETATM    4  C2  UNL     1     -32.140   7.333   3.345  1.00 20.00     0.148 C 
HETATM    5  O10 UNL     1     -31.130   7.791   3.868  1.00 20.00    -0.296 OA
BRANCH   4   6
HETATM    6  C5  UNL     1     -32.655   7.940   2.081  1.00 20.00     0.057 A 
HETATM    7  C3  UNL     1     -32.549   9.418   1.907  1.00 20.00     0.013 A 
HETATM    8  C4  UNL     1     -31.672   8.501   1.109  1.00 20.00     0.013 A 
ENDBRANCH   4   6
ENDBRANCH   2   4
BRANCH   2   9
HETATM    9  C7  UNL     1     -34.072   5.756   2.947  1.00 20.00     0.022 C 
HETATM   10  C6  UNL     1     -35.383   5.386   3.635  1.00 20.00     0.007 C 
ENDBRANCH   2   9
TORSDOF 3
ENDMDL
MODEL 6
REMARK VINA RESULT:      -4.1      2.989      4.703
REMARK  3 active torsions:
REMARK  status: ('A' for Active; 'I' for Inactive)
REMARK    1  A    between atoms: C2_2  and  C5_5 
REMARK    2  A    between atoms: C2_2  and  C8_8 
REMARK    3  A    between atoms: C7_7  and  C8_8 
ROOT
HETATM    1  C1  UNL     1     -33.899  16.201  -4.585  1.00 20.00     0.071 C 
HETATM    2  C8  UNL     1     -35.059  15.600  -3.901  1.00 20.00     0.162 C 
HETATM    3  N9  UNL     1     -32.989  16.675  -5.127  1.00 20.00    -0.196 NA
ENDROOT
BRANCH   2   4
HETATM    4  C2  UNL     1     -35.431  16.388  -2.655  1.00 20.00     0.148 C 
HETATM    5  O10 UNL     1     -36.427  17.097  -2.557  1.00 20.00    -0.296 OA
BRANCH   4   6
HETATM    6  C5  UNL     1     -34.491  16.274  -1.500  1.00 20.00     0.057 A 
HETATM    7  C3  UNL     1     -33.680  17.468  -1.122  1.00 20.00     0.013 A 
HETATM    8  C4  UNL     1     -34.811  17.018  -0.247  1.00 20.00     0.013 A 
ENDBRANCH   4   6
ENDBRANCH   2   4
BRANCH   2   9
HETATM    9  C7  UNL     1     -34.820  14.118  -3.577  1.00 20.00     0.022 C 
HETATM   10  C6  UNL     1     -34.476  13.250  -4.783  1.00 20.00     0.007 C 
ENDBRANCH   2   9
TORSDOF 3
ENDMDL
MODEL 7
REMARK VINA RESULT:      -4.0      2.326      3.997
REMARK  3 active torsions:
REMARK  status: ('A' for Active; 'I' for Inactive)
REMARK    1  A    between atoms: C2_2  and  C5_5 
REMARK    2  A    between atoms: C2_2  and  C8_8 
REMARK    3  A    between atoms: C7_7  and  C8_8 
ROOT
HETATM    1  C1  UNL     1     -34.661  13.659  -5.006  1.00 20.00     0.071 C 
HETATM    2  C8  UNL     1     -34.352  14.985  -5.574  1.00 20.00     0.162 C 
HETATM    3  N9  UNL     1     -34.902  12.615  -4.563  1.00 20.00    -0.196 NA
ENDROOT
BRANCH   2   4
HETATM    4  C2  UNL     1     -33.682  15.881  -4.544  1.00 20.00     0.148 C 
HETATM    5  O10 UNL     1     -32.969  16.840  -4.821  1.00 20.00    -0.296 OA
BRANCH   4   6
HETATM    6  C5  UNL     1     -33.923  15.532  -3.112  1.00 20.00     0.057 A 
HETATM    7  C3  UNL     1     -33.807  16.609  -2.087  1.00 20.00     0.013 A 
HETATM    8  C4  UNL     1     -35.152  16.056  -2.450  1.00 20.00     0.013 A 
ENDBRANCH   4   6
ENDBRANCH   2   4
BRANCH   2   9
HETATM    9  C7  UNL     1     -35.600  15.652  -6.171  1.00 20.00     0.022 C 
HETATM   10  C6  UNL     1     -36.192  14.931  -7.378  1.00 20.00     0.007 C 
ENDBRANCH   2   9
TORSDOF 3
ENDMDL
MODEL 8
REMARK VINA RESULT:      -4.0      1.948      3.374
REMARK  3 active torsions:
REMARK  status: ('A' for Active; 'I' for Inactive)
REMARK    1  A    between atoms: C2_2  and  C5_5 
REMARK    2  A    between atoms: C2_2  and  C8_8 
REMARK    3  A    between atoms: C7_7  and  C8_8 
ROOT
HETATM    1  C1  UNL     1     -35.097  14.807  -6.647  1.00 20.00     0.071 C 
HETATM    2  C8  UNL     1     -35.524  14.898  -5.239  1.00 20.00     0.162 C 
HETATM    3  N9  UNL     1     -34.759  14.739  -7.755  1.00 20.00    -0.196 NA
ENDROOT
BRANCH   2   4
HETATM    4  C2  UNL     1     -34.897  13.794  -4.401  1.00 20.00     0.148 C 
HETATM    5  O10 UNL     1     -35.126  12.599  -4.550  1.00 20.00    -0.296 OA
BRANCH   4   6
HETATM    6  C5  UNL     1     -33.955  14.237  -3.330  1.00 20.00     0.057 A 
HETATM    7  C3  UNL     1     -32.891  15.222  -3.680  1.00 20.00     0.013 A 
HETATM    8  C4  UNL     1     -34.054  15.639  -2.831  1.00 20.00     0.013 A 
ENDBRANCH   4   6
ENDBRANCH   2   4
BRANCH   2   9
HETATM    9  C7  UNL     1     -37.055  14.900  -5.109  1.00 20.00     0.022 C 
HETATM   10  C6  UNL     1     -37.572  15.016  -3.679  1.00 20.00     0.007 C 
ENDBRANCH   2   9
TORSDOF 3
ENDMDL
MODEL 9
REMARK VINA RESULT:      -4.0      2.281      2.610
REMARK  3 active torsions:
REMARK  status: ('A' for Active; 'I' for Inactive)
REMARK    1  A    between atoms: C2_2  and  C5_5 
REMARK    2  A    between atoms: C2_2  and  C8_8 
REMARK    3  A    between atoms: C7_7  and  C8_8 
ROOT
HETATM    1  C1  UNL     1     -34.739  13.967  -3.997  1.00 20.00     0.071 C 
HETATM    2  C8  UNL     1     -34.655  15.424  -3.787  1.00 20.00     0.162 C 
HETATM    3  N9  UNL     1     -34.810  12.820  -4.162  1.00 20.00    -0.196 NA
ENDROOT
BRANCH   2   4
HETATM    4  C2  UNL     1     -34.108  16.126  -5.020  1.00 20.00     0.148 C 
HETATM    5  O10 UNL     1     -33.029  16.707  -5.063  1.00 20.00    -0.296 OA
BRANCH   4   6
HETATM    6  C5  UNL     1     -34.977  16.094  -6.235  1.00 20.00     0.057 A 
HETATM    7  C3  UNL     1     -34.510  16.801  -7.462  1.00 20.00     0.013 A 
HETATM    8  C4  UNL     1     -34.520  15.303  -7.414  1.00 20.00     0.013 A 
ENDBRANCH   4   6
ENDBRANCH   2   4
BRANCH   2   9
HETATM    9  C7  UNL     1     -33.836  15.770  -2.535  1.00 20.00     0.022 C 
HETATM   10  C6  UNL     1     -34.638  16.412  -1.407  1.00 20.00     0.007 C 
ENDBRANCH   2   9
TORSDOF 3
ENDMDL
