MODEL 1
REMARK VINA RESULT:      -4.3      0.000      0.000
REMARK  2 active torsions:
REMARK  status: ('A' for Active; 'I' for Inactive)
REMARK    1  A    between atoms: C1_1  and  C3_3 
REMARK    2  A    between atoms: C2_2  and  C7_7 
ROOT
HETATM    1  C1  UNL     1     -33.233   6.865   3.478  1.00 20.00     0.038 C 
HETATM    2  C2  UNL     1     -33.301   5.721   4.173  1.00 20.00    -0.015 C 
ENDROOT
BRANCH   2   3
HETATM    3  C7  UNL     1     -34.498   5.196   4.956  1.00 20.00    -0.034 C 
HETATM    4  C4  UNL     1     -35.772   5.500   4.149  1.00 20.00     0.018 C 
HETATM    5  C5  UNL     1     -34.450   3.684   5.242  1.00 20.00     0.018 C 
HETATM    6  C6  UNL     1     -34.562   5.945   6.299  1.00 20.00     0.018 C 
ENDBRANCH   2   3
BRANCH   1   7
HETATM    7  C3  UNL     1     -31.976   7.205   2.781  1.00 20.00     0.258 C 
HETATM    8  O8  UNL     1     -31.897   8.156   2.013  1.00 20.00    -0.302 OA
ENDBRANCH   1   7
TORSDOF 2
ENDMDL
MODEL 2
REMARK VINA RESULT:      -3.8     11.307     12.452
REMARK  2 active torsions:
REMARK  status: ('A' for Active; 'I' for Inactive)
REMARK    1  A    between atoms: C1_1  and  C3_3 
REMARK    2  A    between atoms: C2_2  and  C7_7 
ROOT
HETATM    1  C1  UNL     1     -34.935  14.765  -3.419  1.00 20.00     0.038 C 
HETATM    2  C2  UNL     1     -34.164  15.644  -2.764  1.00 20.00    -0.015 C 
ENDROOT
BRANCH   2   3
HETATM    3  C7  UNL     1     -34.611  16.948  -2.115  1.00 20.00    -0.034 C 
HETATM    4  C4  UNL     1     -34.603  16.754  -0.589  1.00 20.00     0.018 C 
HETATM    5  C5  UNL     1     -33.725  18.159  -2.460  1.00 20.00     0.018 C 
HETATM    6  C6  UNL     1     -36.048  17.248  -2.577  1.00 20.00     0.018 C 
ENDBRANCH   2   3
BRANCH   1   7
HETATM    7  C3  UNL     1     -34.314  13.549  -3.983  1.00 20.00     0.258 C 
HETATM    8  O8  UNL     1     -34.982  12.658  -4.493  1.00 20.00    -0.302 OA
ENDBRANCH   1   7
TORSDOF 2
ENDMDL
MODEL 3
REMARK VINA RESULT:      -3.8     11.393     12.361
REMARK  2 active torsions:
REMARK  status: ('A' for Active; 'I' for Inactive)
REMARK    1  A    between atoms: C1_1  and  C3_3 
REMARK    2  A    between atoms: C2_2  and  C7_7 
ROOT
HETATM    1  C1  UNL     1     -34.886  14.678  -3.436  1.00 20.00     0.038 C 
HETATM    2  C2  UNL     1     -34.139  15.645  -2.888  1.00 20.00    -0.015 C 
ENDROOT
BRANCH   2   3
HETATM    3  C7  UNL     1     -34.638  16.868  -2.130  1.00 20.00    -0.034 C 
HETATM    4  C4  UNL     1     -36.074  17.171  -2.594  1.00 20.00     0.018 C 
HETATM    5  C5  UNL     1     -34.644  16.702  -0.599  1.00 20.00     0.018 C 
HETATM    6  C6  UNL     1     -33.732  18.060  -2.487  1.00 20.00     0.018 C 
ENDBRANCH   2   3
BRANCH   1   7
HETATM    7  C3  UNL     1     -34.215  13.564  -4.138  1.00 20.00     0.258 C 
HETATM    8  O8  UNL     1     -34.837  12.605  -4.577  1.00 20.00    -0.302 OA
ENDBRANCH   1   7
TORSDOF 2
ENDMDL
MODEL 4
REMARK VINA RESULT:      -3.6     11.384     12.248
REMARK  2 active torsions:
REMARK  status: ('A' for Active; 'I' for Inactive)
REMARK    1  A    between atoms: C1_1  and  C3_3 
REMARK    2  A    between atoms: C2_2  and  C7_7 
ROOT
HETATM    1  C1  UNL     1     -34.819  16.221  -1.613  1.00 20.00     0.038 C 
HETATM    2  C2  UNL     1     -33.933  15.908  -2.568  1.00 20.00    -0.015 C 
ENDROOT
BRANCH   2   3
HETATM    3  C7  UNL     1     -34.161  14.991  -3.763  1.00 20.00    -0.034 C 
HETATM    4  C4  UNL     1     -33.842  15.781  -5.044  1.00 20.00     0.018 C 
HETATM    5  C5  UNL     1     -33.303  13.713  -3.750  1.00 20.00     0.018 C 
HETATM    6  C6  UNL     1     -35.645  14.582  -3.780  1.00 20.00     0.018 C 
ENDBRANCH   2   3
BRANCH   1   7
HETATM    7  C3  UNL     1     -34.408  17.133  -0.526  1.00 20.00     0.258 C 
HETATM    8  O8  UNL     1     -34.995  17.167   0.549  1.00 20.00    -0.302 OA
ENDBRANCH   1   7
TORSDOF 2
ENDMDL
MODEL 5
REMARK VINA RESULT:      -3.6     11.390     12.301
REMARK  2 active torsions:
REMARK  status: ('A' for Active; 'I' for Inactive)
REMARK    1  A    between atoms: C1_1  and  C3_3 
REMARK    2  A    between atoms: C2_2  and  C7_7 
ROOT
HETATM    1  C1  UNL     1     -34.815  16.169  -1.653  1.00 20.00     0.038 C 
HETATM    2  C2  UNL     1     -33.975  15.880  -2.656  1.00 20.00    -0.015 C 
ENDROOT
BRANCH   2   3
HETATM    3  C7  UNL     1     -34.244  14.958  -3.838  1.00 20.00    -0.034 C 
HETATM    4  C4  UNL     1     -33.303  13.745  -3.726  1.00 20.00     0.018 C 
HETATM    5  C5  UNL     1     -35.694  14.446  -3.922  1.00 20.00     0.018 C 
HETATM    6  C6  UNL     1     -33.923  15.726  -5.133  1.00 20.00     0.018 C 
ENDBRANCH   2   3
BRANCH   1   7
HETATM    7  C3  UNL     1     -34.369  17.092  -0.589  1.00 20.00     0.258 C 
HETATM    8  O8  UNL     1     -34.955  17.177   0.483  1.00 20.00    -0.302 OA
ENDBRANCH   1   7
TORSDOF 2
ENDMDL
MODEL 6
REMARK VINA RESULT:      -3.6     11.352     12.278
REMARK  2 active torsions:
REMARK  status: ('A' for Active; 'I' for Inactive)
REMARK    1  A    between atoms: C1_1  and  C3_3 
REMARK    2  A    between atoms: C2_2  and  C7_7 
ROOT
HETATM    1  C1  UNL     1     -34.859  16.240  -1.789  1.00 20.00     0.038 C 
HETATM    2  C2  UNL     1     -33.979  15.780  -2.689  1.00 20.00    -0.015 C 
ENDROOT
BRANCH   2   3
HETATM    3  C7  UNL     1     -34.280  14.906  -3.900  1.00 20.00    -0.034 C 
HETATM    4  C4  UNL     1     -35.768  14.516  -3.854  1.00 20.00     0.018 C 
HETATM    5  C5  UNL     1     -33.992  15.582  -5.253  1.00 20.00     0.018 C 
HETATM    6  C6  UNL     1     -33.423  13.632  -3.799  1.00 20.00     0.018 C 
ENDBRANCH   2   3
BRANCH   1   7
HETATM    7  C3  UNL     1     -34.372  17.079  -0.675  1.00 20.00     0.258 C 
HETATM    8  O8  UNL     1     -34.921  17.086   0.420  1.00 20.00    -0.302 OA
ENDBRANCH   1   7
TORSDOF 2
ENDMDL
MODEL 7
REMARK VINA RESULT:      -3.5     11.749     12.860
REMARK  2 active torsions:
REMARK  status: ('A' for Active; 'I' for Inactive)
REMARK    1  A    between atoms: C1_1  and  C3_3 
REMARK    2  A    between atoms: C2_2  and  C7_7 
ROOT
HETATM    1  C1  UNL     1     -36.408  15.159  -3.347  1.00 20.00     0.038 C 
HETATM    2  C2  UNL     1     -35.397  15.461  -4.172  1.00 20.00    -0.015 C 
ENDROOT
BRANCH   2   3
HETATM    3  C7  UNL     1     -33.916  15.520  -3.821  1.00 20.00    -0.034 C 
HETATM    4  C4  UNL     1     -33.769  16.236  -2.467  1.00 20.00     0.018 C 
HETATM    5  C5  UNL     1     -33.236  14.142  -3.722  1.00 20.00     0.018 C 
HETATM    6  C6  UNL     1     -33.196  16.342  -4.906  1.00 20.00     0.018 C 
ENDBRANCH   2   3
BRANCH   1   7
HETATM    7  C3  UNL     1     -37.787  15.155  -3.875  1.00 20.00     0.258 C 
HETATM    8  O8  UNL     1     -38.494  14.155  -3.837  1.00 20.00    -0.302 OA
ENDBRANCH   1   7
TORSDOF 2
ENDMDL
MODEL 8
REMARK VINA RESULT:      -3.4     11.718     12.880
REMARK  2 active torsions:
REMARK  status: ('A' for Active; 'I' for Inactive)
REMARK    1  A    between atoms: C1_1  and  C3_3 
REMARK    2  A    between atoms: C2_2  and  C7_7 
ROOT
HETATM    1  C1  UNL     1     -36.470  15.369  -3.384  1.00 20.00     0.038 C 
HETATM    2  C2  UNL     1     -35.407  15.335  -4.199  1.00 20.00    -0.015 C 
ENDROOT
BRANCH   2   3
HETATM    3  C7  UNL     1     -33.946  15.507  -3.806  1.00 20.00    -0.034 C 
HETATM    4  C4  UNL     1     -33.242  16.316  -4.910  1.00 20.00     0.018 C 
HETATM    5  C5  UNL     1     -33.735  16.226  -2.461  1.00 20.00     0.018 C 
HETATM    6  C6  UNL     1     -33.303  14.111  -3.718  1.00 20.00     0.018 C 
ENDBRANCH   2   3
BRANCH   1   7
HETATM    7  C3  UNL     1     -37.819  15.181  -3.956  1.00 20.00     0.258 C 
HETATM    8  O8  UNL     1     -38.441  14.135  -3.820  1.00 20.00    -0.302 OA
ENDBRANCH   1   7
TORSDOF 2
ENDMDL
MODEL 9
REMARK VINA RESULT:      -3.4     11.550     12.803
REMARK  2 active torsions:
REMARK  status: ('A' for Active; 'I' for Inactive)
REMARK    1  A    between atoms: C1_1  and  C3_3 
REMARK    2  A    between atoms: C2_2  and  C7_7 
ROOT
HETATM    1  C1  UNL     1     -36.548  15.700  -4.151  1.00 20.00     0.038 C 
HETATM    2  C2  UNL     1     -35.526  14.851  -3.978  1.00 20.00    -0.015 C 
ENDROOT
BRANCH   2   3
HETATM    3  C7  UNL     1     -34.060  15.212  -3.777  1.00 20.00    -0.034 C 
HETATM    4  C4  UNL     1     -33.253  13.907  -3.670  1.00 20.00     0.018 C 
HETATM    5  C5  UNL     1     -33.460  16.068  -4.908  1.00 20.00     0.018 C 
HETATM    6  C6  UNL     1     -33.932  15.993  -2.456  1.00 20.00     0.018 C 
ENDBRANCH   2   3
BRANCH   1   7
HETATM    7  C3  UNL     1     -37.909  15.156  -4.333  1.00 20.00     0.258 C 
HETATM    8  O8  UNL     1     -38.290  14.153  -3.742  1.00 20.00    -0.302 OA
ENDBRANCH   1   7
TORSDOF 2
ENDMDL
