MODEL 1
REMARK VINA RESULT:      -4.9      0.000      0.000
REMARK  3 active torsions:
REMARK  status: ('A' for Active; 'I' for Inactive)
REMARK    1  A    between atoms: C5_5  and  C9_9 
REMARK    2  A    between atoms: C8_8  and  N10_10 
REMARK    3  A    between atoms: C9_9  and  N10_10 
ROOT
HETATM    1  C1  UNL     1     -32.086   8.779   1.435  1.00 20.00     0.013 C 
HETATM    2  C2  UNL     1     -32.117   7.965   2.316  1.00 20.00    -0.087 C 
HETATM    3  C8  UNL     1     -32.148   6.971   3.392  1.00 20.00     0.364 C 
ENDROOT
BRANCH   3   4
HETATM    4  N10 UNL     1     -33.517   6.579   3.689  1.00 20.00     0.099 N 
HETATM    5  C7  UNL     1     -34.023   5.637   2.702  1.00 20.00     0.311 C 
BRANCH   4   6
HETATM    6  C9  UNL     1     -33.580   5.970   5.040  1.00 20.00     0.223 C 
HETATM    7  C6  UNL     1     -33.499   7.074   6.084  1.00 20.00     0.043 C 
BRANCH   6   8
HETATM    8  C5  UNL     1     -34.868   5.169   5.166  1.00 20.00     0.018 A 
HETATM    9  C3  UNL     1     -34.818   3.688   5.425  1.00 20.00     0.007 A 
HETATM   10  C4  UNL     1     -35.294   4.625   6.502  1.00 20.00     0.007 A 
ENDBRANCH   6   8
ENDBRANCH   4   6
ENDBRANCH   3   4
TORSDOF 3
ENDMDL
MODEL 2
REMARK VINA RESULT:      -4.7      1.046      1.863
REMARK  3 active torsions:
REMARK  status: ('A' for Active; 'I' for Inactive)
REMARK    1  A    between atoms: C5_5  and  C9_9 
REMARK    2  A    between atoms: C8_8  and  N10_10 
REMARK    3  A    between atoms: C9_9  and  N10_10 
ROOT
HETATM    1  C1  UNL     1     -32.152   9.130   0.921  1.00 20.00     0.013 C 
HETATM    2  C2  UNL     1     -32.169   8.460   1.917  1.00 20.00    -0.087 C 
HETATM    3  C8  UNL     1     -32.188   7.648   3.136  1.00 20.00     0.364 C 
ENDROOT
BRANCH   3   4
HETATM    4  N10 UNL     1     -33.008   6.461   2.949  1.00 20.00     0.099 N 
HETATM    5  C7  UNL     1     -32.223   5.246   3.104  1.00 20.00     0.311 C 
BRANCH   4   6
HETATM    6  C9  UNL     1     -34.122   6.465   3.928  1.00 20.00     0.223 C 
HETATM    7  C6  UNL     1     -35.245   5.582   3.403  1.00 20.00     0.043 C 
BRANCH   6   8
HETATM    8  C5  UNL     1     -33.604   5.977   5.274  1.00 20.00     0.018 A 
HETATM    9  C3  UNL     1     -33.926   6.738   6.531  1.00 20.00     0.007 A 
HETATM   10  C4  UNL     1     -34.553   5.394   6.284  1.00 20.00     0.007 A 
ENDBRANCH   6   8
ENDBRANCH   4   6
ENDBRANCH   3   4
TORSDOF 3
ENDMDL
MODEL 3
REMARK VINA RESULT:      -4.3     11.393     12.954
REMARK  3 active torsions:
REMARK  status: ('A' for Active; 'I' for Inactive)
REMARK    1  A    between atoms: C5_5  and  C9_9 
REMARK    2  A    between atoms: C8_8  and  N10_10 
REMARK    3  A    between atoms: C9_9  and  N10_10 
ROOT
HETATM    1  C1  UNL     1     -34.755  17.002  -0.208  1.00 20.00     0.013 C 
HETATM    2  C2  UNL     1     -34.375  16.641  -1.288  1.00 20.00    -0.087 C 
HETATM    3  C8  UNL     1     -33.906  16.204  -2.605  1.00 20.00     0.364 C 
ENDROOT
BRANCH   3   4
HETATM    4  N10 UNL     1     -34.727  15.112  -3.106  1.00 20.00     0.099 N 
HETATM    5  C7  UNL     1     -36.109  15.529  -3.286  1.00 20.00     0.311 C 
BRANCH   4   6
HETATM    6  C9  UNL     1     -34.178  14.625  -4.395  1.00 20.00     0.223 C 
HETATM    7  C6  UNL     1     -34.464  13.136  -4.523  1.00 20.00     0.043 C 
BRANCH   6   8
HETATM    8  C5  UNL     1     -34.805  15.419  -5.533  1.00 20.00     0.018 A 
HETATM    9  C3  UNL     1     -33.955  16.324  -6.382  1.00 20.00     0.007 A 
HETATM   10  C4  UNL     1     -34.511  15.053  -6.962  1.00 20.00     0.007 A 
ENDBRANCH   6   8
ENDBRANCH   4   6
ENDBRANCH   3   4
TORSDOF 3
ENDMDL
MODEL 4
REMARK VINA RESULT:      -4.2     11.346     13.155
REMARK  3 active torsions:
REMARK  status: ('A' for Active; 'I' for Inactive)
REMARK    1  A    between atoms: C5_5  and  C9_9 
REMARK    2  A    between atoms: C8_8  and  N10_10 
REMARK    3  A    between atoms: C9_9  and  N10_10 
ROOT
HETATM    1  C1  UNL     1     -34.397  17.017  -0.699  1.00 20.00     0.013 C 
HETATM    2  C2  UNL     1     -34.714  16.275  -1.587  1.00 20.00    -0.087 C 
HETATM    3  C8  UNL     1     -35.107  15.370  -2.670  1.00 20.00     0.364 C 
ENDROOT
BRANCH   3   4
HETATM    4  N10 UNL     1     -34.019  15.204  -3.622  1.00 20.00     0.099 N 
HETATM    5  C7  UNL     1     -33.684  13.799  -3.802  1.00 20.00     0.311 C 
BRANCH   4   6
HETATM    6  C9  UNL     1     -34.400  15.799  -4.925  1.00 20.00     0.223 C 
HETATM    7  C6  UNL     1     -33.368  16.850  -5.309  1.00 20.00     0.043 C 
BRANCH   6   8
HETATM    8  C5  UNL     1     -34.495  14.695  -5.969  1.00 20.00     0.018 A 
HETATM    9  C3  UNL     1     -35.734  14.552  -6.809  1.00 20.00     0.007 A 
HETATM   10  C4  UNL     1     -34.452  15.032  -7.433  1.00 20.00     0.007 A 
ENDBRANCH   6   8
ENDBRANCH   4   6
ENDBRANCH   3   4
TORSDOF 3
ENDMDL
MODEL 5
REMARK VINA RESULT:      -4.1     11.468     12.530
REMARK  3 active torsions:
REMARK  status: ('A' for Active; 'I' for Inactive)
REMARK    1  A    between atoms: C5_5  and  C9_9 
REMARK    2  A    between atoms: C8_8  and  N10_10 
REMARK    3  A    between atoms: C9_9  and  N10_10 
ROOT
HETATM    1  C1  UNL     1     -35.085  17.676   0.572  1.00 20.00     0.013 C 
HETATM    2  C2  UNL     1     -34.756  17.042  -0.393  1.00 20.00    -0.087 C 
HETATM    3  C8  UNL     1     -34.354  16.263  -1.567  1.00 20.00     0.364 C 
ENDROOT
BRANCH   3   4
HETATM    4  N10 UNL     1     -34.827  16.896  -2.789  1.00 20.00     0.099 N 
HETATM    5  C7  UNL     1     -34.143  18.157  -3.029  1.00 20.00     0.311 C 
BRANCH   4   6
HETATM    6  C9  UNL     1     -34.612  15.983  -3.938  1.00 20.00     0.223 C 
HETATM    7  C6  UNL     1     -33.321  16.372  -4.643  1.00 20.00     0.043 C 
BRANCH   6   8
HETATM    8  C5  UNL     1     -34.567  14.548  -3.433  1.00 20.00     0.018 A 
HETATM    9  C3  UNL     1     -35.246  13.451  -4.208  1.00 20.00     0.007 A 
HETATM   10  C4  UNL     1     -33.744  13.517  -4.154  1.00 20.00     0.007 A 
ENDBRANCH   6   8
ENDBRANCH   4   6
ENDBRANCH   3   4
TORSDOF 3
ENDMDL
MODEL 6
REMARK VINA RESULT:      -4.1     11.744     12.593
REMARK  3 active torsions:
REMARK  status: ('A' for Active; 'I' for Inactive)
REMARK    1  A    between atoms: C5_5  and  C9_9 
REMARK    2  A    between atoms: C8_8  and  N10_10 
REMARK    3  A    between atoms: C9_9  and  N10_10 
ROOT
HETATM    1  C1  UNL     1     -34.821  15.076  -7.717  1.00 20.00     0.013 C 
HETATM    2  C2  UNL     1     -34.737  14.642  -6.601  1.00 20.00    -0.087 C 
HETATM    3  C8  UNL     1     -34.632  14.109  -5.240  1.00 20.00     0.364 C 
ENDROOT
BRANCH   3   4
HETATM    4  N10 UNL     1     -35.245  15.017  -4.283  1.00 20.00     0.099 N 
HETATM    5  C7  UNL     1     -36.554  14.539  -3.865  1.00 20.00     0.311 C 
BRANCH   4   6
HETATM    6  C9  UNL     1     -34.364  15.164  -3.099  1.00 20.00     0.223 C 
HETATM    7  C6  UNL     1     -32.913  15.155  -3.558  1.00 20.00     0.043 C 
BRANCH   6   8
HETATM    8  C5  UNL     1     -34.716  16.455  -2.373  1.00 20.00     0.018 A 
HETATM    9  C3  UNL     1     -34.718  16.501  -0.869  1.00 20.00     0.007 A 
HETATM   10  C4  UNL     1     -33.653  17.228  -1.644  1.00 20.00     0.007 A 
ENDBRANCH   6   8
ENDBRANCH   4   6
ENDBRANCH   3   4
TORSDOF 3
ENDMDL
MODEL 7
REMARK VINA RESULT:      -4.0     11.228     12.418
REMARK  3 active torsions:
REMARK  status: ('A' for Active; 'I' for Inactive)
REMARK    1  A    between atoms: C5_5  and  C9_9 
REMARK    2  A    between atoms: C8_8  and  N10_10 
REMARK    3  A    between atoms: C9_9  and  N10_10 
ROOT
HETATM    1  C1  UNL     1     -34.143  15.760  -6.889  1.00 20.00     0.013 C 
HETATM    2  C2  UNL     1     -34.582  14.841  -6.255  1.00 20.00    -0.087 C 
HETATM    3  C8  UNL     1     -35.119  13.716  -5.485  1.00 20.00     0.364 C 
ENDROOT
BRANCH   3   4
HETATM    4  N10 UNL     1     -34.818  13.870  -4.070  1.00 20.00     0.099 N 
HETATM    5  C7  UNL     1     -33.398  13.688  -3.810  1.00 20.00     0.311 C 
BRANCH   4   6
HETATM    6  C9  UNL     1     -35.242  15.216  -3.614  1.00 20.00     0.223 C 
HETATM    7  C6  UNL     1     -36.734  15.189  -3.317  1.00 20.00     0.043 C 
BRANCH   6   8
HETATM    8  C5  UNL     1     -34.430  15.604  -2.385  1.00 20.00     0.018 A 
HETATM    9  C3  UNL     1     -33.802  16.967  -2.292  1.00 20.00     0.007 A 
HETATM   10  C4  UNL     1     -34.968  16.614  -1.410  1.00 20.00     0.007 A 
ENDBRANCH   6   8
ENDBRANCH   4   6
ENDBRANCH   3   4
TORSDOF 3
ENDMDL
MODEL 8
REMARK VINA RESULT:      -4.0     11.338     12.450
REMARK  3 active torsions:
REMARK  status: ('A' for Active; 'I' for Inactive)
REMARK    1  A    between atoms: C5_5  and  C9_9 
REMARK    2  A    between atoms: C8_8  and  N10_10 
REMARK    3  A    between atoms: C9_9  and  N10_10 
ROOT
HETATM    1  C1  UNL     1     -38.673  14.771  -3.900  1.00 20.00     0.013 C 
HETATM    2  C2  UNL     1     -37.523  15.095  -4.013  1.00 20.00    -0.087 C 
HETATM    3  C8  UNL     1     -36.121  15.496  -4.153  1.00 20.00     0.364 C 
ENDROOT
BRANCH   3   4
HETATM    4  N10 UNL     1     -35.259  14.638  -3.355  1.00 20.00     0.099 N 
HETATM    5  C7  UNL     1     -34.814  13.481  -4.117  1.00 20.00     0.311 C 
BRANCH   4   6
HETATM    6  C9  UNL     1     -34.083  15.410  -2.885  1.00 20.00     0.223 C 
HETATM    7  C6  UNL     1     -33.214  15.765  -4.083  1.00 20.00     0.043 C 
BRANCH   6   8
HETATM    8  C5  UNL     1     -34.564  16.654  -2.151  1.00 20.00     0.018 A 
HETATM    9  C3  UNL     1     -34.682  16.650  -0.652  1.00 20.00     0.007 A 
HETATM   10  C4  UNL     1     -33.606  17.461  -1.320  1.00 20.00     0.007 A 
ENDBRANCH   6   8
ENDBRANCH   4   6
ENDBRANCH   3   4
TORSDOF 3
ENDMDL
MODEL 9
REMARK VINA RESULT:      -3.9     11.543     12.713
REMARK  3 active torsions:
REMARK  status: ('A' for Active; 'I' for Inactive)
REMARK    1  A    between atoms: C5_5  and  C9_9 
REMARK    2  A    between atoms: C8_8  and  N10_10 
REMARK    3  A    between atoms: C9_9  and  N10_10 
ROOT
HETATM    1  C1  UNL     1     -34.815  13.244  -4.309  1.00 20.00     0.013 C 
HETATM    2  C2  UNL     1     -33.970  14.048  -4.025  1.00 20.00    -0.087 C 
HETATM    3  C8  UNL     1     -32.935  15.024  -3.676  1.00 20.00     0.364 C 
ENDROOT
BRANCH   3   4
HETATM    4  N10 UNL     1     -33.208  16.309  -4.301  1.00 20.00     0.099 N 
HETATM    5  C7  UNL     1     -33.953  16.145  -5.541  1.00 20.00     0.311 C 
BRANCH   4   6
HETATM    6  C9  UNL     1     -33.976  17.166  -3.366  1.00 20.00     0.223 C 
HETATM    7  C6  UNL     1     -35.447  17.125  -3.753  1.00 20.00     0.043 C 
BRANCH   6   8
HETATM    8  C5  UNL     1     -33.756  16.673  -1.943  1.00 20.00     0.018 A 
HETATM    9  C3  UNL     1     -33.526  17.656  -0.828  1.00 20.00     0.007 A 
HETATM   10  C4  UNL     1     -34.814  16.882  -0.896  1.00 20.00     0.007 A 
ENDBRANCH   6   8
ENDBRANCH   4   6
ENDBRANCH   3   4
TORSDOF 3
ENDMDL
