MODEL 1
REMARK VINA RESULT:      -4.0      0.000      0.000
REMARK  3 active torsions:
REMARK  status: ('A' for Active; 'I' for Inactive)
REMARK    1  A    between atoms: C4_4  and  C8_8 
REMARK    2  A    between atoms: C7_7  and  N10_10 
REMARK    3  A    between atoms: C8_8  and  N10_10 
ROOT
HETATM    1  C1  UNL     1     -34.887  13.804  -4.929  1.00 20.00     0.089 C 
HETATM    2  C7  UNL     1     -34.883  15.199  -5.363  1.00 20.00     0.395 C 
HETATM    3  N9  UNL     1     -34.890  12.695  -4.588  1.00 20.00    -0.195 NA
ENDROOT
BRANCH   2   4
HETATM    4  N10 UNL     1     -35.456  16.062  -4.339  1.00 20.00     0.101 N 
HETATM    5  C6  UNL     1     -36.627  16.767  -4.839  1.00 20.00     0.311 C 
BRANCH   4   6
HETATM    6  C8  UNL     1     -34.439  17.042  -3.885  1.00 20.00     0.223 C 
HETATM    7  C5  UNL     1     -33.399  17.214  -4.982  1.00 20.00     0.043 C 
BRANCH   6   8
HETATM    8  C4  UNL     1     -33.815  16.547  -2.588  1.00 20.00     0.018 A 
HETATM    9  C2  UNL     1     -33.730  17.456  -1.393  1.00 20.00     0.007 A 
HETATM   10  C3  UNL     1     -34.677  16.288  -1.384  1.00 20.00     0.007 A 
ENDBRANCH   6   8
ENDBRANCH   4   6
ENDBRANCH   2   4
TORSDOF 3
ENDMDL
MODEL 2
REMARK VINA RESULT:      -4.0      1.594      1.688
REMARK  3 active torsions:
REMARK  status: ('A' for Active; 'I' for Inactive)
REMARK    1  A    between atoms: C4_4  and  C8_8 
REMARK    2  A    between atoms: C7_7  and  N10_10 
REMARK    3  A    between atoms: C8_8  and  N10_10 
ROOT
HETATM    1  C1  UNL     1     -37.071  14.704  -3.822  1.00 20.00     0.089 C 
HETATM    2  C7  UNL     1     -35.696  15.198  -3.870  1.00 20.00     0.395 C 
HETATM    3  N9  UNL     1     -38.162  14.309  -3.786  1.00 20.00    -0.195 NA
ENDROOT
BRANCH   2   4
HETATM    4  N10 UNL     1     -35.639  16.608  -3.510  1.00 20.00     0.101 N 
HETATM    5  C6  UNL     1     -36.242  17.440  -4.540  1.00 20.00     0.311 C 
BRANCH   4   6
HETATM    6  C8  UNL     1     -34.227  17.013  -3.302  1.00 20.00     0.223 C 
HETATM    7  C5  UNL     1     -33.362  16.337  -4.355  1.00 20.00     0.043 C 
BRANCH   6   8
HETATM    8  C4  UNL     1     -33.801  16.631  -1.892  1.00 20.00     0.018 A 
HETATM    9  C2  UNL     1     -33.513  17.697  -0.872  1.00 20.00     0.007 A 
HETATM   10  C3  UNL     1     -34.739  16.838  -0.735  1.00 20.00     0.007 A 
ENDBRANCH   6   8
ENDBRANCH   4   6
ENDBRANCH   2   4
TORSDOF 3
ENDMDL
MODEL 3
REMARK VINA RESULT:      -3.7      1.492      2.684
REMARK  3 active torsions:
REMARK  status: ('A' for Active; 'I' for Inactive)
REMARK    1  A    between atoms: C4_4  and  C8_8 
REMARK    2  A    between atoms: C7_7  and  N10_10 
REMARK    3  A    between atoms: C8_8  and  N10_10 
ROOT
HETATM    1  C1  UNL     1     -34.958  13.571  -4.141  1.00 20.00     0.089 C 
HETATM    2  C7  UNL     1     -35.015  14.786  -3.331  1.00 20.00     0.395 C 
HETATM    3  N9  UNL     1     -34.914  12.604  -4.782  1.00 20.00    -0.195 NA
ENDROOT
BRANCH   2   4
HETATM    4  N10 UNL     1     -33.883  15.655  -3.620  1.00 20.00     0.101 N 
HETATM    5  C6  UNL     1     -32.632  14.913  -3.608  1.00 20.00     0.311 C 
BRANCH   4   6
HETATM    6  C8  UNL     1     -33.825  16.748  -2.619  1.00 20.00     0.223 C 
HETATM    7  C5  UNL     1     -34.661  16.353  -1.411  1.00 20.00     0.043 C 
BRANCH   6   8
HETATM    8  C4  UNL     1     -34.329  18.035  -3.256  1.00 20.00     0.018 A 
HETATM    9  C2  UNL     1     -33.448  19.253  -3.301  1.00 20.00     0.007 A 
HETATM   10  C3  UNL     1     -33.761  18.504  -4.567  1.00 20.00     0.007 A 
ENDBRANCH   6   8
ENDBRANCH   4   6
ENDBRANCH   2   4
TORSDOF 3
ENDMDL
MODEL 4
REMARK VINA RESULT:      -3.7      1.803      2.351
REMARK  3 active torsions:
REMARK  status: ('A' for Active; 'I' for Inactive)
REMARK    1  A    between atoms: C4_4  and  C8_8 
REMARK    2  A    between atoms: C7_7  and  N10_10 
REMARK    3  A    between atoms: C8_8  and  N10_10 
ROOT
HETATM    1  C1  UNL     1     -35.479  14.482  -6.871  1.00 20.00     0.089 C 
HETATM    2  C7  UNL     1     -34.626  14.278  -5.702  1.00 20.00     0.395 C 
HETATM    3  N9  UNL     1     -36.155  14.641  -7.801  1.00 20.00    -0.195 NA
ENDROOT
BRANCH   2   4
HETATM    4  N10 UNL     1     -34.469  15.516  -4.952  1.00 20.00     0.101 N 
HETATM    5  C6  UNL     1     -33.697  16.493  -5.704  1.00 20.00     0.311 C 
BRANCH   4   6
HETATM    6  C8  UNL     1     -33.799  15.236  -3.660  1.00 20.00     0.223 C 
HETATM    7  C5  UNL     1     -33.276  13.807  -3.677  1.00 20.00     0.043 C 
BRANCH   6   8
HETATM    8  C4  UNL     1     -34.789  15.460  -2.526  1.00 20.00     0.018 A 
HETATM    9  C2  UNL     1     -34.483  16.452  -1.438  1.00 20.00     0.007 A 
HETATM   10  C3  UNL     1     -35.565  16.744  -2.441  1.00 20.00     0.007 A 
ENDBRANCH   6   8
ENDBRANCH   4   6
ENDBRANCH   2   4
TORSDOF 3
ENDMDL
MODEL 5
REMARK VINA RESULT:      -3.7      1.879      3.284
REMARK  3 active torsions:
REMARK  status: ('A' for Active; 'I' for Inactive)
REMARK    1  A    between atoms: C4_4  and  C8_8 
REMARK    2  A    between atoms: C7_7  and  N10_10 
REMARK    3  A    between atoms: C8_8  and  N10_10 
ROOT
HETATM    1  C1  UNL     1     -33.679  17.645  -5.165  1.00 20.00     0.089 C 
HETATM    2  C7  UNL     1     -34.001  16.260  -4.826  1.00 20.00     0.395 C 
HETATM    3  N9  UNL     1     -33.424  18.744  -5.438  1.00 20.00    -0.195 NA
ENDROOT
BRANCH   2   4
HETATM    4  N10 UNL     1     -33.433  15.897  -3.535  1.00 20.00     0.101 N 
HETATM    5  C6  UNL     1     -32.604  14.706  -3.641  1.00 20.00     0.311 C 
BRANCH   4   6
HETATM    6  C8  UNL     1     -34.523  15.662  -2.557  1.00 20.00     0.223 C 
HETATM    7  C5  UNL     1     -35.771  15.224  -3.310  1.00 20.00     0.043 C 
BRANCH   6   8
HETATM    8  C4  UNL     1     -34.763  16.937  -1.763  1.00 20.00     0.018 A 
HETATM    9  C2  UNL     1     -34.730  16.910  -0.259  1.00 20.00     0.007 A 
HETATM   10  C3  UNL     1     -33.630  17.593  -1.024  1.00 20.00     0.007 A 
ENDBRANCH   6   8
ENDBRANCH   4   6
ENDBRANCH   2   4
TORSDOF 3
ENDMDL
MODEL 6
REMARK VINA RESULT:      -3.6      1.727      4.159
REMARK  3 active torsions:
REMARK  status: ('A' for Active; 'I' for Inactive)
REMARK    1  A    between atoms: C4_4  and  C8_8 
REMARK    2  A    between atoms: C7_7  and  N10_10 
REMARK    3  A    between atoms: C8_8  and  N10_10 
ROOT
HETATM    1  C1  UNL     1     -34.492  16.105  -1.829  1.00 20.00     0.089 C 
HETATM    2  C7  UNL     1     -34.375  15.211  -2.979  1.00 20.00     0.395 C 
HETATM    3  N9  UNL     1     -34.583  16.813  -0.913  1.00 20.00    -0.195 NA
ENDROOT
BRANCH   2   4
HETATM    4  N10 UNL     1     -35.353  15.551  -4.002  1.00 20.00     0.101 N 
HETATM    5  C6  UNL     1     -36.689  15.664  -3.437  1.00 20.00     0.311 C 
BRANCH   4   6
HETATM    6  C8  UNL     1     -35.345  14.515  -5.064  1.00 20.00     0.223 C 
HETATM    7  C5  UNL     1     -35.017  13.169  -4.435  1.00 20.00     0.043 C 
BRANCH   6   8
HETATM    8  C4  UNL     1     -34.331  14.902  -6.129  1.00 20.00     0.018 A 
HETATM    9  C2  UNL     1     -34.749  15.012  -7.570  1.00 20.00     0.007 A 
HETATM   10  C3  UNL     1     -34.403  16.251  -6.791  1.00 20.00     0.007 A 
ENDBRANCH   6   8
ENDBRANCH   4   6
ENDBRANCH   2   4
TORSDOF 3
ENDMDL
MODEL 7
REMARK VINA RESULT:      -3.6      1.999      3.965
REMARK  3 active torsions:
REMARK  status: ('A' for Active; 'I' for Inactive)
REMARK    1  A    between atoms: C4_4  and  C8_8 
REMARK    2  A    between atoms: C7_7  and  N10_10 
REMARK    3  A    between atoms: C8_8  and  N10_10 
ROOT
HETATM    1  C1  UNL     1     -37.099  14.759  -3.677  1.00 20.00     0.089 C 
HETATM    2  C7  UNL     1     -35.728  15.250  -3.564  1.00 20.00     0.395 C 
HETATM    3  N9  UNL     1     -38.189  14.370  -3.763  1.00 20.00    -0.195 NA
ENDROOT
BRANCH   2   4
HETATM    4  N10 UNL     1     -34.831  14.487  -4.421  1.00 20.00     0.101 N 
HETATM    5  C6  UNL     1     -33.862  13.738  -3.636  1.00 20.00     0.311 C 
BRANCH   4   6
HETATM    6  C8  UNL     1     -34.123  15.406  -5.346  1.00 20.00     0.223 C 
HETATM    7  C5  UNL     1     -33.811  16.700  -4.609  1.00 20.00     0.043 C 
BRANCH   6   8
HETATM    8  C4  UNL     1     -34.994  15.650  -6.569  1.00 20.00     0.018 A 
HETATM    9  C2  UNL     1     -34.566  15.139  -7.918  1.00 20.00     0.007 A 
HETATM   10  C3  UNL     1     -35.735  14.510  -7.211  1.00 20.00     0.007 A 
ENDBRANCH   6   8
ENDBRANCH   4   6
ENDBRANCH   2   4
TORSDOF 3
ENDMDL
MODEL 8
REMARK VINA RESULT:      -3.6      1.776      2.662
REMARK  3 active torsions:
REMARK  status: ('A' for Active; 'I' for Inactive)
REMARK    1  A    between atoms: C4_4  and  C8_8 
REMARK    2  A    between atoms: C7_7  and  N10_10 
REMARK    3  A    between atoms: C8_8  and  N10_10 
ROOT
HETATM    1  C1  UNL     1     -34.789  14.773  -6.565  1.00 20.00     0.089 C 
HETATM    2  C7  UNL     1     -35.505  14.468  -5.328  1.00 20.00     0.395 C 
HETATM    3  N9  UNL     1     -34.223  15.012  -7.550  1.00 20.00    -0.195 NA
ENDROOT
BRANCH   2   4
HETATM    4  N10 UNL     1     -34.692  14.792  -4.165  1.00 20.00     0.101 N 
HETATM    5  C6  UNL     1     -33.801  13.694  -3.822  1.00 20.00     0.311 C 
BRANCH   4   6
HETATM    6  C8  UNL     1     -35.571  15.103  -3.012  1.00 20.00     0.223 C 
HETATM    7  C5  UNL     1     -37.017  15.110  -3.485  1.00 20.00     0.043 C 
BRANCH   6   8
HETATM    8  C4  UNL     1     -35.164  16.445  -2.422  1.00 20.00     0.018 A 
HETATM    9  C2  UNL     1     -34.699  16.537  -0.995  1.00 20.00     0.007 A 
HETATM   10  C3  UNL     1     -33.720  16.733  -2.119  1.00 20.00     0.007 A 
ENDBRANCH   6   8
ENDBRANCH   4   6
ENDBRANCH   2   4
TORSDOF 3
ENDMDL
MODEL 9
REMARK VINA RESULT:      -3.6      2.089      2.662
REMARK  3 active torsions:
REMARK  status: ('A' for Active; 'I' for Inactive)
REMARK    1  A    between atoms: C4_4  and  C8_8 
REMARK    2  A    between atoms: C7_7  and  N10_10 
REMARK    3  A    between atoms: C8_8  and  N10_10 
ROOT
HETATM    1  C1  UNL     1     -37.645  14.817  -4.584  1.00 20.00     0.089 C 
HETATM    2  C7  UNL     1     -36.881  15.362  -5.705  1.00 20.00     0.395 C 
HETATM    3  N9  UNL     1     -38.255  14.384  -3.696  1.00 20.00    -0.195 NA
ENDROOT
BRANCH   2   4
HETATM    4  N10 UNL     1     -35.779  16.186  -5.229  1.00 20.00     0.101 N 
HETATM    5  C6  UNL     1     -35.862  17.536  -5.764  1.00 20.00     0.311 C 
BRANCH   4   6
HETATM    6  C8  UNL     1     -34.489  15.570  -5.623  1.00 20.00     0.223 C 
HETATM    7  C5  UNL     1     -34.684  14.814  -6.930  1.00 20.00     0.043 C 
BRANCH   6   8
HETATM    8  C4  UNL     1     -34.013  14.651  -4.507  1.00 20.00     0.018 A 
HETATM    9  C2  UNL     1     -32.841  15.044  -3.651  1.00 20.00     0.007 A 
HETATM   10  C3  UNL     1     -34.227  15.033  -3.069  1.00 20.00     0.007 A 
ENDBRANCH   6   8
ENDBRANCH   4   6
ENDBRANCH   2   4
TORSDOF 3
ENDMDL
