MODEL 1
REMARK VINA RESULT:      -5.3      0.000      0.000
REMARK  1 active torsions:
REMARK  status: ('A' for Active; 'I' for Inactive)
REMARK    1  A    between atoms: C7_7  and  O11_11 
ROOT
HETATM    1  C1  UNL     1     -35.107   4.344   6.156  1.00 20.00    -0.027 C 
HETATM    2  C2  UNL     1     -34.789   5.521   6.726  1.00 20.00     0.001 C 
HETATM    3  C3  UNL     1     -34.799   3.998   4.716  1.00 20.00     0.036 C 
HETATM    4  C4  UNL     1     -32.855   6.310   2.385  1.00 20.00     0.001 C 
HETATM    5  C5  UNL     1     -32.882   7.088   3.712  1.00 20.00     0.008 C 
HETATM    6  C6  UNL     1     -33.614   4.991   2.627  1.00 20.00     0.010 C 
HETATM    7  C7  UNL     1     -34.054   6.625   6.001  1.00 20.00     0.145 C 
HETATM    8  C8  UNL     1     -33.441   6.084   4.712  1.00 20.00     0.026 C 
HETATM    9  C9  UNL     1     -34.442   5.250   3.892  1.00 20.00    -0.035 C 
HETATM   10  C10 UNL     1     -35.736   6.008   3.511  1.00 20.00     0.016 C 
ENDROOT
BRANCH   7  11
HETATM   11  O11 UNL     1     -33.021   7.114   6.849  1.00 20.00    -0.391 OA
HETATM   12  H27 UNL     1     -33.178   6.734   7.727  1.00 20.00     0.210 HD
ENDBRANCH   7  11
TORSDOF 1
ENDMDL
MODEL 2
REMARK VINA RESULT:      -5.1     12.143     13.749
REMARK  1 active torsions:
REMARK  status: ('A' for Active; 'I' for Inactive)
REMARK    1  A    between atoms: C7_7  and  O11_11 
ROOT
HETATM    1  C1  UNL     1     -34.464  14.960  -6.754  1.00 20.00    -0.027 C 
HETATM    2  C2  UNL     1     -35.149  13.990  -6.118  1.00 20.00     0.001 C 
HETATM    3  C3  UNL     1     -33.892  16.176  -6.060  1.00 20.00     0.036 C 
HETATM    4  C4  UNL     1     -34.076  16.706  -2.286  1.00 20.00     0.001 C 
HETATM    5  C5  UNL     1     -34.764  15.345  -2.485  1.00 20.00     0.008 C 
HETATM    6  C6  UNL     1     -33.650  17.198  -3.684  1.00 20.00     0.010 C 
HETATM    7  C7  UNL     1     -35.398  13.989  -4.628  1.00 20.00     0.145 C 
HETATM    8  C8  UNL     1     -34.489  15.007  -3.945  1.00 20.00     0.026 C 
HETATM    9  C9  UNL     1     -34.499  16.372  -4.658  1.00 20.00    -0.035 C 
HETATM   10  C10 UNL     1     -35.903  17.011  -4.783  1.00 20.00     0.016 C 
ENDROOT
BRANCH   7  11
HETATM   11  O11 UNL     1     -35.116  12.688  -4.123  1.00 20.00    -0.391 OA
HETATM   12  H27 UNL     1     -34.344  12.361  -4.610  1.00 20.00     0.210 HD
ENDBRANCH   7  11
TORSDOF 1
ENDMDL
MODEL 3
REMARK VINA RESULT:      -4.9     11.976     13.689
REMARK  1 active torsions:
REMARK  status: ('A' for Active; 'I' for Inactive)
REMARK    1  A    between atoms: C7_7  and  O11_11 
ROOT
HETATM    1  C1  UNL     1     -32.892  14.956  -3.521  1.00 20.00    -0.027 C 
HETATM    2  C2  UNL     1     -33.376  13.765  -3.920  1.00 20.00     0.001 C 
HETATM    3  C3  UNL     1     -33.572  16.277  -3.806  1.00 20.00     0.036 C 
HETATM    4  C4  UNL     1     -36.948  16.550  -5.563  1.00 20.00     0.001 C 
HETATM    5  C5  UNL     1     -36.707  15.033  -5.495  1.00 20.00     0.008 C 
HETATM    6  C6  UNL     1     -35.730  17.224  -4.901  1.00 20.00     0.010 C 
HETATM    7  C7  UNL     1     -34.677  13.607  -4.673  1.00 20.00     0.145 C 
HETATM    8  C8  UNL     1     -35.489  14.896  -4.591  1.00 20.00     0.026 C 
HETATM    9  C9  UNL     1     -34.642  16.142  -4.906  1.00 20.00    -0.035 C 
HETATM   10  C10 UNL     1     -33.959  16.111  -6.295  1.00 20.00     0.016 C 
ENDROOT
BRANCH   7  11
HETATM   11  O11 UNL     1     -35.416  12.542  -4.083  1.00 20.00    -0.391 OA
HETATM   12  H27 UNL     1     -36.069  12.950  -3.495  1.00 20.00     0.210 HD
ENDBRANCH   7  11
TORSDOF 1
ENDMDL
MODEL 4
REMARK VINA RESULT:      -4.9     11.928     12.989
REMARK  1 active torsions:
REMARK  status: ('A' for Active; 'I' for Inactive)
REMARK    1  A    between atoms: C7_7  and  O11_11 
ROOT
HETATM    1  C1  UNL     1     -33.945  13.341  -4.227  1.00 20.00    -0.027 C 
HETATM    2  C2  UNL     1     -35.232  13.446  -4.609  1.00 20.00     0.001 C 
HETATM    3  C3  UNL     1     -33.230  14.379  -3.390  1.00 20.00     0.036 C 
HETATM    4  C4  UNL     1     -34.959  17.473  -1.978  1.00 20.00     0.001 C 
HETATM    5  C5  UNL     1     -36.092  16.742  -2.718  1.00 20.00     0.008 C 
HETATM    6  C6  UNL     1     -33.687  16.621  -2.159  1.00 20.00     0.010 C 
HETATM    7  C7  UNL     1     -36.124  14.601  -4.216  1.00 20.00     0.145 C 
HETATM    8  C8  UNL     1     -35.481  15.395  -3.082  1.00 20.00     0.026 C 
HETATM    9  C9  UNL     1     -34.000  15.713  -3.356  1.00 20.00    -0.035 C 
HETATM   10  C10 UNL     1     -33.750  16.492  -4.669  1.00 20.00     0.016 C 
ENDROOT
BRANCH   7  11
HETATM   11  O11 UNL     1     -37.375  14.080  -3.781  1.00 20.00    -0.391 OA
HETATM   12  H27 UNL     1     -38.051  14.725  -4.042  1.00 20.00     0.210 HD
ENDBRANCH   7  11
TORSDOF 1
ENDMDL
MODEL 5
REMARK VINA RESULT:      -4.8     12.309     13.858
REMARK  1 active torsions:
REMARK  status: ('A' for Active; 'I' for Inactive)
REMARK    1  A    between atoms: C7_7  and  O11_11 
ROOT
HETATM    1  C1  UNL     1     -34.812  13.335  -4.608  1.00 20.00    -0.027 C 
HETATM    2  C2  UNL     1     -33.798  13.743  -3.822  1.00 20.00     0.001 C 
HETATM    3  C3  UNL     1     -35.498  14.225  -5.621  1.00 20.00     0.036 C 
HETATM    4  C4  UNL     1     -34.393  17.804  -6.345  1.00 20.00     0.001 C 
HETATM    5  C5  UNL     1     -33.387  17.332  -5.282  1.00 20.00     0.008 C 
HETATM    6  C6  UNL     1     -35.352  16.625  -6.605  1.00 20.00     0.010 C 
HETATM    7  C7  UNL     1     -33.205  15.132  -3.884  1.00 20.00     0.145 C 
HETATM    8  C8  UNL     1     -33.662  15.839  -5.156  1.00 20.00     0.026 C 
HETATM    9  C9  UNL     1     -35.179  15.713  -5.383  1.00 20.00    -0.035 C 
HETATM   10  C10 UNL     1     -36.042  16.250  -4.217  1.00 20.00     0.016 C 
ENDROOT
BRANCH   7  11
HETATM   11  O11 UNL     1     -31.785  15.018  -3.887  1.00 20.00    -0.391 OA
HETATM   12  H27 UNL     1     -31.451  15.727  -4.459  1.00 20.00     0.210 HD
ENDBRANCH   7  11
TORSDOF 1
ENDMDL
MODEL 6
REMARK VINA RESULT:      -4.8     12.370     13.999
REMARK  1 active torsions:
REMARK  status: ('A' for Active; 'I' for Inactive)
REMARK    1  A    between atoms: C7_7  and  O11_11 
ROOT
HETATM    1  C1  UNL     1     -35.002  15.437  -2.917  1.00 20.00    -0.027 C 
HETATM    2  C2  UNL     1     -34.494  14.247  -3.289  1.00 20.00     0.001 C 
HETATM    3  C3  UNL     1     -35.359  16.539  -3.890  1.00 20.00     0.036 C 
HETATM    4  C4  UNL     1     -35.094  16.145  -7.676  1.00 20.00     0.001 C 
HETATM    5  C5  UNL     1     -34.648  14.772  -7.147  1.00 20.00     0.008 C 
HETATM    6  C6  UNL     1     -35.427  17.010  -6.444  1.00 20.00     0.010 C 
HETATM    7  C7  UNL     1     -34.251  13.860  -4.729  1.00 20.00     0.145 C 
HETATM    8  C8  UNL     1     -34.974  14.830  -5.659  1.00 20.00     0.026 C 
HETATM    9  C9  UNL     1     -34.730  16.301  -5.276  1.00 20.00    -0.035 C 
HETATM   10  C10 UNL     1     -33.238  16.709  -5.247  1.00 20.00     0.016 C 
ENDROOT
BRANCH   7  11
HETATM   11  O11 UNL     1     -34.751  12.543  -4.935  1.00 20.00    -0.391 OA
HETATM   12  H27 UNL     1     -35.706  12.580  -4.770  1.00 20.00     0.210 HD
ENDBRANCH   7  11
TORSDOF 1
ENDMDL
MODEL 7
REMARK VINA RESULT:      -4.8     12.276     13.436
REMARK  1 active torsions:
REMARK  status: ('A' for Active; 'I' for Inactive)
REMARK    1  A    between atoms: C7_7  and  O11_11 
ROOT
HETATM    1  C1  UNL     1     -33.599  15.979  -2.797  1.00 20.00    -0.027 C 
HETATM    2  C2  UNL     1     -34.844  15.849  -2.302  1.00 20.00     0.001 C 
HETATM    3  C3  UNL     1     -33.240  15.726  -4.245  1.00 20.00     0.036 C 
HETATM    4  C4  UNL     1     -35.822  14.844  -6.912  1.00 20.00     0.001 C 
HETATM    5  C5  UNL     1     -36.672  15.020  -5.642  1.00 20.00     0.008 C 
HETATM    6  C6  UNL     1     -34.358  15.103  -6.506  1.00 20.00     0.010 C 
HETATM    7  C7  UNL     1     -36.038  15.466  -3.146  1.00 20.00     0.145 C 
HETATM    8  C8  UNL     1     -35.697  15.602  -4.627  1.00 20.00     0.026 C 
HETATM    9  C9  UNL     1     -34.348  14.948  -4.980  1.00 20.00    -0.035 C 
HETATM   10  C10 UNL     1     -34.258  13.446  -4.618  1.00 20.00     0.016 C 
ENDROOT
BRANCH   7  11
HETATM   11  O11 UNL     1     -37.118  16.337  -2.825  1.00 20.00    -0.391 OA
HETATM   12  H27 UNL     1     -37.468  16.042  -1.971  1.00 20.00     0.210 HD
ENDBRANCH   7  11
TORSDOF 1
ENDMDL
MODEL 8
REMARK VINA RESULT:      -4.7     12.541     13.668
REMARK  1 active torsions:
REMARK  status: ('A' for Active; 'I' for Inactive)
REMARK    1  A    between atoms: C7_7  and  O11_11 
ROOT
HETATM    1  C1  UNL     1     -34.890  15.852  -2.288  1.00 20.00    -0.027 C 
HETATM    2  C2  UNL     1     -33.628  16.071  -2.703  1.00 20.00     0.001 C 
HETATM    3  C3  UNL     1     -36.024  15.474  -3.215  1.00 20.00     0.036 C 
HETATM    4  C4  UNL     1     -35.548  14.850  -6.949  1.00 20.00     0.001 C 
HETATM    5  C5  UNL     1     -34.126  15.173  -6.461  1.00 20.00     0.008 C 
HETATM    6  C6  UNL     1     -36.471  14.933  -5.717  1.00 20.00     0.010 C 
HETATM    7  C7  UNL     1     -33.190  15.932  -4.142  1.00 20.00     0.145 C 
HETATM    8  C8  UNL     1     -34.256  15.190  -4.943  1.00 20.00     0.026 C 
HETATM    9  C9  UNL     1     -35.669  15.743  -4.690  1.00 20.00    -0.035 C 
HETATM   10  C10 UNL     1     -35.824  17.252  -4.996  1.00 20.00     0.016 C 
ENDROOT
BRANCH   7  11
HETATM   11  O11 UNL     1     -31.972  15.195  -4.176  1.00 20.00    -0.391 OA
HETATM   12  H27 UNL     1     -31.864  14.795  -3.299  1.00 20.00     0.210 HD
ENDBRANCH   7  11
TORSDOF 1
ENDMDL
MODEL 9
REMARK VINA RESULT:      -4.6     12.444     13.783
REMARK  1 active torsions:
REMARK  status: ('A' for Active; 'I' for Inactive)
REMARK    1  A    between atoms: C7_7  and  O11_11 
ROOT
HETATM    1  C1  UNL     1     -34.957  13.643  -5.312  1.00 20.00    -0.027 C 
HETATM    2  C2  UNL     1     -34.575  14.520  -6.259  1.00 20.00     0.001 C 
HETATM    3  C3  UNL     1     -34.915  13.939  -3.829  1.00 20.00     0.036 C 
HETATM    4  C4  UNL     1     -33.899  17.329  -2.403  1.00 20.00     0.001 C 
HETATM    5  C5  UNL     1     -33.803  17.542  -3.924  1.00 20.00     0.008 C 
HETATM    6  C6  UNL     1     -34.351  15.871  -2.186  1.00 20.00     0.010 C 
HETATM    7  C7  UNL     1     -34.090  15.918  -5.951  1.00 20.00     0.145 C 
HETATM    8  C8  UNL     1     -34.431  16.283  -4.509  1.00 20.00     0.026 C 
HETATM    9  C9  UNL     1     -34.045  15.171  -3.517  1.00 20.00    -0.035 C 
HETATM   10  C10 UNL     1     -32.550  14.777  -3.556  1.00 20.00     0.016 C 
ENDROOT
BRANCH   7  11
HETATM   11  O11 UNL     1     -34.736  16.828  -6.836  1.00 20.00    -0.391 OA
HETATM   12  H27 UNL     1     -35.666  16.866  -6.565  1.00 20.00     0.210 HD
ENDBRANCH   7  11
TORSDOF 1
ENDMDL
