MODEL 1
REMARK VINA RESULT:      -5.1      0.000      0.000
REMARK  0 active torsions:
REMARK  status: ('A' for Active; 'I' for Inactive)
ROOT
HETATM    1  C1  UNL     1     -34.996  14.241  -4.856  1.00 20.00    -0.071 C 
HETATM    2  C2  UNL     1     -35.948  17.247  -3.674  1.00 20.00     0.220 C 
HETATM    3  C3  UNL     1     -35.177  14.026  -6.167  1.00 20.00     0.016 C 
HETATM    4  C4  UNL     1     -33.682  13.966  -4.166  1.00 20.00     0.037 C 
HETATM    5  C5  UNL     1     -36.080  14.799  -3.972  1.00 20.00     0.159 C 
HETATM    6  C6  UNL     1     -35.347  18.424  -2.936  1.00 20.00     0.103 C 
HETATM    7  C7  UNL     1     -33.223  15.182  -3.347  1.00 20.00     0.030 C 
HETATM    8  C8  UNL     1     -33.959  18.175  -2.381  1.00 20.00     0.015 C 
HETATM    9  C9  UNL     1     -33.909  16.884  -1.568  1.00 20.00     0.005 C 
HETATM   10  C10 UNL     1     -34.358  15.698  -2.437  1.00 20.00     0.091 C 
HETATM   11  C11 UNL     1     -34.754  16.981  -0.293  1.00 20.00     0.012 C 
HETATM   12  N12 UNL     1     -35.535  15.975  -3.285  1.00 20.00    -0.343 N 
HETATM   13  O13 UNL     1     -36.818  17.460  -4.524  1.00 20.00    -0.273 OA
ENDROOT
TORSDOF 0
ENDMDL
MODEL 2
REMARK VINA RESULT:      -4.8      1.990      4.613
REMARK  0 active torsions:
REMARK  status: ('A' for Active; 'I' for Inactive)
ROOT
HETATM    1  C1  UNL     1     -35.283  16.409  -2.647  1.00 20.00    -0.071 C 
HETATM    2  C2  UNL     1     -35.194  13.892  -4.883  1.00 20.00     0.220 C 
HETATM    3  C3  UNL     1     -34.583  16.234  -1.517  1.00 20.00     0.016 C 
HETATM    4  C4  UNL     1     -35.165  17.659  -3.486  1.00 20.00     0.037 C 
HETATM    5  C5  UNL     1     -36.222  15.361  -3.186  1.00 20.00     0.159 C 
HETATM    6  C6  UNL     1     -34.812  13.667  -6.331  1.00 20.00     0.103 C 
HETATM    7  C7  UNL     1     -34.900  17.313  -4.958  1.00 20.00     0.030 C 
HETATM    8  C8  UNL     1     -34.548  14.936  -7.116  1.00 20.00     0.015 C 
HETATM    9  C9  UNL     1     -35.692  15.933  -6.958  1.00 20.00     0.005 C 
HETATM   10  C10 UNL     1     -35.905  16.260  -5.471  1.00 20.00     0.091 C 
HETATM   11  C11 UNL     1     -36.988  15.421  -7.598  1.00 20.00     0.012 C 
HETATM   12  N12 UNL     1     -35.837  15.088  -4.574  1.00 20.00    -0.343 N 
HETATM   13  O13 UNL     1     -34.986  12.990  -4.066  1.00 20.00    -0.273 OA
ENDROOT
TORSDOF 0
ENDMDL
MODEL 3
REMARK VINA RESULT:      -4.8      1.280      3.902
REMARK  0 active torsions:
REMARK  status: ('A' for Active; 'I' for Inactive)
ROOT
HETATM    1  C1  UNL     1     -33.962  17.979  -2.735  1.00 20.00    -0.071 C 
HETATM    2  C2  UNL     1     -35.656  16.527  -5.257  1.00 20.00     0.220 C 
HETATM    3  C3  UNL     1     -34.250  19.263  -2.479  1.00 20.00     0.016 C 
HETATM    4  C4  UNL     1     -33.928  16.927  -1.652  1.00 20.00     0.037 C 
HETATM    5  C5  UNL     1     -33.678  17.477  -4.127  1.00 20.00     0.159 C 
HETATM    6  C6  UNL     1     -36.562  15.335  -5.485  1.00 20.00     0.103 C 
HETATM    7  C7  UNL     1     -34.781  15.710  -2.038  1.00 20.00     0.030 C 
HETATM    8  C8  UNL     1     -36.631  14.368  -4.320  1.00 20.00     0.015 C 
HETATM    9  C9  UNL     1     -35.237  13.965  -3.850  1.00 20.00     0.005 C 
HETATM   10  C10 UNL     1     -34.432  15.215  -3.458  1.00 20.00     0.091 C 
HETATM   11  C11 UNL     1     -34.493  13.143  -4.909  1.00 20.00     0.012 C 
HETATM   12  N12 UNL     1     -34.582  16.352  -4.389  1.00 20.00    -0.343 N 
HETATM   13  O13 UNL     1     -35.865  17.562  -5.897  1.00 20.00    -0.273 OA
ENDROOT
TORSDOF 0
ENDMDL
MODEL 4
REMARK VINA RESULT:      -4.7      1.572      4.078
REMARK  0 active torsions:
REMARK  status: ('A' for Active; 'I' for Inactive)
ROOT
HETATM    1  C1  UNL     1     -34.182  15.916  -2.717  1.00 20.00    -0.071 C 
HETATM    2  C2  UNL     1     -35.967  17.187  -5.274  1.00 20.00     0.220 C 
HETATM    3  C3  UNL     1     -34.426  16.427  -1.502  1.00 20.00     0.016 C 
HETATM    4  C4  UNL     1     -34.159  14.430  -2.980  1.00 20.00     0.037 C 
HETATM    5  C5  UNL     1     -33.940  16.784  -3.925  1.00 20.00     0.159 C 
HETATM    6  C6  UNL     1     -36.912  16.706  -6.355  1.00 20.00     0.103 C 
HETATM    7  C7  UNL     1     -35.055  14.065  -4.172  1.00 20.00     0.030 C 
HETATM    8  C8  UNL     1     -36.988  15.199  -6.497  1.00 20.00     0.015 C 
HETATM    9  C9  UNL     1     -35.598  14.583  -6.616  1.00 20.00     0.005 C 
HETATM   10  C10 UNL     1     -34.748  14.961  -5.391  1.00 20.00     0.091 C 
HETATM   11  C11 UNL     1     -34.899  14.996  -7.917  1.00 20.00     0.012 C 
HETATM   12  N12 UNL     1     -34.882  16.370  -4.969  1.00 20.00    -0.343 N 
HETATM   13  O13 UNL     1     -36.157  18.299  -4.771  1.00 20.00    -0.273 OA
ENDROOT
TORSDOF 0
ENDMDL
MODEL 5
REMARK VINA RESULT:      -4.7      2.098      3.913
REMARK  0 active torsions:
REMARK  status: ('A' for Active; 'I' for Inactive)
ROOT
HETATM    1  C1  UNL     1     -33.883  14.684  -3.418  1.00 20.00    -0.071 C 
HETATM    2  C2  UNL     1     -35.975  14.612  -6.056  1.00 20.00     0.220 C 
HETATM    3  C3  UNL     1     -32.577  14.809  -3.691  1.00 20.00     0.016 C 
HETATM    4  C4  UNL     1     -34.585  15.558  -2.407  1.00 20.00     0.037 C 
HETATM    5  C5  UNL     1     -34.762  13.680  -4.118  1.00 20.00     0.159 C 
HETATM    6  C6  UNL     1     -37.175  15.373  -6.580  1.00 20.00     0.103 C 
HETATM    7  C7  UNL     1     -35.854  16.184  -3.005  1.00 20.00     0.030 C 
HETATM    8  C8  UNL     1     -37.771  16.360  -5.597  1.00 20.00     0.015 C 
HETATM    9  C9  UNL     1     -38.037  15.705  -4.245  1.00 20.00     0.005 C 
HETATM   10  C10 UNL     1     -36.734  15.112  -3.683  1.00 20.00     0.091 C 
HETATM   11  C11 UNL     1     -39.132  14.636  -4.335  1.00 20.00     0.012 C 
HETATM   12  N12 UNL     1     -35.906  14.405  -4.680  1.00 20.00    -0.343 N 
HETATM   13  O13 UNL     1     -35.162  14.154  -6.864  1.00 20.00    -0.273 OA
ENDROOT
TORSDOF 0
ENDMDL
MODEL 6
REMARK VINA RESULT:      -4.7      1.904      2.901
REMARK  0 active torsions:
REMARK  status: ('A' for Active; 'I' for Inactive)
ROOT
HETATM    1  C1  UNL     1     -37.612  15.823  -5.617  1.00 20.00    -0.071 C 
HETATM    2  C2  UNL     1     -34.360  16.654  -5.336  1.00 20.00     0.220 C 
HETATM    3  C3  UNL     1     -38.061  15.568  -6.853  1.00 20.00     0.016 C 
HETATM    4  C4  UNL     1     -37.861  14.888  -4.457  1.00 20.00     0.037 C 
HETATM    5  C5  UNL     1     -36.797  17.047  -5.290  1.00 20.00     0.159 C 
HETATM    6  C6  UNL     1     -33.119  16.173  -4.614  1.00 20.00     0.103 C 
HETATM    7  C7  UNL     1     -36.554  14.562  -3.720  1.00 20.00     0.030 C 
HETATM    8  C8  UNL     1     -33.377  15.119  -3.555  1.00 20.00     0.015 C 
HETATM    9  C9  UNL     1     -34.482  15.554  -2.598  1.00 20.00     0.005 C 
HETATM   10  C10 UNL     1     -35.772  15.849  -3.382  1.00 20.00     0.091 C 
HETATM   11  C11 UNL     1     -34.063  16.764  -1.754  1.00 20.00     0.012 C 
HETATM   12  N12 UNL     1     -35.563  16.601  -4.635  1.00 20.00    -0.343 N 
HETATM   13  O13 UNL     1     -34.242  17.130  -6.468  1.00 20.00    -0.273 OA
ENDROOT
TORSDOF 0
ENDMDL
MODEL 7
REMARK VINA RESULT:      -4.7      1.737      2.400
REMARK  0 active torsions:
REMARK  status: ('A' for Active; 'I' for Inactive)
ROOT
HETATM    1  C1  UNL     1     -34.920  14.731  -6.765  1.00 20.00    -0.071 C 
HETATM    2  C2  UNL     1     -36.463  15.021  -3.786  1.00 20.00     0.220 C 
HETATM    3  C3  UNL     1     -35.659  14.263  -7.781  1.00 20.00     0.016 C 
HETATM    4  C4  UNL     1     -34.090  15.987  -6.881  1.00 20.00     0.037 C 
HETATM    5  C5  UNL     1     -34.881  14.058  -5.418  1.00 20.00     0.159 C 
HETATM    6  C6  UNL     1     -36.759  16.089  -2.755  1.00 20.00     0.103 C 
HETATM    7  C7  UNL     1     -34.380  16.949  -5.719  1.00 20.00     0.030 C 
HETATM    8  C8  UNL     1     -36.029  17.398  -2.979  1.00 20.00     0.015 C 
HETATM    9  C9  UNL     1     -34.533  17.172  -3.178  1.00 20.00     0.005 C 
HETATM   10  C10 UNL     1     -34.297  16.219  -4.361  1.00 20.00     0.091 C 
HETATM   11  C11 UNL     1     -33.863  16.642  -1.905  1.00 20.00     0.012 C 
HETATM   12  N12 UNL     1     -35.217  15.064  -4.406  1.00 20.00    -0.343 N 
HETATM   13  O13 UNL     1     -37.297  14.131  -3.976  1.00 20.00    -0.273 OA
ENDROOT
TORSDOF 0
ENDMDL
MODEL 8
REMARK VINA RESULT:      -4.6      2.038      3.026
REMARK  0 active torsions:
REMARK  status: ('A' for Active; 'I' for Inactive)
ROOT
HETATM    1  C1  UNL     1     -36.176  16.365  -6.850  1.00 20.00    -0.071 C 
HETATM    2  C2  UNL     1     -36.068  15.537  -3.588  1.00 20.00     0.220 C 
HETATM    3  C3  UNL     1     -37.198  17.141  -7.240  1.00 20.00     0.016 C 
HETATM    4  C4  UNL     1     -34.742  16.679  -7.205  1.00 20.00     0.037 C 
HETATM    5  C5  UNL     1     -36.373  15.134  -6.004  1.00 20.00     0.159 C 
HETATM    6  C6  UNL     1     -35.122  15.660  -2.412  1.00 20.00     0.103 C 
HETATM    7  C7  UNL     1     -33.848  16.657  -5.957  1.00 20.00     0.030 C 
HETATM    8  C8  UNL     1     -33.726  16.125  -2.774  1.00 20.00     0.015 C 
HETATM    9  C9  UNL     1     -33.143  15.294  -3.913  1.00 20.00     0.005 C 
HETATM   10  C10 UNL     1     -34.064  15.365  -5.142  1.00 20.00     0.091 C 
HETATM   11  C11 UNL     1     -32.899  13.840  -3.491  1.00 20.00     0.012 C 
HETATM   12  N12 UNL     1     -35.503  15.256  -4.830  1.00 20.00    -0.343 N 
HETATM   13  O13 UNL     1     -37.283  15.619  -3.385  1.00 20.00    -0.273 OA
ENDROOT
TORSDOF 0
ENDMDL
MODEL 9
REMARK VINA RESULT:      -4.6      1.290      4.080
REMARK  0 active torsions:
REMARK  status: ('A' for Active; 'I' for Inactive)
ROOT
HETATM    1  C1  UNL     1     -34.863  17.088  -1.740  1.00 20.00    -0.071 C 
HETATM    2  C2  UNL     1     -36.497  14.906  -3.718  1.00 20.00     0.220 C 
HETATM    3  C3  UNL     1     -35.248  17.141  -0.458  1.00 20.00     0.016 C 
HETATM    4  C4  UNL     1     -33.415  16.946  -2.144  1.00 20.00     0.037 C 
HETATM    5  C5  UNL     1     -35.845  17.135  -2.881  1.00 20.00     0.159 C 
HETATM    6  C6  UNL     1     -36.187  13.724  -4.611  1.00 20.00     0.103 C 
HETATM    7  C7  UNL     1     -33.230  15.797  -3.145  1.00 20.00     0.030 C 
HETATM    8  C8  UNL     1     -34.711  13.509  -4.879  1.00 20.00     0.015 C 
HETATM    9  C9  UNL     1     -34.041  14.796  -5.353  1.00 20.00     0.005 C 
HETATM   10  C10 UNL     1     -34.238  15.907  -4.309  1.00 20.00     0.091 C 
HETATM   11  C11 UNL     1     -34.558  15.235  -6.728  1.00 20.00     0.012 C 
HETATM   12  N12 UNL     1     -35.597  15.968  -3.734  1.00 20.00    -0.343 N 
HETATM   13  O13 UNL     1     -37.554  14.907  -3.080  1.00 20.00    -0.273 OA
ENDROOT
TORSDOF 0
ENDMDL
