MODEL 1
REMARK VINA RESULT:      -4.6      0.000      0.000
REMARK  1 active torsions:
REMARK  status: ('A' for Active; 'I' for Inactive)
REMARK    1  A    between atoms: C6_6  and  N7_7 
ROOT
HETATM    1  C1  UNL     1     -35.081   4.317   5.984  1.00 20.00     0.003 C 
HETATM    2  C2  UNL     1     -33.985   5.283   6.419  1.00 20.00     0.030 C 
HETATM    3  C3  UNL     1     -35.095   4.156   4.468  1.00 20.00     0.030 C 
HETATM    4  C4  UNL     1     -34.072   6.604   5.650  1.00 20.00     0.274 C 
HETATM    5  C5  UNL     1     -35.145   5.516   3.766  1.00 20.00     0.274 C 
HETATM    6  N7  UNL     1     -34.092   6.449   4.190  1.00 20.00     0.101 N 
ENDROOT
BRANCH   6   7
HETATM    7  C6  UNL     1     -32.782   6.087   3.653  1.00 20.00     0.386 C 
HETATM    8 CL8  UNL     1     -32.217   7.409   2.633  1.00 20.00    -0.098 Cl
ENDBRANCH   6   7
TORSDOF 1
ENDMDL
MODEL 2
REMARK VINA RESULT:      -3.7     12.129     13.269
REMARK  1 active torsions:
REMARK  status: ('A' for Active; 'I' for Inactive)
REMARK    1  A    between atoms: C6_6  and  N7_7 
ROOT
HETATM    1  C1  UNL     1     -34.426  14.750  -6.300  1.00 20.00     0.003 C 
HETATM    2  C2  UNL     1     -34.201  16.133  -5.698  1.00 20.00     0.030 C 
HETATM    3  C3  UNL     1     -34.797  13.740  -5.219  1.00 20.00     0.030 C 
HETATM    4  C4  UNL     1     -33.214  16.075  -4.529  1.00 20.00     0.274 C 
HETATM    5  C5  UNL     1     -33.789  13.765  -4.066  1.00 20.00     0.274 C 
HETATM    6  N7  UNL     1     -33.568  15.098  -3.491  1.00 20.00     0.101 N 
ENDROOT
BRANCH   6   7
HETATM    7  C6  UNL     1     -34.695  15.542  -2.673  1.00 20.00     0.386 C 
HETATM    8 CL8  UNL     1     -34.084  16.651  -1.446  1.00 20.00    -0.098 Cl
ENDBRANCH   6   7
TORSDOF 1
ENDMDL
MODEL 3
REMARK VINA RESULT:      -3.7     12.078     12.670
REMARK  1 active torsions:
REMARK  status: ('A' for Active; 'I' for Inactive)
REMARK    1  A    between atoms: C6_6  and  N7_7 
ROOT
HETATM    1  C1  UNL     1     -34.625  13.312  -4.584  1.00 20.00     0.003 C 
HETATM    2  C2  UNL     1     -35.867  14.116  -4.215  1.00 20.00     0.030 C 
HETATM    3  C3  UNL     1     -33.427  13.744  -3.746  1.00 20.00     0.030 C 
HETATM    4  C4  UNL     1     -35.586  15.620  -4.252  1.00 20.00     0.274 C 
HETATM    5  C5  UNL     1     -33.230  15.261  -3.800  1.00 20.00     0.274 C 
HETATM    6  N7  UNL     1     -34.428  16.035  -3.449  1.00 20.00     0.101 N 
ENDROOT
BRANCH   6   7
HETATM    7  C6  UNL     1     -34.708  16.004  -2.015  1.00 20.00     0.386 C 
HETATM    8 CL8  UNL     1     -33.669  17.186  -1.222  1.00 20.00    -0.098 Cl
ENDBRANCH   6   7
TORSDOF 1
ENDMDL
MODEL 4
REMARK VINA RESULT:      -3.5     12.511     13.021
REMARK  1 active torsions:
REMARK  status: ('A' for Active; 'I' for Inactive)
REMARK    1  A    between atoms: C6_6  and  N7_7 
ROOT
HETATM    1  C1  UNL     1     -34.952  15.707  -2.318  1.00 20.00     0.003 C 
HETATM    2  C2  UNL     1     -35.991  15.184  -3.304  1.00 20.00     0.030 C 
HETATM    3  C3  UNL     1     -33.618  15.956  -3.013  1.00 20.00     0.030 C 
HETATM    4  C4  UNL     1     -35.458  13.980  -4.085  1.00 20.00     0.274 C 
HETATM    5  C5  UNL     1     -33.166  14.725  -3.804  1.00 20.00     0.274 C 
HETATM    6  N7  UNL     1     -34.169  14.217  -4.749  1.00 20.00     0.101 N 
ENDROOT
BRANCH   6   7
HETATM    7  C6  UNL     1     -34.302  15.072  -5.927  1.00 20.00     0.386 C 
HETATM    8 CL8  UNL     1     -35.408  14.291  -7.056  1.00 20.00    -0.098 Cl
ENDBRANCH   6   7
TORSDOF 1
ENDMDL
MODEL 5
REMARK VINA RESULT:      -3.4      9.170     10.302
REMARK  1 active torsions:
REMARK  status: ('A' for Active; 'I' for Inactive)
REMARK    1  A    between atoms: C6_6  and  N7_7 
ROOT
HETATM    1  C1  UNL     1     -41.236   7.231  -0.898  1.00 20.00     0.003 C 
HETATM    2  C2  UNL     1     -41.715   6.827  -2.288  1.00 20.00     0.030 C 
HETATM    3  C3  UNL     1     -40.716   6.022  -0.128  1.00 20.00     0.030 C 
HETATM    4  C4  UNL     1     -42.701   5.658  -2.217  1.00 20.00     0.274 C 
HETATM    5  C5  UNL     1     -41.737   4.881  -0.131  1.00 20.00     0.274 C 
HETATM    6  N7  UNL     1     -42.203   4.496  -1.470  1.00 20.00     0.101 N 
ENDROOT
BRANCH   6   7
HETATM    7  C6  UNL     1     -41.191   3.750  -2.214  1.00 20.00     0.386 C 
HETATM    8 CL8  UNL     1     -41.986   2.410  -3.039  1.00 20.00    -0.098 Cl
ENDBRANCH   6   7
TORSDOF 1
ENDMDL
MODEL 6
REMARK VINA RESULT:      -3.4     12.479     13.445
REMARK  1 active torsions:
REMARK  status: ('A' for Active; 'I' for Inactive)
REMARK    1  A    between atoms: C6_6  and  N7_7 
ROOT
HETATM    1  C1  UNL     1     -34.660  13.201  -4.882  1.00 20.00     0.003 C 
HETATM    2  C2  UNL     1     -33.835  13.741  -3.719  1.00 20.00     0.030 C 
HETATM    3  C3  UNL     1     -34.858  14.269  -5.952  1.00 20.00     0.030 C 
HETATM    4  C4  UNL     1     -34.414  15.056  -3.191  1.00 20.00     0.274 C 
HETATM    5  C5  UNL     1     -35.403  15.566  -5.347  1.00 20.00     0.274 C 
HETATM    6  N7  UNL     1     -34.610  16.083  -4.223  1.00 20.00     0.101 N 
ENDROOT
BRANCH   6   7
HETATM    7  C6  UNL     1     -33.350  16.677  -4.661  1.00 20.00     0.386 C 
HETATM    8 CL8  UNL     1     -33.695  17.809  -5.968  1.00 20.00    -0.098 Cl
ENDBRANCH   6   7
TORSDOF 1
ENDMDL
MODEL 7
REMARK VINA RESULT:      -3.4     12.499     13.500
REMARK  1 active torsions:
REMARK  status: ('A' for Active; 'I' for Inactive)
REMARK    1  A    between atoms: C6_6  and  N7_7 
ROOT
HETATM    1  C1  UNL     1     -33.619  13.766  -3.583  1.00 20.00     0.003 C 
HETATM    2  C2  UNL     1     -33.037  15.150  -3.847  1.00 20.00     0.030 C 
HETATM    3  C3  UNL     1     -34.435  13.282  -4.777  1.00 20.00     0.030 C 
HETATM    4  C4  UNL     1     -34.121  16.131  -4.303  1.00 20.00     0.274 C 
HETATM    5  C5  UNL     1     -35.472  14.327  -5.201  1.00 20.00     0.274 C 
HETATM    6  N7  UNL     1     -34.911  15.662  -5.450  1.00 20.00     0.101 N 
ENDROOT
BRANCH   6   7
HETATM    7  C6  UNL     1     -34.161  15.723  -6.702  1.00 20.00     0.386 C 
HETATM    8 CL8  UNL     1     -35.037  14.794  -7.918  1.00 20.00    -0.098 Cl
ENDBRANCH   6   7
TORSDOF 1
ENDMDL
MODEL 8
REMARK VINA RESULT:      -3.4     12.238     13.280
REMARK  1 active torsions:
REMARK  status: ('A' for Active; 'I' for Inactive)
REMARK    1  A    between atoms: C6_6  and  N7_7 
ROOT
HETATM    1  C1  UNL     1     -34.922  13.815  -5.634  1.00 20.00     0.003 C 
HETATM    2  C2  UNL     1     -35.190  13.662  -4.140  1.00 20.00     0.030 C 
HETATM    3  C3  UNL     1     -34.309  15.177  -5.940  1.00 20.00     0.030 C 
HETATM    4  C4  UNL     1     -35.993  14.847  -3.597  1.00 20.00     0.274 C 
HETATM    5  C5  UNL     1     -35.142  16.310  -5.334  1.00 20.00     0.274 C 
HETATM    6  N7  UNL     1     -35.405  16.159  -3.897  1.00 20.00     0.101 N 
ENDROOT
BRANCH   6   7
HETATM    7  C6  UNL     1     -34.222  16.436  -3.085  1.00 20.00     0.386 C 
HETATM    8 CL8  UNL     1     -34.648  16.207  -1.390  1.00 20.00    -0.098 Cl
ENDBRANCH   6   7
TORSDOF 1
ENDMDL
MODEL 9
REMARK VINA RESULT:      -3.4     12.519     13.582
REMARK  1 active torsions:
REMARK  status: ('A' for Active; 'I' for Inactive)
REMARK    1  A    between atoms: C6_6  and  N7_7 
ROOT
HETATM    1  C1  UNL     1     -33.338  13.790  -3.732  1.00 20.00     0.003 C 
HETATM    2  C2  UNL     1     -34.595  13.428  -4.515  1.00 20.00     0.030 C 
HETATM    3  C3  UNL     1     -33.245  15.297  -3.516  1.00 20.00     0.030 C 
HETATM    4  C4  UNL     1     -34.705  14.253  -5.800  1.00 20.00     0.274 C 
HETATM    5  C5  UNL     1     -33.402  16.058  -4.835  1.00 20.00     0.274 C 
HETATM    6  N7  UNL     1     -34.610  15.704  -5.592  1.00 20.00     0.101 N 
ENDROOT
BRANCH   6   7
HETATM    7  C6  UNL     1     -35.821  16.259  -4.992  1.00 20.00     0.386 C 
HETATM    8 CL8  UNL     1     -37.215  15.591  -5.840  1.00 20.00    -0.098 Cl
ENDBRANCH   6   7
TORSDOF 1
ENDMDL
