MODEL 1
REMARK VINA RESULT:      -4.9      0.000      0.000
REMARK  3 active torsions:
REMARK  status: ('A' for Active; 'I' for Inactive)
REMARK    1  A    between atoms: C4_4  and  C6_6 
REMARK    2  A    between atoms: C5_5  and  C7_7 
REMARK    3  A    between atoms: C6_6  and  C7_7 
ROOT
HETATM    1  C1  UNL     1     -33.894   6.594   5.569  1.00 20.00     0.064 C 
HETATM    2  C7  UNL     1     -34.351   6.168   4.230  1.00 20.00     0.092 C 
HETATM    3  N8  UNL     1     -33.537   6.932   6.621  1.00 20.00    -0.197 NA
ENDROOT
BRANCH   2   4
HETATM    4  C5  UNL     1     -35.240   4.914   4.336  1.00 20.00     0.014 C 
HETATM    5  C3  UNL     1     -34.961   4.020   5.539  1.00 20.00     0.006 C 
ENDBRANCH   2   4
BRANCH   2   6
HETATM    6  C6  UNL     1     -33.160   5.960   3.276  1.00 20.00     0.019 C 
BRANCH   6   7
HETATM    7  C4  UNL     1     -32.088   7.047   3.420  1.00 20.00    -0.003 C 
HETATM    8  C2  UNL     1     -32.083   7.983   2.221  1.00 20.00     0.005 C 
ENDBRANCH   6   7
ENDBRANCH   2   6
TORSDOF 3
ENDMDL
MODEL 2
REMARK VINA RESULT:      -4.3      1.742      2.539
REMARK  3 active torsions:
REMARK  status: ('A' for Active; 'I' for Inactive)
REMARK    1  A    between atoms: C4_4  and  C6_6 
REMARK    2  A    between atoms: C5_5  and  C7_7 
REMARK    3  A    between atoms: C6_6  and  C7_7 
ROOT
HETATM    1  C1  UNL     1     -34.684   4.487   5.096  1.00 20.00     0.064 C 
HETATM    2  C7  UNL     1     -33.822   5.680   5.226  1.00 20.00     0.092 C 
HETATM    3  N8  UNL     1     -35.358   3.547   4.993  1.00 20.00    -0.197 NA
ENDROOT
BRANCH   2   4
HETATM    4  C5  UNL     1     -34.234   6.512   6.456  1.00 20.00     0.014 C 
HETATM    5  C3  UNL     1     -33.192   7.513   6.941  1.00 20.00     0.006 C 
ENDBRANCH   2   4
BRANCH   2   6
HETATM    6  C6  UNL     1     -33.824   6.513   3.931  1.00 20.00     0.019 C 
BRANCH   6   7
HETATM    7  C4  UNL     1     -32.508   6.397   3.152  1.00 20.00    -0.003 C 
HETATM    8  C2  UNL     1     -32.117   7.726   2.523  1.00 20.00     0.005 C 
ENDBRANCH   6   7
ENDBRANCH   2   6
TORSDOF 3
ENDMDL
MODEL 3
REMARK VINA RESULT:      -4.1     11.395     12.540
REMARK  3 active torsions:
REMARK  status: ('A' for Active; 'I' for Inactive)
REMARK    1  A    between atoms: C4_4  and  C6_6 
REMARK    2  A    between atoms: C5_5  and  C7_7 
REMARK    3  A    between atoms: C6_6  and  C7_7 
ROOT
HETATM    1  C1  UNL     1     -34.538  13.696  -3.860  1.00 20.00     0.064 C 
HETATM    2  C7  UNL     1     -33.934  14.840  -3.147  1.00 20.00     0.092 C 
HETATM    3  N8  UNL     1     -35.012  12.795  -4.419  1.00 20.00    -0.197 NA
ENDROOT
BRANCH   2   4
HETATM    4  C5  UNL     1     -35.028  15.721  -2.513  1.00 20.00     0.014 C 
HETATM    5  C3  UNL     1     -34.609  16.468  -1.253  1.00 20.00     0.006 C 
ENDBRANCH   2   4
BRANCH   2   6
HETATM    6  C6  UNL     1     -33.001  15.644  -4.073  1.00 20.00     0.019 C 
BRANCH   6   7
HETATM    7  C4  UNL     1     -33.714  16.157  -5.330  1.00 20.00    -0.003 C 
HETATM    8  C2  UNL     1     -33.587  17.668  -5.462  1.00 20.00     0.005 C 
ENDBRANCH   6   7
ENDBRANCH   2   6
TORSDOF 3
ENDMDL
MODEL 4
REMARK VINA RESULT:      -4.1     11.892     12.602
REMARK  3 active torsions:
REMARK  status: ('A' for Active; 'I' for Inactive)
REMARK    1  A    between atoms: C4_4  and  C6_6 
REMARK    2  A    between atoms: C5_5  and  C7_7 
REMARK    3  A    between atoms: C6_6  and  C7_7 
ROOT
HETATM    1  C1  UNL     1     -33.348  16.269  -4.539  1.00 20.00     0.064 C 
HETATM    2  C7  UNL     1     -33.343  15.353  -3.380  1.00 20.00     0.092 C 
HETATM    3  N8  UNL     1     -33.349  16.990  -5.449  1.00 20.00    -0.197 NA
ENDROOT
BRANCH   2   4
HETATM    4  C5  UNL     1     -33.511  13.893  -3.844  1.00 20.00     0.014 C 
HETATM    5  C3  UNL     1     -34.942  13.475  -4.164  1.00 20.00     0.006 C 
ENDBRANCH   2   4
BRANCH   2   6
HETATM    6  C6  UNL     1     -34.404  15.761  -2.341  1.00 20.00     0.019 C 
BRANCH   6   7
HETATM    7  C4  UNL     1     -33.968  16.957  -1.488  1.00 20.00    -0.003 C 
HETATM    8  C2  UNL     1     -34.774  17.044  -0.201  1.00 20.00     0.005 C 
ENDBRANCH   6   7
ENDBRANCH   2   6
TORSDOF 3
ENDMDL
MODEL 5
REMARK VINA RESULT:      -4.0      1.808      2.270
REMARK  3 active torsions:
REMARK  status: ('A' for Active; 'I' for Inactive)
REMARK    1  A    between atoms: C4_4  and  C6_6 
REMARK    2  A    between atoms: C5_5  and  C7_7 
REMARK    3  A    between atoms: C6_6  and  C7_7 
ROOT
HETATM    1  C1  UNL     1     -34.836   5.606   3.840  1.00 20.00     0.064 C 
HETATM    2  C7  UNL     1     -33.408   5.818   4.154  1.00 20.00     0.092 C 
HETATM    3  N8  UNL     1     -35.958   5.436   3.593  1.00 20.00    -0.197 NA
ENDROOT
BRANCH   2   4
HETATM    4  C5  UNL     1     -33.252   6.843   5.295  1.00 20.00     0.014 C 
HETATM    5  C3  UNL     1     -34.058   6.541   6.553  1.00 20.00     0.006 C 
ENDBRANCH   2   4
BRANCH   2   6
HETATM    6  C6  UNL     1     -32.614   6.220   2.898  1.00 20.00     0.019 C 
BRANCH   6   7
HETATM    7  C4  UNL     1     -31.896   7.566   3.056  1.00 20.00    -0.003 C 
HETATM    8  C2  UNL     1     -32.069   8.435   1.819  1.00 20.00     0.005 C 
ENDBRANCH   6   7
ENDBRANCH   2   6
TORSDOF 3
ENDMDL
MODEL 6
REMARK VINA RESULT:      -4.0      1.793      3.474
REMARK  3 active torsions:
REMARK  status: ('A' for Active; 'I' for Inactive)
REMARK    1  A    between atoms: C4_4  and  C6_6 
REMARK    2  A    between atoms: C5_5  and  C7_7 
REMARK    3  A    between atoms: C6_6  and  C7_7 
ROOT
HETATM    1  C1  UNL     1     -32.510   6.875   3.379  1.00 20.00     0.064 C 
HETATM    2  C7  UNL     1     -33.411   5.874   3.986  1.00 20.00     0.092 C 
HETATM    3  N8  UNL     1     -31.799   7.660   2.902  1.00 20.00    -0.197 NA
ENDROOT
BRANCH   2   4
HETATM    4  C5  UNL     1     -34.465   5.405   2.965  1.00 20.00     0.014 C 
HETATM    5  C3  UNL     1     -35.892   5.860   3.249  1.00 20.00     0.006 C 
ENDBRANCH   2   4
BRANCH   2   6
HETATM    6  C6  UNL     1     -34.051   6.412   5.280  1.00 20.00     0.019 C 
BRANCH   6   7
HETATM    7  C4  UNL     1     -34.034   5.386   6.419  1.00 20.00    -0.003 C 
HETATM    8  C2  UNL     1     -35.111   4.328   6.229  1.00 20.00     0.005 C 
ENDBRANCH   6   7
ENDBRANCH   2   6
TORSDOF 3
ENDMDL
MODEL 7
REMARK VINA RESULT:      -4.0     11.697     12.233
REMARK  3 active torsions:
REMARK  status: ('A' for Active; 'I' for Inactive)
REMARK    1  A    between atoms: C4_4  and  C6_6 
REMARK    2  A    between atoms: C5_5  and  C7_7 
REMARK    3  A    between atoms: C6_6  and  C7_7 
ROOT
HETATM    1  C1  UNL     1     -37.017  14.804  -3.717  1.00 20.00     0.064 C 
HETATM    2  C7  UNL     1     -35.683  15.437  -3.670  1.00 20.00     0.092 C 
HETATM    3  N8  UNL     1     -38.067  14.308  -3.756  1.00 20.00    -0.197 NA
ENDROOT
BRANCH   2   4
HETATM    4  C5  UNL     1     -34.584  14.368  -3.511  1.00 20.00     0.014 C 
HETATM    5  C3  UNL     1     -34.595  13.264  -4.561  1.00 20.00     0.006 C 
ENDBRANCH   2   4
BRANCH   2   6
HETATM    6  C6  UNL     1     -35.615  16.513  -2.571  1.00 20.00     0.019 C 
BRANCH   6   7
HETATM    7  C4  UNL     1     -34.506  16.242  -1.546  1.00 20.00    -0.003 C 
HETATM    8  C2  UNL     1     -34.713  17.055  -0.277  1.00 20.00     0.005 C 
ENDBRANCH   6   7
ENDBRANCH   2   6
TORSDOF 3
ENDMDL
MODEL 8
REMARK VINA RESULT:      -3.9     11.465     12.725
REMARK  3 active torsions:
REMARK  status: ('A' for Active; 'I' for Inactive)
REMARK    1  A    between atoms: C4_4  and  C6_6 
REMARK    2  A    between atoms: C5_5  and  C7_7 
REMARK    3  A    between atoms: C6_6  and  C7_7 
ROOT
HETATM    1  C1  UNL     1     -36.910  14.452  -4.204  1.00 20.00     0.064 C 
HETATM    2  C7  UNL     1     -35.582  14.530  -4.846  1.00 20.00     0.092 C 
HETATM    3  N8  UNL     1     -37.953  14.392  -3.697  1.00 20.00    -0.197 NA
ENDROOT
BRANCH   2   4
HETATM    4  C5  UNL     1     -35.728  14.676  -6.373  1.00 20.00     0.014 C 
HETATM    5  C3  UNL     1     -34.443  15.015  -7.119  1.00 20.00     0.006 C 
ENDBRANCH   2   4
BRANCH   2   6
HETATM    6  C6  UNL     1     -34.702  13.328  -4.456  1.00 20.00     0.019 C 
BRANCH   6   7
HETATM    7  C4  UNL     1     -33.403  13.748  -3.757  1.00 20.00    -0.003 C 
HETATM    8  C2  UNL     1     -33.355  15.252  -3.532  1.00 20.00     0.005 C 
ENDBRANCH   6   7
ENDBRANCH   2   6
TORSDOF 3
ENDMDL
MODEL 9
REMARK VINA RESULT:      -3.9     11.720     12.746
REMARK  3 active torsions:
REMARK  status: ('A' for Active; 'I' for Inactive)
REMARK    1  A    between atoms: C4_4  and  C6_6 
REMARK    2  A    between atoms: C5_5  and  C7_7 
REMARK    3  A    between atoms: C6_6  and  C7_7 
ROOT
HETATM    1  C1  UNL     1     -34.926  13.784  -4.265  1.00 20.00     0.064 C 
HETATM    2  C7  UNL     1     -35.001  15.206  -3.873  1.00 20.00     0.092 C 
HETATM    3  N8  UNL     1     -34.870  12.665  -4.573  1.00 20.00    -0.197 NA
ENDROOT
BRANCH   2   4
HETATM    4  C5  UNL     1     -34.762  16.117  -5.094  1.00 20.00     0.014 C 
HETATM    5  C3  UNL     1     -33.390  16.778  -5.151  1.00 20.00     0.006 C 
ENDBRANCH   2   4
BRANCH   2   6
HETATM    6  C6  UNL     1     -34.034  15.517  -2.716  1.00 20.00     0.019 C 
BRANCH   6   7
HETATM    7  C4  UNL     1     -34.693  16.331  -1.596  1.00 20.00    -0.003 C 
HETATM    8  C2  UNL     1     -33.753  17.402  -1.062  1.00 20.00     0.005 C 
ENDBRANCH   6   7
ENDBRANCH   2   6
TORSDOF 3
ENDMDL
