MODEL 1
REMARK VINA RESULT:      -4.8      0.000      0.000
REMARK  2 active torsions:
REMARK  status: ('A' for Active; 'I' for Inactive)
REMARK    1  A    between atoms: C1_1  and  C3_3 
REMARK    2  A    between atoms: C1_1  and  C8_8 
ROOT
HETATM    1  C2  UNL     1     -34.047   6.527   5.593  1.00 20.00     0.022 A 
HETATM    2  C3  UNL     1     -33.228   5.663   4.671  1.00 20.00     0.064 A 
HETATM    3  C4  UNL     1     -34.679   5.315   4.953  1.00 20.00    -0.037 A 
HETATM    4  C5  UNL     1     -34.946   4.116   5.825  1.00 20.00     0.015 C 
HETATM    5  C6  UNL     1     -35.725   5.547   3.894  1.00 20.00     0.015 C 
ENDROOT
BRANCH   2   6
HETATM    6  C1  UNL     1     -32.817   6.188   3.364  1.00 20.00     0.131 C 
HETATM    7  O9  UNL     1     -33.124   5.609   2.323  1.00 20.00    -0.298 OA
BRANCH   6   8
HETATM    8  C8  UNL     1     -32.004   7.469   3.384  1.00 20.00     0.074 C 
HETATM    9  C7  UNL     1     -32.060   8.218   2.065  1.00 20.00     0.013 C 
ENDBRANCH   6   8
ENDBRANCH   2   6
TORSDOF 2
ENDMDL
MODEL 2
REMARK VINA RESULT:      -4.5     11.537     12.305
REMARK  2 active torsions:
REMARK  status: ('A' for Active; 'I' for Inactive)
REMARK    1  A    between atoms: C1_1  and  C3_3 
REMARK    2  A    between atoms: C1_1  and  C8_8 
ROOT
HETATM    1  C2  UNL     1     -33.705  16.292  -3.775  1.00 20.00     0.022 A 
HETATM    2  C3  UNL     1     -33.977  14.851  -3.430  1.00 20.00     0.064 A 
HETATM    3  C4  UNL     1     -34.824  15.953  -2.820  1.00 20.00    -0.037 A 
HETATM    4  C5  UNL     1     -34.619  16.255  -1.359  1.00 20.00     0.015 C 
HETATM    5  C6  UNL     1     -36.238  16.162  -3.296  1.00 20.00     0.015 C 
ENDROOT
BRANCH   2   6
HETATM    6  C1  UNL     1     -34.526  13.955  -4.455  1.00 20.00     0.131 C 
HETATM    7  O9  UNL     1     -35.042  12.881  -4.148  1.00 20.00    -0.298 OA
BRANCH   6   8
HETATM    8  C8  UNL     1     -34.415  14.434  -5.891  1.00 20.00     0.074 C 
HETATM    9  C7  UNL     1     -35.764  14.538  -6.578  1.00 20.00     0.013 C 
ENDBRANCH   6   8
ENDBRANCH   2   6
TORSDOF 2
ENDMDL
MODEL 3
REMARK VINA RESULT:      -4.3     11.201     13.153
REMARK  2 active torsions:
REMARK  status: ('A' for Active; 'I' for Inactive)
REMARK    1  A    between atoms: C1_1  and  C3_3 
REMARK    2  A    between atoms: C1_1  and  C8_8 
ROOT
HETATM    1  C2  UNL     1     -35.307  14.300  -7.144  1.00 20.00     0.022 A 
HETATM    2  C3  UNL     1     -34.487  14.593  -5.915  1.00 20.00     0.064 A 
HETATM    3  C4  UNL     1     -35.712  15.433  -6.232  1.00 20.00    -0.037 A 
HETATM    4  C5  UNL     1     -35.481  16.841  -6.711  1.00 20.00     0.015 C 
HETATM    5  C6  UNL     1     -36.969  15.261  -5.418  1.00 20.00     0.015 C 
ENDROOT
BRANCH   2   6
HETATM    6  C1  UNL     1     -34.491  13.639  -4.800  1.00 20.00     0.131 C 
HETATM    7  O9  UNL     1     -34.902  12.489  -4.951  1.00 20.00    -0.298 OA
BRANCH   6   8
HETATM    8  C8  UNL     1     -33.966  14.158  -3.474  1.00 20.00     0.074 C 
HETATM    9  C7  UNL     1     -33.085  15.383  -3.633  1.00 20.00     0.013 C 
ENDBRANCH   6   8
ENDBRANCH   2   6
TORSDOF 2
ENDMDL
MODEL 4
REMARK VINA RESULT:      -4.3     11.456     12.342
REMARK  2 active torsions:
REMARK  status: ('A' for Active; 'I' for Inactive)
REMARK    1  A    between atoms: C1_1  and  C3_3 
REMARK    2  A    between atoms: C1_1  and  C8_8 
ROOT
HETATM    1  C2  UNL     1     -33.750  17.576  -2.861  1.00 20.00     0.022 A 
HETATM    2  C3  UNL     1     -33.476  16.096  -2.813  1.00 20.00     0.064 A 
HETATM    3  C4  UNL     1     -34.715  16.664  -2.143  1.00 20.00    -0.037 A 
HETATM    4  C5  UNL     1     -34.733  16.700  -0.637  1.00 20.00     0.015 C 
HETATM    5  C6  UNL     1     -36.070  16.447  -2.766  1.00 20.00     0.015 C 
ENDROOT
BRANCH   2   6
HETATM    6  C1  UNL     1     -33.579  15.302  -4.043  1.00 20.00     0.131 C 
HETATM    7  O9  UNL     1     -33.573  15.843  -5.149  1.00 20.00    -0.298 OA
BRANCH   6   8
HETATM    8  C8  UNL     1     -33.690  13.800  -3.863  1.00 20.00     0.074 C 
HETATM    9  C7  UNL     1     -35.025  13.251  -4.332  1.00 20.00     0.013 C 
ENDBRANCH   6   8
ENDBRANCH   2   6
TORSDOF 2
ENDMDL
MODEL 5
REMARK VINA RESULT:      -4.3      1.273      3.866
REMARK  2 active torsions:
REMARK  status: ('A' for Active; 'I' for Inactive)
REMARK    1  A    between atoms: C1_1  and  C3_3 
REMARK    2  A    between atoms: C1_1  and  C8_8 
ROOT
HETATM    1  C2  UNL     1     -32.528   7.234   4.683  1.00 20.00     0.022 A 
HETATM    2  C3  UNL     1     -33.845   7.056   3.974  1.00 20.00     0.064 A 
HETATM    3  C4  UNL     1     -32.541   6.856   3.222  1.00 20.00    -0.037 A 
HETATM    4  C5  UNL     1     -32.153   7.909   2.217  1.00 20.00     0.015 C 
HETATM    5  C6  UNL     1     -32.094   5.465   2.854  1.00 20.00     0.015 C 
ENDROOT
BRANCH   2   6
HETATM    6  C1  UNL     1     -34.701   5.915   4.319  1.00 20.00     0.131 C 
HETATM    7  O9  UNL     1     -35.483   5.438   3.498  1.00 20.00    -0.298 OA
BRANCH   6   8
HETATM    8  C8  UNL     1     -34.558   5.374   5.730  1.00 20.00     0.074 C 
HETATM    9  C7  UNL     1     -34.861   3.890   5.821  1.00 20.00     0.013 C 
ENDBRANCH   6   8
ENDBRANCH   2   6
TORSDOF 2
ENDMDL
MODEL 6
REMARK VINA RESULT:      -4.3     11.413     13.033
REMARK  2 active torsions:
REMARK  status: ('A' for Active; 'I' for Inactive)
REMARK    1  A    between atoms: C1_1  and  C3_3 
REMARK    2  A    between atoms: C1_1  and  C8_8 
ROOT
HETATM    1  C2  UNL     1     -36.039  16.025  -5.271  1.00 20.00     0.022 A 
HETATM    2  C3  UNL     1     -36.159  14.541  -5.047  1.00 20.00     0.064 A 
HETATM    3  C4  UNL     1     -35.870  15.081  -6.437  1.00 20.00    -0.037 A 
HETATM    4  C5  UNL     1     -36.979  15.009  -7.452  1.00 20.00     0.015 C 
HETATM    5  C6  UNL     1     -34.490  14.935  -7.026  1.00 20.00     0.015 C 
ENDROOT
BRANCH   2   6
HETATM    6  C1  UNL     1     -35.123  13.841  -4.278  1.00 20.00     0.131 C 
HETATM    7  O9  UNL     1     -34.911  12.641  -4.446  1.00 20.00    -0.298 OA
BRANCH   6   8
HETATM    8  C8  UNL     1     -34.348  14.682  -3.281  1.00 20.00     0.074 C 
HETATM    9  C7  UNL     1     -32.889  14.848  -3.664  1.00 20.00     0.013 C 
ENDBRANCH   6   8
ENDBRANCH   2   6
TORSDOF 2
ENDMDL
MODEL 7
REMARK VINA RESULT:      -4.2     11.413     12.400
REMARK  2 active torsions:
REMARK  status: ('A' for Active; 'I' for Inactive)
REMARK    1  A    between atoms: C1_1  and  C3_3 
REMARK    2  A    between atoms: C1_1  and  C8_8 
ROOT
HETATM    1  C2  UNL     1     -35.472  14.959  -4.215  1.00 20.00     0.022 A 
HETATM    2  C3  UNL     1     -35.088  15.169  -2.774  1.00 20.00     0.064 A 
HETATM    3  C4  UNL     1     -34.014  14.940  -3.823  1.00 20.00    -0.037 A 
HETATM    4  C5  UNL     1     -33.305  13.612  -3.809  1.00 20.00     0.015 C 
HETATM    5  C6  UNL     1     -33.152  16.091  -4.275  1.00 20.00     0.015 C 
ENDROOT
BRANCH   2   6
HETATM    6  C1  UNL     1     -35.278  16.489  -2.161  1.00 20.00     0.131 C 
HETATM    7  O9  UNL     1     -35.940  17.360  -2.724  1.00 20.00    -0.298 OA
BRANCH   6   8
HETATM    8  C8  UNL     1     -34.615  16.702  -0.813  1.00 20.00     0.074 C 
HETATM    9  C7  UNL     1     -33.502  17.731  -0.864  1.00 20.00     0.013 C 
ENDBRANCH   6   8
ENDBRANCH   2   6
TORSDOF 2
ENDMDL
MODEL 8
REMARK VINA RESULT:      -4.1     11.743     12.823
REMARK  2 active torsions:
REMARK  status: ('A' for Active; 'I' for Inactive)
REMARK    1  A    between atoms: C1_1  and  C3_3 
REMARK    2  A    between atoms: C1_1  and  C8_8 
ROOT
HETATM    1  C2  UNL     1     -33.385  15.867  -4.883  1.00 20.00     0.022 A 
HETATM    2  C3  UNL     1     -34.850  16.001  -4.563  1.00 20.00     0.064 A 
HETATM    3  C4  UNL     1     -34.354  14.821  -5.379  1.00 20.00    -0.037 A 
HETATM    4  C5  UNL     1     -34.685  14.806  -6.848  1.00 20.00     0.015 C 
HETATM    5  C6  UNL     1     -34.287  13.452  -4.752  1.00 20.00     0.015 C 
ENDROOT
BRANCH   2   6
HETATM    6  C1  UNL     1     -35.305  15.825  -3.179  1.00 20.00     0.131 C 
HETATM    7  O9  UNL     1     -36.477  15.544  -2.927  1.00 20.00    -0.298 OA
BRANCH   6   8
HETATM    8  C8  UNL     1     -34.254  16.010  -2.100  1.00 20.00     0.074 C 
HETATM    9  C7  UNL     1     -34.787  16.743  -0.883  1.00 20.00     0.013 C 
ENDBRANCH   6   8
ENDBRANCH   2   6
TORSDOF 2
ENDMDL
MODEL 9
REMARK VINA RESULT:      -4.1     11.477     12.612
REMARK  2 active torsions:
REMARK  status: ('A' for Active; 'I' for Inactive)
REMARK    1  A    between atoms: C1_1  and  C3_3 
REMARK    2  A    between atoms: C1_1  and  C8_8 
ROOT
HETATM    1  C2  UNL     1     -35.324  15.472  -5.625  1.00 20.00     0.022 A 
HETATM    2  C3  UNL     1     -35.075  16.086  -4.272  1.00 20.00     0.064 A 
HETATM    3  C4  UNL     1     -35.680  14.698  -4.379  1.00 20.00    -0.037 A 
HETATM    4  C5  UNL     1     -37.139  14.550  -4.034  1.00 20.00     0.015 C 
HETATM    5  C6  UNL     1     -34.846  13.489  -4.043  1.00 20.00     0.015 C 
ENDROOT
BRANCH   2   6
HETATM    6  C1  UNL     1     -33.696  16.276  -3.808  1.00 20.00     0.131 C 
HETATM    7  O9  UNL     1     -32.746  16.166  -4.582  1.00 20.00    -0.298 OA
BRANCH   6   8
HETATM    8  C8  UNL     1     -33.525  16.610  -2.338  1.00 20.00     0.074 C 
HETATM    9  C7  UNL     1     -34.780  16.345  -1.528  1.00 20.00     0.013 C 
ENDBRANCH   6   8
ENDBRANCH   2   6
TORSDOF 2
ENDMDL
