MODEL 1
REMARK VINA RESULT:      -4.3      0.000      0.000
REMARK  1 active torsions:
REMARK  status: ('A' for Active; 'I' for Inactive)
REMARK    1  A    between atoms: C1_1  and  C3_3 
ROOT
HETATM    1  C2  UNL     1     -34.804   3.911   5.546  1.00 20.00     0.054 A 
HETATM    2  C3  UNL     1     -35.138   5.155   4.760  1.00 20.00     0.109 A 
HETATM    3  C4  UNL     1     -35.001   5.213   6.252  1.00 20.00     0.183 A 
HETATM    4  F6  UNL     1     -33.881   5.826   6.785  1.00 20.00    -0.249 F 
ENDROOT
BRANCH   2   5
HETATM    5  C1  UNL     1     -34.109   5.767   3.914  1.00 20.00     0.225 C 
HETATM    6  O5  UNL     1     -33.343   6.624   4.347  1.00 20.00    -0.279 OA
HETATM    7 CL7  UNL     1     -34.130   5.135   2.295  1.00 20.00    -0.043 Cl
ENDBRANCH   2   5
TORSDOF 1
ENDMDL
MODEL 2
REMARK VINA RESULT:      -4.2      2.435      2.520
REMARK  1 active torsions:
REMARK  status: ('A' for Active; 'I' for Inactive)
REMARK    1  A    between atoms: C1_1  and  C3_3 
ROOT
HETATM    1  C2  UNL     1     -35.207   4.495   6.154  1.00 20.00     0.054 A 
HETATM    2  C3  UNL     1     -34.042   4.904   5.288  1.00 20.00     0.109 A 
HETATM    3  C4  UNL     1     -35.285   4.335   4.670  1.00 20.00     0.183 A 
HETATM    4  F6  UNL     1     -36.125   5.190   3.979  1.00 20.00    -0.249 F 
ENDROOT
BRANCH   2   5
HETATM    5  C1  UNL     1     -33.738   6.329   5.120  1.00 20.00     0.225 C 
HETATM    6  O5  UNL     1     -33.602   6.834   4.009  1.00 20.00    -0.279 OA
HETATM    7 CL7  UNL     1     -33.606   7.154   6.644  1.00 20.00    -0.043 Cl
ENDBRANCH   2   5
TORSDOF 1
ENDMDL
MODEL 3
REMARK VINA RESULT:      -4.2      1.995      2.012
REMARK  1 active torsions:
REMARK  status: ('A' for Active; 'I' for Inactive)
REMARK    1  A    between atoms: C1_1  and  C3_3 
ROOT
HETATM    1  C2  UNL     1     -34.926   3.986   4.583  1.00 20.00     0.054 A 
HETATM    2  C3  UNL     1     -35.044   5.414   5.054  1.00 20.00     0.109 A 
HETATM    3  C4  UNL     1     -35.048   4.285   6.042  1.00 20.00     0.183 A 
HETATM    4  F6  UNL     1     -33.925   4.098   6.828  1.00 20.00    -0.249 F 
ENDROOT
BRANCH   2   5
HETATM    5  C1  UNL     1     -33.878   6.297   4.969  1.00 20.00     0.225 C 
HETATM    6  O5  UNL     1     -33.267   6.459   3.916  1.00 20.00    -0.279 OA
HETATM    7 CL7  UNL     1     -33.507   7.043   6.494  1.00 20.00    -0.043 Cl
ENDBRANCH   2   5
TORSDOF 1
ENDMDL
MODEL 4
REMARK VINA RESULT:      -4.1      2.807      3.144
REMARK  1 active torsions:
REMARK  status: ('A' for Active; 'I' for Inactive)
REMARK    1  A    between atoms: C1_1  and  C3_3 
ROOT
HETATM    1  C2  UNL     1     -33.397   5.812   3.611  1.00 20.00     0.054 A 
HETATM    2  C3  UNL     1     -34.387   6.425   4.570  1.00 20.00     0.109 A 
HETATM    3  C4  UNL     1     -34.813   5.334   3.634  1.00 20.00     0.183 A 
HETATM    4  F6  UNL     1     -35.054   4.077   4.158  1.00 20.00    -0.249 F 
ENDROOT
BRANCH   2   5
HETATM    5  C1  UNL     1     -34.267   6.143   6.004  1.00 20.00     0.225 C 
HETATM    6  O5  UNL     1     -34.848   5.195   6.526  1.00 20.00    -0.279 OA
HETATM    7 CL7  UNL     1     -33.236   7.285   6.812  1.00 20.00    -0.043 Cl
ENDBRANCH   2   5
TORSDOF 1
ENDMDL
MODEL 5
REMARK VINA RESULT:      -4.0      1.785      1.953
REMARK  1 active torsions:
REMARK  status: ('A' for Active; 'I' for Inactive)
REMARK    1  A    between atoms: C1_1  and  C3_3 
ROOT
HETATM    1  C2  UNL     1     -34.811   5.588   6.369  1.00 20.00     0.054 A 
HETATM    2  C3  UNL     1     -33.789   5.502   5.262  1.00 20.00     0.109 A 
HETATM    3  C4  UNL     1     -34.315   4.255   5.910  1.00 20.00     0.183 A 
HETATM    4  F6  UNL     1     -35.190   3.461   5.191  1.00 20.00    -0.249 F 
ENDROOT
BRANCH   2   5
HETATM    5  C1  UNL     1     -34.189   5.828   3.889  1.00 20.00     0.225 C 
HETATM    6  O5  UNL     1     -35.326   5.612   3.480  1.00 20.00    -0.279 OA
HETATM    7 CL7  UNL     1     -32.886   6.527   2.977  1.00 20.00    -0.043 Cl
ENDBRANCH   2   5
TORSDOF 1
ENDMDL
MODEL 6
REMARK VINA RESULT:      -4.0      1.429      1.429
REMARK  1 active torsions:
REMARK  status: ('A' for Active; 'I' for Inactive)
REMARK    1  A    between atoms: C1_1  and  C3_3 
ROOT
HETATM    1  C2  UNL     1     -34.872   3.912   5.558  1.00 20.00     0.054 A 
HETATM    2  C3  UNL     1     -35.227   5.099   4.698  1.00 20.00     0.109 A 
HETATM    3  C4  UNL     1     -34.948   5.277   6.161  1.00 20.00     0.183 A 
HETATM    4  F6  UNL     1     -33.759   5.877   6.533  1.00 20.00    -0.249 F 
ENDROOT
BRANCH   2   5
HETATM    5  C1  UNL     1     -34.258   5.587   3.712  1.00 20.00     0.225 C 
HETATM    6  O5  UNL     1     -34.239   5.159   2.561  1.00 20.00    -0.279 OA
HETATM    7 CL7  UNL     1     -33.200   6.795   4.375  1.00 20.00    -0.043 Cl
ENDBRANCH   2   5
TORSDOF 1
ENDMDL
MODEL 7
REMARK VINA RESULT:      -4.0      2.512      2.913
REMARK  1 active torsions:
REMARK  status: ('A' for Active; 'I' for Inactive)
REMARK    1  A    between atoms: C1_1  and  C3_3 
ROOT
HETATM    1  C2  UNL     1     -33.294   5.951   3.451  1.00 20.00     0.054 A 
HETATM    2  C3  UNL     1     -34.306   6.485   4.434  1.00 20.00     0.109 A 
HETATM    3  C4  UNL     1     -34.683   5.399   3.471  1.00 20.00     0.183 A 
HETATM    4  F6  UNL     1     -34.854   4.117   3.962  1.00 20.00    -0.249 F 
ENDROOT
BRANCH   2   5
HETATM    5  C1  UNL     1     -34.159   6.171   5.858  1.00 20.00     0.225 C 
HETATM    6  O5  UNL     1     -33.459   6.854   6.601  1.00 20.00    -0.279 OA
HETATM    7 CL7  UNL     1     -35.072   4.765   6.317  1.00 20.00    -0.043 Cl
ENDBRANCH   2   5
TORSDOF 1
ENDMDL
MODEL 8
REMARK VINA RESULT:      -3.9      2.798      3.457
REMARK  1 active torsions:
REMARK  status: ('A' for Active; 'I' for Inactive)
REMARK    1  A    between atoms: C1_1  and  C3_3 
ROOT
HETATM    1  C2  UNL     1     -32.587   6.252   3.639  1.00 20.00     0.054 A 
HETATM    2  C3  UNL     1     -34.029   6.413   4.053  1.00 20.00     0.109 A 
HETATM    3  C4  UNL     1     -33.680   6.033   2.645  1.00 20.00     0.183 A 
HETATM    4  F6  UNL     1     -33.921   4.733   2.237  1.00 20.00    -0.249 F 
ENDROOT
BRANCH   2   5
HETATM    5  C1  UNL     1     -34.635   5.417   4.942  1.00 20.00     0.225 C 
HETATM    6  O5  UNL     1     -35.258   4.454   4.503  1.00 20.00    -0.279 OA
HETATM    7 CL7  UNL     1     -34.357   5.781   6.619  1.00 20.00    -0.043 Cl
ENDBRANCH   2   5
TORSDOF 1
ENDMDL
MODEL 9
REMARK VINA RESULT:      -3.7     12.439     12.685
REMARK  1 active torsions:
REMARK  status: ('A' for Active; 'I' for Inactive)
REMARK    1  A    between atoms: C1_1  and  C3_3 
ROOT
HETATM    1  C2  UNL     1     -33.909  15.482  -2.950  1.00 20.00     0.054 A 
HETATM    2  C3  UNL     1     -34.427  14.941  -4.259  1.00 20.00     0.109 A 
HETATM    3  C4  UNL     1     -33.012  14.682  -3.837  1.00 20.00     0.183 A 
HETATM    4  F6  UNL     1     -32.674  13.406  -3.422  1.00 20.00    -0.249 F 
ENDROOT
BRANCH   2   5
HETATM    5  C1  UNL     1     -35.399  13.843  -4.248  1.00 20.00     0.225 C 
HETATM    6  O5  UNL     1     -35.056  12.677  -4.423  1.00 20.00    -0.279 OA
HETATM    7 CL7  UNL     1     -37.019  14.404  -3.965  1.00 20.00    -0.043 Cl
ENDBRANCH   2   5
TORSDOF 1
ENDMDL
