MODEL 1
REMARK VINA RESULT:      -5.5      0.000      0.000
REMARK  1 active torsions:
REMARK  status: ('A' for Active; 'I' for Inactive)
REMARK    1  A    between atoms: C4_4  and  C8_8 
ROOT
HETATM    1  C1  UNL     1     -33.817   6.201   5.730  1.00 20.00    -0.057 C 
HETATM    2  C2  UNL     1     -33.715   7.175   6.645  1.00 20.00     0.017 C 
HETATM    3  C5  UNL     1     -34.011   4.759   6.107  1.00 20.00     0.038 C 
HETATM    4  C6  UNL     1     -35.280   4.211   5.456  1.00 20.00     0.030 C 
HETATM    5  C7  UNL     1     -35.626   4.908   4.141  1.00 20.00     0.169 C 
HETATM    6  C8  UNL     1     -33.833   6.481   4.242  1.00 20.00     0.171 C 
HETATM    7  O9  UNL     1     -34.445   5.403   3.511  1.00 20.00    -0.378 OA
ENDROOT
BRANCH   6   8
HETATM    8  C4  UNL     1     -32.456   6.665   3.688  1.00 20.00    -0.001 C 
HETATM    9  C3  UNL     1     -32.161   7.481   2.671  1.00 20.00     0.010 C 
ENDBRANCH   6   8
TORSDOF 1
ENDMDL
MODEL 2
REMARK VINA RESULT:      -4.1      1.360      3.619
REMARK  1 active torsions:
REMARK  status: ('A' for Active; 'I' for Inactive)
REMARK    1  A    between atoms: C4_4  and  C8_8 
ROOT
HETATM    1  C1  UNL     1     -34.765   5.767   3.740  1.00 20.00    -0.057 C 
HETATM    2  C2  UNL     1     -36.046   5.882   3.360  1.00 20.00     0.017 C 
HETATM    3  C5  UNL     1     -33.712   5.171   2.850  1.00 20.00     0.038 C 
HETATM    4  C6  UNL     1     -32.575   6.171   2.636  1.00 20.00     0.030 C 
HETATM    5  C7  UNL     1     -32.400   7.134   3.809  1.00 20.00     0.169 C 
HETATM    6  C8  UNL     1     -34.257   6.307   5.061  1.00 20.00     0.171 C 
HETATM    7  O9  UNL     1     -32.835   6.528   5.025  1.00 20.00    -0.378 OA
ENDROOT
BRANCH   6   8
HETATM    8  C4  UNL     1     -34.531   5.370   6.194  1.00 20.00    -0.001 C 
HETATM    9  C3  UNL     1     -34.850   4.081   6.039  1.00 20.00     0.010 C 
ENDBRANCH   6   8
TORSDOF 1
ENDMDL
MODEL 3
REMARK VINA RESULT:      -4.0     11.973     13.141
REMARK  1 active torsions:
REMARK  status: ('A' for Active; 'I' for Inactive)
REMARK    1  A    between atoms: C4_4  and  C8_8 
ROOT
HETATM    1  C1  UNL     1     -34.233  16.007  -4.661  1.00 20.00    -0.057 C 
HETATM    2  C2  UNL     1     -33.387  17.022  -4.890  1.00 20.00     0.017 C 
HETATM    3  C5  UNL     1     -35.172  15.490  -5.713  1.00 20.00     0.038 C 
HETATM    4  C6  UNL     1     -34.933  13.997  -5.946  1.00 20.00     0.030 C 
HETATM    5  C7  UNL     1     -34.398  13.280  -4.708  1.00 20.00     0.169 C 
HETATM    6  C8  UNL     1     -34.250  15.241  -3.355  1.00 20.00     0.171 C 
HETATM    7  O9  UNL     1     -34.835  13.936  -3.519  1.00 20.00    -0.378 OA
ENDROOT
BRANCH   6   8
HETATM    8  C4  UNL     1     -35.035  15.949  -2.297  1.00 20.00    -0.001 C 
HETATM    9  C3  UNL     1     -34.493  16.507  -1.210  1.00 20.00     0.010 C 
ENDBRANCH   6   8
TORSDOF 1
ENDMDL
MODEL 4
REMARK VINA RESULT:      -4.0     11.965     13.514
REMARK  1 active torsions:
REMARK  status: ('A' for Active; 'I' for Inactive)
REMARK    1  A    between atoms: C4_4  and  C8_8 
ROOT
HETATM    1  C1  UNL     1     -34.101  15.207  -3.545  1.00 20.00    -0.057 C 
HETATM    2  C2  UNL     1     -34.326  13.885  -3.531  1.00 20.00     0.017 C 
HETATM    3  C5  UNL     1     -32.981  15.824  -4.335  1.00 20.00     0.038 C 
HETATM    4  C6  UNL     1     -33.534  16.861  -5.313  1.00 20.00     0.030 C 
HETATM    5  C7  UNL     1     -34.829  17.510  -4.824  1.00 20.00     0.169 C 
HETATM    6  C8  UNL     1     -35.006  16.195  -2.840  1.00 20.00     0.171 C 
HETATM    7  O9  UNL     1     -34.879  17.515  -3.398  1.00 20.00    -0.378 OA
ENDROOT
BRANCH   6   8
HETATM    8  C4  UNL     1     -34.696  16.300  -1.380  1.00 20.00    -0.001 C 
HETATM    9  C3  UNL     1     -33.989  17.296  -0.835  1.00 20.00     0.010 C 
ENDBRANCH   6   8
TORSDOF 1
ENDMDL
MODEL 5
REMARK VINA RESULT:      -4.0     11.750     12.800
REMARK  1 active torsions:
REMARK  status: ('A' for Active; 'I' for Inactive)
REMARK    1  A    between atoms: C4_4  and  C8_8 
ROOT
HETATM    1  C1  UNL     1     -34.541  15.717  -2.751  1.00 20.00    -0.057 C 
HETATM    2  C2  UNL     1     -34.555  16.261  -1.526  1.00 20.00     0.017 C 
HETATM    3  C5  UNL     1     -33.271  15.275  -3.421  1.00 20.00     0.038 C 
HETATM    4  C6  UNL     1     -33.359  13.794  -3.793  1.00 20.00     0.030 C 
HETATM    5  C7  UNL     1     -34.790  13.331  -4.060  1.00 20.00     0.169 C 
HETATM    6  C8  UNL     1     -35.809  15.423  -3.525  1.00 20.00     0.171 C 
HETATM    7  O9  UNL     1     -35.589  14.415  -4.530  1.00 20.00    -0.378 OA
ENDROOT
BRANCH   6   8
HETATM    8  C4  UNL     1     -36.338  16.635  -4.223  1.00 20.00    -0.001 C 
HETATM    9  C3  UNL     1     -35.984  17.000  -5.460  1.00 20.00     0.010 C 
ENDBRANCH   6   8
TORSDOF 1
ENDMDL
MODEL 6
REMARK VINA RESULT:      -4.0     12.069     13.465
REMARK  1 active torsions:
REMARK  status: ('A' for Active; 'I' for Inactive)
REMARK    1  A    between atoms: C4_4  and  C8_8 
ROOT
HETATM    1  C1  UNL     1     -34.523  16.179  -2.858  1.00 20.00    -0.057 C 
HETATM    2  C2  UNL     1     -34.563  16.253  -1.520  1.00 20.00     0.017 C 
HETATM    3  C5  UNL     1     -35.560  16.828  -3.730  1.00 20.00     0.038 C 
HETATM    4  C6  UNL     1     -34.895  17.800  -4.706  1.00 20.00     0.030 C 
HETATM    5  C7  UNL     1     -33.463  17.402  -5.060  1.00 20.00     0.169 C 
HETATM    6  C8  UNL     1     -33.386  15.512  -3.603  1.00 20.00     0.171 C 
HETATM    7  O9  UNL     1     -33.295  15.989  -4.958  1.00 20.00    -0.378 OA
ENDROOT
BRANCH   6   8
HETATM    8  C4  UNL     1     -33.549  14.027  -3.666  1.00 20.00    -0.001 C 
HETATM    9  C3  UNL     1     -34.302  13.394  -4.573  1.00 20.00     0.010 C 
ENDBRANCH   6   8
TORSDOF 1
ENDMDL
MODEL 7
REMARK VINA RESULT:      -4.0     12.031     13.385
REMARK  1 active torsions:
REMARK  status: ('A' for Active; 'I' for Inactive)
REMARK    1  A    between atoms: C4_4  and  C8_8 
ROOT
HETATM    1  C1  UNL     1     -33.945  14.972  -3.621  1.00 20.00    -0.057 C 
HETATM    2  C2  UNL     1     -33.477  13.728  -3.796  1.00 20.00     0.017 C 
HETATM    3  C5  UNL     1     -35.158  15.266  -2.784  1.00 20.00     0.038 C 
HETATM    4  C6  UNL     1     -34.805  16.255  -1.674  1.00 20.00     0.030 C 
HETATM    5  C7  UNL     1     -33.656  17.189  -2.050  1.00 20.00     0.169 C 
HETATM    6  C8  UNL     1     -33.242  16.191  -4.179  1.00 20.00     0.171 C 
HETATM    7  O9  UNL     1     -33.611  17.384  -3.463  1.00 20.00    -0.378 OA
ENDROOT
BRANCH   6   8
HETATM    8  C4  UNL     1     -33.570  16.421  -5.620  1.00 20.00    -0.001 C 
HETATM    9  C3  UNL     1     -34.639  17.104  -6.044  1.00 20.00     0.010 C 
ENDBRANCH   6   8
TORSDOF 1
ENDMDL
MODEL 8
REMARK VINA RESULT:      -3.9     11.853     12.806
REMARK  1 active torsions:
REMARK  status: ('A' for Active; 'I' for Inactive)
REMARK    1  A    between atoms: C4_4  and  C8_8 
ROOT
HETATM    1  C1  UNL     1     -35.338  15.952  -4.068  1.00 20.00    -0.057 C 
HETATM    2  C2  UNL     1     -35.796  16.960  -4.826  1.00 20.00     0.017 C 
HETATM    3  C5  UNL     1     -36.133  14.699  -3.832  1.00 20.00     0.038 C 
HETATM    4  C6  UNL     1     -35.333  13.476  -4.279  1.00 20.00     0.030 C 
HETATM    5  C7  UNL     1     -33.822  13.682  -4.178  1.00 20.00     0.169 C 
HETATM    6  C8  UNL     1     -33.951  15.955  -3.461  1.00 20.00     0.171 C 
HETATM    7  O9  UNL     1     -33.512  14.620  -3.149  1.00 20.00    -0.378 OA
ENDROOT
BRANCH   6   8
HETATM    8  C4  UNL     1     -33.892  16.748  -2.194  1.00 20.00    -0.001 C 
HETATM    9  C3  UNL     1     -34.616  16.471  -1.104  1.00 20.00     0.010 C 
ENDBRANCH   6   8
TORSDOF 1
ENDMDL
MODEL 9
REMARK VINA RESULT:      -3.9      9.241     10.181
REMARK  1 active torsions:
REMARK  status: ('A' for Active; 'I' for Inactive)
REMARK    1  A    between atoms: C4_4  and  C8_8 
ROOT
HETATM    1  C1  UNL     1     -42.507   5.453  -0.153  1.00 20.00    -0.057 C 
HETATM    2  C2  UNL     1     -42.889   4.793   0.950  1.00 20.00     0.017 C 
HETATM    3  C5  UNL     1     -43.415   6.406  -0.876  1.00 20.00     0.038 C 
HETATM    4  C6  UNL     1     -42.764   7.787  -0.967  1.00 20.00     0.030 C 
HETATM    5  C7  UNL     1     -41.238   7.727  -0.981  1.00 20.00     0.169 C 
HETATM    6  C8  UNL     1     -41.102   5.358  -0.711  1.00 20.00     0.171 C 
HETATM    7  O9  UNL     1     -40.790   6.493  -1.540  1.00 20.00    -0.378 OA
ENDROOT
BRANCH   6   8
HETATM    8  C4  UNL     1     -40.909   4.133  -1.547  1.00 20.00    -0.001 C 
HETATM    9  C3  UNL     1     -41.802   3.687  -2.438  1.00 20.00     0.010 C 
ENDBRANCH   6   8
TORSDOF 1
ENDMDL
