MODEL 1
REMARK VINA RESULT:      -5.1      0.000      0.000
REMARK  0 active torsions:
REMARK  status: ('A' for Active; 'I' for Inactive)
ROOT
HETATM    1  C1  UNL     1     -35.171   4.121   5.308  1.00 20.00    -0.030 C 
HETATM    2  C2  UNL     1     -35.039   4.655   4.084  1.00 20.00    -0.020 C 
HETATM    3  C3  UNL     1     -33.363   6.639   5.884  1.00 20.00    -0.021 C 
HETATM    4  C4  UNL     1     -33.319   6.517   4.551  1.00 20.00    -0.050 C 
HETATM    5  C5  UNL     1     -34.736   4.668   6.636  1.00 20.00     0.030 C 
HETATM    6  C6  UNL     1     -34.516   6.177   6.713  1.00 20.00     0.031 C 
HETATM    7  C7  UNL     1     -32.170   6.983   3.718  1.00 20.00     0.202 C 
HETATM    8  C8  UNL     1     -33.532   5.703   2.388  1.00 20.00     0.180 C 
HETATM    9  C9  UNL     1     -34.362   5.925   3.652  1.00 20.00     0.062 C 
HETATM   10  O10 UNL     1     -32.577   6.770   2.358  1.00 20.00    -0.386 OA
ENDROOT
TORSDOF 0
ENDMDL
MODEL 2
REMARK VINA RESULT:      -4.4     11.942     12.887
REMARK  0 active torsions:
REMARK  status: ('A' for Active; 'I' for Inactive)
ROOT
HETATM    1  C1  UNL     1     -35.780  13.835  -4.373  1.00 20.00    -0.030 C 
HETATM    2  C2  UNL     1     -36.188  14.799  -3.533  1.00 20.00    -0.020 C 
HETATM    3  C3  UNL     1     -33.058  15.230  -3.605  1.00 20.00    -0.021 C 
HETATM    4  C4  UNL     1     -33.987  16.093  -3.175  1.00 20.00    -0.050 C 
HETATM    5  C5  UNL     1     -34.385  13.404  -4.719  1.00 20.00     0.030 C 
HETATM    6  C6  UNL     1     -33.292  13.759  -3.714  1.00 20.00     0.031 C 
HETATM    7  C7  UNL     1     -33.757  17.565  -3.060  1.00 20.00     0.202 C 
HETATM    8  C8  UNL     1     -36.003  17.182  -2.803  1.00 20.00     0.180 C 
HETATM    9  C9  UNL     1     -35.386  15.785  -2.732  1.00 20.00     0.062 C 
HETATM   10  O10 UNL     1     -34.950  18.091  -2.461  1.00 20.00    -0.386 OA
ENDROOT
TORSDOF 0
ENDMDL
MODEL 3
REMARK VINA RESULT:      -4.3     12.679     14.181
REMARK  0 active torsions:
REMARK  status: ('A' for Active; 'I' for Inactive)
ROOT
HETATM    1  C1  UNL     1     -34.269  14.958  -3.118  1.00 20.00    -0.030 C 
HETATM    2  C2  UNL     1     -33.587  15.998  -3.622  1.00 20.00    -0.020 C 
HETATM    3  C3  UNL     1     -34.787  14.645  -6.213  1.00 20.00    -0.021 C 
HETATM    4  C4  UNL     1     -34.286  15.882  -6.100  1.00 20.00    -0.050 C 
HETATM    5  C5  UNL     1     -34.947  13.828  -3.837  1.00 20.00     0.030 C 
HETATM    6  C6  UNL     1     -34.470  13.541  -5.259  1.00 20.00     0.031 C 
HETATM    7  C7  UNL     1     -34.596  16.988  -7.055  1.00 20.00     0.202 C 
HETATM    8  C8  UNL     1     -33.530  17.901  -5.241  1.00 20.00     0.180 C 
HETATM    9  C9  UNL     1     -33.347  16.395  -5.050  1.00 20.00     0.062 C 
HETATM   10  O10 UNL     1     -33.774  18.089  -6.640  1.00 20.00    -0.386 OA
ENDROOT
TORSDOF 0
ENDMDL
MODEL 4
REMARK VINA RESULT:      -4.3     12.091     13.462
REMARK  0 active torsions:
REMARK  status: ('A' for Active; 'I' for Inactive)
ROOT
HETATM    1  C1  UNL     1     -33.657  17.889  -4.331  1.00 20.00    -0.030 C 
HETATM    2  C2  UNL     1     -33.502  16.809  -5.113  1.00 20.00    -0.020 C 
HETATM    3  C3  UNL     1     -34.720  15.577  -2.470  1.00 20.00    -0.021 C 
HETATM    4  C4  UNL     1     -34.658  15.005  -3.680  1.00 20.00    -0.050 C 
HETATM    5  C5  UNL     1     -34.053  17.968  -2.886  1.00 20.00     0.030 C 
HETATM    6  C6  UNL     1     -33.840  16.708  -2.051  1.00 20.00     0.031 C 
HETATM    7  C7  UNL     1     -35.532  13.870  -4.102  1.00 20.00     0.202 C 
HETATM    8  C8  UNL     1     -34.462  14.667  -5.967  1.00 20.00     0.180 C 
HETATM    9  C9  UNL     1     -33.739  15.357  -4.811  1.00 20.00     0.062 C 
HETATM   10  O10 UNL     1     -35.064  13.494  -5.405  1.00 20.00    -0.386 OA
ENDROOT
TORSDOF 0
ENDMDL
MODEL 5
REMARK VINA RESULT:      -4.3     12.358     13.798
REMARK  0 active torsions:
REMARK  status: ('A' for Active; 'I' for Inactive)
ROOT
HETATM    1  C1  UNL     1     -33.708  13.436  -4.093  1.00 20.00    -0.030 C 
HETATM    2  C2  UNL     1     -34.727  13.541  -4.960  1.00 20.00    -0.020 C 
HETATM    3  C3  UNL     1     -33.468  16.440  -5.022  1.00 20.00    -0.021 C 
HETATM    4  C4  UNL     1     -34.308  15.899  -5.914  1.00 20.00    -0.050 C 
HETATM    5  C5  UNL     1     -32.802  14.505  -3.555  1.00 20.00     0.030 C 
HETATM    6  C6  UNL     1     -33.324  15.938  -3.622  1.00 20.00     0.031 C 
HETATM    7  C7  UNL     1     -34.459  16.400  -7.313  1.00 20.00     0.202 C 
HETATM    8  C8  UNL     1     -35.543  14.384  -7.166  1.00 20.00     0.180 C 
HETATM    9  C9  UNL     1     -35.235  14.738  -5.711  1.00 20.00     0.062 C 
HETATM   10  O10 UNL     1     -35.526  15.626  -7.881  1.00 20.00    -0.386 OA
ENDROOT
TORSDOF 0
ENDMDL
MODEL 6
REMARK VINA RESULT:      -4.3     12.063     13.640
REMARK  0 active torsions:
REMARK  status: ('A' for Active; 'I' for Inactive)
ROOT
HETATM    1  C1  UNL     1     -34.965  13.605  -4.502  1.00 20.00    -0.030 C 
HETATM    2  C2  UNL     1     -34.270  14.227  -3.538  1.00 20.00    -0.020 C 
HETATM    3  C3  UNL     1     -34.247  16.349  -5.879  1.00 20.00    -0.021 C 
HETATM    4  C4  UNL     1     -33.971  16.563  -4.586  1.00 20.00    -0.050 C 
HETATM    5  C5  UNL     1     -35.189  14.015  -5.928  1.00 20.00     0.030 C 
HETATM    6  C6  UNL     1     -34.185  15.002  -6.520  1.00 20.00     0.031 C 
HETATM    7  C7  UNL     1     -34.027  17.909  -3.942  1.00 20.00     0.202 C 
HETATM    8  C8  UNL     1     -33.832  16.341  -2.280  1.00 20.00     0.180 C 
HETATM    9  C9  UNL     1     -33.560  15.550  -3.559  1.00 20.00     0.062 C 
HETATM   10  O10 UNL     1     -33.554  17.710  -2.602  1.00 20.00    -0.386 OA
ENDROOT
TORSDOF 0
ENDMDL
MODEL 7
REMARK VINA RESULT:      -4.3     12.403     13.934
REMARK  0 active torsions:
REMARK  status: ('A' for Active; 'I' for Inactive)
ROOT
HETATM    1  C1  UNL     1     -33.792  16.477  -3.492  1.00 20.00    -0.030 C 
HETATM    2  C2  UNL     1     -33.707  16.776  -4.797  1.00 20.00    -0.020 C 
HETATM    3  C3  UNL     1     -34.509  13.720  -4.843  1.00 20.00    -0.021 C 
HETATM    4  C4  UNL     1     -34.592  14.597  -5.852  1.00 20.00    -0.050 C 
HETATM    5  C5  UNL     1     -33.991  15.144  -2.833  1.00 20.00     0.030 C 
HETATM    6  C6  UNL     1     -33.621  13.913  -3.658  1.00 20.00     0.031 C 
HETATM    7  C7  UNL     1     -35.475  14.405  -7.041  1.00 20.00     0.202 C 
HETATM    8  C8  UNL     1     -34.698  16.562  -7.081  1.00 20.00     0.180 C 
HETATM    9  C9  UNL     1     -33.849  15.890  -6.002  1.00 20.00     0.062 C 
HETATM   10  O10 UNL     1     -35.175  15.501  -7.918  1.00 20.00    -0.386 OA
ENDROOT
TORSDOF 0
ENDMDL
MODEL 8
REMARK VINA RESULT:      -4.2     12.159     13.697
REMARK  0 active torsions:
REMARK  status: ('A' for Active; 'I' for Inactive)
ROOT
HETATM    1  C1  UNL     1     -35.998  17.326  -4.765  1.00 20.00    -0.030 C 
HETATM    2  C2  UNL     1     -36.240  16.028  -5.007  1.00 20.00    -0.020 C 
HETATM    3  C3  UNL     1     -33.114  16.070  -4.543  1.00 20.00    -0.021 C 
HETATM    4  C4  UNL     1     -33.926  15.005  -4.517  1.00 20.00    -0.050 C 
HETATM    5  C5  UNL     1     -34.685  18.036  -4.613  1.00 20.00     0.030 C 
HETATM    6  C6  UNL     1     -33.465  17.352  -5.224  1.00 20.00     0.031 C 
HETATM    7  C7  UNL     1     -33.578  13.719  -3.841  1.00 20.00     0.202 C 
HETATM    8  C8  UNL     1     -35.804  13.647  -4.387  1.00 20.00     0.180 C 
HETATM    9  C9  UNL     1     -35.286  14.876  -5.135  1.00 20.00     0.062 C 
HETATM   10  O10 UNL     1     -34.656  12.823  -4.149  1.00 20.00    -0.386 OA
ENDROOT
TORSDOF 0
ENDMDL
MODEL 9
REMARK VINA RESULT:      -4.2     11.891     13.486
REMARK  0 active torsions:
REMARK  status: ('A' for Active; 'I' for Inactive)
ROOT
HETATM    1  C1  UNL     1     -33.776  17.088  -2.995  1.00 20.00    -0.030 C 
HETATM    2  C2  UNL     1     -34.055  15.803  -2.728  1.00 20.00    -0.020 C 
HETATM    3  C3  UNL     1     -35.411  16.229  -5.551  1.00 20.00    -0.021 C 
HETATM    4  C4  UNL     1     -35.116  15.065  -4.959  1.00 20.00    -0.050 C 
HETATM    5  C5  UNL     1     -34.264  17.954  -4.119  1.00 20.00     0.030 C 
HETATM    6  C6  UNL     1     -35.556  17.515  -4.806  1.00 20.00     0.031 C 
HETATM    7  C7  UNL     1     -34.974  13.775  -5.699  1.00 20.00     0.202 C 
HETATM    8  C8  UNL     1     -34.191  13.453  -3.567  1.00 20.00     0.180 C 
HETATM    9  C9  UNL     1     -34.883  14.815  -3.499  1.00 20.00     0.062 C 
HETATM   10  O10 UNL     1     -34.775  12.776  -4.687  1.00 20.00    -0.386 OA
ENDROOT
TORSDOF 0
ENDMDL
