MODEL 1
REMARK VINA RESULT:      -5.3      0.000      0.000
REMARK  1 active torsions:
REMARK  status: ('A' for Active; 'I' for Inactive)
REMARK    1  A    between atoms: C4_4  and  C6_6 
ROOT
HETATM    1  C1  UNL     1     -35.366  13.723  -4.066  1.00 20.00     0.089 A 
HETATM    2  C2  UNL     1     -35.658  15.974  -3.263  1.00 20.00     0.044 A 
HETATM    3  C3  UNL     1     -36.189  14.750  -3.811  1.00 20.00    -0.053 A 
HETATM    4  C4  UNL     1     -34.346  16.056  -3.018  1.00 20.00     0.080 A 
HETATM    5  C5  UNL     1     -33.917  13.822  -3.795  1.00 20.00     0.288 A 
HETATM    6  C8  UNL     1     -37.663  14.697  -4.069  1.00 20.00     0.048 C 
HETATM    7  O11 UNL     1     -33.172  12.876  -4.031  1.00 20.00    -0.260 OA
HETATM    8  O12 UNL     1     -33.453  15.000  -3.272  1.00 20.00    -0.276 OA
ENDROOT
BRANCH   4   9
HETATM    9  C6  UNL     1     -33.719  17.227  -2.473  1.00 20.00     0.039 C 
HETATM   10  C7  UNL     1     -33.844  17.674  -1.195  1.00 20.00    -0.085 C 
HETATM   11  C9  UNL     1     -33.182  18.901  -0.633  1.00 20.00     0.043 C 
HETATM   12  C10 UNL     1     -34.700  16.931  -0.201  1.00 20.00     0.043 C 
ENDBRANCH   4   9
TORSDOF 1
ENDMDL
MODEL 2
REMARK VINA RESULT:      -5.3      1.938      2.159
REMARK  1 active torsions:
REMARK  status: ('A' for Active; 'I' for Inactive)
REMARK    1  A    between atoms: C4_4  and  C6_6 
ROOT
HETATM    1  C1  UNL     1     -34.741  14.399  -5.823  1.00 20.00     0.089 A 
HETATM    2  C2  UNL     1     -34.005  16.407  -4.718  1.00 20.00     0.044 A 
HETATM    3  C3  UNL     1     -34.396  15.691  -5.908  1.00 20.00    -0.053 A 
HETATM    4  C4  UNL     1     -33.997  15.760  -3.548  1.00 20.00     0.080 A 
HETATM    5  C5  UNL     1     -34.729  13.689  -4.527  1.00 20.00     0.288 A 
HETATM    6  C8  UNL     1     -34.394  16.451  -7.198  1.00 20.00     0.048 C 
HETATM    7  O11 UNL     1     -35.047  12.506  -4.459  1.00 20.00    -0.260 OA
HETATM    8  O12 UNL     1     -34.353  14.405  -3.421  1.00 20.00    -0.276 OA
ENDROOT
BRANCH   4   9
HETATM    9  C6  UNL     1     -33.625  16.380  -2.308  1.00 20.00     0.039 C 
HETATM   10  C7  UNL     1     -34.448  17.104  -1.503  1.00 20.00    -0.085 C 
HETATM   11  C9  UNL     1     -34.050  17.750  -0.205  1.00 20.00     0.043 C 
HETATM   12  C10 UNL     1     -35.893  17.322  -1.876  1.00 20.00     0.043 C 
ENDBRANCH   4   9
TORSDOF 1
ENDMDL
MODEL 3
REMARK VINA RESULT:      -5.0     12.085     14.578
REMARK  1 active torsions:
REMARK  status: ('A' for Active; 'I' for Inactive)
REMARK    1  A    between atoms: C4_4  and  C6_6 
ROOT
HETATM    1  C1  UNL     1     -42.025   6.593  -2.242  1.00 20.00     0.089 A 
HETATM    2  C2  UNL     1     -41.818   4.346  -1.402  1.00 20.00     0.044 A 
HETATM    3  C3  UNL     1     -41.500   5.752  -1.340  1.00 20.00    -0.053 A 
HETATM    4  C4  UNL     1     -42.636   3.911  -2.366  1.00 20.00     0.080 A 
HETATM    5  C5  UNL     1     -42.927   6.105  -3.305  1.00 20.00     0.288 A 
HETATM    6  C8  UNL     1     -40.582   6.200  -0.244  1.00 20.00     0.048 C 
HETATM    7  O11 UNL     1     -43.403   6.883  -4.126  1.00 20.00    -0.260 OA
HETATM    8  O12 UNL     1     -43.205   4.764  -3.329  1.00 20.00    -0.276 OA
ENDROOT
BRANCH   4   9
HETATM    9  C6  UNL     1     -43.014   2.535  -2.515  1.00 20.00     0.039 C 
HETATM   10  C7  UNL     1     -42.338   1.597  -3.230  1.00 20.00    -0.085 C 
HETATM   11  C9  UNL     1     -42.741   0.156  -3.380  1.00 20.00     0.043 C 
HETATM   12  C10 UNL     1     -41.069   1.955  -3.962  1.00 20.00     0.043 C 
ENDBRANCH   4   9
TORSDOF 1
ENDMDL
MODEL 4
REMARK VINA RESULT:      -5.0      2.126      2.670
REMARK  1 active torsions:
REMARK  status: ('A' for Active; 'I' for Inactive)
REMARK    1  A    between atoms: C4_4  and  C6_6 
ROOT
HETATM    1  C1  UNL     1     -34.002  15.680  -5.363  1.00 20.00     0.089 A 
HETATM    2  C2  UNL     1     -34.408  14.989  -3.094  1.00 20.00     0.044 A 
HETATM    3  C3  UNL     1     -34.362  14.713  -4.508  1.00 20.00    -0.053 A 
HETATM    4  C4  UNL     1     -34.087  16.214  -2.664  1.00 20.00     0.080 A 
HETATM    5  C5  UNL     1     -33.650  17.032  -4.881  1.00 20.00     0.288 A 
HETATM    6  C8  UNL     1     -34.726  13.329  -4.949  1.00 20.00     0.048 C 
HETATM    7  O11 UNL     1     -33.321  17.911  -5.672  1.00 20.00    -0.260 OA
HETATM    8  O12 UNL     1     -33.705  17.253  -3.531  1.00 20.00    -0.276 OA
ENDROOT
BRANCH   4   9
HETATM    9  C6  UNL     1     -34.101  16.590  -1.278  1.00 20.00     0.039 C 
HETATM   10  C7  UNL     1     -35.050  17.351  -0.670  1.00 20.00    -0.085 C 
HETATM   11  C9  UNL     1     -35.057  17.739   0.782  1.00 20.00     0.043 C 
HETATM   12  C10 UNL     1     -36.223  17.887  -1.451  1.00 20.00     0.043 C 
ENDBRANCH   4   9
TORSDOF 1
ENDMDL
MODEL 5
REMARK VINA RESULT:      -5.0      2.115      2.588
REMARK  1 active torsions:
REMARK  status: ('A' for Active; 'I' for Inactive)
REMARK    1  A    between atoms: C4_4  and  C6_6 
ROOT
HETATM    1  C1  UNL     1     -36.176  14.629  -5.376  1.00 20.00     0.089 A 
HETATM    2  C2  UNL     1     -34.164  15.673  -4.566  1.00 20.00     0.044 A 
HETATM    3  C3  UNL     1     -34.955  15.117  -5.636  1.00 20.00    -0.053 A 
HETATM    4  C4  UNL     1     -34.670  15.688  -3.329  1.00 20.00     0.080 A 
HETATM    5  C5  UNL     1     -36.729  14.648  -4.006  1.00 20.00     0.288 A 
HETATM    6  C8  UNL     1     -34.354  15.120  -7.008  1.00 20.00     0.048 C 
HETATM    7  O11 UNL     1     -37.848  14.199  -3.777  1.00 20.00    -0.260 OA
HETATM    8  O12 UNL     1     -35.946  15.185  -3.018  1.00 20.00    -0.276 OA
ENDROOT
BRANCH   4   9
HETATM    9  C6  UNL     1     -33.965  16.218  -2.196  1.00 20.00     0.039 C 
HETATM   10  C7  UNL     1     -34.082  17.481  -1.706  1.00 20.00    -0.085 C 
HETATM   11  C9  UNL     1     -33.340  18.027  -0.518  1.00 20.00     0.043 C 
HETATM   12  C10 UNL     1     -35.014  18.474  -2.354  1.00 20.00     0.043 C 
ENDBRANCH   4   9
TORSDOF 1
ENDMDL
MODEL 6
REMARK VINA RESULT:      -5.0      1.679      4.624
REMARK  1 active torsions:
REMARK  status: ('A' for Active; 'I' for Inactive)
REMARK    1  A    between atoms: C4_4  and  C6_6 
ROOT
HETATM    1  C1  UNL     1     -34.143  14.467  -3.409  1.00 20.00     0.089 A 
HETATM    2  C2  UNL     1     -36.165  15.693  -2.959  1.00 20.00     0.044 A 
HETATM    3  C3  UNL     1     -34.741  15.514  -2.823  1.00 20.00    -0.053 A 
HETATM    4  C4  UNL     1     -36.863  14.803  -3.672  1.00 20.00     0.080 A 
HETATM    5  C5  UNL     1     -34.921  13.486  -4.194  1.00 20.00     0.288 A 
HETATM    6  C8  UNL     1     -33.994  16.534  -2.019  1.00 20.00     0.048 C 
HETATM    7  O11 UNL     1     -34.365  12.531  -4.726  1.00 20.00    -0.260 OA
HETATM    8  O12 UNL     1     -36.271  13.693  -4.300  1.00 20.00    -0.276 OA
ENDROOT
BRANCH   4   9
HETATM    9  C6  UNL     1     -38.283  14.891  -3.867  1.00 20.00     0.039 C 
HETATM   10  C7  UNL     1     -38.904  15.352  -4.985  1.00 20.00    -0.085 C 
HETATM   11  C9  UNL     1     -40.392  15.439  -5.182  1.00 20.00     0.043 C 
HETATM   12  C10 UNL     1     -38.103  15.834  -6.168  1.00 20.00     0.043 C 
ENDBRANCH   4   9
TORSDOF 1
ENDMDL
MODEL 7
REMARK VINA RESULT:      -4.8      2.397      3.069
REMARK  1 active torsions:
REMARK  status: ('A' for Active; 'I' for Inactive)
REMARK    1  A    between atoms: C4_4  and  C6_6 
ROOT
HETATM    1  C1  UNL     1     -33.399  16.121  -4.551  1.00 20.00     0.089 A 
HETATM    2  C2  UNL     1     -34.179  15.537  -2.350  1.00 20.00     0.044 A 
HETATM    3  C3  UNL     1     -33.671  15.168  -3.648  1.00 20.00    -0.053 A 
HETATM    4  C4  UNL     1     -34.368  16.832  -2.074  1.00 20.00     0.080 A 
HETATM    5  C5  UNL     1     -33.611  17.550  -4.240  1.00 20.00     0.288 A 
HETATM    6  C8  UNL     1     -33.471  13.709  -3.918  1.00 20.00     0.048 C 
HETATM    7  O11 UNL     1     -33.358  18.415  -5.073  1.00 20.00    -0.260 OA
HETATM    8  O12 UNL     1     -34.093  17.859  -2.996  1.00 20.00    -0.276 OA
ENDROOT
BRANCH   4   9
HETATM    9  C6  UNL     1     -34.868  17.303  -0.814  1.00 20.00     0.039 C 
HETATM   10  C7  UNL     1     -34.159  18.002   0.112  1.00 20.00    -0.085 C 
HETATM   11  C9  UNL     1     -34.692  18.493   1.429  1.00 20.00     0.043 C 
HETATM   12  C10 UNL     1     -32.713  18.352  -0.130  1.00 20.00     0.043 C 
ENDBRANCH   4   9
TORSDOF 1
ENDMDL
MODEL 8
REMARK VINA RESULT:      -4.8      2.410      5.156
REMARK  1 active torsions:
REMARK  status: ('A' for Active; 'I' for Inactive)
REMARK    1  A    between atoms: C4_4  and  C6_6 
ROOT
HETATM    1  C1  UNL     1     -33.546  18.596   1.027  1.00 20.00     0.089 A 
HETATM    2  C2  UNL     1     -34.964  16.973  -0.046  1.00 20.00     0.044 A 
HETATM    3  C3  UNL     1     -34.650  17.837   1.066  1.00 20.00    -0.053 A 
HETATM    4  C4  UNL     1     -34.141  16.950  -1.099  1.00 20.00     0.080 A 
HETATM    5  C5  UNL     1     -32.639  18.564  -0.139  1.00 20.00     0.288 A 
HETATM    6  C8  UNL     1     -35.598  17.836   2.225  1.00 20.00     0.048 C 
HETATM    7  O11 UNL     1     -31.631  19.263  -0.166  1.00 20.00    -0.260 OA
HETATM    8  O12 UNL     1     -32.974  17.732  -1.175  1.00 20.00    -0.276 OA
ENDROOT
BRANCH   4   9
HETATM    9  C6  UNL     1     -34.363  16.128  -2.254  1.00 20.00     0.039 C 
HETATM   10  C7  UNL     1     -34.807  16.560  -3.464  1.00 20.00    -0.085 C 
HETATM   11  C9  UNL     1     -35.036  15.691  -4.669  1.00 20.00     0.043 C 
HETATM   12  C10 UNL     1     -35.116  18.017  -3.694  1.00 20.00     0.043 C 
ENDBRANCH   4   9
TORSDOF 1
ENDMDL
MODEL 9
REMARK VINA RESULT:      -4.8     11.773     14.276
REMARK  1 active torsions:
REMARK  status: ('A' for Active; 'I' for Inactive)
REMARK    1  A    between atoms: C4_4  and  C6_6 
ROOT
HETATM    1  C1  UNL     1     -41.616   6.661  -1.938  1.00 20.00     0.089 A 
HETATM    2  C2  UNL     1     -43.001   5.066  -3.093  1.00 20.00     0.044 A 
HETATM    3  C3  UNL     1     -42.500   6.406  -2.913  1.00 20.00    -0.053 A 
HETATM    4  C4  UNL     1     -42.568   4.099  -2.277  1.00 20.00     0.080 A 
HETATM    5  C5  UNL     1     -41.143   5.588  -1.038  1.00 20.00     0.288 A 
HETATM    6  C8  UNL     1     -43.007   7.460  -3.849  1.00 20.00     0.048 C 
HETATM    7  O11 UNL     1     -40.334   5.830  -0.149  1.00 20.00    -0.260 OA
HETATM    8  O12 UNL     1     -41.642   4.328  -1.243  1.00 20.00    -0.276 OA
ENDROOT
BRANCH   4   9
HETATM    9  C6  UNL     1     -43.003   2.735  -2.372  1.00 20.00     0.039 C 
HETATM   10  C7  UNL     1     -42.395   1.754  -3.091  1.00 20.00    -0.085 C 
HETATM   11  C9  UNL     1     -42.857   0.327  -3.185  1.00 20.00     0.043 C 
HETATM   12  C10 UNL     1     -41.148   2.046  -3.887  1.00 20.00     0.043 C 
ENDBRANCH   4   9
TORSDOF 1
ENDMDL
