MODEL 1
REMARK VINA RESULT:      -4.4      0.000      0.000
REMARK  2 active torsions:
REMARK  status: ('A' for Active; 'I' for Inactive)
REMARK    1  A    between atoms: C1_1  and  C3_3 
REMARK    2  A    between atoms: C3_3  and  C4_4 
ROOT
HETATM    1  C2  UNL     1     -34.387  15.628  -2.630  1.00 20.00     0.069 C 
HETATM    2  C3  UNL     1     -34.114  14.775  -3.877  1.00 20.00     0.264 C 
HETATM    3  O5  UNL     1     -33.005  14.081  -3.714  1.00 20.00    -0.210 OA
ENDROOT
BRANCH   2   4
HETATM    4  C1  UNL     1     -35.244  13.758  -4.145  1.00 20.00     0.265 C 
HETATM    5  O6  UNL     1     -35.007  12.593  -4.460  1.00 20.00    -0.276 OA
HETATM    6 CL10 UNL     1     -36.872  14.398  -3.996  1.00 20.00    -0.040 Cl
ENDBRANCH   2   4
BRANCH   2   7
HETATM    7  C4  UNL     1     -33.939  15.705  -5.089  1.00 20.00     0.429 C 
HETATM    8  F7  UNL     1     -34.864  16.695  -5.105  1.00 20.00    -0.167 F 
HETATM    9  F8  UNL     1     -34.036  15.047  -6.268  1.00 20.00    -0.167 F 
HETATM   10  F9  UNL     1     -32.724  16.303  -5.063  1.00 20.00    -0.167 F 
ENDBRANCH   2   7
TORSDOF 2
ENDMDL
MODEL 2
REMARK VINA RESULT:      -4.3      2.258      3.084
REMARK  2 active torsions:
REMARK  status: ('A' for Active; 'I' for Inactive)
REMARK    1  A    between atoms: C1_1  and  C3_3 
REMARK    2  A    between atoms: C3_3  and  C4_4 
ROOT
HETATM    1  C2  UNL     1     -34.958  14.175  -6.156  1.00 20.00     0.069 C 
HETATM    2  C3  UNL     1     -34.926  13.867  -4.651  1.00 20.00     0.264 C 
HETATM    3  O5  UNL     1     -35.212  12.597  -4.445  1.00 20.00    -0.210 OA
ENDROOT
BRANCH   2   4
HETATM    4  C1  UNL     1     -33.534  14.119  -4.035  1.00 20.00     0.265 C 
HETATM    5  O6  UNL     1     -32.902  13.225  -3.474  1.00 20.00    -0.276 OA
HETATM    6 CL10 UNL     1     -32.946  15.767  -4.172  1.00 20.00    -0.040 Cl
ENDBRANCH   2   4
BRANCH   2   7
HETATM    7  C4  UNL     1     -35.983  14.731  -3.944  1.00 20.00     0.429 C 
HETATM    8  F7  UNL     1     -35.613  15.050  -2.680  1.00 20.00    -0.167 F 
HETATM    9  F8  UNL     1     -37.188  14.119  -3.867  1.00 20.00    -0.167 F 
HETATM   10  F9  UNL     1     -36.169  15.899  -4.605  1.00 20.00    -0.167 F 
ENDBRANCH   2   7
TORSDOF 2
ENDMDL
MODEL 3
REMARK VINA RESULT:      -4.3      1.670      2.311
REMARK  2 active torsions:
REMARK  status: ('A' for Active; 'I' for Inactive)
REMARK    1  A    between atoms: C1_1  and  C3_3 
REMARK    2  A    between atoms: C3_3  and  C4_4 
ROOT
HETATM    1  C2  UNL     1     -33.508  14.284  -3.931  1.00 20.00     0.069 C 
HETATM    2  C3  UNL     1     -34.876  13.982  -4.560  1.00 20.00     0.264 C 
HETATM    3  O5  UNL     1     -35.044  12.678  -4.668  1.00 20.00    -0.210 OA
ENDROOT
BRANCH   2   4
HETATM    4  C1  UNL     1     -36.042  14.514  -3.700  1.00 20.00     0.265 C 
HETATM    5  O6  UNL     1     -37.179  14.053  -3.793  1.00 20.00    -0.276 OA
HETATM    6 CL10 UNL     1     -35.628  15.830  -2.616  1.00 20.00    -0.040 Cl
ENDBRANCH   2   4
BRANCH   2   7
HETATM    7  C4  UNL     1     -34.927  14.603  -5.965  1.00 20.00     0.429 C 
HETATM    8  F7  UNL     1     -35.332  13.709  -6.900  1.00 20.00    -0.167 F 
HETATM    9  F8  UNL     1     -33.727  15.084  -6.364  1.00 20.00    -0.167 F 
HETATM   10  F9  UNL     1     -35.804  15.635  -6.002  1.00 20.00    -0.167 F 
ENDBRANCH   2   7
TORSDOF 2
ENDMDL
MODEL 4
REMARK VINA RESULT:      -4.2      1.959      2.294
REMARK  2 active torsions:
REMARK  status: ('A' for Active; 'I' for Inactive)
REMARK    1  A    between atoms: C1_1  and  C3_3 
REMARK    2  A    between atoms: C3_3  and  C4_4 
ROOT
HETATM    1  C2  UNL     1     -35.260  16.335  -4.799  1.00 20.00     0.069 C 
HETATM    2  C3  UNL     1     -34.700  15.034  -4.204  1.00 20.00     0.264 C 
HETATM    3  O5  UNL     1     -35.413  14.675  -3.155  1.00 20.00    -0.210 OA
ENDROOT
BRANCH   2   4
HETATM    4  C1  UNL     1     -34.756  13.863  -5.207  1.00 20.00     0.265 C 
HETATM    5  O6  UNL     1     -34.802  12.691  -4.834  1.00 20.00    -0.276 OA
HETATM    6 CL10 UNL     1     -34.722  14.329  -6.899  1.00 20.00    -0.040 Cl
ENDBRANCH   2   4
BRANCH   2   7
HETATM    7  C4  UNL     1     -33.250  15.277  -3.753  1.00 20.00     0.429 C 
HETATM    8  F7  UNL     1     -32.575  16.066  -4.624  1.00 20.00    -0.167 F 
HETATM    9  F8  UNL     1     -32.546  14.128  -3.625  1.00 20.00    -0.167 F 
HETATM   10  F9  UNL     1     -33.219  15.902  -2.552  1.00 20.00    -0.167 F 
ENDBRANCH   2   7
TORSDOF 2
ENDMDL
MODEL 5
REMARK VINA RESULT:      -4.2     12.104     12.515
REMARK  2 active torsions:
REMARK  status: ('A' for Active; 'I' for Inactive)
REMARK    1  A    between atoms: C1_1  and  C3_3 
REMARK    2  A    between atoms: C3_3  and  C4_4 
ROOT
HETATM    1  C2  UNL     1     -34.492   5.203   3.058  1.00 20.00     0.069 C 
HETATM    2  C3  UNL     1     -33.937   6.326   3.948  1.00 20.00     0.264 C 
HETATM    3  O5  UNL     1     -34.660   7.418   3.800  1.00 20.00    -0.210 OA
ENDROOT
BRANCH   2   4
HETATM    4  C1  UNL     1     -33.983   5.957   5.446  1.00 20.00     0.265 C 
HETATM    5  O6  UNL     1     -33.710   6.775   6.324  1.00 20.00    -0.276 OA
HETATM    6 CL10 UNL     1     -34.422   4.293   5.790  1.00 20.00    -0.040 Cl
ENDBRANCH   2   4
BRANCH   2   7
HETATM    7  C4  UNL     1     -32.491   6.631   3.522  1.00 20.00     0.429 C 
HETATM    8  F7  UNL     1     -31.767   5.500   3.344  1.00 20.00    -0.167 F 
HETATM    9  F8  UNL     1     -31.832   7.392   4.426  1.00 20.00    -0.167 F 
HETATM   10  F9  UNL     1     -32.470   7.301   2.344  1.00 20.00    -0.167 F 
ENDBRANCH   2   7
TORSDOF 2
ENDMDL
MODEL 6
REMARK VINA RESULT:      -4.1      2.677      3.153
REMARK  2 active torsions:
REMARK  status: ('A' for Active; 'I' for Inactive)
REMARK    1  A    between atoms: C1_1  and  C3_3 
REMARK    2  A    between atoms: C3_3  and  C4_4 
ROOT
HETATM    1  C2  UNL     1     -34.407  15.461  -5.953  1.00 20.00     0.069 C 
HETATM    2  C3  UNL     1     -33.811  15.422  -4.537  1.00 20.00     0.264 C 
HETATM    3  O5  UNL     1     -32.597  15.936  -4.545  1.00 20.00    -0.210 OA
ENDROOT
BRANCH   2   4
HETATM    4  C1  UNL     1     -34.642  16.249  -3.534  1.00 20.00     0.265 C 
HETATM    5  O6  UNL     1     -35.771  16.656  -3.807  1.00 20.00    -0.276 OA
HETATM    6 CL10 UNL     1     -33.848  16.580  -2.004  1.00 20.00    -0.040 Cl
ENDBRANCH   2   4
BRANCH   2   7
HETATM    7  C4  UNL     1     -33.723  13.958  -4.074  1.00 20.00     0.429 C 
HETATM    8  F7  UNL     1     -32.494  13.654  -3.590  1.00 20.00    -0.167 F 
HETATM    9  F8  UNL     1     -33.990  13.082  -5.070  1.00 20.00    -0.167 F 
HETATM   10  F9  UNL     1     -34.609  13.716  -3.079  1.00 20.00    -0.167 F 
ENDBRANCH   2   7
TORSDOF 2
ENDMDL
MODEL 7
REMARK VINA RESULT:      -4.1     12.106     12.483
REMARK  2 active torsions:
REMARK  status: ('A' for Active; 'I' for Inactive)
REMARK    1  A    between atoms: C1_1  and  C3_3 
REMARK    2  A    between atoms: C3_3  and  C4_4 
ROOT
HETATM    1  C2  UNL     1     -34.463   5.180   3.059  1.00 20.00     0.069 C 
HETATM    2  C3  UNL     1     -33.932   6.319   3.943  1.00 20.00     0.264 C 
HETATM    3  O5  UNL     1     -34.672   7.398   3.779  1.00 20.00    -0.210 OA
ENDROOT
BRANCH   2   4
HETATM    4  C1  UNL     1     -33.984   5.963   5.444  1.00 20.00     0.265 C 
HETATM    5  O6  UNL     1     -33.718   6.789   6.316  1.00 20.00    -0.276 OA
HETATM    6 CL10 UNL     1     -34.419   4.300   5.800  1.00 20.00    -0.040 Cl
ENDBRANCH   2   4
BRANCH   2   7
HETATM    7  C4  UNL     1     -32.489   6.642   3.524  1.00 20.00     0.429 C 
HETATM    8  F7  UNL     1     -31.843   7.378   4.461  1.00 20.00    -0.167 F 
HETATM    9  F8  UNL     1     -32.427   7.331   2.361  1.00 20.00    -0.167 F 
HETATM   10  F9  UNL     1     -31.772   5.505   3.355  1.00 20.00    -0.167 F 
ENDBRANCH   2   7
TORSDOF 2
ENDMDL
MODEL 8
REMARK VINA RESULT:      -4.1      2.140      2.629
REMARK  2 active torsions:
REMARK  status: ('A' for Active; 'I' for Inactive)
REMARK    1  A    between atoms: C1_1  and  C3_3 
REMARK    2  A    between atoms: C3_3  and  C4_4 
ROOT
HETATM    1  C2  UNL     1     -36.171  14.200  -3.852  1.00 20.00     0.069 C 
HETATM    2  C3  UNL     1     -34.885  14.014  -4.672  1.00 20.00     0.264 C 
HETATM    3  O5  UNL     1     -34.746  12.747  -5.011  1.00 20.00    -0.210 OA
ENDROOT
BRANCH   2   4
HETATM    4  C1  UNL     1     -34.907  14.829  -5.982  1.00 20.00     0.265 C 
HETATM    5  O6  UNL     1     -34.391  14.407  -7.017  1.00 20.00    -0.276 OA
HETATM    6 CL10 UNL     1     -35.691  16.395  -5.872  1.00 20.00    -0.040 Cl
ENDBRANCH   2   4
BRANCH   2   7
HETATM    7  C4  UNL     1     -33.680  14.428  -3.810  1.00 20.00     0.429 C 
HETATM    8  F7  UNL     1     -32.970  15.430  -4.382  1.00 20.00    -0.167 F 
HETATM    9  F8  UNL     1     -32.823  13.404  -3.589  1.00 20.00    -0.167 F 
HETATM   10  F9  UNL     1     -34.089  14.876  -2.599  1.00 20.00    -0.167 F 
ENDBRANCH   2   7
TORSDOF 2
ENDMDL
MODEL 9
REMARK VINA RESULT:      -4.1     11.954     12.333
REMARK  2 active torsions:
REMARK  status: ('A' for Active; 'I' for Inactive)
REMARK    1  A    between atoms: C1_1  and  C3_3 
REMARK    2  A    between atoms: C3_3  and  C4_4 
ROOT
HETATM    1  C2  UNL     1     -33.786   6.311   5.578  1.00 20.00     0.069 C 
HETATM    2  C3  UNL     1     -33.949   6.476   4.060  1.00 20.00     0.264 C 
HETATM    3  O5  UNL     1     -34.530   7.629   3.792  1.00 20.00    -0.210 OA
ENDROOT
BRANCH   2   4
HETATM    4  C1  UNL     1     -32.592   6.477   3.325  1.00 20.00     0.265 C 
HETATM    5  O6  UNL     1     -31.808   5.532   3.411  1.00 20.00    -0.276 OA
HETATM    6 CL10 UNL     1     -32.249   7.925   2.395  1.00 20.00    -0.040 Cl
ENDBRANCH   2   4
BRANCH   2   7
HETATM    7  C4  UNL     1     -34.839   5.341   3.528  1.00 20.00     0.429 C 
HETATM    8  F7  UNL     1     -36.132   5.727   3.405  1.00 20.00    -0.167 F 
HETATM    9  F8  UNL     1     -34.821   4.249   4.326  1.00 20.00    -0.167 F 
HETATM   10  F9  UNL     1     -34.429   4.946   2.299  1.00 20.00    -0.167 F 
ENDBRANCH   2   7
TORSDOF 2
ENDMDL
