MODEL 1
REMARK VINA RESULT:      -6.2      0.000      0.000
REMARK  1 active torsions:
REMARK  status: ('A' for Active; 'I' for Inactive)
REMARK    1  A    between atoms: C5_5  and  C6_6 
ROOT
HETATM    1  C1  UNL     1     -33.865   6.242   5.495  1.00 20.00     0.139 C 
HETATM    2  C2  UNL     1     -34.759   5.074   5.829  1.00 20.00     0.079 C 
HETATM    3  C3  UNL     1     -35.486   4.846   4.509  1.00 20.00     0.008 C 
HETATM    4  C4  UNL     1     -34.479   5.264   3.444  1.00 20.00     0.021 C 
HETATM    5  C5  UNL     1     -33.846   6.537   4.009  1.00 20.00     0.163 C 
HETATM    6  O7  UNL     1     -33.232   6.871   6.334  1.00 20.00    -0.297 OA
ENDROOT
BRANCH   5   7
HETATM    7  C6  UNL     1     -32.451   6.792   3.473  1.00 20.00     0.398 C 
HETATM    8  F8  UNL     1     -31.757   7.576   4.319  1.00 20.00    -0.170 F 
HETATM    9  F9  UNL     1     -31.784   5.633   3.323  1.00 20.00    -0.170 F 
HETATM   10  F10 UNL     1     -32.511   7.406   2.278  1.00 20.00    -0.170 F 
ENDBRANCH   5   7
TORSDOF 1
ENDMDL
MODEL 2
REMARK VINA RESULT:      -5.3      1.592      2.202
REMARK  1 active torsions:
REMARK  status: ('A' for Active; 'I' for Inactive)
REMARK    1  A    between atoms: C5_5  and  C6_6 
ROOT
HETATM    1  C1  UNL     1     -34.317   5.337   3.507  1.00 20.00     0.139 C 
HETATM    2  C2  UNL     1     -35.451   5.144   4.483  1.00 20.00     0.079 C 
HETATM    3  C3  UNL     1     -34.758   5.371   5.821  1.00 20.00     0.008 C 
HETATM    4  C4  UNL     1     -33.656   6.378   5.513  1.00 20.00     0.021 C 
HETATM    5  C5  UNL     1     -33.081   5.903   4.176  1.00 20.00     0.163 C 
HETATM    6  O7  UNL     1     -34.396   5.065   2.316  1.00 20.00    -0.297 OA
ENDROOT
BRANCH   5   7
HETATM    7  C6  UNL     1     -32.435   7.019   3.380  1.00 20.00     0.398 C 
HETATM    8  F8  UNL     1     -33.362   7.904   2.969  1.00 20.00    -0.170 F 
HETATM    9  F9  UNL     1     -31.528   7.671   4.132  1.00 20.00    -0.170 F 
HETATM   10  F10 UNL     1     -31.811   6.524   2.296  1.00 20.00    -0.170 F 
ENDBRANCH   5   7
TORSDOF 1
ENDMDL
MODEL 3
REMARK VINA RESULT:      -5.1      2.069      2.762
REMARK  1 active torsions:
REMARK  status: ('A' for Active; 'I' for Inactive)
REMARK    1  A    between atoms: C5_5  and  C6_6 
ROOT
HETATM    1  C1  UNL     1     -34.731   4.565   5.215  1.00 20.00     0.139 C 
HETATM    2  C2  UNL     1     -35.049   5.163   6.563  1.00 20.00     0.079 C 
HETATM    3  C3  UNL     1     -34.036   6.298   6.651  1.00 20.00     0.008 C 
HETATM    4  C4  UNL     1     -33.836   6.742   5.207  1.00 20.00     0.021 C 
HETATM    5  C5  UNL     1     -33.777   5.431   4.419  1.00 20.00     0.163 C 
HETATM    6  O7  UNL     1     -35.196   3.503   4.819  1.00 20.00    -0.297 OA
ENDROOT
BRANCH   5   7
HETATM    7  C6  UNL     1     -34.191   5.593   2.970  1.00 20.00     0.398 C 
HETATM    8  F8  UNL     1     -33.836   4.510   2.255  1.00 20.00    -0.170 F 
HETATM    9  F9  UNL     1     -35.525   5.747   2.875  1.00 20.00    -0.170 F 
HETATM   10  F10 UNL     1     -33.599   6.673   2.429  1.00 20.00    -0.170 F 
ENDBRANCH   5   7
TORSDOF 1
ENDMDL
MODEL 4
REMARK VINA RESULT:      -5.1      2.569      3.396
REMARK  1 active torsions:
REMARK  status: ('A' for Active; 'I' for Inactive)
REMARK    1  A    between atoms: C5_5  and  C6_6 
ROOT
HETATM    1  C1  UNL     1     -34.739   5.372   3.988  1.00 20.00     0.139 C 
HETATM    2  C2  UNL     1     -33.993   5.197   2.688  1.00 20.00     0.079 C 
HETATM    3  C3  UNL     1     -33.039   6.385   2.710  1.00 20.00     0.008 C 
HETATM    4  C4  UNL     1     -32.748   6.612   4.189  1.00 20.00     0.021 C 
HETATM    5  C5  UNL     1     -34.107   6.431   4.868  1.00 20.00     0.163 C 
HETATM    6  O7  UNL     1     -35.736   4.728   4.287  1.00 20.00    -0.297 OA
ENDROOT
BRANCH   5   7
HETATM    7  C6  UNL     1     -33.992   6.006   6.318  1.00 20.00     0.398 C 
HETATM    8  F8  UNL     1     -35.199   6.028   6.913  1.00 20.00    -0.170 F 
HETATM    9  F9  UNL     1     -33.498   4.757   6.405  1.00 20.00    -0.170 F 
HETATM   10  F10 UNL     1     -33.173   6.835   6.988  1.00 20.00    -0.170 F 
ENDBRANCH   5   7
TORSDOF 1
ENDMDL
MODEL 5
REMARK VINA RESULT:      -5.0      2.605      3.414
REMARK  1 active torsions:
REMARK  status: ('A' for Active; 'I' for Inactive)
REMARK    1  A    between atoms: C5_5  and  C6_6 
ROOT
HETATM    1  C1  UNL     1     -33.405   6.490   5.119  1.00 20.00     0.139 C 
HETATM    2  C2  UNL     1     -32.707   7.401   4.140  1.00 20.00     0.079 C 
HETATM    3  C3  UNL     1     -32.447   6.463   2.967  1.00 20.00     0.008 C 
HETATM    4  C4  UNL     1     -33.610   5.478   3.004  1.00 20.00     0.021 C 
HETATM    5  C5  UNL     1     -33.786   5.165   4.491  1.00 20.00     0.163 C 
HETATM    6  O7  UNL     1     -33.633   6.796   6.283  1.00 20.00    -0.297 OA
ENDROOT
BRANCH   5   7
HETATM    7  C6  UNL     1     -35.194   4.726   4.841  1.00 20.00     0.398 C 
HETATM    8  F8  UNL     1     -35.472   5.013   6.126  1.00 20.00    -0.170 F 
HETATM    9  F9  UNL     1     -36.091   5.356   4.060  1.00 20.00    -0.170 F 
HETATM   10  F10 UNL     1     -35.332   3.400   4.662  1.00 20.00    -0.170 F 
ENDBRANCH   5   7
TORSDOF 1
ENDMDL
MODEL 6
REMARK VINA RESULT:      -4.9      2.760      3.768
REMARK  1 active torsions:
REMARK  status: ('A' for Active; 'I' for Inactive)
REMARK    1  A    between atoms: C5_5  and  C6_6 
ROOT
HETATM    1  C1  UNL     1     -33.679   5.748   3.201  1.00 20.00     0.139 C 
HETATM    2  C2  UNL     1     -32.312   6.243   2.797  1.00 20.00     0.079 C 
HETATM    3  C3  UNL     1     -32.060   7.344   3.820  1.00 20.00     0.008 C 
HETATM    4  C4  UNL     1     -32.799   6.879   5.069  1.00 20.00     0.021 C 
HETATM    5  C5  UNL     1     -34.118   6.318   4.534  1.00 20.00     0.163 C 
HETATM    6  O7  UNL     1     -34.346   4.976   2.524  1.00 20.00    -0.297 OA
ENDROOT
BRANCH   5   7
HETATM    7  C6  UNL     1     -34.733   5.277   5.449  1.00 20.00     0.398 C 
HETATM    8  F8  UNL     1     -34.962   5.797   6.668  1.00 20.00    -0.170 F 
HETATM    9  F9  UNL     1     -35.903   4.840   4.946  1.00 20.00    -0.170 F 
HETATM   10  F10 UNL     1     -33.908   4.223   5.585  1.00 20.00    -0.170 F 
ENDBRANCH   5   7
TORSDOF 1
ENDMDL
MODEL 7
REMARK VINA RESULT:      -4.6     11.741     12.691
REMARK  1 active torsions:
REMARK  status: ('A' for Active; 'I' for Inactive)
REMARK    1  A    between atoms: C5_5  and  C6_6 
ROOT
HETATM    1  C1  UNL     1     -33.581  15.898  -4.606  1.00 20.00     0.139 C 
HETATM    2  C2  UNL     1     -34.157  14.972  -5.648  1.00 20.00     0.079 C 
HETATM    3  C3  UNL     1     -34.473  13.730  -4.825  1.00 20.00     0.008 C 
HETATM    4  C4  UNL     1     -34.815  14.267  -3.440  1.00 20.00     0.021 C 
HETATM    5  C5  UNL     1     -33.776  15.366  -3.201  1.00 20.00     0.163 C 
HETATM    6  O7  UNL     1     -33.022  16.955  -4.874  1.00 20.00    -0.297 OA
ENDROOT
BRANCH   5   7
HETATM    7  C6  UNL     1     -34.249  16.425  -2.226  1.00 20.00     0.398 C 
HETATM    8  F8  UNL     1     -33.219  17.195  -1.830  1.00 20.00    -0.170 F 
HETATM    9  F9  UNL     1     -35.175  17.215  -2.800  1.00 20.00    -0.170 F 
HETATM   10  F10 UNL     1     -34.795  15.853  -1.137  1.00 20.00    -0.170 F 
ENDBRANCH   5   7
TORSDOF 1
ENDMDL
MODEL 8
REMARK VINA RESULT:      -4.6     11.606     12.358
REMARK  1 active torsions:
REMARK  status: ('A' for Active; 'I' for Inactive)
REMARK    1  A    between atoms: C5_5  and  C6_6 
ROOT
HETATM    1  C1  UNL     1     -33.590  16.207  -3.912  1.00 20.00     0.139 C 
HETATM    2  C2  UNL     1     -33.560  17.015  -2.638  1.00 20.00     0.079 C 
HETATM    3  C3  UNL     1     -34.885  16.632  -1.990  1.00 20.00     0.008 C 
HETATM    4  C4  UNL     1     -35.129  15.197  -2.444  1.00 20.00     0.021 C 
HETATM    5  C5  UNL     1     -34.721  15.199  -3.919  1.00 20.00     0.163 C 
HETATM    6  O7  UNL     1     -32.789  16.355  -4.826  1.00 20.00    -0.297 OA
ENDROOT
BRANCH   5   7
HETATM    7  C6  UNL     1     -34.294  13.832  -4.416  1.00 20.00     0.398 C 
HETATM    8  F8  UNL     1     -34.203  13.826  -5.758  1.00 20.00    -0.170 F 
HETATM    9  F9  UNL     1     -33.095  13.498  -3.906  1.00 20.00    -0.170 F 
HETATM   10  F10 UNL     1     -35.188  12.897  -4.047  1.00 20.00    -0.170 F 
ENDBRANCH   5   7
TORSDOF 1
ENDMDL
MODEL 9
REMARK VINA RESULT:      -4.6      9.719     10.572
REMARK  1 active torsions:
REMARK  status: ('A' for Active; 'I' for Inactive)
REMARK    1  A    between atoms: C5_5  and  C6_6 
ROOT
HETATM    1  C1  UNL     1     -42.529   5.799  -2.541  1.00 20.00     0.139 C 
HETATM    2  C2  UNL     1     -42.961   4.415  -2.959  1.00 20.00     0.079 C 
HETATM    3  C3  UNL     1     -41.750   3.576  -2.571  1.00 20.00     0.008 C 
HETATM    4  C4  UNL     1     -41.168   4.288  -1.355  1.00 20.00     0.021 C 
HETATM    5  C5  UNL     1     -41.260   5.772  -1.714  1.00 20.00     0.163 C 
HETATM    6  O7  UNL     1     -43.139   6.817  -2.840  1.00 20.00    -0.297 OA
ENDROOT
BRANCH   5   7
HETATM    7  C6  UNL     1     -41.327   6.672  -0.496  1.00 20.00     0.398 C 
HETATM    8  F8  UNL     1     -41.118   7.955  -0.845  1.00 20.00    -0.170 F 
HETATM    9  F9  UNL     1     -42.536   6.582   0.090  1.00 20.00    -0.170 F 
HETATM   10  F10 UNL     1     -40.391   6.318   0.403  1.00 20.00    -0.170 F 
ENDBRANCH   5   7
TORSDOF 1
ENDMDL
