MODEL 1
REMARK VINA RESULT:      -4.4      0.000      0.000
REMARK  1 active torsions:
REMARK  status: ('A' for Active; 'I' for Inactive)
REMARK    1  A    between atoms: C2_2  and  C3_3 
ROOT
HETATM    1  C1  UNL     1     -33.044   6.372   3.671  1.00 20.00     0.112 C 
HETATM    2  C2  UNL     1     -33.806   6.130   4.743  1.00 20.00     0.090 C 
HETATM    3 CL6  UNL     1     -31.712   7.455   3.621  1.00 20.00    -0.095 Cl
HETATM    4 CL7  UNL     1     -33.536   6.904   6.268  1.00 20.00    -0.080 Cl
ENDROOT
BRANCH   2   5
HETATM    5  C3  UNL     1     -34.952   5.166   4.697  1.00 20.00     0.167 C 
HETATM    6  C4  UNL     1     -34.996   4.023   5.682  1.00 20.00     0.097 C 
HETATM    7  O5  UNL     1     -35.850   5.300   3.865  1.00 20.00    -0.292 OA
ENDBRANCH   2   5
TORSDOF 1
ENDMDL
MODEL 2
REMARK VINA RESULT:      -4.2      2.075      2.075
REMARK  1 active torsions:
REMARK  status: ('A' for Active; 'I' for Inactive)
REMARK    1  A    between atoms: C2_2  and  C3_3 
ROOT
HETATM    1  C1  UNL     1     -32.777   6.865   4.076  1.00 20.00     0.112 C 
HETATM    2  C2  UNL     1     -33.799   6.023   4.266  1.00 20.00     0.090 C 
HETATM    3 CL6  UNL     1     -32.140   7.328   2.551  1.00 20.00    -0.095 Cl
HETATM    4 CL7  UNL     1     -34.636   5.268   2.952  1.00 20.00    -0.080 Cl
ENDROOT
BRANCH   2   5
HETATM    5  C3  UNL     1     -34.292   5.675   5.637  1.00 20.00     0.167 C 
HETATM    6  C4  UNL     1     -34.938   4.331   5.871  1.00 20.00     0.097 C 
HETATM    7  O5  UNL     1     -34.174   6.474   6.567  1.00 20.00    -0.292 OA
ENDBRANCH   2   5
TORSDOF 1
ENDMDL
MODEL 3
REMARK VINA RESULT:      -3.8     11.997     12.409
REMARK  1 active torsions:
REMARK  status: ('A' for Active; 'I' for Inactive)
REMARK    1  A    between atoms: C2_2  and  C3_3 
ROOT
HETATM    1  C1  UNL     1     -34.939  15.303  -2.888  1.00 20.00     0.112 C 
HETATM    2  C2  UNL     1     -34.128  14.614  -3.697  1.00 20.00     0.090 C 
HETATM    3 CL6  UNL     1     -34.432  16.299  -1.584  1.00 20.00    -0.095 Cl
HETATM    4 CL7  UNL     1     -32.405  14.641  -3.528  1.00 20.00    -0.080 Cl
ENDROOT
BRANCH   2   5
HETATM    5  C3  UNL     1     -34.658  13.767  -4.814  1.00 20.00     0.167 C 
HETATM    6  C4  UNL     1     -34.853  14.381  -6.178  1.00 20.00     0.097 C 
HETATM    7  O5  UNL     1     -34.933  12.581  -4.625  1.00 20.00    -0.292 OA
ENDBRANCH   2   5
TORSDOF 1
ENDMDL
MODEL 4
REMARK VINA RESULT:      -3.7      0.988      2.019
REMARK  1 active torsions:
REMARK  status: ('A' for Active; 'I' for Inactive)
REMARK    1  A    between atoms: C2_2  and  C3_3 
ROOT
HETATM    1  C1  UNL     1     -34.025   6.525   6.337  1.00 20.00     0.112 C 
HETATM    2  C2  UNL     1     -33.950   6.143   5.057  1.00 20.00     0.090 C 
HETATM    3 CL6  UNL     1     -32.992   7.668   7.095  1.00 20.00    -0.095 Cl
HETATM    4 CL7  UNL     1     -32.764   6.775   3.966  1.00 20.00    -0.080 Cl
ENDROOT
BRANCH   2   5
HETATM    5  C3  UNL     1     -34.896   5.137   4.477  1.00 20.00     0.167 C 
HETATM    6  C4  UNL     1     -35.113   3.826   5.194  1.00 20.00     0.097 C 
HETATM    7  O5  UNL     1     -35.493   5.371   3.425  1.00 20.00    -0.292 OA
ENDBRANCH   2   5
TORSDOF 1
ENDMDL
MODEL 5
REMARK VINA RESULT:      -3.7      1.632      3.229
REMARK  1 active torsions:
REMARK  status: ('A' for Active; 'I' for Inactive)
REMARK    1  A    between atoms: C2_2  and  C3_3 
ROOT
HETATM    1  C1  UNL     1     -34.759   4.653   5.121  1.00 20.00     0.112 C 
HETATM    2  C2  UNL     1     -33.998   5.732   4.904  1.00 20.00     0.090 C 
HETATM    3 CL6  UNL     1     -35.465   4.220   6.624  1.00 20.00    -0.095 Cl
HETATM    4 CL7  UNL     1     -33.619   6.867   6.154  1.00 20.00    -0.080 Cl
ENDROOT
BRANCH   2   5
HETATM    5  C3  UNL     1     -33.421   6.034   3.555  1.00 20.00     0.167 C 
HETATM    6  C4  UNL     1     -32.221   6.942   3.451  1.00 20.00     0.097 C 
HETATM    7  O5  UNL     1     -33.918   5.548   2.537  1.00 20.00    -0.292 OA
ENDBRANCH   2   5
TORSDOF 1
ENDMDL
MODEL 6
REMARK VINA RESULT:      -3.5      2.741      4.063
REMARK  1 active torsions:
REMARK  status: ('A' for Active; 'I' for Inactive)
REMARK    1  A    between atoms: C2_2  and  C3_3 
ROOT
HETATM    1  C1  UNL     1     -33.645   6.311   5.116  1.00 20.00     0.112 C 
HETATM    2  C2  UNL     1     -33.246   6.362   3.840  1.00 20.00     0.090 C 
HETATM    3 CL6  UNL     1     -34.873   5.282   5.734  1.00 20.00    -0.095 Cl
HETATM    4 CL7  UNL     1     -33.941   5.362   2.610  1.00 20.00    -0.080 Cl
ENDROOT
BRANCH   2   5
HETATM    5  C3  UNL     1     -32.164   7.293   3.387  1.00 20.00     0.167 C 
HETATM    6  C4  UNL     1     -32.263   7.934   2.024  1.00 20.00     0.097 C 
HETATM    7  O5  UNL     1     -31.200   7.536   4.116  1.00 20.00    -0.292 OA
ENDBRANCH   2   5
TORSDOF 1
ENDMDL
MODEL 7
REMARK VINA RESULT:      -3.4      2.252      2.532
REMARK  1 active torsions:
REMARK  status: ('A' for Active; 'I' for Inactive)
REMARK    1  A    between atoms: C2_2  and  C3_3 
ROOT
HETATM    1  C1  UNL     1     -34.662   5.271   3.562  1.00 20.00     0.112 C 
HETATM    2  C2  UNL     1     -33.875   5.935   4.416  1.00 20.00     0.090 C 
HETATM    3 CL6  UNL     1     -34.427   5.173   1.864  1.00 20.00    -0.095 Cl
HETATM    4 CL7  UNL     1     -32.473   6.808   3.899  1.00 20.00    -0.080 Cl
ENDROOT
BRANCH   2   5
HETATM    5  C3  UNL     1     -34.156   5.968   5.887  1.00 20.00     0.167 C 
HETATM    6  C4  UNL     1     -34.963   4.855   6.510  1.00 20.00     0.097 C 
HETATM    7  O5  UNL     1     -33.735   6.891   6.585  1.00 20.00    -0.292 OA
ENDBRANCH   2   5
TORSDOF 1
ENDMDL
MODEL 8
REMARK VINA RESULT:      -3.4     12.674     13.598
REMARK  1 active torsions:
REMARK  status: ('A' for Active; 'I' for Inactive)
REMARK    1  A    between atoms: C2_2  and  C3_3 
ROOT
HETATM    1  C1  UNL     1     -34.029  15.935  -5.682  1.00 20.00     0.112 C 
HETATM    2  C2  UNL     1     -34.520  14.699  -5.825  1.00 20.00     0.090 C 
HETATM    3 CL6  UNL     1     -34.235  17.223  -6.799  1.00 20.00    -0.095 Cl
HETATM    4 CL7  UNL     1     -35.456  14.226  -7.202  1.00 20.00    -0.080 Cl
ENDROOT
BRANCH   2   5
HETATM    5  C3  UNL     1     -34.291  13.634  -4.797  1.00 20.00     0.167 C 
HETATM    6  C4  UNL     1     -33.276  13.867  -3.704  1.00 20.00     0.097 C 
HETATM    7  O5  UNL     1     -34.922  12.577  -4.839  1.00 20.00    -0.292 OA
ENDBRANCH   2   5
TORSDOF 1
ENDMDL
MODEL 9
REMARK VINA RESULT:      -3.4     11.787     12.621
REMARK  1 active torsions:
REMARK  status: ('A' for Active; 'I' for Inactive)
REMARK    1  A    between atoms: C2_2  and  C3_3 
ROOT
HETATM    1  C1  UNL     1     -33.516  16.245  -4.575  1.00 20.00     0.112 C 
HETATM    2  C2  UNL     1     -33.916  15.400  -3.618  1.00 20.00     0.090 C 
HETATM    3 CL6  UNL     1     -33.456  17.955  -4.429  1.00 20.00    -0.095 Cl
HETATM    4 CL7  UNL     1     -34.442  15.942  -2.061  1.00 20.00    -0.080 Cl
ENDROOT
BRANCH   2   5
HETATM    5  C3  UNL     1     -33.935  13.918  -3.832  1.00 20.00     0.167 C 
HETATM    6  C4  UNL     1     -35.189  13.263  -4.358  1.00 20.00     0.097 C 
HETATM    7  O5  UNL     1     -32.940  13.235  -3.581  1.00 20.00    -0.292 OA
ENDBRANCH   2   5
TORSDOF 1
ENDMDL
