MODEL 1
REMARK VINA RESULT:      -3.8      0.000      0.000
REMARK  4 active torsions:
REMARK  status: ('A' for Active; 'I' for Inactive)
REMARK    1  A    between atoms: C2_2  and  C5_5 
REMARK    2  A    between atoms: C2_2  and  C6_6 
REMARK    3  A    between atoms: C5_5  and  C7_7 
REMARK    4  A    between atoms: C6_6  and  C8_8 
ROOT
HETATM    1  C1  UNL     1     -33.522  17.777  -4.865  1.00 20.00     0.207 A 
HETATM    2  C2  UNL     1     -33.959  16.505  -4.178  1.00 20.00     0.082 A 
HETATM    3  O9  UNL     1     -32.844  16.530  -5.080  1.00 20.00    -0.375 OA
ENDROOT
BRANCH   2   4
HETATM    4  C5  UNL     1     -33.570  16.264  -2.729  1.00 20.00     0.040 C 
BRANCH   4   5
HETATM    5  C7  UNL     1     -34.799  16.089  -1.840  1.00 20.00    -0.002 C 
HETATM    6  C3  UNL     1     -34.654  16.851  -0.533  1.00 20.00     0.005 C 
ENDBRANCH   4   5
ENDBRANCH   2   4
BRANCH   2   7
HETATM    7  C6  UNL     1     -35.140  15.755  -4.702  1.00 20.00     0.040 C 
BRANCH   7   8
HETATM    8  C8  UNL     1     -34.751  14.392  -5.298  1.00 20.00    -0.002 C 
HETATM    9  C4  UNL     1     -35.024  13.242  -4.342  1.00 20.00     0.005 C 
ENDBRANCH   7   8
ENDBRANCH   2   7
TORSDOF 4
ENDMDL
MODEL 2
REMARK VINA RESULT:      -3.7      1.195      3.553
REMARK  4 active torsions:
REMARK  status: ('A' for Active; 'I' for Inactive)
REMARK    1  A    between atoms: C2_2  and  C5_5 
REMARK    2  A    between atoms: C2_2  and  C6_6 
REMARK    3  A    between atoms: C5_5  and  C7_7 
REMARK    4  A    between atoms: C6_6  and  C8_8 
ROOT
HETATM    1  C1  UNL     1     -33.629  17.079  -4.829  1.00 20.00     0.207 A 
HETATM    2  C2  UNL     1     -33.654  16.231  -3.580  1.00 20.00     0.082 A 
HETATM    3  O9  UNL     1     -34.843  16.493  -4.337  1.00 20.00    -0.375 OA
ENDROOT
BRANCH   2   4
HETATM    4  C5  UNL     1     -33.192  14.784  -3.647  1.00 20.00     0.040 C 
BRANCH   4   5
HETATM    5  C7  UNL     1     -34.372  13.817  -3.578  1.00 20.00    -0.002 C 
HETATM    6  C3  UNL     1     -34.627  13.153  -4.921  1.00 20.00     0.005 C 
ENDBRANCH   4   5
ENDBRANCH   2   4
BRANCH   2   7
HETATM    7  C6  UNL     1     -33.635  16.893  -2.240  1.00 20.00     0.040 C 
BRANCH   7   8
HETATM    8  C8  UNL     1     -34.766  16.396  -1.326  1.00 20.00    -0.002 C 
HETATM    9  C4  UNL     1     -34.826  17.159  -0.012  1.00 20.00     0.005 C 
ENDBRANCH   7   8
ENDBRANCH   2   7
TORSDOF 4
ENDMDL
MODEL 3
REMARK VINA RESULT:      -3.7      1.156      1.499
REMARK  4 active torsions:
REMARK  status: ('A' for Active; 'I' for Inactive)
REMARK    1  A    between atoms: C2_2  and  C5_5 
REMARK    2  A    between atoms: C2_2  and  C6_6 
REMARK    3  A    between atoms: C5_5  and  C7_7 
REMARK    4  A    between atoms: C6_6  and  C8_8 
ROOT
HETATM    1  C1  UNL     1     -34.776  17.029  -4.629  1.00 20.00     0.207 A 
HETATM    2  C2  UNL     1     -34.115  16.244  -3.522  1.00 20.00     0.082 A 
HETATM    3  O9  UNL     1     -33.688  17.570  -3.865  1.00 20.00    -0.375 OA
ENDROOT
BRANCH   2   4
HETATM    4  C5  UNL     1     -34.790  16.150  -2.163  1.00 20.00     0.040 C 
BRANCH   4   5
HETATM    5  C7  UNL     1     -34.031  16.948  -1.105  1.00 20.00    -0.002 C 
HETATM    6  C3  UNL     1     -34.893  17.213   0.118  1.00 20.00     0.005 C 
ENDBRANCH   4   5
ENDBRANCH   2   4
BRANCH   2   7
HETATM    7  C6  UNL     1     -33.119  15.184  -3.865  1.00 20.00     0.040 C 
BRANCH   7   8
HETATM    8  C8  UNL     1     -33.667  13.767  -3.629  1.00 20.00    -0.002 C 
HETATM    9  C4  UNL     1     -34.513  13.273  -4.792  1.00 20.00     0.005 C 
ENDBRANCH   7   8
ENDBRANCH   2   7
TORSDOF 4
ENDMDL
MODEL 4
REMARK VINA RESULT:      -3.6      1.742      4.016
REMARK  4 active torsions:
REMARK  status: ('A' for Active; 'I' for Inactive)
REMARK    1  A    between atoms: C2_2  and  C5_5 
REMARK    2  A    between atoms: C2_2  and  C6_6 
REMARK    3  A    between atoms: C5_5  and  C7_7 
REMARK    4  A    between atoms: C6_6  and  C8_8 
ROOT
HETATM    1  C1  UNL     1     -34.933  13.384  -4.313  1.00 20.00     0.207 A 
HETATM    2  C2  UNL     1     -34.324  14.659  -3.779  1.00 20.00     0.082 A 
HETATM    3  O9  UNL     1     -33.863  13.368  -3.356  1.00 20.00    -0.375 OA
ENDROOT
BRANCH   2   4
HETATM    4  C5  UNL     1     -33.317  15.420  -4.626  1.00 20.00     0.040 C 
BRANCH   4   5
HETATM    5  C7  UNL     1     -33.994  16.502  -5.464  1.00 20.00    -0.002 C 
HETATM    6  C3  UNL     1     -34.258  16.025  -6.883  1.00 20.00     0.005 C 
ENDBRANCH   4   5
ENDBRANCH   2   4
BRANCH   2   7
HETATM    7  C6  UNL     1     -35.035  15.424  -2.711  1.00 20.00     0.040 C 
BRANCH   7   8
HETATM    8  C8  UNL     1     -34.104  16.394  -1.966  1.00 20.00    -0.002 C 
HETATM    9  C4  UNL     1     -34.661  16.806  -0.613  1.00 20.00     0.005 C 
ENDBRANCH   7   8
ENDBRANCH   2   7
TORSDOF 4
ENDMDL
MODEL 5
REMARK VINA RESULT:      -3.6     11.863     13.152
REMARK  4 active torsions:
REMARK  status: ('A' for Active; 'I' for Inactive)
REMARK    1  A    between atoms: C2_2  and  C5_5 
REMARK    2  A    between atoms: C2_2  and  C6_6 
REMARK    3  A    between atoms: C5_5  and  C7_7 
REMARK    4  A    between atoms: C6_6  and  C8_8 
ROOT
HETATM    1  C1  UNL     1     -35.332   5.857   3.172  1.00 20.00     0.207 A 
HETATM    2  C2  UNL     1     -34.022   5.907   3.921  1.00 20.00     0.082 A 
HETATM    3  O9  UNL     1     -34.729   4.675   3.719  1.00 20.00    -0.375 OA
ENDROOT
BRANCH   2   4
HETATM    4  C5  UNL     1     -32.718   5.998   3.145  1.00 20.00     0.040 C 
BRANCH   4   5
HETATM    5  C7  UNL     1     -32.032   7.346   3.360  1.00 20.00    -0.002 C 
HETATM    6  C3  UNL     1     -32.041   8.184   2.092  1.00 20.00     0.005 C 
ENDBRANCH   4   5
ENDBRANCH   2   4
BRANCH   2   7
HETATM    7  C6  UNL     1     -34.004   6.363   5.344  1.00 20.00     0.040 C 
BRANCH   7   8
HETATM    8  C8  UNL     1     -33.891   5.193   6.333  1.00 20.00    -0.002 C 
HETATM    9  C4  UNL     1     -35.236   4.545   6.620  1.00 20.00     0.005 C 
ENDBRANCH   7   8
ENDBRANCH   2   7
TORSDOF 4
ENDMDL
MODEL 6
REMARK VINA RESULT:      -3.6      1.467      2.852
REMARK  4 active torsions:
REMARK  status: ('A' for Active; 'I' for Inactive)
REMARK    1  A    between atoms: C2_2  and  C5_5 
REMARK    2  A    between atoms: C2_2  and  C6_6 
REMARK    3  A    between atoms: C5_5  and  C7_7 
REMARK    4  A    between atoms: C6_6  and  C8_8 
ROOT
HETATM    1  C1  UNL     1     -34.106  13.618  -3.856  1.00 20.00     0.207 A 
HETATM    2  C2  UNL     1     -34.146  15.120  -3.698  1.00 20.00     0.082 A 
HETATM    3  O9  UNL     1     -34.967  14.440  -4.659  1.00 20.00    -0.375 OA
ENDROOT
BRANCH   2   4
HETATM    4  C5  UNL     1     -34.930  15.731  -2.548  1.00 20.00     0.040 C 
BRANCH   4   5
HETATM    5  C7  UNL     1     -34.054  16.647  -1.697  1.00 20.00    -0.002 C 
HETATM    6  C3  UNL     1     -34.708  16.963  -0.363  1.00 20.00     0.005 C 
ENDBRANCH   4   5
ENDBRANCH   2   4
BRANCH   2   7
HETATM    7  C6  UNL     1     -33.068  15.953  -4.309  1.00 20.00     0.040 C 
BRANCH   7   8
HETATM    8  C8  UNL     1     -33.586  16.829  -5.461  1.00 20.00    -0.002 C 
HETATM    9  C4  UNL     1     -33.568  18.310  -5.116  1.00 20.00     0.005 C 
ENDBRANCH   7   8
ENDBRANCH   2   7
TORSDOF 4
ENDMDL
MODEL 7
REMARK VINA RESULT:      -3.5     11.503     12.724
REMARK  4 active torsions:
REMARK  status: ('A' for Active; 'I' for Inactive)
REMARK    1  A    between atoms: C2_2  and  C5_5 
REMARK    2  A    between atoms: C2_2  and  C6_6 
REMARK    3  A    between atoms: C5_5  and  C7_7 
REMARK    4  A    between atoms: C6_6  and  C8_8 
ROOT
HETATM    1  C1  UNL     1     -35.090   5.503   3.252  1.00 20.00     0.207 A 
HETATM    2  C2  UNL     1     -33.807   5.726   4.017  1.00 20.00     0.082 A 
HETATM    3  O9  UNL     1     -34.763   6.778   3.824  1.00 20.00    -0.375 OA
ENDROOT
BRANCH   2   4
HETATM    4  C5  UNL     1     -33.701   5.251   5.457  1.00 20.00     0.040 C 
BRANCH   4   5
HETATM    5  C7  UNL     1     -34.312   6.261   6.426  1.00 20.00    -0.002 C 
HETATM    6  C3  UNL     1     -33.304   7.325   6.830  1.00 20.00     0.005 C 
ENDBRANCH   4   5
ENDBRANCH   2   4
BRANCH   2   7
HETATM    7  C6  UNL     1     -32.530   5.929   3.268  1.00 20.00     0.040 C 
BRANCH   7   8
HETATM    8  C8  UNL     1     -31.986   7.359   3.416  1.00 20.00    -0.002 C 
HETATM    9  C4  UNL     1     -32.034   8.134   2.109  1.00 20.00     0.005 C 
ENDBRANCH   7   8
ENDBRANCH   2   7
TORSDOF 4
ENDMDL
MODEL 8
REMARK VINA RESULT:      -3.5      1.957      2.697
REMARK  4 active torsions:
REMARK  status: ('A' for Active; 'I' for Inactive)
REMARK    1  A    between atoms: C2_2  and  C5_5 
REMARK    2  A    between atoms: C2_2  and  C6_6 
REMARK    3  A    between atoms: C5_5  and  C7_7 
REMARK    4  A    between atoms: C6_6  and  C8_8 
ROOT
HETATM    1  C1  UNL     1     -33.354  13.274  -3.811  1.00 20.00     0.207 A 
HETATM    2  C2  UNL     1     -34.400  14.314  -4.133  1.00 20.00     0.082 A 
HETATM    3  O9  UNL     1     -34.692  12.911  -4.182  1.00 20.00    -0.375 OA
ENDROOT
BRANCH   2   4
HETATM    4  C5  UNL     1     -35.102  15.046  -3.002  1.00 20.00     0.040 C 
BRANCH   4   5
HETATM    5  C7  UNL     1     -34.265  16.215  -2.486  1.00 20.00    -0.002 C 
HETATM    6  C3  UNL     1     -34.599  16.543  -1.040  1.00 20.00     0.005 C 
ENDBRANCH   4   5
ENDBRANCH   2   4
BRANCH   2   7
HETATM    7  C6  UNL     1     -34.392  14.974  -5.474  1.00 20.00     0.040 C 
BRANCH   7   8
HETATM    8  C8  UNL     1     -35.709  14.763  -6.238  1.00 20.00    -0.002 C 
HETATM    9  C4  UNL     1     -35.482  14.464  -7.711  1.00 20.00     0.005 C 
ENDBRANCH   7   8
ENDBRANCH   2   7
TORSDOF 4
ENDMDL
MODEL 9
REMARK VINA RESULT:      -3.3     11.429     12.828
REMARK  4 active torsions:
REMARK  status: ('A' for Active; 'I' for Inactive)
REMARK    1  A    between atoms: C2_2  and  C5_5 
REMARK    2  A    between atoms: C2_2  and  C6_6 
REMARK    3  A    between atoms: C5_5  and  C7_7 
REMARK    4  A    between atoms: C6_6  and  C8_8 
ROOT
HETATM    1  C1  UNL     1     -34.771   5.341   2.688  1.00 20.00     0.207 A 
HETATM    2  C2  UNL     1     -33.788   5.944   3.663  1.00 20.00     0.082 A 
HETATM    3  O9  UNL     1     -34.269   4.600   3.810  1.00 20.00    -0.375 OA
ENDROOT
BRANCH   2   4
HETATM    4  C5  UNL     1     -32.318   6.029   3.287  1.00 20.00     0.040 C 
BRANCH   4   5
HETATM    5  C7  UNL     1     -31.811   7.469   3.332  1.00 20.00    -0.002 C 
HETATM    6  C3  UNL     1     -32.066   8.190   2.019  1.00 20.00     0.005 C 
ENDBRANCH   4   5
ENDBRANCH   2   4
BRANCH   2   7
HETATM    7  C6  UNL     1     -34.279   6.878   4.720  1.00 20.00     0.040 C 
BRANCH   7   8
HETATM    8  C8  UNL     1     -34.010   6.351   6.138  1.00 20.00    -0.002 C 
HETATM    9  C4  UNL     1     -33.369   7.399   7.034  1.00 20.00     0.005 C 
ENDBRANCH   7   8
ENDBRANCH   2   7
TORSDOF 4
ENDMDL
