MODEL 1
REMARK VINA RESULT:      -4.7      0.000      0.000
REMARK  0 active torsions:
REMARK  status: ('A' for Active; 'I' for Inactive)
ROOT
HETATM    1  C1  UNL     1     -34.207   6.220   5.857  1.00 20.00    -0.057 C 
HETATM    2  C2  UNL     1     -33.751   6.977   6.859  1.00 20.00     0.017 C 
HETATM    3  C3  UNL     1     -34.904   4.913   6.009  1.00 20.00     0.205 C 
HETATM    4  C4  UNL     1     -32.718   6.291   3.804  1.00 20.00     0.040 C 
HETATM    5  C5  UNL     1     -33.067   5.820   2.410  1.00 20.00     0.172 C 
HETATM    6  C6  UNL     1     -34.086   6.531   4.406  1.00 20.00     0.073 C 
HETATM    7  C7  UNL     1     -34.923   5.439   3.759  1.00 20.00     0.268 C 
HETATM    8  O8  UNL     1     -34.942   4.344   4.690  1.00 20.00    -0.356 OA
HETATM    9  O9  UNL     1     -34.286   5.075   2.528  1.00 20.00    -0.361 OA
ENDROOT
TORSDOF 0
ENDMDL
MODEL 2
REMARK VINA RESULT:      -4.2      1.572      3.552
REMARK  0 active torsions:
REMARK  status: ('A' for Active; 'I' for Inactive)
ROOT
HETATM    1  C1  UNL     1     -34.056   5.559   3.102  1.00 20.00    -0.057 C 
HETATM    2  C2  UNL     1     -34.232   5.011   1.896  1.00 20.00     0.017 C 
HETATM    3  C3  UNL     1     -32.905   6.415   3.502  1.00 20.00     0.205 C 
HETATM    4  C4  UNL     1     -34.863   4.075   4.994  1.00 20.00     0.040 C 
HETATM    5  C5  UNL     1     -35.103   4.481   6.430  1.00 20.00     0.172 C 
HETATM    6  C6  UNL     1     -34.963   5.401   4.271  1.00 20.00     0.073 C 
HETATM    7  C7  UNL     1     -34.374   6.369   5.285  1.00 20.00     0.268 C 
HETATM    8  O8  UNL     1     -32.989   6.525   4.932  1.00 20.00    -0.356 OA
HETATM    9  O9  UNL     1     -34.525   5.784   6.584  1.00 20.00    -0.361 OA
ENDROOT
TORSDOF 0
ENDMDL
MODEL 3
REMARK VINA RESULT:      -4.1      1.154      3.010
REMARK  0 active torsions:
REMARK  status: ('A' for Active; 'I' for Inactive)
ROOT
HETATM    1  C1  UNL     1     -33.323   6.154   3.458  1.00 20.00    -0.057 C 
HETATM    2  C2  UNL     1     -32.333   6.918   2.989  1.00 20.00     0.017 C 
HETATM    3  C3  UNL     1     -34.524   5.727   2.687  1.00 20.00     0.205 C 
HETATM    4  C4  UNL     1     -33.848   6.599   5.900  1.00 20.00     0.040 C 
HETATM    5  C5  UNL     1     -34.673   5.733   6.826  1.00 20.00     0.172 C 
HETATM    6  C6  UNL     1     -33.422   5.606   4.838  1.00 20.00     0.073 C 
HETATM    7  C7  UNL     1     -34.630   4.688   4.748  1.00 20.00     0.268 C 
HETATM    8  O8  UNL     1     -35.430   5.182   3.661  1.00 20.00    -0.356 OA
HETATM    9  O9  UNL     1     -35.330   4.766   5.996  1.00 20.00    -0.361 OA
ENDROOT
TORSDOF 0
ENDMDL
MODEL 4
REMARK VINA RESULT:      -4.1     12.393     13.069
REMARK  0 active torsions:
REMARK  status: ('A' for Active; 'I' for Inactive)
ROOT
HETATM    1  C1  UNL     1     -34.231  16.500  -2.136  1.00 20.00    -0.057 C 
HETATM    2  C2  UNL     1     -34.653  16.569  -0.870  1.00 20.00     0.017 C 
HETATM    3  C3  UNL     1     -33.772  17.654  -2.958  1.00 20.00     0.205 C 
HETATM    4  C4  UNL     1     -35.485  14.773  -3.507  1.00 20.00     0.040 C 
HETATM    5  C5  UNL     1     -35.085  14.215  -4.854  1.00 20.00     0.172 C 
HETATM    6  C6  UNL     1     -34.160  15.266  -2.965  1.00 20.00     0.073 C 
HETATM    7  C7  UNL     1     -33.453  15.746  -4.222  1.00 20.00     0.268 C 
HETATM    8  O8  UNL     1     -33.700  17.159  -4.305  1.00 20.00    -0.356 OA
HETATM    9  O9  UNL     1     -34.020  15.044  -5.335  1.00 20.00    -0.361 OA
ENDROOT
TORSDOF 0
ENDMDL
MODEL 5
REMARK VINA RESULT:      -4.1     12.166     13.431
REMARK  0 active torsions:
REMARK  status: ('A' for Active; 'I' for Inactive)
ROOT
HETATM    1  C1  UNL     1     -34.955  14.619  -5.863  1.00 20.00    -0.057 C 
HETATM    2  C2  UNL     1     -34.313  15.132  -6.916  1.00 20.00     0.017 C 
HETATM    3  C3  UNL     1     -34.655  13.308  -5.222  1.00 20.00     0.205 C 
HETATM    4  C4  UNL     1     -37.434  15.156  -5.855  1.00 20.00     0.040 C 
HETATM    5  C5  UNL     1     -38.393  15.010  -4.695  1.00 20.00     0.172 C 
HETATM    6  C6  UNL     1     -36.098  15.249  -5.148  1.00 20.00     0.073 C 
HETATM    7  C7  UNL     1     -36.296  14.328  -3.955  1.00 20.00     0.268 C 
HETATM    8  O8  UNL     1     -35.761  13.051  -4.341  1.00 20.00    -0.356 OA
HETATM    9  O9  UNL     1     -37.703  14.252  -3.692  1.00 20.00    -0.361 OA
ENDROOT
TORSDOF 0
ENDMDL
MODEL 6
REMARK VINA RESULT:      -3.9     11.876     13.069
REMARK  0 active torsions:
REMARK  status: ('A' for Active; 'I' for Inactive)
ROOT
HETATM    1  C1  UNL     1     -34.118  15.082  -3.649  1.00 20.00    -0.057 C 
HETATM    2  C2  UNL     1     -33.715  16.017  -2.784  1.00 20.00     0.017 C 
HETATM    3  C3  UNL     1     -33.905  13.615  -3.498  1.00 20.00     0.205 C 
HETATM    4  C4  UNL     1     -33.971  15.837  -6.066  1.00 20.00     0.040 C 
HETATM    5  C5  UNL     1     -34.614  15.179  -7.266  1.00 20.00     0.172 C 
HETATM    6  C6  UNL     1     -34.834  15.330  -4.930  1.00 20.00     0.073 C 
HETATM    7  C7  UNL     1     -35.190  13.927  -5.393  1.00 20.00     0.268 C 
HETATM    8  O8  UNL     1     -34.235  13.047  -4.776  1.00 20.00    -0.356 OA
HETATM    9  O9  UNL     1     -35.085  13.900  -6.822  1.00 20.00    -0.361 OA
ENDROOT
TORSDOF 0
ENDMDL
MODEL 7
REMARK VINA RESULT:      -3.9     11.519     12.621
REMARK  0 active torsions:
REMARK  status: ('A' for Active; 'I' for Inactive)
ROOT
HETATM    1  C1  UNL     1     -36.198  16.116  -3.991  1.00 20.00    -0.057 C 
HETATM    2  C2  UNL     1     -36.106  17.439  -3.824  1.00 20.00     0.017 C 
HETATM    3  C3  UNL     1     -37.410  15.294  -3.722  1.00 20.00     0.205 C 
HETATM    4  C4  UNL     1     -34.051  14.892  -3.422  1.00 20.00     0.040 C 
HETATM    5  C5  UNL     1     -33.695  13.466  -3.776  1.00 20.00     0.172 C 
HETATM    6  C6  UNL     1     -35.106  15.219  -4.457  1.00 20.00     0.073 C 
HETATM    7  C7  UNL     1     -35.817  13.887  -4.628  1.00 20.00     0.268 C 
HETATM    8  O8  UNL     1     -36.962  13.929  -3.760  1.00 20.00    -0.356 OA
HETATM    9  O9  UNL     1     -34.903  12.852  -4.245  1.00 20.00    -0.361 OA
ENDROOT
TORSDOF 0
ENDMDL
MODEL 8
REMARK VINA RESULT:      -3.8      9.416     10.501
REMARK  0 active torsions:
REMARK  status: ('A' for Active; 'I' for Inactive)
ROOT
HETATM    1  C1  UNL     1     -41.258   5.639  -0.984  1.00 20.00    -0.057 C 
HETATM    2  C2  UNL     1     -40.480   6.148  -0.025  1.00 20.00     0.017 C 
HETATM    3  C3  UNL     1     -41.151   4.263  -1.543  1.00 20.00     0.205 C 
HETATM    4  C4  UNL     1     -41.918   7.349  -2.738  1.00 20.00     0.040 C 
HETATM    5  C5  UNL     1     -43.012   7.214  -3.773  1.00 20.00     0.172 C 
HETATM    6  C6  UNL     1     -42.359   6.355  -1.685  1.00 20.00     0.073 C 
HETATM    7  C7  UNL     1     -42.995   5.255  -2.520  1.00 20.00     0.268 C 
HETATM    8  O8  UNL     1     -41.974   4.264  -2.722  1.00 20.00    -0.356 OA
HETATM    9  O9  UNL     1     -43.415   5.839  -3.760  1.00 20.00    -0.361 OA
ENDROOT
TORSDOF 0
ENDMDL
MODEL 9
REMARK VINA RESULT:      -3.8     11.835     12.531
REMARK  0 active torsions:
REMARK  status: ('A' for Active; 'I' for Inactive)
ROOT
HETATM    1  C1  UNL     1     -33.892  15.988  -2.690  1.00 20.00    -0.057 C 
HETATM    2  C2  UNL     1     -33.672  17.031  -1.884  1.00 20.00     0.017 C 
HETATM    3  C3  UNL     1     -32.962  15.500  -3.746  1.00 20.00     0.205 C 
HETATM    4  C4  UNL     1     -36.327  15.749  -3.359  1.00 20.00     0.040 C 
HETATM    5  C5  UNL     1     -36.983  14.541  -3.992  1.00 20.00     0.172 C 
HETATM    6  C6  UNL     1     -35.112  15.135  -2.697  1.00 20.00     0.073 C 
HETATM    7  C7  UNL     1     -34.739  14.025  -3.667  1.00 20.00     0.268 C 
HETATM    8  O8  UNL     1     -33.727  14.570  -4.530  1.00 20.00    -0.356 OA
HETATM    9  O9  UNL     1     -35.919  13.669  -4.396  1.00 20.00    -0.361 OA
ENDROOT
TORSDOF 0
ENDMDL
