MODEL 1
REMARK VINA RESULT:      -4.6      0.000      0.000
REMARK  2 active torsions:
REMARK  status: ('A' for Active; 'I' for Inactive)
REMARK    1  A    between atoms: C1_1  and  C3_3 
REMARK    2  A    between atoms: C3_3  and  C4_4 
ROOT
HETATM    1  C2  UNL     1     -34.676  14.201  -6.127  1.00 20.00     0.069 C 
HETATM    2  C3  UNL     1     -34.978  13.949  -4.642  1.00 20.00     0.264 C 
HETATM    3  O5  UNL     1     -35.148  12.659  -4.430  1.00 20.00    -0.210 OA
ENDROOT
BRANCH   2   4
HETATM    4  C1  UNL     1     -36.272  14.653  -4.183  1.00 20.00     0.265 C 
HETATM    5  O6  UNL     1     -37.230  14.021  -3.739  1.00 20.00    -0.276 OA
HETATM    6 CL10 UNL     1     -36.279  16.398  -4.370  1.00 20.00    -0.040 Cl
ENDBRANCH   2   4
BRANCH   2   7
HETATM    7  C4  UNL     1     -33.785  14.436  -3.803  1.00 20.00     0.429 C 
HETATM    8  F7  UNL     1     -34.168  14.853  -2.573  1.00 20.00    -0.167 F 
HETATM    9  F8  UNL     1     -33.123  15.462  -4.387  1.00 20.00    -0.167 F 
HETATM   10  F9  UNL     1     -32.890  13.435  -3.617  1.00 20.00    -0.167 F 
ENDBRANCH   2   7
TORSDOF 2
ENDMDL
MODEL 2
REMARK VINA RESULT:      -4.4      2.133      3.091
REMARK  2 active torsions:
REMARK  status: ('A' for Active; 'I' for Inactive)
REMARK    1  A    between atoms: C1_1  and  C3_3 
REMARK    2  A    between atoms: C3_3  and  C4_4 
ROOT
HETATM    1  C2  UNL     1     -36.227  14.414  -3.753  1.00 20.00     0.069 C 
HETATM    2  C3  UNL     1     -35.027  13.871  -4.543  1.00 20.00     0.264 C 
HETATM    3  O5  UNL     1     -35.155  12.571  -4.719  1.00 20.00    -0.210 OA
ENDROOT
BRANCH   2   4
HETATM    4  C1  UNL     1     -33.692  14.092  -3.800  1.00 20.00     0.265 C 
HETATM    5  O6  UNL     1     -32.843  13.206  -3.716  1.00 20.00    -0.276 OA
HETATM    6 CL10 UNL     1     -33.498  15.677  -3.072  1.00 20.00    -0.040 Cl
ENDBRANCH   2   4
BRANCH   2   7
HETATM    7  C4  UNL     1     -34.987  14.556  -5.919  1.00 20.00     0.429 C 
HETATM    8  F7  UNL     1     -35.307  13.701  -6.920  1.00 20.00    -0.167 F 
HETATM    9  F8  UNL     1     -33.770  15.073  -6.207  1.00 20.00    -0.167 F 
HETATM   10  F9  UNL     1     -35.878  15.575  -5.974  1.00 20.00    -0.167 F 
ENDBRANCH   2   7
TORSDOF 2
ENDMDL
MODEL 3
REMARK VINA RESULT:      -4.2      2.312      2.863
REMARK  2 active torsions:
REMARK  status: ('A' for Active; 'I' for Inactive)
REMARK    1  A    between atoms: C1_1  and  C3_3 
REMARK    2  A    between atoms: C3_3  and  C4_4 
ROOT
HETATM    1  C2  UNL     1     -34.426  15.014  -6.627  1.00 20.00     0.069 C 
HETATM    2  C3  UNL     1     -34.618  14.997  -5.103  1.00 20.00     0.264 C 
HETATM    3  O5  UNL     1     -35.825  15.428  -4.797  1.00 20.00    -0.210 OA
ENDROOT
BRANCH   2   4
HETATM    4  C1  UNL     1     -33.616  15.921  -4.379  1.00 20.00     0.265 C 
HETATM    5  O6  UNL     1     -32.721  16.509  -4.985  1.00 20.00    -0.276 OA
HETATM    6 CL10 UNL     1     -33.836  16.044  -2.642  1.00 20.00    -0.040 Cl
ENDBRANCH   2   4
BRANCH   2   7
HETATM    7  C4  UNL     1     -34.465  13.553  -4.598  1.00 20.00     0.429 C 
HETATM    8  F7  UNL     1     -33.216  13.307  -4.135  1.00 20.00    -0.167 F 
HETATM    9  F8  UNL     1     -34.725  12.636  -5.559  1.00 20.00    -0.167 F 
HETATM   10  F9  UNL     1     -35.318  13.311  -3.572  1.00 20.00    -0.167 F 
ENDBRANCH   2   7
TORSDOF 2
ENDMDL
MODEL 4
REMARK VINA RESULT:      -4.1      1.792      2.556
REMARK  2 active torsions:
REMARK  status: ('A' for Active; 'I' for Inactive)
REMARK    1  A    between atoms: C1_1  and  C3_3 
REMARK    2  A    between atoms: C3_3  and  C4_4 
ROOT
HETATM    1  C2  UNL     1     -35.673  15.261  -2.984  1.00 20.00     0.069 C 
HETATM    2  C3  UNL     1     -34.764  15.160  -4.219  1.00 20.00     0.264 C 
HETATM    3  O5  UNL     1     -35.042  16.134  -5.062  1.00 20.00    -0.210 OA
ENDROOT
BRANCH   2   4
HETATM    4  C1  UNL     1     -34.965  13.835  -4.984  1.00 20.00     0.265 C 
HETATM    5  O6  UNL     1     -35.051  12.755  -4.399  1.00 20.00    -0.276 OA
HETATM    6 CL10 UNL     1     -35.033  13.986  -6.731  1.00 20.00    -0.040 Cl
ENDBRANCH   2   4
BRANCH   2   7
HETATM    7  C4  UNL     1     -33.300  15.295  -3.770  1.00 20.00     0.429 C 
HETATM    8  F7  UNL     1     -32.684  14.092  -3.683  1.00 20.00    -0.167 F 
HETATM    9  F8  UNL     1     -33.179  15.897  -2.564  1.00 20.00    -0.167 F 
HETATM   10  F9  UNL     1     -32.592  16.034  -4.659  1.00 20.00    -0.167 F 
ENDBRANCH   2   7
TORSDOF 2
ENDMDL
MODEL 5
REMARK VINA RESULT:      -4.1      1.788      2.309
REMARK  2 active torsions:
REMARK  status: ('A' for Active; 'I' for Inactive)
REMARK    1  A    between atoms: C1_1  and  C3_3 
REMARK    2  A    between atoms: C3_3  and  C4_4 
ROOT
HETATM    1  C2  UNL     1     -35.617  15.207  -2.905  1.00 20.00     0.069 C 
HETATM    2  C3  UNL     1     -34.755  15.147  -4.175  1.00 20.00     0.264 C 
HETATM    3  O5  UNL     1     -35.087  16.128  -4.991  1.00 20.00    -0.210 OA
ENDROOT
BRANCH   2   4
HETATM    4  C1  UNL     1     -34.957  13.830  -4.955  1.00 20.00     0.265 C 
HETATM    5  O6  UNL     1     -35.069  12.748  -4.381  1.00 20.00    -0.276 OA
HETATM    6 CL10 UNL     1     -34.984  13.996  -6.702  1.00 20.00    -0.040 Cl
ENDBRANCH   2   4
BRANCH   2   7
HETATM    7  C4  UNL     1     -33.278  15.308  -3.782  1.00 20.00     0.429 C 
HETATM    8  F7  UNL     1     -33.137  15.896  -2.570  1.00 20.00    -0.167 F 
HETATM    9  F8  UNL     1     -32.581  16.052  -4.673  1.00 20.00    -0.167 F 
HETATM   10  F9  UNL     1     -32.667  14.101  -3.705  1.00 20.00    -0.167 F 
ENDBRANCH   2   7
TORSDOF 2
ENDMDL
MODEL 6
REMARK VINA RESULT:      -4.1      2.057      2.510
REMARK  2 active torsions:
REMARK  status: ('A' for Active; 'I' for Inactive)
REMARK    1  A    between atoms: C1_1  and  C3_3 
REMARK    2  A    between atoms: C3_3  and  C4_4 
ROOT
HETATM    1  C2  UNL     1     -33.424  16.028  -5.148  1.00 20.00     0.069 C 
HETATM    2  C3  UNL     1     -33.982  14.877  -4.298  1.00 20.00     0.264 C 
HETATM    3  O5  UNL     1     -33.003  14.283  -3.646  1.00 20.00    -0.210 OA
ENDROOT
BRANCH   2   4
HETATM    4  C1  UNL     1     -34.665  13.795  -5.161  1.00 20.00     0.265 C 
HETATM    5  O6  UNL     1     -34.684  12.612  -4.822  1.00 20.00    -0.276 OA
HETATM    6 CL10 UNL     1     -35.377  14.374  -6.657  1.00 20.00    -0.040 Cl
ENDBRANCH   2   4
BRANCH   2   7
HETATM    7  C4  UNL     1     -34.981  15.449  -3.279  1.00 20.00     0.429 C 
HETATM    8  F7  UNL     1     -36.093  14.683  -3.175  1.00 20.00    -0.167 F 
HETATM    9  F8  UNL     1     -35.384  16.702  -3.594  1.00 20.00    -0.167 F 
HETATM   10  F9  UNL     1     -34.426  15.505  -2.044  1.00 20.00    -0.167 F 
ENDBRANCH   2   7
TORSDOF 2
ENDMDL
MODEL 7
REMARK VINA RESULT:      -4.1     11.941     12.486
REMARK  2 active torsions:
REMARK  status: ('A' for Active; 'I' for Inactive)
REMARK    1  A    between atoms: C1_1  and  C3_3 
REMARK    2  A    between atoms: C3_3  and  C4_4 
ROOT
HETATM    1  C2  UNL     1     -32.544   6.077   3.798  1.00 20.00     0.069 C 
HETATM    2  C3  UNL     1     -33.994   6.276   4.263  1.00 20.00     0.264 C 
HETATM    3  O5  UNL     1     -34.402   7.492   3.957  1.00 20.00    -0.210 OA
ENDROOT
BRANCH   2   4
HETATM    4  C1  UNL     1     -34.142   6.127   5.792  1.00 20.00     0.265 C 
HETATM    5  O6  UNL     1     -34.868   5.268   6.292  1.00 20.00    -0.276 OA
HETATM    6 CL10 UNL     1     -33.225   7.280   6.745  1.00 20.00    -0.040 Cl
ENDBRANCH   2   4
BRANCH   2   7
HETATM    7  C4  UNL     1     -34.892   5.258   3.543  1.00 20.00     0.429 C 
HETATM    8  F7  UNL     1     -36.178   5.679   3.469  1.00 20.00    -0.167 F 
HETATM    9  F8  UNL     1     -34.900   4.049   4.152  1.00 20.00    -0.167 F 
HETATM   10  F9  UNL     1     -34.470   5.062   2.270  1.00 20.00    -0.167 F 
ENDBRANCH   2   7
TORSDOF 2
ENDMDL
MODEL 8
REMARK VINA RESULT:      -4.1      2.238      2.759
REMARK  2 active torsions:
REMARK  status: ('A' for Active; 'I' for Inactive)
REMARK    1  A    between atoms: C1_1  and  C3_3 
REMARK    2  A    between atoms: C3_3  and  C4_4 
ROOT
HETATM    1  C2  UNL     1     -33.939  16.161  -2.665  1.00 20.00     0.069 C 
HETATM    2  C3  UNL     1     -33.729  15.575  -4.069  1.00 20.00     0.264 C 
HETATM    3  O5  UNL     1     -32.585  16.001  -4.568  1.00 20.00    -0.210 OA
ENDROOT
BRANCH   2   4
HETATM    4  C1  UNL     1     -34.835  16.009  -5.054  1.00 20.00     0.265 C 
HETATM    5  O6  UNL     1     -36.006  16.133  -4.698  1.00 20.00    -0.276 OA
HETATM    6 CL10 UNL     1     -34.300  16.279  -6.703  1.00 20.00    -0.040 Cl
ENDBRANCH   2   4
BRANCH   2   7
HETATM    7  C4  UNL     1     -33.683  14.042  -3.967  1.00 20.00     0.429 C 
HETATM    8  F7  UNL     1     -33.966  13.446  -5.150  1.00 20.00    -0.167 F 
HETATM    9  F8  UNL     1     -34.556  13.555  -3.054  1.00 20.00    -0.167 F 
HETATM   10  F9  UNL     1     -32.447  13.621  -3.602  1.00 20.00    -0.167 F 
ENDBRANCH   2   7
TORSDOF 2
ENDMDL
MODEL 9
REMARK VINA RESULT:      -4.0      2.381      3.221
REMARK  2 active torsions:
REMARK  status: ('A' for Active; 'I' for Inactive)
REMARK    1  A    between atoms: C1_1  and  C3_3 
REMARK    2  A    between atoms: C3_3  and  C4_4 
ROOT
HETATM    1  C2  UNL     1     -35.463  15.566  -2.785  1.00 20.00     0.069 C 
HETATM    2  C3  UNL     1     -35.774  14.660  -3.986  1.00 20.00     0.264 C 
HETATM    3  O5  UNL     1     -36.911  14.024  -3.787  1.00 20.00    -0.210 OA
ENDROOT
BRANCH   2   4
HETATM    4  C1  UNL     1     -34.691  13.582  -4.200  1.00 20.00     0.265 C 
HETATM    5  O6  UNL     1     -34.959  12.479  -4.675  1.00 20.00    -0.276 OA
HETATM    6 CL10 UNL     1     -33.074  14.039  -3.691  1.00 20.00    -0.040 Cl
ENDBRANCH   2   4
BRANCH   2   7
HETATM    7  C4  UNL     1     -35.908  15.532  -5.245  1.00 20.00     0.429 C 
HETATM    8  F7  UNL     1     -34.732  16.110  -5.589  1.00 20.00    -0.167 F 
HETATM    9  F8  UNL     1     -36.815  16.525  -5.096  1.00 20.00    -0.167 F 
HETATM   10  F9  UNL     1     -36.303  14.785  -6.306  1.00 20.00    -0.167 F 
ENDBRANCH   2   7
TORSDOF 2
ENDMDL
