MODEL 1
REMARK VINA RESULT:      -4.7      0.000      0.000
REMARK  2 active torsions:
REMARK  status: ('A' for Active; 'I' for Inactive)
REMARK    1  A    between atoms: C1_1  and  C5_5 
REMARK    2  A    between atoms: C4_4  and  C5_5 
ROOT
HETATM    1  C5  UNL     1     -34.526   5.687   3.802  1.00 20.00     0.101 C 
ENDROOT
BRANCH   1   2
HETATM    2  C1  UNL     1     -34.857   4.823   5.007  1.00 20.00     0.219 C 
HETATM    3  O6  UNL     1     -35.242   3.663   4.904  1.00 20.00    -0.280 OA
HETATM    4 CL7  UNL     1     -34.619   5.681   6.504  1.00 20.00    -0.044 Cl
ENDBRANCH   1   2
BRANCH   1   5
HETATM    5  C4  UNL     1     -33.240   6.426   3.927  1.00 20.00    -0.006 A 
HETATM    6  C2  UNL     1     -32.041   6.004   3.123  1.00 20.00     0.005 A 
HETATM    7  C3  UNL     1     -32.750   7.289   2.798  1.00 20.00     0.005 A 
ENDBRANCH   1   5
TORSDOF 2
ENDMDL
MODEL 2
REMARK VINA RESULT:      -4.3      1.670      1.745
REMARK  2 active torsions:
REMARK  status: ('A' for Active; 'I' for Inactive)
REMARK    1  A    between atoms: C1_1  and  C5_5 
REMARK    2  A    between atoms: C4_4  and  C5_5 
ROOT
HETATM    1  C5  UNL     1     -34.194   6.192   4.008  1.00 20.00     0.101 C 
ENDROOT
BRANCH   1   2
HETATM    2  C1  UNL     1     -34.292   5.745   5.457  1.00 20.00     0.219 C 
HETATM    3  O6  UNL     1     -33.989   6.473   6.397  1.00 20.00    -0.280 OA
HETATM    4 CL7  UNL     1     -34.875   4.109   5.592  1.00 20.00    -0.044 Cl
ENDBRANCH   1   2
BRANCH   1   5
HETATM    5  C4  UNL     1     -32.804   6.195   3.473  1.00 20.00    -0.006 A 
HETATM    6  C2  UNL     1     -32.382   7.229   2.466  1.00 20.00     0.005 A 
HETATM    7  C3  UNL     1     -31.844   7.282   3.869  1.00 20.00     0.005 A 
ENDBRANCH   1   5
TORSDOF 2
ENDMDL
MODEL 3
REMARK VINA RESULT:      -4.3      3.248      4.061
REMARK  2 active torsions:
REMARK  status: ('A' for Active; 'I' for Inactive)
REMARK    1  A    between atoms: C1_1  and  C5_5 
REMARK    2  A    between atoms: C4_4  and  C5_5 
ROOT
HETATM    1  C5  UNL     1     -32.816   6.177   3.137  1.00 20.00     0.101 C 
ENDROOT
BRANCH   1   2
HETATM    2  C1  UNL     1     -31.916   7.400   3.129  1.00 20.00     0.219 C 
HETATM    3  O6  UNL     1     -31.192   7.696   4.074  1.00 20.00    -0.280 OA
HETATM    4 CL7  UNL     1     -32.050   8.294   1.640  1.00 20.00    -0.044 Cl
ENDBRANCH   1   2
BRANCH   1   5
HETATM    5  C4  UNL     1     -34.049   6.344   3.955  1.00 20.00    -0.006 A 
HETATM    6  C2  UNL     1     -35.130   5.299   3.917  1.00 20.00     0.005 A 
HETATM    7  C3  UNL     1     -34.287   5.465   5.151  1.00 20.00     0.005 A 
ENDBRANCH   1   5
TORSDOF 2
ENDMDL
MODEL 4
REMARK VINA RESULT:      -4.3      2.364      3.576
REMARK  2 active torsions:
REMARK  status: ('A' for Active; 'I' for Inactive)
REMARK    1  A    between atoms: C1_1  and  C5_5 
REMARK    2  A    between atoms: C4_4  and  C5_5 
ROOT
HETATM    1  C5  UNL     1     -33.661   6.129   4.753  1.00 20.00     0.101 C 
ENDROOT
BRANCH   1   2
HETATM    2  C1  UNL     1     -33.345   6.133   3.267  1.00 20.00     0.219 C 
HETATM    3  O6  UNL     1     -33.912   5.394   2.468  1.00 20.00    -0.280 OA
HETATM    4 CL7  UNL     1     -32.109   7.293   2.870  1.00 20.00    -0.044 Cl
ENDBRANCH   1   2
BRANCH   1   5
HETATM    5  C4  UNL     1     -34.874   5.341   5.107  1.00 20.00    -0.006 A 
HETATM    6  C2  UNL     1     -34.747   3.899   5.517  1.00 20.00     0.005 A 
HETATM    7  C3  UNL     1     -35.125   4.940   6.535  1.00 20.00     0.005 A 
ENDBRANCH   1   5
TORSDOF 2
ENDMDL
MODEL 5
REMARK VINA RESULT:      -3.8     11.505     12.091
REMARK  2 active torsions:
REMARK  status: ('A' for Active; 'I' for Inactive)
REMARK    1  A    between atoms: C1_1  and  C5_5 
REMARK    2  A    between atoms: C4_4  and  C5_5 
ROOT
HETATM    1  C5  UNL     1     -35.065  15.002  -3.270  1.00 20.00     0.101 C 
ENDROOT
BRANCH   1   2
HETATM    2  C1  UNL     1     -34.467  13.698  -3.769  1.00 20.00     0.219 C 
HETATM    3  O6  UNL     1     -35.147  12.802  -4.259  1.00 20.00    -0.280 OA
HETATM    4 CL7  UNL     1     -32.739  13.655  -3.557  1.00 20.00    -0.044 Cl
ENDBRANCH   1   2
BRANCH   1   5
HETATM    5  C4  UNL     1     -34.147  15.790  -2.401  1.00 20.00    -0.006 A 
HETATM    6  C2  UNL     1     -34.252  17.290  -2.352  1.00 20.00     0.005 A 
HETATM    7  C3  UNL     1     -34.671  16.467  -1.165  1.00 20.00     0.005 A 
ENDBRANCH   1   5
TORSDOF 2
ENDMDL
MODEL 6
REMARK VINA RESULT:      -3.8     11.820     12.211
REMARK  2 active torsions:
REMARK  status: ('A' for Active; 'I' for Inactive)
REMARK    1  A    between atoms: C1_1  and  C5_5 
REMARK    2  A    between atoms: C4_4  and  C5_5 
ROOT
HETATM    1  C5  UNL     1     -34.230  14.579  -3.257  1.00 20.00     0.101 C 
ENDROOT
BRANCH   1   2
HETATM    2  C1  UNL     1     -35.240  13.720  -3.999  1.00 20.00     0.219 C 
HETATM    3  O6  UNL     1     -34.942  12.650  -4.522  1.00 20.00    -0.280 OA
HETATM    4 CL7  UNL     1     -36.826  14.439  -4.003  1.00 20.00    -0.044 Cl
ENDBRANCH   1   2
BRANCH   1   5
HETATM    5  C4  UNL     1     -34.776  15.887  -2.800  1.00 20.00    -0.006 A 
HETATM    6  C2  UNL     1     -34.651  16.298  -1.359  1.00 20.00     0.005 A 
HETATM    7  C3  UNL     1     -33.844  17.002  -2.414  1.00 20.00     0.005 A 
ENDBRANCH   1   5
TORSDOF 2
ENDMDL
MODEL 7
REMARK VINA RESULT:      -3.6     12.149     12.377
REMARK  2 active torsions:
REMARK  status: ('A' for Active; 'I' for Inactive)
REMARK    1  A    between atoms: C1_1  and  C5_5 
REMARK    2  A    between atoms: C4_4  and  C5_5 
ROOT
HETATM    1  C5  UNL     1     -35.991  15.815  -3.158  1.00 20.00     0.101 C 
ENDROOT
BRANCH   1   2
HETATM    2  C1  UNL     1     -36.498  14.500  -3.727  1.00 20.00     0.219 C 
HETATM    3  O6  UNL     1     -37.692  14.234  -3.817  1.00 20.00    -0.280 OA
HETATM    4 CL7  UNL     1     -35.191  13.459  -4.217  1.00 20.00    -0.044 Cl
ENDBRANCH   1   2
BRANCH   1   5
HETATM    5  C4  UNL     1     -34.805  15.668  -2.270  1.00 20.00    -0.006 A 
HETATM    6  C2  UNL     1     -33.755  16.744  -2.225  1.00 20.00     0.005 A 
HETATM    7  C3  UNL     1     -34.665  16.531  -1.047  1.00 20.00     0.005 A 
ENDBRANCH   1   5
TORSDOF 2
ENDMDL
MODEL 8
REMARK VINA RESULT:      -3.5      2.410      3.153
REMARK  2 active torsions:
REMARK  status: ('A' for Active; 'I' for Inactive)
REMARK    1  A    between atoms: C1_1  and  C5_5 
REMARK    2  A    between atoms: C4_4  and  C5_5 
ROOT
HETATM    1  C5  UNL     1     -32.114   7.289   3.138  1.00 20.00     0.101 C 
ENDROOT
BRANCH   1   2
HETATM    2  C1  UNL     1     -33.176   6.449   3.825  1.00 20.00     0.219 C 
HETATM    3  O6  UNL     1     -33.403   6.522   5.029  1.00 20.00    -0.280 OA
HETATM    4 CL7  UNL     1     -34.001   5.403   2.703  1.00 20.00    -0.044 Cl
ENDBRANCH   1   2
BRANCH   1   5
HETATM    5  C4  UNL     1     -32.614   8.036   1.950  1.00 20.00    -0.006 A 
HETATM    6  C2  UNL     1     -32.433   9.527   1.861  1.00 20.00     0.005 A 
HETATM    7  C3  UNL     1     -31.645   8.618   0.959  1.00 20.00     0.005 A 
ENDBRANCH   1   5
TORSDOF 2
ENDMDL
MODEL 9
REMARK VINA RESULT:      -3.5      2.174      2.541
REMARK  2 active torsions:
REMARK  status: ('A' for Active; 'I' for Inactive)
REMARK    1  A    between atoms: C1_1  and  C5_5 
REMARK    2  A    between atoms: C4_4  and  C5_5 
ROOT
HETATM    1  C5  UNL     1     -33.310   6.239   4.914  1.00 20.00     0.101 C 
ENDROOT
BRANCH   1   2
HETATM    2  C1  UNL     1     -34.021   6.330   6.254  1.00 20.00     0.219 C 
HETATM    3  O6  UNL     1     -33.980   7.334   6.958  1.00 20.00    -0.280 OA
HETATM    4 CL7  UNL     1     -34.874   4.861   6.636  1.00 20.00    -0.044 Cl
ENDBRANCH   1   2
BRANCH   1   5
HETATM    5  C4  UNL     1     -34.217   6.383   3.742  1.00 20.00    -0.006 A 
HETATM    6  C2  UNL     1     -34.259   5.317   2.681  1.00 20.00     0.005 A 
HETATM    7  C3  UNL     1     -35.428   5.501   3.610  1.00 20.00     0.005 A 
ENDBRANCH   1   5
TORSDOF 2
ENDMDL
