MODEL 1
REMARK VINA RESULT:      -4.9      0.000      0.000
REMARK  1 active torsions:
REMARK  status: ('A' for Active; 'I' for Inactive)
REMARK    1  A    between atoms: C4_4  and  C10_10 
ROOT
HETATM    1  C1  UNL     1     -33.516  15.343  -3.358  1.00 20.00     0.008 C 
HETATM    2  C2  UNL     1     -33.355  13.893  -3.819  1.00 20.00     0.035 C 
HETATM    3  C3  UNL     1     -36.041  15.254  -3.401  1.00 20.00     0.039 C 
HETATM    4  C4  UNL     1     -34.800  15.527  -2.537  1.00 20.00    -0.005 C 
HETATM    5  C5  UNL     1     -34.599  13.321  -4.416  1.00 20.00     0.151 A 
HETATM    6  C6  UNL     1     -35.932  13.976  -4.173  1.00 20.00     0.151 A 
HETATM    7  O11 UNL     1     -35.225  14.119  -5.422  1.00 20.00    -0.375 OA
ENDROOT
BRANCH   4   8
HETATM    8  C10 UNL     1     -34.865  16.932  -1.941  1.00 20.00    -0.048 C 
HETATM    9  C7  UNL     1     -36.229  17.568  -2.261  1.00 20.00     0.015 C 
HETATM   10  C8  UNL     1     -33.749  17.803  -2.542  1.00 20.00     0.015 C 
HETATM   11  C9  UNL     1     -34.685  16.859  -0.416  1.00 20.00     0.015 C 
ENDBRANCH   4   8
TORSDOF 1
ENDMDL
MODEL 2
REMARK VINA RESULT:      -4.6      1.128      2.206
REMARK  1 active torsions:
REMARK  status: ('A' for Active; 'I' for Inactive)
REMARK    1  A    between atoms: C4_4  and  C10_10 
ROOT
HETATM    1  C1  UNL     1     -35.948  15.562  -4.564  1.00 20.00     0.008 C 
HETATM    2  C2  UNL     1     -35.651  14.653  -5.758  1.00 20.00     0.035 C 
HETATM    3  C3  UNL     1     -34.011  14.682  -3.198  1.00 20.00     0.039 C 
HETATM    4  C4  UNL     1     -34.661  15.932  -3.813  1.00 20.00    -0.005 C 
HETATM    5  C5  UNL     1     -34.741  13.517  -5.425  1.00 20.00     0.151 A 
HETATM    6  C6  UNL     1     -33.900  13.554  -4.176  1.00 20.00     0.151 A 
HETATM    7  O11 UNL     1     -35.098  12.757  -4.269  1.00 20.00    -0.375 OA
ENDROOT
BRANCH   4   8
HETATM    8  C10 UNL     1     -34.945  16.971  -2.730  1.00 20.00    -0.048 C 
HETATM    9  C7  UNL     1     -34.618  16.382  -1.347  1.00 20.00     0.015 C 
HETATM   10  C8  UNL     1     -36.430  17.370  -2.770  1.00 20.00     0.015 C 
HETATM   11  C9  UNL     1     -34.079  18.220  -2.967  1.00 20.00     0.015 C 
ENDBRANCH   4   8
TORSDOF 1
ENDMDL
MODEL 3
REMARK VINA RESULT:      -4.5      2.072      4.279
REMARK  1 active torsions:
REMARK  status: ('A' for Active; 'I' for Inactive)
REMARK    1  A    between atoms: C4_4  and  C10_10 
ROOT
HETATM    1  C1  UNL     1     -34.833  16.068  -1.758  1.00 20.00     0.008 C 
HETATM    2  C2  UNL     1     -34.358  17.025  -0.663  1.00 20.00     0.035 C 
HETATM    3  C3  UNL     1     -33.823  17.437  -3.627  1.00 20.00     0.039 C 
HETATM    4  C4  UNL     1     -33.863  16.059  -2.948  1.00 20.00    -0.005 C 
HETATM    5  C5  UNL     1     -33.952  18.364  -1.184  1.00 20.00     0.151 A 
HETATM    6  C6  UNL     1     -33.649  18.555  -2.646  1.00 20.00     0.151 A 
HETATM    7  O11 UNL     1     -34.889  18.998  -2.057  1.00 20.00    -0.375 OA
ENDROOT
BRANCH   4   8
HETATM    8  C10 UNL     1     -34.253  14.980  -3.957  1.00 20.00    -0.048 C 
HETATM    9  C7  UNL     1     -35.730  14.598  -3.762  1.00 20.00     0.015 C 
HETATM   10  C8  UNL     1     -33.377  13.733  -3.749  1.00 20.00     0.015 C 
HETATM   11  C9  UNL     1     -34.051  15.508  -5.387  1.00 20.00     0.015 C 
ENDBRANCH   4   8
TORSDOF 1
ENDMDL
MODEL 4
REMARK VINA RESULT:      -4.3      1.413      1.921
REMARK  1 active torsions:
REMARK  status: ('A' for Active; 'I' for Inactive)
REMARK    1  A    between atoms: C4_4  and  C10_10 
ROOT
HETATM    1  C1  UNL     1     -33.769  17.543  -3.514  1.00 20.00     0.008 C 
HETATM    2  C2  UNL     1     -33.287  16.587  -4.605  1.00 20.00     0.035 C 
HETATM    3  C3  UNL     1     -34.831  15.707  -2.139  1.00 20.00     0.039 C 
HETATM    4  C4  UNL     1     -33.805  16.851  -2.143  1.00 20.00    -0.005 C 
HETATM    5  C5  UNL     1     -33.960  15.255  -4.565  1.00 20.00     0.151 A 
HETATM    6  C6  UNL     1     -34.690  14.806  -3.327  1.00 20.00     0.151 A 
HETATM    7  O11 UNL     1     -35.387  15.285  -4.495  1.00 20.00    -0.375 OA
ENDROOT
BRANCH   4   8
HETATM    8  C10 UNL     1     -34.124  17.855  -1.037  1.00 20.00    -0.048 C 
HETATM    9  C7  UNL     1     -34.970  19.005  -1.609  1.00 20.00     0.015 C 
HETATM   10  C8  UNL     1     -32.816  18.427  -0.463  1.00 20.00     0.015 C 
HETATM   11  C9  UNL     1     -34.909  17.158   0.087  1.00 20.00     0.015 C 
ENDBRANCH   4   8
TORSDOF 1
ENDMDL
MODEL 5
REMARK VINA RESULT:      -4.2     11.621     12.481
REMARK  1 active torsions:
REMARK  status: ('A' for Active; 'I' for Inactive)
REMARK    1  A    between atoms: C4_4  and  C10_10 
ROOT
HETATM    1  C1  UNL     1     -33.177   6.412   5.524  1.00 20.00     0.008 C 
HETATM    2  C2  UNL     1     -34.327   6.140   6.495  1.00 20.00     0.035 C 
HETATM    3  C3  UNL     1     -34.326   5.274   3.581  1.00 20.00     0.039 C 
HETATM    4  C4  UNL     1     -33.691   6.579   4.086  1.00 20.00    -0.005 C 
HETATM    5  C5  UNL     1     -35.272   5.089   6.013  1.00 20.00     0.151 A 
HETATM    6  C6  UNL     1     -35.296   4.692   4.562  1.00 20.00     0.151 A 
HETATM    7  O11 UNL     1     -34.669   3.872   5.569  1.00 20.00    -0.375 OA
ENDROOT
BRANCH   4   8
HETATM    8  C10 UNL     1     -32.561   7.016   3.155  1.00 20.00    -0.048 C 
HETATM    9  C7  UNL     1     -32.088   5.818   2.315  1.00 20.00     0.015 C 
HETATM   10  C8  UNL     1     -31.380   7.548   3.985  1.00 20.00     0.015 C 
HETATM   11  C9  UNL     1     -33.061   8.128   2.217  1.00 20.00     0.015 C 
ENDBRANCH   4   8
TORSDOF 1
ENDMDL
MODEL 6
REMARK VINA RESULT:      -4.2      2.383      3.363
REMARK  1 active torsions:
REMARK  status: ('A' for Active; 'I' for Inactive)
REMARK    1  A    between atoms: C4_4  and  C10_10 
ROOT
HETATM    1  C1  UNL     1     -34.435  15.055  -6.586  1.00 20.00     0.008 C 
HETATM    2  C2  UNL     1     -35.312  14.607  -7.757  1.00 20.00     0.035 C 
HETATM    3  C3  UNL     1     -36.400  15.451  -5.047  1.00 20.00     0.039 C 
HETATM    4  C4  UNL     1     -35.078  14.692  -5.240  1.00 20.00    -0.005 C 
HETATM    5  C5  UNL     1     -36.748  14.983  -7.598  1.00 20.00     0.151 A 
HETATM    6  C6  UNL     1     -37.292  15.361  -6.246  1.00 20.00     0.151 A 
HETATM    7  O11 UNL     1     -36.996  16.348  -7.255  1.00 20.00    -0.375 OA
ENDROOT
BRANCH   4   8
HETATM    8  C10 UNL     1     -34.121  14.989  -4.086  1.00 20.00    -0.048 C 
HETATM    9  C7  UNL     1     -34.921  15.444  -2.853  1.00 20.00     0.015 C 
HETATM   10  C8  UNL     1     -33.146  16.105  -4.494  1.00 20.00     0.015 C 
HETATM   11  C9  UNL     1     -33.323  13.723  -3.733  1.00 20.00     0.015 C 
ENDBRANCH   4   8
TORSDOF 1
ENDMDL
MODEL 7
REMARK VINA RESULT:      -4.2      2.672      4.028
REMARK  1 active torsions:
REMARK  status: ('A' for Active; 'I' for Inactive)
REMARK    1  A    between atoms: C4_4  and  C10_10 
ROOT
HETATM    1  C1  UNL     1     -33.588  15.845  -5.160  1.00 20.00     0.008 C 
HETATM    2  C2  UNL     1     -33.295  15.568  -3.685  1.00 20.00     0.035 C 
HETATM    3  C3  UNL     1     -35.337  14.027  -5.327  1.00 20.00     0.039 C 
HETATM    4  C4  UNL     1     -35.050  15.527  -5.506  1.00 20.00    -0.005 C 
HETATM    5  C5  UNL     1     -33.802  14.243  -3.219  1.00 20.00     0.151 A 
HETATM    6  C6  UNL     1     -34.842  13.502  -4.015  1.00 20.00     0.151 A 
HETATM    7  O11 UNL     1     -33.451  13.125  -4.037  1.00 20.00    -0.375 OA
ENDROOT
BRANCH   4   8
HETATM    8  C10 UNL     1     -35.377  15.964  -6.933  1.00 20.00    -0.048 C 
HETATM    9  C7  UNL     1     -34.531  17.194  -7.305  1.00 20.00     0.015 C 
HETATM   10  C8  UNL     1     -36.868  16.327  -7.036  1.00 20.00     0.015 C 
HETATM   11  C9  UNL     1     -35.066  14.819  -7.911  1.00 20.00     0.015 C 
ENDBRANCH   4   8
TORSDOF 1
ENDMDL
MODEL 8
REMARK VINA RESULT:      -4.2      2.088      4.173
REMARK  1 active torsions:
REMARK  status: ('A' for Active; 'I' for Inactive)
REMARK    1  A    between atoms: C4_4  and  C10_10 
ROOT
HETATM    1  C1  UNL     1     -33.617  17.025  -3.883  1.00 20.00     0.008 C 
HETATM    2  C2  UNL     1     -33.849  18.387  -3.226  1.00 20.00     0.035 C 
HETATM    3  C3  UNL     1     -34.763  15.747  -2.027  1.00 20.00     0.039 C 
HETATM    4  C4  UNL     1     -34.743  16.041  -3.536  1.00 20.00    -0.005 C 
HETATM    5  C5  UNL     1     -34.210  18.293  -1.781  1.00 20.00     0.151 A 
HETATM    6  C6  UNL     1     -34.701  16.994  -1.200  1.00 20.00     0.151 A 
HETATM    7  O11 UNL     1     -33.357  17.471  -0.982  1.00 20.00    -0.375 OA
ENDROOT
BRANCH   4   8
HETATM    8  C10 UNL     1     -34.592  14.744  -4.328  1.00 20.00    -0.048 C 
HETATM    9  C7  UNL     1     -34.341  15.067  -5.811  1.00 20.00     0.015 C 
HETATM   10  C8  UNL     1     -35.878  13.907  -4.205  1.00 20.00     0.015 C 
HETATM   11  C9  UNL     1     -33.406  13.934  -3.778  1.00 20.00     0.015 C 
ENDBRANCH   4   8
TORSDOF 1
ENDMDL
MODEL 9
REMARK VINA RESULT:      -4.1      1.577      2.343
REMARK  1 active torsions:
REMARK  status: ('A' for Active; 'I' for Inactive)
REMARK    1  A    between atoms: C4_4  and  C10_10 
ROOT
HETATM    1  C1  UNL     1     -35.414  15.535  -5.039  1.00 20.00     0.008 C 
HETATM    2  C2  UNL     1     -35.192  14.166  -5.684  1.00 20.00     0.035 C 
HETATM    3  C3  UNL     1     -33.415  15.325  -3.506  1.00 20.00     0.039 C 
HETATM    4  C4  UNL     1     -34.084  16.168  -4.604  1.00 20.00    -0.005 C 
HETATM    5  C5  UNL     1     -34.276  13.285  -4.901  1.00 20.00     0.151 A 
HETATM    6  C6  UNL     1     -33.368  13.869  -3.851  1.00 20.00     0.151 A 
HETATM    7  O11 UNL     1     -34.577  13.161  -3.509  1.00 20.00    -0.375 OA
ENDROOT
BRANCH   4   8
HETATM    8  C10 UNL     1     -34.299  17.600  -4.117  1.00 20.00    -0.048 C 
HETATM    9  C7  UNL     1     -35.796  17.950  -4.180  1.00 20.00     0.015 C 
HETATM   10  C8  UNL     1     -33.515  18.575  -5.012  1.00 20.00     0.015 C 
HETATM   11  C9  UNL     1     -33.807  17.736  -2.667  1.00 20.00     0.015 C 
ENDBRANCH   4   8
TORSDOF 1
ENDMDL
