MODEL 1
REMARK VINA RESULT:      -4.6      0.000      0.000
REMARK  1 active torsions:
REMARK  status: ('A' for Active; 'I' for Inactive)
REMARK    1  A    between atoms: C2_2  and  C4_4 
REMARK       I    between atoms: C2_2  and  N7_7 
ROOT
HETATM    1  C1  UNL     1     -32.165   7.418   2.952  1.00 20.00     0.166 C 
HETATM    2  C2  UNL     1     -33.257   6.598   4.663  1.00 20.00     0.249 C 
HETATM    3  N7  UNL     1     -32.161   6.636   3.827  1.00 20.00    -0.199 NA
HETATM    4  O8  UNL     1     -33.279   6.784   5.876  1.00 20.00    -0.271 OA
HETATM    5  S9  UNL     1     -32.136   8.467   1.753  1.00 20.00    -0.055 SA
ENDROOT
BRANCH   2   6
HETATM    6  C4  UNL     1     -34.515   6.295   3.972  1.00 20.00     0.084 A 
HETATM    7  C3  UNL     1     -34.580   5.113   3.038  1.00 20.00     0.019 A 
HETATM    8  C5  UNL     1     -35.331   5.079   4.340  1.00 20.00    -0.005 A 
HETATM    9  C6  UNL     1     -34.911   4.139   5.418  1.00 20.00     0.011 C 
ENDBRANCH   2   6
TORSDOF 1
ENDMDL
MODEL 2
REMARK VINA RESULT:      -4.4     11.320     12.233
REMARK  1 active torsions:
REMARK  status: ('A' for Active; 'I' for Inactive)
REMARK    1  A    between atoms: C2_2  and  C4_4 
REMARK       I    between atoms: C2_2  and  N7_7 
ROOT
HETATM    1  C1  UNL     1     -35.042  13.621  -5.878  1.00 20.00     0.166 C 
HETATM    2  C2  UNL     1     -34.083  13.652  -3.910  1.00 20.00     0.249 C 
HETATM    3  N7  UNL     1     -34.781  13.010  -4.910  1.00 20.00    -0.199 NA
HETATM    4  O8  UNL     1     -32.986  13.350  -3.451  1.00 20.00    -0.271 OA
HETATM    5  S9  UNL     1     -35.414  14.418  -7.206  1.00 20.00    -0.055 SA
ENDROOT
BRANCH   2   6
HETATM    6  C4  UNL     1     -34.776  14.826  -3.369  1.00 20.00     0.084 A 
HETATM    7  C3  UNL     1     -34.063  15.718  -2.383  1.00 20.00     0.019 A 
HETATM    8  C5  UNL     1     -34.364  16.224  -3.766  1.00 20.00    -0.005 A 
HETATM    9  C6  UNL     1     -33.251  16.480  -4.724  1.00 20.00     0.011 C 
ENDBRANCH   2   6
TORSDOF 1
ENDMDL
MODEL 3
REMARK VINA RESULT:      -4.4     11.613     12.461
REMARK  1 active torsions:
REMARK  status: ('A' for Active; 'I' for Inactive)
REMARK    1  A    between atoms: C2_2  and  C4_4 
REMARK       I    between atoms: C2_2  and  N7_7 
ROOT
HETATM    1  C1  UNL     1     -37.185  14.939  -4.308  1.00 20.00     0.166 C 
HETATM    2  C2  UNL     1     -35.424  13.664  -4.049  1.00 20.00     0.249 C 
HETATM    3  N7  UNL     1     -36.761  13.940  -3.859  1.00 20.00    -0.199 NA
HETATM    4  O8  UNL     1     -34.935  12.696  -4.624  1.00 20.00    -0.271 OA
HETATM    5  S9  UNL     1     -37.794  16.286  -4.902  1.00 20.00    -0.055 SA
ENDROOT
BRANCH   2   6
HETATM    6  C4  UNL     1     -34.527  14.674  -3.478  1.00 20.00     0.084 A 
HETATM    7  C3  UNL     1     -33.040  14.556  -3.703  1.00 20.00     0.019 A 
HETATM    8  C5  UNL     1     -33.809  15.665  -4.363  1.00 20.00    -0.005 A 
HETATM    9  C6  UNL     1     -33.980  15.675  -5.844  1.00 20.00     0.011 C 
ENDBRANCH   2   6
TORSDOF 1
ENDMDL
MODEL 4
REMARK VINA RESULT:      -4.3     11.475     12.416
REMARK  1 active torsions:
REMARK  status: ('A' for Active; 'I' for Inactive)
REMARK    1  A    between atoms: C2_2  and  C4_4 
REMARK       I    between atoms: C2_2  and  N7_7 
ROOT
HETATM    1  C1  UNL     1     -33.978  15.024  -3.085  1.00 20.00     0.166 C 
HETATM    2  C2  UNL     1     -34.341  13.651  -4.751  1.00 20.00     0.249 C 
HETATM    3  N7  UNL     1     -33.592  14.088  -3.679  1.00 20.00    -0.199 NA
HETATM    4  O8  UNL     1     -34.865  12.551  -4.899  1.00 20.00    -0.271 OA
HETATM    5  S9  UNL     1     -34.471  16.291  -2.255  1.00 20.00    -0.055 SA
ENDROOT
BRANCH   2   6
HETATM    6  C4  UNL     1     -34.500  14.656  -5.808  1.00 20.00     0.084 A 
HETATM    7  C3  UNL     1     -35.358  14.341  -7.007  1.00 20.00     0.019 A 
HETATM    8  C5  UNL     1     -35.815  15.370  -6.011  1.00 20.00    -0.005 A 
HETATM    9  C6  UNL     1     -37.004  15.099  -5.154  1.00 20.00     0.011 C 
ENDBRANCH   2   6
TORSDOF 1
ENDMDL
MODEL 5
REMARK VINA RESULT:      -4.0     11.608     12.221
REMARK  1 active torsions:
REMARK  status: ('A' for Active; 'I' for Inactive)
REMARK    1  A    between atoms: C2_2  and  C4_4 
REMARK       I    between atoms: C2_2  and  N7_7 
ROOT
HETATM    1  C1  UNL     1     -35.420  16.620  -2.278  1.00 20.00     0.166 C 
HETATM    2  C2  UNL     1     -35.563  15.706  -4.262  1.00 20.00     0.249 C 
HETATM    3  N7  UNL     1     -36.052  16.520  -3.263  1.00 20.00    -0.199 NA
HETATM    4  O8  UNL     1     -35.272  16.025  -5.412  1.00 20.00    -0.271 OA
HETATM    5  S9  UNL     1     -34.590  16.780  -0.928  1.00 20.00    -0.055 SA
ENDROOT
BRANCH   2   6
HETATM    6  C4  UNL     1     -35.391  14.308  -3.852  1.00 20.00     0.084 A 
HETATM    7  C3  UNL     1     -34.771  13.326  -4.813  1.00 20.00     0.019 A 
HETATM    8  C5  UNL     1     -34.017  13.742  -3.582  1.00 20.00    -0.005 A 
HETATM    9  C6  UNL     1     -32.781  14.566  -3.708  1.00 20.00     0.011 C 
ENDBRANCH   2   6
TORSDOF 1
ENDMDL
MODEL 6
REMARK VINA RESULT:      -4.0     12.398     12.998
REMARK  1 active torsions:
REMARK  status: ('A' for Active; 'I' for Inactive)
REMARK    1  A    between atoms: C2_2  and  C4_4 
REMARK       I    between atoms: C2_2  and  N7_7 
ROOT
HETATM    1  C1  UNL     1     -33.695  16.022  -5.634  1.00 20.00     0.166 C 
HETATM    2  C2  UNL     1     -33.593  17.138  -3.753  1.00 20.00     0.249 C 
HETATM    3  N7  UNL     1     -33.054  16.736  -4.957  1.00 20.00    -0.199 NA
HETATM    4  O8  UNL     1     -33.830  18.285  -3.386  1.00 20.00    -0.271 OA
HETATM    5  S9  UNL     1     -34.535  15.054  -6.579  1.00 20.00    -0.055 SA
ENDROOT
BRANCH   2   6
HETATM    6  C4  UNL     1     -33.900  16.028  -2.845  1.00 20.00     0.084 A 
HETATM    7  C3  UNL     1     -34.564  16.316  -1.522  1.00 20.00     0.019 A 
HETATM    8  C5  UNL     1     -35.327  15.597  -2.599  1.00 20.00    -0.005 A 
HETATM    9  C6  UNL     1     -36.482  16.263  -3.265  1.00 20.00     0.011 C 
ENDBRANCH   2   6
TORSDOF 1
ENDMDL
MODEL 7
REMARK VINA RESULT:      -3.9     12.235     13.056
REMARK  1 active torsions:
REMARK  status: ('A' for Active; 'I' for Inactive)
REMARK    1  A    between atoms: C2_2  and  C4_4 
REMARK       I    between atoms: C2_2  and  N7_7 
ROOT
HETATM    1  C1  UNL     1     -35.824  16.422  -5.993  1.00 20.00     0.166 C 
HETATM    2  C2  UNL     1     -33.813  15.841  -5.352  1.00 20.00     0.249 C 
HETATM    3  N7  UNL     1     -34.708  16.251  -6.317  1.00 20.00    -0.199 NA
HETATM    4  O8  UNL     1     -32.795  16.419  -4.981  1.00 20.00    -0.271 OA
HETATM    5  S9  UNL     1     -37.346  16.664  -5.591  1.00 20.00    -0.055 SA
ENDROOT
BRANCH   2   6
HETATM    6  C4  UNL     1     -34.164  14.559  -4.730  1.00 20.00     0.084 A 
HETATM    7  C3  UNL     1     -33.254  13.973  -3.679  1.00 20.00     0.019 A 
HETATM    8  C5  UNL     1     -34.610  14.492  -3.288  1.00 20.00    -0.005 A 
HETATM    9  C6  UNL     1     -34.725  15.709  -2.436  1.00 20.00     0.011 C 
ENDBRANCH   2   6
TORSDOF 1
ENDMDL
MODEL 8
REMARK VINA RESULT:      -3.8     12.019     12.754
REMARK  1 active torsions:
REMARK  status: ('A' for Active; 'I' for Inactive)
REMARK    1  A    between atoms: C2_2  and  C4_4 
REMARK       I    between atoms: C2_2  and  N7_7 
ROOT
HETATM    1  C1  UNL     1     -33.836  17.413  -5.120  1.00 20.00     0.166 C 
HETATM    2  C2  UNL     1     -33.261  15.412  -4.444  1.00 20.00     0.249 C 
HETATM    3  N7  UNL     1     -32.973  16.621  -5.040  1.00 20.00    -0.199 NA
HETATM    4  O8  UNL     1     -32.738  14.927  -3.445  1.00 20.00    -0.271 OA
HETATM    5  S9  UNL     1     -34.982  18.513  -5.246  1.00 20.00    -0.055 SA
ENDROOT
BRANCH   2   6
HETATM    6  C4  UNL     1     -34.324  14.659  -5.120  1.00 20.00     0.084 A 
HETATM    7  C3  UNL     1     -34.798  13.355  -4.530  1.00 20.00     0.019 A 
HETATM    8  C5  UNL     1     -35.705  14.553  -4.519  1.00 20.00    -0.005 A 
HETATM    9  C6  UNL     1     -36.060  15.208  -3.227  1.00 20.00     0.011 C 
ENDBRANCH   2   6
TORSDOF 1
ENDMDL
MODEL 9
REMARK VINA RESULT:      -3.8     11.958     12.560
REMARK  1 active torsions:
REMARK  status: ('A' for Active; 'I' for Inactive)
REMARK    1  A    between atoms: C2_2  and  C4_4 
REMARK       I    between atoms: C2_2  and  N7_7 
ROOT
HETATM    1  C1  UNL     1     -34.549  16.891  -2.321  1.00 20.00     0.166 C 
HETATM    2  C2  UNL     1     -33.679  16.103  -4.169  1.00 20.00     0.249 C 
HETATM    3  N7  UNL     1     -34.531  16.951  -3.493  1.00 20.00    -0.199 NA
HETATM    4  O8  UNL     1     -32.759  16.410  -4.920  1.00 20.00    -0.271 OA
HETATM    5  S9  UNL     1     -34.600  16.838  -0.729  1.00 20.00    -0.055 SA
ENDROOT
BRANCH   2   6
HETATM    6  C4  UNL     1     -33.949  14.681  -3.927  1.00 20.00     0.084 A 
HETATM    7  C3  UNL     1     -35.377  14.203  -3.842  1.00 20.00     0.019 A 
HETATM    8  C5  UNL     1     -34.524  13.803  -5.013  1.00 20.00    -0.005 A 
HETATM    9  C6  UNL     1     -34.834  14.326  -6.374  1.00 20.00     0.011 C 
ENDBRANCH   2   6
TORSDOF 1
ENDMDL
