MODEL 1
REMARK VINA RESULT:      -5.0      0.000      0.000
REMARK  2 active torsions:
REMARK  status: ('A' for Active; 'I' for Inactive)
REMARK    1  A    between atoms: C4_4  and  C11_11 
REMARK    2  A    between atoms: C10_10  and  C11_11 
ROOT
HETATM    1  C1  UNL     1     -33.501  15.392  -3.363  1.00 20.00     0.008 C 
HETATM    2  C2  UNL     1     -33.311  13.942  -3.814  1.00 20.00     0.035 C 
HETATM    3  C3  UNL     1     -36.025  15.254  -3.417  1.00 20.00     0.040 C 
HETATM    4  C4  UNL     1     -34.794  15.555  -2.548  1.00 20.00    -0.004 C 
HETATM    5  C5  UNL     1     -34.541  13.344  -4.413  1.00 20.00     0.151 A 
HETATM    6  C6  UNL     1     -35.887  13.973  -4.180  1.00 20.00     0.151 A 
HETATM    7  O12 UNL     1     -35.179  14.123  -5.426  1.00 20.00    -0.375 OA
ENDROOT
BRANCH   4   8
HETATM    8  C11 UNL     1     -34.889  16.962  -1.961  1.00 20.00    -0.044 C 
HETATM    9  C8  UNL     1     -33.798  17.847  -2.598  1.00 20.00     0.015 C 
HETATM   10  C9  UNL     1     -36.270  17.555  -2.300  1.00 20.00     0.015 C 
BRANCH   8  11
HETATM   11  C10 UNL     1     -34.692  16.872  -0.421  1.00 20.00     0.004 C 
HETATM   12  C7  UNL     1     -33.955  18.034   0.234  1.00 20.00     0.006 C 
ENDBRANCH   8  11
ENDBRANCH   4   8
TORSDOF 2
ENDMDL
MODEL 2
REMARK VINA RESULT:      -5.0      1.085      1.741
REMARK  2 active torsions:
REMARK  status: ('A' for Active; 'I' for Inactive)
REMARK    1  A    between atoms: C4_4  and  C11_11 
REMARK    2  A    between atoms: C10_10  and  C11_11 
ROOT
HETATM    1  C1  UNL     1     -35.960  15.564  -4.554  1.00 20.00     0.008 C 
HETATM    2  C2  UNL     1     -35.697  14.661  -5.760  1.00 20.00     0.035 C 
HETATM    3  C3  UNL     1     -33.995  14.663  -3.242  1.00 20.00     0.040 C 
HETATM    4  C4  UNL     1     -34.650  15.922  -3.833  1.00 20.00    -0.004 C 
HETATM    5  C5  UNL     1     -34.786  13.518  -5.456  1.00 20.00     0.151 A 
HETATM    6  C6  UNL     1     -33.915  13.543  -4.230  1.00 20.00     0.151 A 
HETATM    7  O12 UNL     1     -35.119  12.752  -4.297  1.00 20.00    -0.375 OA
ENDROOT
BRANCH   4   8
HETATM    8  C11 UNL     1     -34.901  16.956  -2.737  1.00 20.00    -0.044 C 
HETATM    9  C8  UNL     1     -34.031  18.200  -3.011  1.00 20.00     0.015 C 
HETATM   10  C9  UNL     1     -36.385  17.371  -2.770  1.00 20.00     0.015 C 
BRANCH   8  11
HETATM   11  C10 UNL     1     -34.538  16.323  -1.365  1.00 20.00     0.004 C 
HETATM   12  C7  UNL     1     -34.862  17.157  -0.130  1.00 20.00     0.006 C 
ENDBRANCH   8  11
ENDBRANCH   4   8
TORSDOF 2
ENDMDL
MODEL 3
REMARK VINA RESULT:      -4.8      0.455      1.698
REMARK  2 active torsions:
REMARK  status: ('A' for Active; 'I' for Inactive)
REMARK    1  A    between atoms: C4_4  and  C11_11 
REMARK    2  A    between atoms: C10_10  and  C11_11 
ROOT
HETATM    1  C1  UNL     1     -33.528  15.280  -3.330  1.00 20.00     0.008 C 
HETATM    2  C2  UNL     1     -33.406  13.822  -3.778  1.00 20.00     0.035 C 
HETATM    3  C3  UNL     1     -36.053  15.284  -3.465  1.00 20.00     0.040 C 
HETATM    4  C4  UNL     1     -34.835  15.515  -2.556  1.00 20.00    -0.004 C 
HETATM    5  C5  UNL     1     -34.647  13.294  -4.418  1.00 20.00     0.151 A 
HETATM    6  C6  UNL     1     -35.963  13.998  -4.225  1.00 20.00     0.151 A 
HETATM    7  O12 UNL     1     -35.207  14.109  -5.448  1.00 20.00    -0.375 OA
ENDROOT
BRANCH   4   8
HETATM    8  C11 UNL     1     -34.868  16.925  -1.969  1.00 20.00    -0.044 C 
HETATM    9  C8  UNL     1     -36.249  17.553  -2.250  1.00 20.00     0.015 C 
HETATM   10  C9  UNL     1     -34.664  16.838  -0.444  1.00 20.00     0.015 C 
BRANCH   8  11
HETATM   11  C10 UNL     1     -33.739  17.765  -2.629  1.00 20.00     0.004 C 
HETATM   12  C7  UNL     1     -34.187  18.885  -3.560  1.00 20.00     0.006 C 
ENDBRANCH   8  11
ENDBRANCH   4   8
TORSDOF 2
ENDMDL
MODEL 4
REMARK VINA RESULT:      -4.8      2.110      4.637
REMARK  2 active torsions:
REMARK  status: ('A' for Active; 'I' for Inactive)
REMARK    1  A    between atoms: C4_4  and  C11_11 
REMARK    2  A    between atoms: C10_10  and  C11_11 
ROOT
HETATM    1  C1  UNL     1     -34.837  16.060  -1.732  1.00 20.00     0.008 C 
HETATM    2  C2  UNL     1     -34.401  16.997  -0.603  1.00 20.00     0.035 C 
HETATM    3  C3  UNL     1     -33.776  17.474  -3.540  1.00 20.00     0.040 C 
HETATM    4  C4  UNL     1     -33.828  16.082  -2.891  1.00 20.00    -0.004 C 
HETATM    5  C5  UNL     1     -33.986  18.349  -1.083  1.00 20.00     0.151 A 
HETATM    6  C6  UNL     1     -33.639  18.570  -2.530  1.00 20.00     0.151 A 
HETATM    7  O12 UNL     1     -34.898  18.996  -1.973  1.00 20.00    -0.375 OA
ENDROOT
BRANCH   4   8
HETATM    8  C11 UNL     1     -34.181  15.022  -3.933  1.00 20.00    -0.044 C 
HETATM    9  C8  UNL     1     -33.276  13.791  -3.725  1.00 20.00     0.015 C 
HETATM   10  C9  UNL     1     -35.650  14.597  -3.740  1.00 20.00     0.015 C 
BRANCH   8  11
HETATM   11  C10 UNL     1     -33.966  15.627  -5.349  1.00 20.00     0.004 C 
HETATM   12  C7  UNL     1     -34.541  14.833  -6.517  1.00 20.00     0.006 C 
ENDBRANCH   8  11
ENDBRANCH   4   8
TORSDOF 2
ENDMDL
MODEL 5
REMARK VINA RESULT:      -4.7     11.315     12.256
REMARK  2 active torsions:
REMARK  status: ('A' for Active; 'I' for Inactive)
REMARK    1  A    between atoms: C4_4  and  C11_11 
REMARK    2  A    between atoms: C10_10  and  C11_11 
ROOT
HETATM    1  C1  UNL     1     -33.161   6.432   5.501  1.00 20.00     0.008 C 
HETATM    2  C2  UNL     1     -34.314   6.160   6.469  1.00 20.00     0.035 C 
HETATM    3  C3  UNL     1     -34.310   5.301   3.553  1.00 20.00     0.040 C 
HETATM    4  C4  UNL     1     -33.673   6.604   4.062  1.00 20.00    -0.004 C 
HETATM    5  C5  UNL     1     -35.260   5.113   5.983  1.00 20.00     0.151 A 
HETATM    6  C6  UNL     1     -35.283   4.720   4.531  1.00 20.00     0.151 A 
HETATM    7  O12 UNL     1     -34.660   3.896   5.536  1.00 20.00    -0.375 OA
ENDROOT
BRANCH   4   8
HETATM    8  C11 UNL     1     -32.541   7.041   3.134  1.00 20.00    -0.044 C 
HETATM    9  C8  UNL     1     -31.362   7.555   3.987  1.00 20.00     0.015 C 
HETATM   10  C9  UNL     1     -32.067   5.825   2.314  1.00 20.00     0.015 C 
BRANCH   8  11
HETATM   11  C10 UNL     1     -33.071   8.163   2.198  1.00 20.00     0.004 C 
HETATM   12  C7  UNL     1     -32.055   8.785   1.247  1.00 20.00     0.006 C 
ENDBRANCH   8  11
ENDBRANCH   4   8
TORSDOF 2
ENDMDL
MODEL 6
REMARK VINA RESULT:      -4.6      2.354      3.443
REMARK  2 active torsions:
REMARK  status: ('A' for Active; 'I' for Inactive)
REMARK    1  A    between atoms: C4_4  and  C11_11 
REMARK    2  A    between atoms: C10_10  and  C11_11 
ROOT
HETATM    1  C1  UNL     1     -34.397  15.113  -6.620  1.00 20.00     0.008 C 
HETATM    2  C2  UNL     1     -35.203  14.665  -7.841  1.00 20.00     0.035 C 
HETATM    3  C3  UNL     1     -36.445  15.387  -5.162  1.00 20.00     0.040 C 
HETATM    4  C4  UNL     1     -35.086  14.686  -5.314  1.00 20.00    -0.004 C 
HETATM    5  C5  UNL     1     -36.659  14.980  -7.736  1.00 20.00     0.151 A 
HETATM    6  C6  UNL     1     -37.277  15.296  -6.402  1.00 20.00     0.151 A 
HETATM    7  O12 UNL     1     -36.977  16.322  -7.368  1.00 20.00    -0.375 OA
ENDROOT
BRANCH   4   8
HETATM    8  C11 UNL     1     -34.194  14.986  -4.110  1.00 20.00    -0.044 C 
HETATM    9  C8  UNL     1     -33.394  13.718  -3.749  1.00 20.00     0.015 C 
HETATM   10  C9  UNL     1     -33.205  16.107  -4.485  1.00 20.00     0.015 C 
BRANCH   8  11
HETATM   11  C10 UNL     1     -35.095  15.423  -2.921  1.00 20.00     0.004 C 
HETATM   12  C7  UNL     1     -34.417  16.235  -1.823  1.00 20.00     0.006 C 
ENDBRANCH   8  11
ENDBRANCH   4   8
TORSDOF 2
ENDMDL
MODEL 7
REMARK VINA RESULT:      -4.6      2.157      4.648
REMARK  2 active torsions:
REMARK  status: ('A' for Active; 'I' for Inactive)
REMARK    1  A    between atoms: C4_4  and  C11_11 
REMARK    2  A    between atoms: C10_10  and  C11_11 
ROOT
HETATM    1  C1  UNL     1     -34.956  16.282  -1.680  1.00 20.00     0.008 C 
HETATM    2  C2  UNL     1     -34.631  16.900  -0.318  1.00 20.00     0.035 C 
HETATM    3  C3  UNL     1     -33.735  18.080  -2.973  1.00 20.00     0.040 C 
HETATM    4  C4  UNL     1     -33.843  16.571  -2.700  1.00 20.00    -0.004 C 
HETATM    5  C5  UNL     1     -34.178  18.320  -0.406  1.00 20.00     0.151 A 
HETATM    6  C6  UNL     1     -33.697  18.887  -1.713  1.00 20.00     0.151 A 
HETATM    7  O12 UNL     1     -35.004  19.186  -1.185  1.00 20.00    -0.375 OA
ENDROOT
BRANCH   4   8
HETATM    8  C11 UNL     1     -34.093  15.812  -4.001  1.00 20.00    -0.044 C 
HETATM    9  C8  UNL     1     -35.565  16.004  -4.422  1.00 20.00     0.015 C 
HETATM   10  C9  UNL     1     -33.183  16.389  -5.103  1.00 20.00     0.015 C 
BRANCH   8  11
HETATM   11  C10 UNL     1     -33.783  14.307  -3.765  1.00 20.00     0.004 C 
HETATM   12  C7  UNL     1     -34.871  13.321  -4.174  1.00 20.00     0.006 C 
ENDBRANCH   8  11
ENDBRANCH   4   8
TORSDOF 2
ENDMDL
MODEL 8
REMARK VINA RESULT:      -4.5      2.619      3.623
REMARK  2 active torsions:
REMARK  status: ('A' for Active; 'I' for Inactive)
REMARK    1  A    between atoms: C4_4  and  C11_11 
REMARK    2  A    between atoms: C10_10  and  C11_11 
ROOT
HETATM    1  C1  UNL     1     -34.873  16.964  -5.286  1.00 20.00     0.008 C 
HETATM    2  C2  UNL     1     -34.609  17.657  -6.625  1.00 20.00     0.035 C 
HETATM    3  C3  UNL     1     -34.639  14.640  -6.254  1.00 20.00     0.040 C 
HETATM    4  C4  UNL     1     -34.121  15.627  -5.196  1.00 20.00    -0.004 C 
HETATM    5  C5  UNL     1     -34.750  16.747  -7.800  1.00 20.00     0.151 A 
HETATM    6  C6  UNL     1     -34.723  15.254  -7.616  1.00 20.00     0.151 A 
HETATM    7  O12 UNL     1     -35.951  15.975  -7.844  1.00 20.00    -0.375 OA
ENDROOT
BRANCH   4   8
HETATM    8  C11 UNL     1     -34.254  15.026  -3.798  1.00 20.00    -0.044 C 
HETATM    9  C8  UNL     1     -35.737  14.697  -3.531  1.00 20.00     0.015 C 
HETATM   10  C9  UNL     1     -33.436  13.720  -3.733  1.00 20.00     0.015 C 
BRANCH   8  11
HETATM   11  C10 UNL     1     -33.725  16.057  -2.762  1.00 20.00     0.004 C 
HETATM   12  C7  UNL     1     -34.616  16.315  -1.552  1.00 20.00     0.006 C 
ENDBRANCH   8  11
ENDBRANCH   4   8
TORSDOF 2
ENDMDL
MODEL 9
REMARK VINA RESULT:      -4.4      2.153      4.618
REMARK  2 active torsions:
REMARK  status: ('A' for Active; 'I' for Inactive)
REMARK    1  A    between atoms: C4_4  and  C11_11 
REMARK    2  A    between atoms: C10_10  and  C11_11 
ROOT
HETATM    1  C1  UNL     1     -33.622  17.056  -3.896  1.00 20.00     0.008 C 
HETATM    2  C2  UNL     1     -33.852  18.408  -3.217  1.00 20.00     0.035 C 
HETATM    3  C3  UNL     1     -34.755  15.750  -2.051  1.00 20.00     0.040 C 
HETATM    4  C4  UNL     1     -34.747  16.066  -3.555  1.00 20.00    -0.004 C 
HETATM    5  C5  UNL     1     -34.204  18.292  -1.771  1.00 20.00     0.151 A 
HETATM    6  C6  UNL     1     -34.690  16.984  -1.207  1.00 20.00     0.151 A 
HETATM    7  O12 UNL     1     -33.346  17.459  -0.990  1.00 20.00    -0.375 OA
ENDROOT
BRANCH   4   8
HETATM    8  C11 UNL     1     -34.600  14.781  -4.368  1.00 20.00    -0.044 C 
HETATM    9  C8  UNL     1     -33.429  13.955  -3.796  1.00 20.00     0.015 C 
HETATM   10  C9  UNL     1     -35.896  13.957  -4.242  1.00 20.00     0.015 C 
BRANCH   8  11
HETATM   11  C10 UNL     1     -34.331  15.160  -5.851  1.00 20.00     0.004 C 
HETATM   12  C7  UNL     1     -35.153  14.417  -6.898  1.00 20.00     0.006 C 
ENDBRANCH   8  11
ENDBRANCH   4   8
TORSDOF 2
ENDMDL
