MODEL 1
REMARK VINA RESULT:      -5.1      0.000      0.000
REMARK  2 active torsions:
REMARK  status: ('A' for Active; 'I' for Inactive)
REMARK    1  A    between atoms: C4_4  and  C11_11 
REMARK    2  A    between atoms: C10_10  and  C11_11 
ROOT
HETATM    1  C1  UNL     1     -36.127  15.575  -3.452  1.00 20.00     0.008 C 
HETATM    2  C2  UNL     1     -36.255  14.147  -3.984  1.00 20.00     0.035 C 
HETATM    3  C3  UNL     1     -33.619  15.444  -3.207  1.00 20.00     0.040 C 
HETATM    4  C4  UNL     1     -34.946  15.708  -2.477  1.00 20.00    -0.004 C 
HETATM    5  C5  UNL     1     -34.953  13.602  -4.475  1.00 20.00     0.151 A 
HETATM    6  C6  UNL     1     -33.644  14.219  -4.062  1.00 20.00     0.151 A 
HETATM    7  O12 UNL     1     -34.138  13.035  -3.431  1.00 20.00    -0.375 OA
ENDROOT
BRANCH   4   8
HETATM    8  C11 UNL     1     -34.932  17.091  -1.828  1.00 20.00    -0.044 C 
HETATM    9  C8  UNL     1     -33.787  17.921  -2.442  1.00 20.00     0.015 C 
HETATM   10  C9  UNL     1     -36.271  17.797  -2.123  1.00 20.00     0.015 C 
BRANCH   8  11
HETATM   11  C10 UNL     1     -34.727  16.920  -0.296  1.00 20.00     0.004 C 
HETATM   12  C7  UNL     1     -34.059  18.082   0.430  1.00 20.00     0.006 C 
ENDBRANCH   8  11
ENDBRANCH   4   8
TORSDOF 2
ENDMDL
MODEL 2
REMARK VINA RESULT:      -5.0      0.467      1.438
REMARK  2 active torsions:
REMARK  status: ('A' for Active; 'I' for Inactive)
REMARK    1  A    between atoms: C4_4  and  C11_11 
REMARK    2  A    between atoms: C10_10  and  C11_11 
ROOT
HETATM    1  C1  UNL     1     -36.120  15.614  -3.401  1.00 20.00     0.008 C 
HETATM    2  C2  UNL     1     -36.235  14.189  -3.946  1.00 20.00     0.035 C 
HETATM    3  C3  UNL     1     -33.610  15.508  -3.169  1.00 20.00     0.040 C 
HETATM    4  C4  UNL     1     -34.936  15.750  -2.431  1.00 20.00    -0.004 C 
HETATM    5  C5  UNL     1     -34.930  13.662  -4.448  1.00 20.00     0.151 A 
HETATM    6  C6  UNL     1     -33.626  14.290  -4.035  1.00 20.00     0.151 A 
HETATM    7  O12 UNL     1     -34.103  13.095  -3.413  1.00 20.00    -0.375 OA
ENDROOT
BRANCH   4   8
HETATM    8  C11 UNL     1     -34.934  17.127  -1.769  1.00 20.00    -0.044 C 
HETATM    9  C8  UNL     1     -36.296  17.806  -2.020  1.00 20.00     0.015 C 
HETATM   10  C9  UNL     1     -34.739  16.953  -0.249  1.00 20.00     0.015 C 
BRANCH   8  11
HETATM   11  C10 UNL     1     -33.778  17.971  -2.378  1.00 20.00     0.004 C 
HETATM   12  C7  UNL     1     -33.189  19.054  -1.483  1.00 20.00     0.006 C 
ENDBRANCH   8  11
ENDBRANCH   4   8
TORSDOF 2
ENDMDL
MODEL 3
REMARK VINA RESULT:      -4.8      0.445      1.584
REMARK  2 active torsions:
REMARK  status: ('A' for Active; 'I' for Inactive)
REMARK    1  A    between atoms: C4_4  and  C11_11 
REMARK    2  A    between atoms: C10_10  and  C11_11 
ROOT
HETATM    1  C1  UNL     1     -36.105  15.585  -3.446  1.00 20.00     0.008 C 
HETATM    2  C2  UNL     1     -36.227  14.162  -3.993  1.00 20.00     0.035 C 
HETATM    3  C3  UNL     1     -33.600  15.452  -3.173  1.00 20.00     0.040 C 
HETATM    4  C4  UNL     1     -34.936  15.709  -2.457  1.00 20.00    -0.004 C 
HETATM    5  C5  UNL     1     -34.919  13.620  -4.473  1.00 20.00     0.151 A 
HETATM    6  C6  UNL     1     -33.615  14.233  -4.039  1.00 20.00     0.151 A 
HETATM    7  O12 UNL     1     -34.116  13.045  -3.425  1.00 20.00    -0.375 OA
ENDROOT
BRANCH   4   8
HETATM    8  C11 UNL     1     -34.929  17.086  -1.796  1.00 20.00    -0.044 C 
HETATM    9  C8  UNL     1     -34.750  16.912  -0.274  1.00 20.00     0.015 C 
HETATM   10  C9  UNL     1     -33.739  17.900  -2.345  1.00 20.00     0.015 C 
BRANCH   8  11
HETATM   11  C10 UNL     1     -36.275  17.798  -2.114  1.00 20.00     0.004 C 
HETATM   12  C7  UNL     1     -36.968  18.485  -0.943  1.00 20.00     0.006 C 
ENDBRANCH   8  11
ENDBRANCH   4   8
TORSDOF 2
ENDMDL
MODEL 4
REMARK VINA RESULT:      -4.7      1.136      1.937
REMARK  2 active torsions:
REMARK  status: ('A' for Active; 'I' for Inactive)
REMARK    1  A    between atoms: C4_4  and  C11_11 
REMARK    2  A    between atoms: C10_10  and  C11_11 
ROOT
HETATM    1  C1  UNL     1     -35.459  15.945  -4.779  1.00 20.00     0.008 C 
HETATM    2  C2  UNL     1     -35.815  14.701  -5.594  1.00 20.00     0.035 C 
HETATM    3  C3  UNL     1     -33.889  14.703  -3.242  1.00 20.00     0.040 C 
HETATM    4  C4  UNL     1     -35.144  15.589  -3.318  1.00 20.00    -0.004 C 
HETATM    5  C5  UNL     1     -34.831  13.592  -5.402  1.00 20.00     0.151 A 
HETATM    6  C6  UNL     1     -33.903  13.571  -4.218  1.00 20.00     0.151 A 
HETATM    7  O12 UNL     1     -35.096  12.785  -4.238  1.00 20.00    -0.375 OA
ENDROOT
BRANCH   4   8
HETATM    8  C11 UNL     1     -34.955  16.852  -2.480  1.00 20.00    -0.044 C 
HETATM    9  C8  UNL     1     -36.262  17.670  -2.504  1.00 20.00     0.015 C 
HETATM   10  C9  UNL     1     -34.649  16.448  -1.024  1.00 20.00     0.015 C 
BRANCH   8  11
HETATM   11  C10 UNL     1     -33.779  17.676  -3.080  1.00 20.00     0.004 C 
HETATM   12  C7  UNL     1     -33.954  19.190  -3.093  1.00 20.00     0.006 C 
ENDBRANCH   8  11
ENDBRANCH   4   8
TORSDOF 2
ENDMDL
MODEL 5
REMARK VINA RESULT:      -4.7      1.740      2.407
REMARK  2 active torsions:
REMARK  status: ('A' for Active; 'I' for Inactive)
REMARK    1  A    between atoms: C4_4  and  C11_11 
REMARK    2  A    between atoms: C10_10  and  C11_11 
ROOT
HETATM    1  C1  UNL     1     -34.793  15.978  -2.078  1.00 20.00     0.008 C 
HETATM    2  C2  UNL     1     -34.391  14.979  -3.164  1.00 20.00     0.035 C 
HETATM    3  C3  UNL     1     -33.847  17.965  -3.312  1.00 20.00     0.040 C 
HETATM    4  C4  UNL     1     -33.809  17.155  -2.006  1.00 20.00    -0.004 C 
HETATM    5  C5  UNL     1     -34.089  15.644  -4.468  1.00 20.00     0.151 A 
HETATM    6  C6  UNL     1     -33.782  17.115  -4.540  1.00 20.00     0.151 A 
HETATM    7  O12 UNL     1     -32.739  16.138  -4.561  1.00 20.00    -0.375 OA
ENDROOT
BRANCH   4   8
HETATM    8  C11 UNL     1     -34.126  18.054  -0.812  1.00 20.00    -0.044 C 
HETATM    9  C8  UNL     1     -35.016  19.222  -1.286  1.00 20.00     0.015 C 
HETATM   10  C9  UNL     1     -34.901  17.236   0.240  1.00 20.00     0.015 C 
BRANCH   8  11
HETATM   11  C10 UNL     1     -32.790  18.586  -0.220  1.00 20.00     0.004 C 
HETATM   12  C7  UNL     1     -32.745  18.762   1.294  1.00 20.00     0.006 C 
ENDBRANCH   8  11
ENDBRANCH   4   8
TORSDOF 2
ENDMDL
MODEL 6
REMARK VINA RESULT:      -4.6      2.053      4.622
REMARK  2 active torsions:
REMARK  status: ('A' for Active; 'I' for Inactive)
REMARK    1  A    between atoms: C4_4  and  C11_11 
REMARK    2  A    between atoms: C10_10  and  C11_11 
ROOT
HETATM    1  C1  UNL     1     -33.818  17.984  -3.100  1.00 20.00     0.008 C 
HETATM    2  C2  UNL     1     -33.625  19.022  -1.992  1.00 20.00     0.035 C 
HETATM    3  C3  UNL     1     -34.707  16.220  -1.531  1.00 20.00     0.040 C 
HETATM    4  C4  UNL     1     -33.625  16.555  -2.570  1.00 20.00    -0.004 C 
HETATM    5  C5  UNL     1     -34.394  18.686  -0.755  1.00 20.00     0.151 A 
HETATM    6  C6  UNL     1     -34.899  17.291  -0.506  1.00 20.00     0.151 A 
HETATM    7  O12 UNL     1     -33.705  17.770   0.118  1.00 20.00    -0.375 OA
ENDROOT
BRANCH   4   8
HETATM    8  C11 UNL     1     -33.655  15.545  -3.715  1.00 20.00    -0.044 C 
HETATM    9  C8  UNL     1     -33.454  16.292  -5.049  1.00 20.00     0.015 C 
HETATM   10  C9  UNL     1     -32.499  14.541  -3.529  1.00 20.00     0.015 C 
BRANCH   8  11
HETATM   11  C10 UNL     1     -35.027  14.812  -3.697  1.00 20.00     0.004 C 
HETATM   12  C7  UNL     1     -35.029  13.370  -4.190  1.00 20.00     0.006 C 
ENDBRANCH   8  11
ENDBRANCH   4   8
TORSDOF 2
ENDMDL
MODEL 7
REMARK VINA RESULT:      -4.6      1.466      1.907
REMARK  2 active torsions:
REMARK  status: ('A' for Active; 'I' for Inactive)
REMARK    1  A    between atoms: C4_4  and  C11_11 
REMARK    2  A    between atoms: C10_10  and  C11_11 
ROOT
HETATM    1  C1  UNL     1     -34.366  14.613  -3.194  1.00 20.00     0.008 C 
HETATM    2  C2  UNL     1     -33.963  13.601  -4.267  1.00 20.00     0.035 C 
HETATM    3  C3  UNL     1     -35.728  16.019  -4.787  1.00 20.00     0.040 C 
HETATM    4  C4  UNL     1     -34.558  16.017  -3.790  1.00 20.00    -0.004 C 
HETATM    5  C5  UNL     1     -34.838  13.671  -5.477  1.00 20.00     0.151 A 
HETATM    6  C6  UNL     1     -35.685  14.883  -5.757  1.00 20.00     0.151 A 
HETATM    7  O12 UNL     1     -34.434  14.683  -6.419  1.00 20.00    -0.375 OA
ENDROOT
BRANCH   4   8
HETATM    8  C11 UNL     1     -34.796  17.046  -2.686  1.00 20.00    -0.044 C 
HETATM    9  C8  UNL     1     -33.814  18.220  -2.874  1.00 20.00     0.015 C 
HETATM   10  C9  UNL     1     -36.238  17.581  -2.802  1.00 20.00     0.015 C 
BRANCH   8  11
HETATM   11  C10 UNL     1     -34.575  16.359  -1.308  1.00 20.00     0.004 C 
HETATM   12  C7  UNL     1     -34.810  17.225  -0.077  1.00 20.00     0.006 C 
ENDBRANCH   8  11
ENDBRANCH   4   8
TORSDOF 2
ENDMDL
MODEL 8
REMARK VINA RESULT:      -4.5      2.010      4.641
REMARK  2 active torsions:
REMARK  status: ('A' for Active; 'I' for Inactive)
REMARK    1  A    between atoms: C4_4  and  C11_11 
REMARK    2  A    between atoms: C10_10  and  C11_11 
ROOT
HETATM    1  C1  UNL     1     -34.214  17.559  -3.720  1.00 20.00     0.008 C 
HETATM    2  C2  UNL     1     -33.704  18.714  -2.857  1.00 20.00     0.035 C 
HETATM    3  C3  UNL     1     -34.648  16.047  -1.747  1.00 20.00     0.040 C 
HETATM    4  C4  UNL     1     -33.898  16.198  -3.081  1.00 20.00    -0.004 C 
HETATM    5  C5  UNL     1     -34.098  18.572  -1.422  1.00 20.00     0.151 A 
HETATM    6  C6  UNL     1     -34.529  17.244  -0.860  1.00 20.00     0.151 A 
HETATM    7  O12 UNL     1     -33.203  17.738  -0.661  1.00 20.00    -0.375 OA
ENDROOT
BRANCH   4   8
HETATM    8  C11 UNL     1     -34.262  15.057  -4.029  1.00 20.00    -0.044 C 
HETATM    9  C8  UNL     1     -33.355  13.846  -3.728  1.00 20.00     0.015 C 
HETATM   10  C9  UNL     1     -35.729  14.650  -3.784  1.00 20.00     0.015 C 
BRANCH   8  11
HETATM   11  C10 UNL     1     -34.063  15.542  -5.493  1.00 20.00     0.004 C 
HETATM   12  C7  UNL     1     -34.700  14.686  -6.581  1.00 20.00     0.006 C 
ENDBRANCH   8  11
ENDBRANCH   4   8
TORSDOF 2
ENDMDL
MODEL 9
REMARK VINA RESULT:      -4.5      2.844      3.950
REMARK  2 active torsions:
REMARK  status: ('A' for Active; 'I' for Inactive)
REMARK    1  A    between atoms: C4_4  and  C11_11 
REMARK    2  A    between atoms: C10_10  and  C11_11 
ROOT
HETATM    1  C1  UNL     1     -33.750  16.554  -5.622  1.00 20.00     0.008 C 
HETATM    2  C2  UNL     1     -34.285  17.307  -6.842  1.00 20.00     0.035 C 
HETATM    3  C3  UNL     1     -34.956  14.414  -6.197  1.00 20.00     0.040 C 
HETATM    4  C4  UNL     1     -34.752  15.500  -5.128  1.00 20.00    -0.004 C 
HETATM    5  C5  UNL     1     -34.819  16.387  -7.892  1.00 20.00     0.151 A 
HETATM    6  C6  UNL     1     -35.187  14.965  -7.567  1.00 20.00     0.151 A 
HETATM    7  O12 UNL     1     -36.183  15.985  -7.663  1.00 20.00    -0.375 OA
ENDROOT
BRANCH   4   8
HETATM    8  C11 UNL     1     -34.279  14.874  -3.817  1.00 20.00    -0.044 C 
HETATM    9  C8  UNL     1     -34.526  13.353  -3.869  1.00 20.00     0.015 C 
HETATM   10  C9  UNL     1     -32.765  15.127  -3.659  1.00 20.00     0.015 C 
BRANCH   8  11
HETATM   11  C10 UNL     1     -35.069  15.520  -2.643  1.00 20.00     0.004 C 
HETATM   12  C7  UNL     1     -34.277  16.443  -1.724  1.00 20.00     0.006 C 
ENDBRANCH   8  11
ENDBRANCH   4   8
TORSDOF 2
ENDMDL
