MODEL 1
REMARK VINA RESULT:      -3.9      0.000      0.000
REMARK  1 active torsions:
REMARK  status: ('A' for Active; 'I' for Inactive)
REMARK    1  A    between atoms: C2_2  and  C6_6 
REMARK       I    between atoms: C2_2  and  N7_7 
ROOT
HETATM    1  C1  UNL     1     -37.198  14.818  -4.602  1.00 20.00     0.166 C 
HETATM    2  C2  UNL     1     -35.153  14.049  -4.375  1.00 20.00     0.252 C 
HETATM    3  N7  UNL     1     -36.100  14.827  -5.018  1.00 20.00    -0.199 NA
HETATM    4  O8  UNL     1     -35.203  12.825  -4.238  1.00 20.00    -0.270 OA
HETATM    5  S9  UNL     1     -38.697  14.832  -4.066  1.00 20.00    -0.055 SA
ENDROOT
BRANCH   2   6
HETATM    6  C6  UNL     1     -33.970  14.869  -3.815  1.00 20.00     0.032 C 
HETATM    7  C3  UNL     1     -32.796  13.930  -3.505  1.00 20.00     0.025 C 
HETATM    8  C4  UNL     1     -33.515  15.910  -4.852  1.00 20.00     0.025 C 
HETATM    9  C5  UNL     1     -34.414  15.601  -2.540  1.00 20.00     0.025 C 
ENDBRANCH   2   6
TORSDOF 1
ENDMDL
MODEL 2
REMARK VINA RESULT:      -3.8      2.814      3.620
REMARK  1 active torsions:
REMARK  status: ('A' for Active; 'I' for Inactive)
REMARK    1  A    between atoms: C2_2  and  C6_6 
REMARK       I    between atoms: C2_2  and  N7_7 
ROOT
HETATM    1  C1  UNL     1     -34.012  15.943  -2.438  1.00 20.00     0.166 C 
HETATM    2  C2  UNL     1     -33.698  15.634  -4.590  1.00 20.00     0.252 C 
HETATM    3  N7  UNL     1     -33.754  15.173  -3.286  1.00 20.00    -0.199 NA
HETATM    4  O8  UNL     1     -32.938  16.509  -5.008  1.00 20.00    -0.270 OA
HETATM    5  S9  UNL     1     -34.359  16.957  -1.260  1.00 20.00    -0.055 SA
ENDROOT
BRANCH   2   6
HETATM    6  C6  UNL     1     -34.707  14.935  -5.526  1.00 20.00     0.032 C 
HETATM    7  C3  UNL     1     -36.091  15.579  -5.360  1.00 20.00     0.025 C 
HETATM    8  C4  UNL     1     -34.260  15.088  -6.990  1.00 20.00     0.025 C 
HETATM    9  C5  UNL     1     -34.774  13.440  -5.181  1.00 20.00     0.025 C 
ENDBRANCH   2   6
TORSDOF 1
ENDMDL
MODEL 3
REMARK VINA RESULT:      -3.8      2.806      3.606
REMARK  1 active torsions:
REMARK  status: ('A' for Active; 'I' for Inactive)
REMARK    1  A    between atoms: C2_2  and  C6_6 
REMARK       I    between atoms: C2_2  and  N7_7 
ROOT
HETATM    1  C1  UNL     1     -34.042  15.953  -2.414  1.00 20.00     0.166 C 
HETATM    2  C2  UNL     1     -33.702  15.654  -4.563  1.00 20.00     0.252 C 
HETATM    3  N7  UNL     1     -33.776  15.186  -3.262  1.00 20.00    -0.199 NA
HETATM    4  O8  UNL     1     -32.935  16.529  -4.968  1.00 20.00    -0.270 OA
HETATM    5  S9  UNL     1     -34.400  16.963  -1.236  1.00 20.00    -0.055 SA
ENDROOT
BRANCH   2   6
HETATM    6  C6  UNL     1     -34.702  14.963  -5.515  1.00 20.00     0.032 C 
HETATM    7  C3  UNL     1     -34.791  13.470  -5.168  1.00 20.00     0.025 C 
HETATM    8  C4  UNL     1     -36.097  15.593  -5.361  1.00 20.00     0.025 C 
HETATM    9  C5  UNL     1     -34.234  15.142  -6.967  1.00 20.00     0.025 C 
ENDBRANCH   2   6
TORSDOF 1
ENDMDL
MODEL 4
REMARK VINA RESULT:      -3.8      1.816      2.284
REMARK  1 active torsions:
REMARK  status: ('A' for Active; 'I' for Inactive)
REMARK    1  A    between atoms: C2_2  and  C6_6 
REMARK       I    between atoms: C2_2  and  N7_7 
ROOT
HETATM    1  C1  UNL     1     -35.680  14.824  -6.917  1.00 20.00     0.166 C 
HETATM    2  C2  UNL     1     -34.534  13.943  -5.263  1.00 20.00     0.252 C 
HETATM    3  N7  UNL     1     -34.616  14.638  -6.458  1.00 20.00    -0.199 NA
HETATM    4  O8  UNL     1     -34.932  12.792  -5.075  1.00 20.00    -0.270 OA
HETATM    5  S9  UNL     1     -37.106  15.096  -7.571  1.00 20.00    -0.055 SA
ENDROOT
BRANCH   2   6
HETATM    6  C6  UNL     1     -33.873  14.758  -4.130  1.00 20.00     0.032 C 
HETATM    7  C3  UNL     1     -33.235  16.025  -4.716  1.00 20.00     0.025 C 
HETATM    8  C4  UNL     1     -34.931  15.167  -3.091  1.00 20.00     0.025 C 
HETATM    9  C5  UNL     1     -32.805  13.899  -3.438  1.00 20.00     0.025 C 
ENDBRANCH   2   6
TORSDOF 1
ENDMDL
MODEL 5
REMARK VINA RESULT:      -3.8      1.592      1.592
REMARK  1 active torsions:
REMARK  status: ('A' for Active; 'I' for Inactive)
REMARK    1  A    between atoms: C2_2  and  C6_6 
REMARK       I    between atoms: C2_2  and  N7_7 
ROOT
HETATM    1  C1  UNL     1     -35.775  14.745  -6.584  1.00 20.00     0.166 C 
HETATM    2  C2  UNL     1     -34.567  13.870  -4.972  1.00 20.00     0.252 C 
HETATM    3  N7  UNL     1     -34.693  14.503  -6.197  1.00 20.00    -0.199 NA
HETATM    4  O8  UNL     1     -35.031  12.765  -4.685  1.00 20.00    -0.270 OA
HETATM    5  S9  UNL     1     -37.226  15.091  -7.143  1.00 20.00    -0.055 SA
ENDROOT
BRANCH   2   6
HETATM    6  C6  UNL     1     -33.760  14.692  -3.944  1.00 20.00     0.032 C 
HETATM    7  C3  UNL     1     -32.643  13.819  -3.354  1.00 20.00     0.025 C 
HETATM    8  C4  UNL     1     -33.126  15.915  -4.629  1.00 20.00     0.025 C 
HETATM    9  C5  UNL     1     -34.697  15.177  -2.829  1.00 20.00     0.025 C 
ENDBRANCH   2   6
TORSDOF 1
ENDMDL
MODEL 6
REMARK VINA RESULT:      -3.7      2.844      3.403
REMARK  1 active torsions:
REMARK  status: ('A' for Active; 'I' for Inactive)
REMARK    1  A    between atoms: C2_2  and  C6_6 
REMARK       I    between atoms: C2_2  and  N7_7 
ROOT
HETATM    1  C1  UNL     1     -33.383  17.543  -5.044  1.00 20.00     0.166 C 
HETATM    2  C2  UNL     1     -34.013  15.441  -5.151  1.00 20.00     0.252 C 
HETATM    3  N7  UNL     1     -33.052  16.419  -4.963  1.00 20.00    -0.199 NA
HETATM    4  O8  UNL     1     -34.680  15.280  -6.174  1.00 20.00    -0.270 OA
HETATM    5  S9  UNL     1     -33.794  19.078  -5.147  1.00 20.00    -0.055 SA
ENDROOT
BRANCH   2   6
HETATM    6  C6  UNL     1     -34.195  14.523  -3.923  1.00 20.00     0.032 C 
HETATM    7  C3  UNL     1     -35.168  13.388  -4.271  1.00 20.00     0.025 C 
HETATM    8  C4  UNL     1     -32.842  13.912  -3.519  1.00 20.00     0.025 C 
HETATM    9  C5  UNL     1     -34.739  15.345  -2.746  1.00 20.00     0.025 C 
ENDBRANCH   2   6
TORSDOF 1
ENDMDL
MODEL 7
REMARK VINA RESULT:      -3.7     11.392     12.154
REMARK  1 active torsions:
REMARK  status: ('A' for Active; 'I' for Inactive)
REMARK    1  A    between atoms: C2_2  and  C6_6 
REMARK       I    between atoms: C2_2  and  N7_7 
ROOT
HETATM    1  C1  UNL     1     -32.332   7.228   2.806  1.00 20.00     0.166 C 
HETATM    2  C2  UNL     1     -33.613   5.492   3.216  1.00 20.00     0.252 C 
HETATM    3  N7  UNL     1     -32.530   6.305   3.504  1.00 20.00    -0.199 NA
HETATM    4  O8  UNL     1     -33.783   4.868   2.167  1.00 20.00    -0.270 OA
HETATM    5  S9  UNL     1     -32.030   8.490   1.882  1.00 20.00    -0.055 SA
ENDROOT
BRANCH   2   6
HETATM    6  C6  UNL     1     -34.642   5.421   4.365  1.00 20.00     0.032 C 
HETATM    7  C3  UNL     1     -36.011   5.896   3.858  1.00 20.00     0.025 C 
HETATM    8  C4  UNL     1     -34.773   3.972   4.865  1.00 20.00     0.025 C 
HETATM    9  C5  UNL     1     -34.172   6.306   5.528  1.00 20.00     0.025 C 
ENDBRANCH   2   6
TORSDOF 1
ENDMDL
MODEL 8
REMARK VINA RESULT:      -3.7     11.406     12.131
REMARK  1 active torsions:
REMARK  status: ('A' for Active; 'I' for Inactive)
REMARK    1  A    between atoms: C2_2  and  C6_6 
REMARK       I    between atoms: C2_2  and  N7_7 
ROOT
HETATM    1  C1  UNL     1     -32.339   7.215   2.821  1.00 20.00     0.166 C 
HETATM    2  C2  UNL     1     -33.623   5.478   3.221  1.00 20.00     0.252 C 
HETATM    3  N7  UNL     1     -32.539   6.289   3.514  1.00 20.00    -0.199 NA
HETATM    4  O8  UNL     1     -33.793   4.862   2.168  1.00 20.00    -0.270 OA
HETATM    5  S9  UNL     1     -32.035   8.482   1.905  1.00 20.00    -0.055 SA
ENDROOT
BRANCH   2   6
HETATM    6  C6  UNL     1     -34.653   5.402   4.369  1.00 20.00     0.032 C 
HETATM    7  C3  UNL     1     -34.764   3.953   4.862  1.00 20.00     0.025 C 
HETATM    8  C4  UNL     1     -34.201   6.292   5.540  1.00 20.00     0.025 C 
HETATM    9  C5  UNL     1     -36.017   5.898   3.867  1.00 20.00     0.025 C 
ENDBRANCH   2   6
TORSDOF 1
ENDMDL
MODEL 9
REMARK VINA RESULT:      -3.6      1.623      1.798
REMARK  1 active torsions:
REMARK  status: ('A' for Active; 'I' for Inactive)
REMARK    1  A    between atoms: C2_2  and  C6_6 
REMARK       I    between atoms: C2_2  and  N7_7 
ROOT
HETATM    1  C1  UNL     1     -37.852  14.696  -4.081  1.00 20.00     0.166 C 
HETATM    2  C2  UNL     1     -35.748  14.943  -3.502  1.00 20.00     0.252 C 
HETATM    3  N7  UNL     1     -36.854  14.158  -3.778  1.00 20.00    -0.199 NA
HETATM    4  O8  UNL     1     -35.679  15.797  -2.617  1.00 20.00    -0.270 OA
HETATM    5  S9  UNL     1     -39.225  15.391  -4.495  1.00 20.00    -0.055 SA
ENDROOT
BRANCH   2   6
HETATM    6  C6  UNL     1     -34.549  14.653  -4.431  1.00 20.00     0.032 C 
HETATM    7  C3  UNL     1     -34.551  13.169  -4.821  1.00 20.00     0.025 C 
HETATM    8  C4  UNL     1     -34.656  15.503  -5.708  1.00 20.00     0.025 C 
HETATM    9  C5  UNL     1     -33.243  15.009  -3.707  1.00 20.00     0.025 C 
ENDBRANCH   2   6
TORSDOF 1
ENDMDL
