MODEL 1
REMARK VINA RESULT:      -4.2      0.000      0.000
REMARK  2 active torsions:
REMARK  status: ('A' for Active; 'I' for Inactive)
REMARK    1  A    between atoms: C3_3  and  C5_5 
REMARK    2  A    between atoms: C4_4  and  C8_8 
ROOT
HETATM    1  C1  UNL     1     -33.417  15.070  -3.753  1.00 20.00     0.023 A 
HETATM    2  C2  UNL     1     -33.350  16.120  -2.793  1.00 20.00     0.016 A 
HETATM    3  C3  UNL     1     -34.713  14.670  -3.992  1.00 20.00     0.043 A 
HETATM    4  C4  UNL     1     -34.598  16.483  -2.334  1.00 20.00    -0.013 A 
HETATM    5  S10 UNL     1     -35.842  15.559  -3.061  1.00 20.00    -0.091 SA
ENDROOT
BRANCH   4   6
HETATM    6  C8  UNL     1     -34.849  17.581  -1.295  1.00 20.00     0.026 A 
HETATM    7  C6  UNL     1     -33.731  17.957  -0.348  1.00 20.00     0.010 A 
HETATM    8  C7  UNL     1     -34.915  17.201   0.168  1.00 20.00     0.010 A 
ENDBRANCH   4   6
BRANCH   3   9
HETATM    9  C5  UNL     1     -35.188  13.657  -4.878  1.00 20.00     0.277 C 
HETATM   10  O9  UNL     1     -34.823  12.463  -4.837  1.00 20.00    -0.301 OA
ENDBRANCH   3   9
TORSDOF 2
ENDMDL
MODEL 2
REMARK VINA RESULT:      -4.2      1.074      1.245
REMARK  2 active torsions:
REMARK  status: ('A' for Active; 'I' for Inactive)
REMARK    1  A    between atoms: C3_3  and  C5_5 
REMARK    2  A    between atoms: C4_4  and  C8_8 
ROOT
HETATM    1  C1  UNL     1     -33.730  16.029  -5.191  1.00 20.00     0.023 A 
HETATM    2  C2  UNL     1     -33.506  16.994  -4.167  1.00 20.00     0.016 A 
HETATM    3  C3  UNL     1     -34.321  14.885  -4.703  1.00 20.00     0.043 A 
HETATM    4  C4  UNL     1     -33.935  16.550  -2.934  1.00 20.00    -0.013 A 
HETATM    5  S10 UNL     1     -34.604  14.977  -3.017  1.00 20.00    -0.091 SA
ENDROOT
BRANCH   4   6
HETATM    6  C8  UNL     1     -33.828  17.364  -1.640  1.00 20.00     0.026 A 
HETATM    7  C6  UNL     1     -34.628  16.922  -0.434  1.00 20.00     0.010 A 
HETATM    8  C7  UNL     1     -35.030  18.158  -1.176  1.00 20.00     0.010 A 
ENDBRANCH   4   6
BRANCH   3   9
HETATM    9  C5  UNL     1     -34.700  13.702  -5.407  1.00 20.00     0.277 C 
HETATM   10  O9  UNL     1     -34.841  12.583  -4.871  1.00 20.00    -0.301 OA
ENDBRANCH   3   9
TORSDOF 2
ENDMDL
MODEL 3
REMARK VINA RESULT:      -4.0      1.744      2.268
REMARK  2 active torsions:
REMARK  status: ('A' for Active; 'I' for Inactive)
REMARK    1  A    between atoms: C3_3  and  C5_5 
REMARK    2  A    between atoms: C4_4  and  C8_8 
ROOT
HETATM    1  C1  UNL     1     -34.321  13.594  -4.892  1.00 20.00     0.023 A 
HETATM    2  C2  UNL     1     -34.378  13.929  -3.508  1.00 20.00     0.016 A 
HETATM    3  C3  UNL     1     -34.585  14.680  -5.698  1.00 20.00     0.043 A 
HETATM    4  C4  UNL     1     -34.682  15.259  -3.309  1.00 20.00    -0.013 A 
HETATM    5  S10 UNL     1     -34.898  16.095  -4.787  1.00 20.00    -0.091 SA
ENDROOT
BRANCH   4   6
HETATM    6  C8  UNL     1     -34.814  15.916  -1.932  1.00 20.00     0.026 A 
HETATM    7  C6  UNL     1     -35.185  17.381  -1.856  1.00 20.00     0.010 A 
HETATM    8  C7  UNL     1     -33.792  16.952  -1.516  1.00 20.00     0.010 A 
ENDBRANCH   4   6
BRANCH   3   9
HETATM    9  C5  UNL     1     -34.623  14.748  -7.123  1.00 20.00     0.277 C 
HETATM   10  O9  UNL     1     -35.528  14.250  -7.824  1.00 20.00    -0.301 OA
ENDBRANCH   3   9
TORSDOF 2
ENDMDL
MODEL 4
REMARK VINA RESULT:      -3.9      2.689      5.056
REMARK  2 active torsions:
REMARK  status: ('A' for Active; 'I' for Inactive)
REMARK    1  A    between atoms: C3_3  and  C5_5 
REMARK    2  A    between atoms: C4_4  and  C8_8 
ROOT
HETATM    1  C1  UNL     1     -34.387  13.961  -3.473  1.00 20.00     0.023 A 
HETATM    2  C2  UNL     1     -34.331  13.669  -4.866  1.00 20.00     0.016 A 
HETATM    3  C3  UNL     1     -34.567  15.305  -3.233  1.00 20.00     0.043 A 
HETATM    4  C4  UNL     1     -34.472  14.802  -5.639  1.00 20.00    -0.013 A 
HETATM    5  S10 UNL     1     -34.670  16.209  -4.684  1.00 20.00    -0.091 SA
ENDROOT
BRANCH   4   6
HETATM    6  C8  UNL     1     -34.453  14.809  -7.171  1.00 20.00     0.026 A 
HETATM    7  C6  UNL     1     -35.127  15.950  -7.902  1.00 20.00     0.010 A 
HETATM    8  C7  UNL     1     -35.751  14.589  -7.917  1.00 20.00     0.010 A 
ENDBRANCH   4   6
BRANCH   3   9
HETATM    9  C5  UNL     1     -34.672  15.985  -1.982  1.00 20.00     0.277 C 
HETATM   10  O9  UNL     1     -33.818  16.785  -1.547  1.00 20.00    -0.301 OA
ENDBRANCH   3   9
TORSDOF 2
ENDMDL
MODEL 5
REMARK VINA RESULT:      -3.8     12.663     13.976
REMARK  2 active torsions:
REMARK  status: ('A' for Active; 'I' for Inactive)
REMARK    1  A    between atoms: C3_3  and  C5_5 
REMARK    2  A    between atoms: C4_4  and  C8_8 
ROOT
HETATM    1  C1  UNL     1     -41.485   2.639  -3.116  1.00 20.00     0.023 A 
HETATM    2  C2  UNL     1     -41.086   3.651  -2.196  1.00 20.00     0.016 A 
HETATM    3  C3  UNL     1     -42.691   2.930  -3.713  1.00 20.00     0.043 A 
HETATM    4  C4  UNL     1     -42.004   4.677  -2.124  1.00 20.00    -0.013 A 
HETATM    5  S10 UNL     1     -43.339   4.417  -3.164  1.00 20.00    -0.091 SA
ENDROOT
BRANCH   4   6
HETATM    6  C8  UNL     1     -41.854   5.907  -1.222  1.00 20.00     0.026 A 
HETATM    7  C6  UNL     1     -40.782   5.900  -0.155  1.00 20.00     0.010 A 
HETATM    8  C7  UNL     1     -42.221   5.787   0.241  1.00 20.00     0.010 A 
ENDBRANCH   4   6
BRANCH   3   9
HETATM    9  C5  UNL     1     -43.417   2.172  -4.680  1.00 20.00     0.277 C 
HETATM   10  O9  UNL     1     -43.072   2.046  -5.874  1.00 20.00    -0.301 OA
ENDBRANCH   3   9
TORSDOF 2
ENDMDL
MODEL 6
REMARK VINA RESULT:      -3.7     11.696     12.113
REMARK  2 active torsions:
REMARK  status: ('A' for Active; 'I' for Inactive)
REMARK    1  A    between atoms: C3_3  and  C5_5 
REMARK    2  A    between atoms: C4_4  and  C8_8 
ROOT
HETATM    1  C1  UNL     1     -33.126   5.898   2.087  1.00 20.00     0.023 A 
HETATM    2  C2  UNL     1     -34.062   5.100   2.807  1.00 20.00     0.016 A 
HETATM    3  C3  UNL     1     -32.660   6.953   2.838  1.00 20.00     0.043 A 
HETATM    4  C4  UNL     1     -34.275   5.577   4.082  1.00 20.00    -0.013 A 
HETATM    5  S10 UNL     1     -33.349   6.980   4.405  1.00 20.00    -0.091 SA
ENDROOT
BRANCH   4   6
HETATM    6  C8  UNL     1     -35.227   4.933   5.096  1.00 20.00     0.026 A 
HETATM    7  C6  UNL     1     -34.968   5.140   6.572  1.00 20.00     0.010 A 
HETATM    8  C7  UNL     1     -34.716   3.799   5.958  1.00 20.00     0.010 A 
ENDBRANCH   4   6
BRANCH   3   9
HETATM    9  C5  UNL     1     -31.722   7.966   2.475  1.00 20.00     0.277 C 
HETATM   10  O9  UNL     1     -31.783   8.630   1.418  1.00 20.00    -0.301 OA
ENDBRANCH   3   9
TORSDOF 2
ENDMDL
MODEL 7
REMARK VINA RESULT:      -3.7      2.514      4.931
REMARK  2 active torsions:
REMARK  status: ('A' for Active; 'I' for Inactive)
REMARK    1  A    between atoms: C3_3  and  C5_5 
REMARK    2  A    between atoms: C4_4  and  C8_8 
ROOT
HETATM    1  C1  UNL     1     -33.328  16.889  -4.253  1.00 20.00     0.023 A 
HETATM    2  C2  UNL     1     -33.677  16.246  -5.476  1.00 20.00     0.016 A 
HETATM    3  C3  UNL     1     -33.984  16.338  -3.175  1.00 20.00     0.043 A 
HETATM    4  C4  UNL     1     -34.587  15.229  -5.285  1.00 20.00    -0.013 A 
HETATM    5  S10 UNL     1     -35.016  15.053  -3.638  1.00 20.00    -0.091 SA
ENDROOT
BRANCH   4   6
HETATM    6  C8  UNL     1     -35.152  14.356  -6.410  1.00 20.00     0.026 A 
HETATM    7  C6  UNL     1     -34.991  14.818  -7.842  1.00 20.00     0.010 A 
HETATM    8  C7  UNL     1     -36.342  14.860  -7.198  1.00 20.00     0.010 A 
ENDBRANCH   4   6
BRANCH   3   9
HETATM    9  C5  UNL     1     -33.903  16.702  -1.797  1.00 20.00     0.277 C 
HETATM   10  O9  UNL     1     -34.711  16.321  -0.924  1.00 20.00    -0.301 OA
ENDBRANCH   3   9
TORSDOF 2
ENDMDL
MODEL 8
REMARK VINA RESULT:      -3.6      3.333      4.448
REMARK  2 active torsions:
REMARK  status: ('A' for Active; 'I' for Inactive)
REMARK    1  A    between atoms: C3_3  and  C5_5 
REMARK    2  A    between atoms: C4_4  and  C8_8 
ROOT
HETATM    1  C1  UNL     1     -33.395  15.951  -4.347  1.00 20.00     0.023 A 
HETATM    2  C2  UNL     1     -33.480  16.967  -5.343  1.00 20.00     0.016 A 
HETATM    3  C3  UNL     1     -34.051  14.801  -4.723  1.00 20.00     0.043 A 
HETATM    4  C4  UNL     1     -34.200  16.552  -6.443  1.00 20.00    -0.013 A 
HETATM    5  S10 UNL     1     -34.767  14.946  -6.271  1.00 20.00    -0.091 SA
ENDROOT
BRANCH   4   6
HETATM    6  C8  UNL     1     -34.465  17.421  -7.677  1.00 20.00     0.026 A 
HETATM    7  C6  UNL     1     -34.226  18.913  -7.582  1.00 20.00     0.010 A 
HETATM    8  C7  UNL     1     -35.627  18.390  -7.651  1.00 20.00     0.010 A 
ENDBRANCH   4   6
BRANCH   3   9
HETATM    9  C5  UNL     1     -34.191  13.574  -4.006  1.00 20.00     0.277 C 
HETATM   10  O9  UNL     1     -35.004  12.676  -4.308  1.00 20.00    -0.301 OA
ENDBRANCH   3   9
TORSDOF 2
ENDMDL
MODEL 9
REMARK VINA RESULT:      -3.6      2.125      2.408
REMARK  2 active torsions:
REMARK  status: ('A' for Active; 'I' for Inactive)
REMARK    1  A    between atoms: C3_3  and  C5_5 
REMARK    2  A    between atoms: C4_4  and  C8_8 
ROOT
HETATM    1  C1  UNL     1     -33.964  16.067  -6.108  1.00 20.00     0.023 A 
HETATM    2  C2  UNL     1     -33.266  16.229  -4.876  1.00 20.00     0.016 A 
HETATM    3  C3  UNL     1     -35.311  15.856  -5.915  1.00 20.00     0.043 A 
HETATM    4  C4  UNL     1     -34.108  16.134  -3.788  1.00 20.00    -0.013 A 
HETATM    5  S10 UNL     1     -35.731  15.852  -4.255  1.00 20.00    -0.091 SA
ENDROOT
BRANCH   4   6
HETATM    6  C8  UNL     1     -33.652  16.265  -2.332  1.00 20.00     0.026 A 
HETATM    7  C6  UNL     1     -34.699  16.429  -1.252  1.00 20.00     0.010 A 
HETATM    8  C7  UNL     1     -33.833  17.591  -1.626  1.00 20.00     0.010 A 
ENDBRANCH   4   6
BRANCH   3   9
HETATM    9  C5  UNL     1     -36.334  15.651  -6.890  1.00 20.00     0.277 C 
HETATM   10  O9  UNL     1     -36.396  14.654  -7.640  1.00 20.00    -0.301 OA
ENDBRANCH   3   9
TORSDOF 2
ENDMDL
