MODEL 1
REMARK VINA RESULT:      -4.3      0.000      0.000
REMARK  0 active torsions:
REMARK  status: ('A' for Active; 'I' for Inactive)
ROOT
HETATM    1  C1  UNL     1     -35.655  15.530  -7.918  1.00 20.00    -0.027 C 
HETATM    2  C2  UNL     1     -33.449  13.780  -3.750  1.00 20.00    -0.027 C 
HETATM    3  C3  UNL     1     -35.105  16.725  -7.676  1.00 20.00    -0.001 C 
HETATM    4  C4  UNL     1     -32.920  14.992  -3.551  1.00 20.00    -0.001 C 
HETATM    5  C5  UNL     1     -35.462  14.374  -6.987  1.00 20.00     0.063 C 
HETATM    6  C6  UNL     1     -34.359  13.499  -4.904  1.00 20.00     0.063 C 
HETATM    7  C7  UNL     1     -34.252  16.983  -6.471  1.00 20.00     0.300 C 
HETATM    8  C8  UNL     1     -33.194  16.144  -4.473  1.00 20.00     0.300 C 
HETATM    9  C9  UNL     1     -34.869  14.776  -5.615  1.00 20.00     0.230 C 
HETATM   10  N10 UNL     1     -33.791  15.768  -5.769  1.00 20.00     0.100 N 
ENDROOT
TORSDOF 0
ENDMDL
MODEL 2
REMARK VINA RESULT:      -4.2     12.323     13.926
REMARK  0 active torsions:
REMARK  status: ('A' for Active; 'I' for Inactive)
ROOT
HETATM    1  C1  UNL     1     -32.552   6.442   2.173  1.00 20.00    -0.027 C 
HETATM    2  C2  UNL     1     -35.307   4.486   5.900  1.00 20.00    -0.027 C 
HETATM    3  C3  UNL     1     -32.077   7.348   3.035  1.00 20.00    -0.001 C 
HETATM    4  C4  UNL     1     -34.804   5.411   6.724  1.00 20.00    -0.001 C 
HETATM    5  C5  UNL     1     -33.567   5.423   2.587  1.00 20.00     0.063 C 
HETATM    6  C6  UNL     1     -34.944   4.445   4.449  1.00 20.00     0.063 C 
HETATM    7  C7  UNL     1     -32.518   7.397   4.467  1.00 20.00     0.300 C 
HETATM    8  C8  UNL     1     -33.838   6.459   6.254  1.00 20.00     0.300 C 
HETATM    9  C9  UNL     1     -34.227   5.724   3.953  1.00 20.00     0.230 C 
HETATM   10  N10 UNL     1     -33.232   6.192   4.935  1.00 20.00     0.100 N 
ENDROOT
TORSDOF 0
ENDMDL
MODEL 3
REMARK VINA RESULT:      -4.2      1.844      3.644
REMARK  0 active torsions:
REMARK  status: ('A' for Active; 'I' for Inactive)
ROOT
HETATM    1  C1  UNL     1     -34.114  17.305  -1.727  1.00 20.00    -0.027 C 
HETATM    2  C2  UNL     1     -34.830  13.717  -5.179  1.00 20.00    -0.027 C 
HETATM    3  C3  UNL     1     -33.791  18.151  -2.711  1.00 20.00    -0.001 C 
HETATM    4  C4  UNL     1     -34.500  14.599  -6.128  1.00 20.00    -0.001 C 
HETATM    5  C5  UNL     1     -34.452  15.874  -2.002  1.00 20.00     0.063 C 
HETATM    6  C6  UNL     1     -34.810  14.080  -3.727  1.00 20.00     0.063 C 
HETATM    7  C7  UNL     1     -33.757  17.729  -4.150  1.00 20.00     0.300 C 
HETATM    8  C8  UNL     1     -34.101  16.008  -5.804  1.00 20.00     0.300 C 
HETATM    9  C9  UNL     1     -34.081  15.413  -3.431  1.00 20.00     0.230 C 
HETATM   10  N10 UNL     1     -34.423  16.441  -4.430  1.00 20.00     0.100 N 
ENDROOT
TORSDOF 0
ENDMDL
MODEL 4
REMARK VINA RESULT:      -4.2      0.900      1.760
REMARK  0 active torsions:
REMARK  status: ('A' for Active; 'I' for Inactive)
ROOT
HETATM    1  C1  UNL     1     -34.433  17.744  -7.063  1.00 20.00    -0.027 C 
HETATM    2  C2  UNL     1     -34.506  13.263  -4.778  1.00 20.00    -0.027 C 
HETATM    3  C3  UNL     1     -33.766  18.239  -6.015  1.00 20.00    -0.001 C 
HETATM    4  C4  UNL     1     -33.837  13.803  -3.754  1.00 20.00    -0.001 C 
HETATM    5  C5  UNL     1     -34.890  16.320  -7.101  1.00 20.00     0.063 C 
HETATM    6  C6  UNL     1     -34.926  14.080  -5.960  1.00 20.00     0.063 C 
HETATM    7  C7  UNL     1     -33.421  17.402  -4.819  1.00 20.00     0.300 C 
HETATM    8  C8  UNL     1     -33.456  15.253  -3.725  1.00 20.00     0.300 C 
HETATM    9  C9  UNL     1     -34.811  15.606  -5.730  1.00 20.00     0.230 C 
HETATM   10  N10 UNL     1     -33.563  15.946  -5.024  1.00 20.00     0.100 N 
ENDROOT
TORSDOF 0
ENDMDL
MODEL 5
REMARK VINA RESULT:      -4.2      0.930      3.408
REMARK  0 active torsions:
REMARK  status: ('A' for Active; 'I' for Inactive)
ROOT
HETATM    1  C1  UNL     1     -34.605  13.253  -4.767  1.00 20.00    -0.027 C 
HETATM    2  C2  UNL     1     -34.526  17.661  -7.188  1.00 20.00    -0.027 C 
HETATM    3  C3  UNL     1     -33.910  13.816  -3.773  1.00 20.00    -0.001 C 
HETATM    4  C4  UNL     1     -33.832  18.180  -6.169  1.00 20.00    -0.001 C 
HETATM    5  C5  UNL     1     -34.971  14.018  -5.999  1.00 20.00     0.063 C 
HETATM    6  C6  UNL     1     -34.932  16.221  -7.209  1.00 20.00     0.063 C 
HETATM    7  C7  UNL     1     -33.463  15.246  -3.819  1.00 20.00     0.300 C 
HETATM    8  C8  UNL     1     -33.426  17.360  -4.980  1.00 20.00     0.300 C 
HETATM    9  C9  UNL     1     -34.212  15.358  -6.146  1.00 20.00     0.230 C 
HETATM   10  N10 UNL     1     -34.124  16.065  -4.856  1.00 20.00     0.100 N 
ENDROOT
TORSDOF 0
ENDMDL
MODEL 6
REMARK VINA RESULT:      -4.2      1.871      2.852
REMARK  0 active torsions:
REMARK  status: ('A' for Active; 'I' for Inactive)
ROOT
HETATM    1  C1  UNL     1     -34.834  13.725  -5.245  1.00 20.00    -0.027 C 
HETATM    2  C2  UNL     1     -34.050  17.248  -1.741  1.00 20.00    -0.027 C 
HETATM    3  C3  UNL     1     -34.525  14.627  -6.183  1.00 20.00    -0.001 C 
HETATM    4  C4  UNL     1     -33.748  18.113  -2.714  1.00 20.00    -0.001 C 
HETATM    5  C5  UNL     1     -34.861  14.083  -3.792  1.00 20.00     0.063 C 
HETATM    6  C6  UNL     1     -34.469  15.843  -2.040  1.00 20.00     0.063 C 
HETATM    7  C7  UNL     1     -34.174  16.045  -5.845  1.00 20.00     0.300 C 
HETATM    8  C8  UNL     1     -33.798  17.733  -4.164  1.00 20.00     0.300 C 
HETATM    9  C9  UNL     1     -34.826  15.606  -3.528  1.00 20.00     0.230 C 
HETATM   10  N10 UNL     1     -33.866  16.281  -4.420  1.00 20.00     0.100 N 
ENDROOT
TORSDOF 0
ENDMDL
MODEL 7
REMARK VINA RESULT:      -4.2      1.028      2.685
REMARK  0 active torsions:
REMARK  status: ('A' for Active; 'I' for Inactive)
ROOT
HETATM    1  C1  UNL     1     -33.642  18.415  -5.229  1.00 20.00    -0.027 C 
HETATM    2  C2  UNL     1     -34.330  13.689  -3.652  1.00 20.00    -0.027 C 
HETATM    3  C3  UNL     1     -34.012  18.033  -6.456  1.00 20.00    -0.001 C 
HETATM    4  C4  UNL     1     -34.694  13.354  -4.895  1.00 20.00    -0.001 C 
HETATM    5  C5  UNL     1     -33.554  17.441  -4.096  1.00 20.00     0.063 C 
HETATM    6  C6  UNL     1     -33.898  15.079  -3.308  1.00 20.00     0.063 C 
HETATM    7  C7  UNL     1     -34.374  16.613  -6.775  1.00 20.00     0.300 C 
HETATM    8  C8  UNL     1     -34.704  14.347  -6.019  1.00 20.00     0.300 C 
HETATM    9  C9  UNL     1     -33.606  15.962  -4.545  1.00 20.00     0.230 C 
HETATM   10  N10 UNL     1     -34.620  15.759  -5.596  1.00 20.00     0.100 N 
ENDROOT
TORSDOF 0
ENDMDL
MODEL 8
REMARK VINA RESULT:      -4.1      0.348      3.541
REMARK  0 active torsions:
REMARK  status: ('A' for Active; 'I' for Inactive)
ROOT
HETATM    1  C1  UNL     1     -33.716  13.690  -3.745  1.00 20.00    -0.027 C 
HETATM    2  C2  UNL     1     -35.697  15.681  -7.918  1.00 20.00    -0.027 C 
HETATM    3  C3  UNL     1     -33.141  14.870  -3.486  1.00 20.00    -0.001 C 
HETATM    4  C4  UNL     1     -35.102  16.841  -7.616  1.00 20.00    -0.001 C 
HETATM    5  C5  UNL     1     -34.533  13.470  -4.979  1.00 20.00     0.063 C 
HETATM    6  C6  UNL     1     -35.523  14.464  -7.064  1.00 20.00     0.063 C 
HETATM    7  C7  UNL     1     -33.285  16.047  -4.403  1.00 20.00     0.300 C 
HETATM    8  C8  UNL     1     -34.235  17.002  -6.403  1.00 20.00     0.300 C 
HETATM    9  C9  UNL     1     -34.373  14.587  -6.036  1.00 20.00     0.230 C 
HETATM   10  N10 UNL     1     -34.360  15.920  -5.407  1.00 20.00     0.100 N 
ENDROOT
TORSDOF 0
ENDMDL
MODEL 9
REMARK VINA RESULT:      -4.1      1.533      2.742
REMARK  0 active torsions:
REMARK  status: ('A' for Active; 'I' for Inactive)
ROOT
HETATM    1  C1  UNL     1     -34.461  15.565  -7.234  1.00 20.00    -0.027 C 
HETATM    2  C2  UNL     1     -33.908  17.205  -2.511  1.00 20.00    -0.027 C 
HETATM    3  C3  UNL     1     -34.920  14.406  -6.751  1.00 20.00    -0.001 C 
HETATM    4  C4  UNL     1     -34.373  16.030  -2.075  1.00 20.00    -0.001 C 
HETATM    5  C5  UNL     1     -34.005  16.668  -6.330  1.00 20.00     0.063 C 
HETATM    6  C6  UNL     1     -33.729  17.487  -3.970  1.00 20.00     0.063 C 
HETATM    7  C7  UNL     1     -35.021  14.138  -5.279  1.00 20.00     0.300 C 
HETATM    8  C8  UNL     1     -34.756  14.925  -3.015  1.00 20.00     0.300 C 
HETATM    9  C9  UNL     1     -33.814  16.224  -4.861  1.00 20.00     0.230 C 
HETATM   10  N10 UNL     1     -34.906  15.337  -4.424  1.00 20.00     0.100 N 
ENDROOT
TORSDOF 0
ENDMDL
