MODEL 1
REMARK VINA RESULT:      -4.6      0.000      0.000
REMARK  0 active torsions:
REMARK  status: ('A' for Active; 'I' for Inactive)
ROOT
HETATM    1  C1  UNL     1     -32.155   6.861   2.556  1.00 20.00    -0.026 C 
HETATM    2  C2  UNL     1     -35.368   4.393   5.269  1.00 20.00    -0.027 C 
HETATM    3  C3  UNL     1     -31.809   7.634   3.595  1.00 20.00    -0.001 C 
HETATM    4  C4  UNL     1     -35.129   4.946   4.072  1.00 20.00     0.005 C 
HETATM    5  C5  UNL     1     -34.712   4.903   6.518  1.00 20.00     0.057 C 
HETATM    6  C6  UNL     1     -33.277   5.866   2.654  1.00 20.00     0.066 C 
HETATM    7  C7  UNL     1     -32.489   7.521   4.932  1.00 20.00     0.300 C 
HETATM    8  C8  UNL     1     -34.040   6.270   6.323  1.00 20.00     0.277 C 
HETATM    9  C9  UNL     1     -34.163   6.093   3.898  1.00 20.00     0.249 C 
HETATM   10  N10 UNL     1     -33.281   6.289   5.070  1.00 20.00     0.100 N 
ENDROOT
TORSDOF 0
ENDMDL
MODEL 2
REMARK VINA RESULT:      -4.4     11.651     13.162
REMARK  0 active torsions:
REMARK  status: ('A' for Active; 'I' for Inactive)
ROOT
HETATM    1  C1  UNL     1     -34.043  17.375  -2.094  1.00 20.00    -0.026 C 
HETATM    2  C2  UNL     1     -34.828  13.333  -4.705  1.00 20.00    -0.027 C 
HETATM    3  C3  UNL     1     -33.763  18.083  -3.197  1.00 20.00    -0.001 C 
HETATM    4  C4  UNL     1     -34.295  13.835  -3.583  1.00 20.00     0.005 C 
HETATM    5  C5  UNL     1     -34.967  14.159  -5.950  1.00 20.00     0.057 C 
HETATM    6  C6  UNL     1     -34.283  15.892  -2.149  1.00 20.00     0.066 C 
HETATM    7  C7  UNL     1     -33.720  17.448  -4.560  1.00 20.00     0.300 C 
HETATM    8  C8  UNL     1     -34.162  15.465  -5.893  1.00 20.00     0.277 C 
HETATM    9  C9  UNL     1     -33.832  15.270  -3.489  1.00 20.00     0.249 C 
HETATM   10  N10 UNL     1     -34.340  16.115  -4.592  1.00 20.00     0.100 N 
ENDROOT
TORSDOF 0
ENDMDL
MODEL 3
REMARK VINA RESULT:      -4.3     12.060     13.291
REMARK  0 active torsions:
REMARK  status: ('A' for Active; 'I' for Inactive)
ROOT
HETATM    1  C1  UNL     1     -34.075  14.855  -4.657  1.00 20.00    -0.026 C 
HETATM    2  C2  UNL     1     -34.114  17.407  -0.503  1.00 20.00    -0.027 C 
HETATM    3  C3  UNL     1     -33.821  15.955  -5.379  1.00 20.00    -0.001 C 
HETATM    4  C4  UNL     1     -34.697  16.420  -1.197  1.00 20.00     0.005 C 
HETATM    5  C5  UNL     1     -33.405  18.539  -1.187  1.00 20.00     0.057 C 
HETATM    6  C6  UNL     1     -34.350  14.927  -3.181  1.00 20.00     0.066 C 
HETATM    7  C7  UNL     1     -33.749  17.320  -4.751  1.00 20.00     0.300 C 
HETATM    8  C8  UNL     1     -33.704  18.608  -2.691  1.00 20.00     0.277 C 
HETATM    9  C9  UNL     1     -34.649  16.365  -2.705  1.00 20.00     0.249 C 
HETATM   10  N10 UNL     1     -33.633  17.271  -3.285  1.00 20.00     0.100 N 
ENDROOT
TORSDOF 0
ENDMDL
MODEL 4
REMARK VINA RESULT:      -4.3     11.706     13.188
REMARK  0 active torsions:
REMARK  status: ('A' for Active; 'I' for Inactive)
ROOT
HETATM    1  C1  UNL     1     -34.431  13.632  -4.908  1.00 20.00    -0.026 C 
HETATM    2  C2  UNL     1     -34.107  17.140  -1.537  1.00 20.00    -0.027 C 
HETATM    3  C3  UNL     1     -34.485  14.533  -5.899  1.00 20.00    -0.001 C 
HETATM    4  C4  UNL     1     -34.648  15.953  -1.846  1.00 20.00     0.005 C 
HETATM    5  C5  UNL     1     -33.717  18.128  -2.596  1.00 20.00     0.057 C 
HETATM    6  C6  UNL     1     -34.442  14.049  -3.464  1.00 20.00     0.066 C 
HETATM    7  C7  UNL     1     -34.510  16.012  -5.630  1.00 20.00     0.300 C 
HETATM    8  C8  UNL     1     -34.291  17.780  -3.977  1.00 20.00     0.277 C 
HETATM    9  C9  UNL     1     -34.867  15.522  -3.276  1.00 20.00     0.249 C 
HETATM   10  N10 UNL     1     -34.125  16.351  -4.251  1.00 20.00     0.100 N 
ENDROOT
TORSDOF 0
ENDMDL
MODEL 5
REMARK VINA RESULT:      -4.3     12.321     13.829
REMARK  0 active torsions:
REMARK  status: ('A' for Active; 'I' for Inactive)
ROOT
HETATM    1  C1  UNL     1     -35.180  15.702  -7.918  1.00 20.00    -0.026 C 
HETATM    2  C2  UNL     1     -33.522  13.621  -3.833  1.00 20.00    -0.027 C 
HETATM    3  C3  UNL     1     -34.773  16.914  -7.515  1.00 20.00    -0.001 C 
HETATM    4  C4  UNL     1     -34.515  13.648  -4.733  1.00 20.00     0.005 C 
HETATM    5  C5  UNL     1     -32.676  14.828  -3.556  1.00 20.00     0.057 C 
HETATM    6  C6  UNL     1     -35.085  14.500  -7.020  1.00 20.00     0.066 C 
HETATM    7  C7  UNL     1     -34.155  17.136  -6.162  1.00 20.00     0.300 C 
HETATM    8  C8  UNL     1     -33.267  16.118  -4.142  1.00 20.00     0.277 C 
HETATM    9  C9  UNL     1     -34.823  14.881  -5.547  1.00 20.00     0.249 C 
HETATM   10  N10 UNL     1     -33.737  15.885  -5.510  1.00 20.00     0.100 N 
ENDROOT
TORSDOF 0
ENDMDL
MODEL 6
REMARK VINA RESULT:      -4.2     12.399     14.267
REMARK  0 active torsions:
REMARK  status: ('A' for Active; 'I' for Inactive)
ROOT
HETATM    1  C1  UNL     1     -33.491  13.732  -3.816  1.00 20.00    -0.026 C 
HETATM    2  C2  UNL     1     -33.671  18.167  -5.834  1.00 20.00    -0.027 C 
HETATM    3  C3  UNL     1     -34.386  13.252  -4.690  1.00 20.00    -0.001 C 
HETATM    4  C4  UNL     1     -33.605  17.479  -4.685  1.00 20.00     0.005 C 
HETATM    5  C5  UNL     1     -34.299  17.586  -7.066  1.00 20.00     0.057 C 
HETATM    6  C6  UNL     1     -33.131  15.191  -3.777  1.00 20.00     0.066 C 
HETATM    7  C7  UNL     1     -35.048  14.133  -5.715  1.00 20.00     0.300 C 
HETATM    8  C8  UNL     1     -35.115  16.317  -6.778  1.00 20.00     0.277 C 
HETATM    9  C9  UNL     1     -34.127  16.067  -4.567  1.00 20.00     0.249 C 
HETATM   10  N10 UNL     1     -34.373  15.429  -5.879  1.00 20.00     0.100 N 
ENDROOT
TORSDOF 0
ENDMDL
MODEL 7
REMARK VINA RESULT:      -4.2     11.600     12.656
REMARK  0 active torsions:
REMARK  status: ('A' for Active; 'I' for Inactive)
ROOT
HETATM    1  C1  UNL     1     -34.989  17.614  -1.415  1.00 20.00    -0.026 C 
HETATM    2  C2  UNL     1     -33.628  13.673  -3.942  1.00 20.00    -0.027 C 
HETATM    3  C3  UNL     1     -36.204  17.608  -1.981  1.00 20.00    -0.001 C 
HETATM    4  C4  UNL     1     -33.247  14.870  -3.475  1.00 20.00     0.005 C 
HETATM    5  C5  UNL     1     -35.064  13.365  -4.245  1.00 20.00     0.057 C 
HETATM    6  C6  UNL     1     -33.912  16.661  -1.852  1.00 20.00     0.066 C 
HETATM    7  C7  UNL     1     -36.578  16.620  -3.051  1.00 20.00     0.300 C 
HETATM    8  C8  UNL     1     -35.948  14.620  -4.280  1.00 20.00     0.277 C 
HETATM    9  C9  UNL     1     -34.240  15.972  -3.194  1.00 20.00     0.249 C 
HETATM   10  N10 UNL     1     -35.639  15.492  -3.144  1.00 20.00     0.100 N 
ENDROOT
TORSDOF 0
ENDMDL
MODEL 8
REMARK VINA RESULT:      -4.2     12.444     14.194
REMARK  0 active torsions:
REMARK  status: ('A' for Active; 'I' for Inactive)
ROOT
HETATM    1  C1  UNL     1     -34.837  13.280  -4.554  1.00 20.00    -0.026 C 
HETATM    2  C2  UNL     1     -34.662  17.262  -7.362  1.00 20.00    -0.027 C 
HETATM    3  C3  UNL     1     -34.039  13.842  -3.635  1.00 20.00    -0.001 C 
HETATM    4  C4  UNL     1     -34.655  15.922  -7.346  1.00 20.00     0.005 C 
HETATM    5  C5  UNL     1     -34.163  18.067  -6.198  1.00 20.00     0.057 C 
HETATM    6  C6  UNL     1     -35.137  13.961  -5.860  1.00 20.00     0.066 C 
HETATM    7  C7  UNL     1     -33.434  15.205  -3.834  1.00 20.00     0.300 C 
HETATM    8  C8  UNL     1     -33.375  17.225  -5.184  1.00 20.00     0.277 C 
HETATM    9  C9  UNL     1     -34.179  15.138  -6.147  1.00 20.00     0.249 C 
HETATM   10  N10 UNL     1     -34.071  15.962  -4.923  1.00 20.00     0.100 N 
ENDROOT
TORSDOF 0
ENDMDL
MODEL 9
REMARK VINA RESULT:      -4.2     12.069     13.694
REMARK  0 active torsions:
REMARK  status: ('A' for Active; 'I' for Inactive)
ROOT
HETATM    1  C1  UNL     1     -34.617  16.264  -1.661  1.00 20.00    -0.026 C 
HETATM    2  C2  UNL     1     -34.501  14.819  -6.316  1.00 20.00    -0.027 C 
HETATM    3  C3  UNL     1     -34.095  17.458  -1.975  1.00 20.00    -0.001 C 
HETATM    4  C4  UNL     1     -34.303  14.453  -5.042  1.00 20.00     0.005 C 
HETATM    5  C5  UNL     1     -34.351  16.244  -6.759  1.00 20.00     0.057 C 
HETATM    6  C6  UNL     1     -34.763  15.174  -2.685  1.00 20.00     0.066 C 
HETATM    7  C7  UNL     1     -33.668  17.795  -3.378  1.00 20.00     0.300 C 
HETATM    8  C8  UNL     1     -33.653  17.124  -5.713  1.00 20.00     0.277 C 
HETATM    9  C9  UNL     1     -33.950  15.454  -3.968  1.00 20.00     0.249 C 
HETATM   10  N10 UNL     1     -34.194  16.854  -4.379  1.00 20.00     0.100 N 
ENDROOT
TORSDOF 0
ENDMDL
