MODEL 1
REMARK VINA RESULT:      -4.6      0.000      0.000
REMARK  0 active torsions:
REMARK  status: ('A' for Active; 'I' for Inactive)
ROOT
HETATM    1  C1  UNL     1     -41.554   3.613  -2.166  1.00 20.00     0.030 A 
HETATM    2  C2  UNL     1     -42.383   3.093  -3.139  1.00 20.00     0.141 A 
HETATM    3  C3  UNL     1     -41.666   4.964  -1.855  1.00 20.00    -0.030 A 
HETATM    4  C4  UNL     1     -42.629   5.707  -2.534  1.00 20.00     0.063 A 
HETATM    5  C5  UNL     1     -40.812   5.562  -0.770  1.00 20.00     0.041 C 
HETATM    6  C6  UNL     1     -42.804   7.180  -2.287  1.00 20.00     0.062 C 
HETATM    7  C7  UNL     1     -40.795   7.091  -0.793  1.00 20.00     0.005 C 
HETATM    8  C8  UNL     1     -42.208   7.640  -0.958  1.00 20.00     0.006 C 
HETATM    9  N9  UNL     1     -43.296   3.835  -3.792  1.00 20.00    -0.162 NA
HETATM   10  N10 UNL     1     -43.417   5.158  -3.487  1.00 20.00    -0.155 NA
ENDROOT
TORSDOF 0
ENDMDL
MODEL 2
REMARK VINA RESULT:      -4.5     10.356     11.164
REMARK  0 active torsions:
REMARK  status: ('A' for Active; 'I' for Inactive)
ROOT
HETATM    1  C1  UNL     1     -33.694   5.544   2.620  1.00 20.00     0.030 A 
HETATM    2  C2  UNL     1     -32.738   6.458   2.227  1.00 20.00     0.141 A 
HETATM    3  C3  UNL     1     -34.022   5.469   3.969  1.00 20.00    -0.030 A 
HETATM    4  C4  UNL     1     -33.377   6.342   4.842  1.00 20.00     0.063 A 
HETATM    5  C5  UNL     1     -35.090   4.516   4.434  1.00 20.00     0.041 C 
HETATM    6  C6  UNL     1     -33.645   6.315   6.322  1.00 20.00     0.062 C 
HETATM    7  C7  UNL     1     -35.083   4.299   5.948  1.00 20.00     0.005 C 
HETATM    8  C8  UNL     1     -34.962   5.630   6.680  1.00 20.00     0.006 C 
HETATM    9  N9  UNL     1     -32.117   7.282   3.092  1.00 20.00    -0.162 NA
HETATM   10  N10 UNL     1     -32.439   7.220   4.415  1.00 20.00    -0.155 NA
ENDROOT
TORSDOF 0
ENDMDL
MODEL 3
REMARK VINA RESULT:      -4.5      9.879     11.026
REMARK  0 active torsions:
REMARK  status: ('A' for Active; 'I' for Inactive)
ROOT
HETATM    1  C1  UNL     1     -32.500   7.222   4.297  1.00 20.00     0.030 A 
HETATM    2  C2  UNL     1     -32.275   7.194   2.936  1.00 20.00     0.141 A 
HETATM    3  C3  UNL     1     -33.438   6.344   4.830  1.00 20.00    -0.030 A 
HETATM    4  C4  UNL     1     -34.079   5.470   3.955  1.00 20.00     0.063 A 
HETATM    5  C5  UNL     1     -33.683   6.312   6.315  1.00 20.00     0.041 C 
HETATM    6  C6  UNL     1     -35.128   4.506   4.434  1.00 20.00     0.062 C 
HETATM    7  C7  UNL     1     -34.964   5.569   6.696  1.00 20.00     0.005 C 
HETATM    8  C8  UNL     1     -35.065   4.250   5.938  1.00 20.00     0.006 C 
HETATM    9  N9  UNL     1     -32.918   6.350   2.108  1.00 20.00    -0.162 NA
HETATM   10  N10 UNL     1     -33.832   5.481   2.624  1.00 20.00    -0.155 NA
ENDROOT
TORSDOF 0
ENDMDL
MODEL 4
REMARK VINA RESULT:      -4.5     11.799     12.841
REMARK  0 active torsions:
REMARK  status: ('A' for Active; 'I' for Inactive)
ROOT
HETATM    1  C1  UNL     1     -33.751  15.106  -4.040  1.00 20.00     0.030 A 
HETATM    2  C2  UNL     1     -33.894  13.858  -3.469  1.00 20.00     0.141 A 
HETATM    3  C3  UNL     1     -34.285  15.318  -5.307  1.00 20.00    -0.030 A 
HETATM    4  C4  UNL     1     -34.953  14.257  -5.914  1.00 20.00     0.063 A 
HETATM    5  C5  UNL     1     -34.190  16.675  -5.949  1.00 20.00     0.041 C 
HETATM    6  C6  UNL     1     -35.538  14.382  -7.294  1.00 20.00     0.062 C 
HETATM    7  C7  UNL     1     -34.496  16.654  -7.447  1.00 20.00     0.005 C 
HETATM    8  C8  UNL     1     -35.748  15.831  -7.727  1.00 20.00     0.006 C 
HETATM    9  N9  UNL     1     -34.531  12.844  -4.082  1.00 20.00    -0.162 NA
HETATM   10  N10 UNL     1     -35.064  13.046  -5.319  1.00 20.00    -0.155 NA
ENDROOT
TORSDOF 0
ENDMDL
MODEL 5
REMARK VINA RESULT:      -4.4     12.590     13.929
REMARK  0 active torsions:
REMARK  status: ('A' for Active; 'I' for Inactive)
ROOT
HETATM    1  C1  UNL     1     -34.824  16.383  -6.898  1.00 20.00     0.030 A 
HETATM    2  C2  UNL     1     -34.300  17.659  -6.861  1.00 20.00     0.141 A 
HETATM    3  C3  UNL     1     -34.505  15.507  -5.867  1.00 20.00    -0.030 A 
HETATM    4  C4  UNL     1     -33.688  15.982  -4.843  1.00 20.00     0.063 A 
HETATM    5  C5  UNL     1     -35.089  14.121  -5.846  1.00 20.00     0.041 C 
HETATM    6  C6  UNL     1     -33.265  15.101  -3.701  1.00 20.00     0.062 C 
HETATM    7  C7  UNL     1     -34.378  13.184  -4.868  1.00 20.00     0.005 C 
HETATM    8  C8  UNL     1     -34.159  13.875  -3.527  1.00 20.00     0.006 C 
HETATM    9  N9  UNL     1     -33.501  18.091  -5.868  1.00 20.00    -0.162 NA
HETATM   10  N10 UNL     1     -33.190  17.241  -4.849  1.00 20.00    -0.155 NA
ENDROOT
TORSDOF 0
ENDMDL
MODEL 6
REMARK VINA RESULT:      -4.3     10.972     12.145
REMARK  0 active torsions:
REMARK  status: ('A' for Active; 'I' for Inactive)
ROOT
HETATM    1  C1  UNL     1     -37.483  16.558  -3.196  1.00 20.00     0.030 A 
HETATM    2  C2  UNL     1     -38.454  15.651  -3.568  1.00 20.00     0.141 A 
HETATM    3  C3  UNL     1     -36.160  16.130  -3.159  1.00 20.00    -0.030 A 
HETATM    4  C4  UNL     1     -35.894  14.812  -3.523  1.00 20.00     0.063 A 
HETATM    5  C5  UNL     1     -35.064  17.097  -2.801  1.00 20.00     0.041 C 
HETATM    6  C6  UNL     1     -34.499  14.251  -3.486  1.00 20.00     0.062 C 
HETATM    7  C7  UNL     1     -33.741  16.408  -2.462  1.00 20.00     0.005 C 
HETATM    8  C8  UNL     1     -33.419  15.331  -3.492  1.00 20.00     0.006 C 
HETATM    9  N9  UNL     1     -38.175  14.378  -3.901  1.00 20.00    -0.162 NA
HETATM   10  N10 UNL     1     -36.880  13.954  -3.876  1.00 20.00    -0.155 NA
ENDROOT
TORSDOF 0
ENDMDL
MODEL 7
REMARK VINA RESULT:      -4.3      1.147      3.020
REMARK  0 active torsions:
REMARK  status: ('A' for Active; 'I' for Inactive)
ROOT
HETATM    1  C1  UNL     1     -42.329   8.106  -2.162  1.00 20.00     0.030 A 
HETATM    2  C2  UNL     1     -43.067   8.231  -3.321  1.00 20.00     0.141 A 
HETATM    3  C3  UNL     1     -41.938   6.833  -1.761  1.00 20.00    -0.030 A 
HETATM    4  C4  UNL     1     -42.300   5.759  -2.571  1.00 20.00     0.063 A 
HETATM    5  C5  UNL     1     -41.096   6.655  -0.527  1.00 20.00     0.041 C 
HETATM    6  C6  UNL     1     -41.949   4.343  -2.205  1.00 20.00     0.062 C 
HETATM    7  C7  UNL     1     -41.053   5.209  -0.032  1.00 20.00     0.005 C 
HETATM    8  C8  UNL     1     -40.809   4.252  -1.193  1.00 20.00     0.006 C 
HETATM    9  N9  UNL     1     -43.417   7.176  -4.080  1.00 20.00    -0.162 NA
HETATM   10  N10 UNL     1     -43.032   5.926  -3.698  1.00 20.00    -0.155 NA
ENDROOT
TORSDOF 0
ENDMDL
MODEL 8
REMARK VINA RESULT:      -4.3     11.574     12.833
REMARK  0 active torsions:
REMARK  status: ('A' for Active; 'I' for Inactive)
ROOT
HETATM    1  C1  UNL     1     -34.739  14.810  -5.909  1.00 20.00     0.030 A 
HETATM    2  C2  UNL     1     -34.770  13.439  -5.760  1.00 20.00     0.141 A 
HETATM    3  C3  UNL     1     -34.584  15.595  -4.771  1.00 20.00    -0.030 A 
HETATM    4  C4  UNL     1     -34.448  14.943  -3.547  1.00 20.00     0.063 A 
HETATM    5  C5  UNL     1     -34.502  17.093  -4.892  1.00 20.00     0.041 C 
HETATM    6  C6  UNL     1     -34.306  15.707  -2.260  1.00 20.00     0.062 C 
HETATM    7  C7  UNL     1     -34.690  17.815  -3.557  1.00 20.00     0.005 C 
HETATM    8  C8  UNL     1     -33.856  17.151  -2.467  1.00 20.00     0.006 C 
HETATM    9  N9  UNL     1     -34.651  12.832  -4.565  1.00 20.00    -0.162 NA
HETATM   10  N10 UNL     1     -34.492  13.593  -3.446  1.00 20.00    -0.155 NA
ENDROOT
TORSDOF 0
ENDMDL
MODEL 9
REMARK VINA RESULT:      -4.3     11.915     13.199
REMARK  0 active torsions:
REMARK  status: ('A' for Active; 'I' for Inactive)
ROOT
HETATM    1  C1  UNL     1     -34.292  16.630  -6.790  1.00 20.00     0.030 A 
HETATM    2  C2  UNL     1     -35.041  16.185  -7.860  1.00 20.00     0.141 A 
HETATM    3  C3  UNL     1     -34.078  15.761  -5.726  1.00 20.00    -0.030 A 
HETATM    4  C4  UNL     1     -34.618  14.480  -5.817  1.00 20.00     0.063 A 
HETATM    5  C5  UNL     1     -33.230  16.190  -4.559  1.00 20.00     0.041 C 
HETATM    6  C6  UNL     1     -34.465  13.481  -4.704  1.00 20.00     0.062 C 
HETATM    7  C7  UNL     1     -33.382  15.280  -3.339  1.00 20.00     0.005 C 
HETATM    8  C8  UNL     1     -33.318  13.815  -3.753  1.00 20.00     0.006 C 
HETATM    9  N9  UNL     1     -35.566  14.947  -7.918  1.00 20.00    -0.162 NA
HETATM   10  N10 UNL     1     -35.354  14.087  -6.883  1.00 20.00    -0.155 NA
ENDROOT
TORSDOF 0
ENDMDL
