MODEL 1
REMARK VINA RESULT:      -4.5      0.000      0.000
REMARK  0 active torsions:
REMARK  status: ('A' for Active; 'I' for Inactive)
ROOT
HETATM    1  C1  UNL     1     -34.308  13.778  -4.349  1.00 20.00     0.066 C 
HETATM    2  C2  UNL     1     -35.087  17.154  -1.705  1.00 20.00     0.032 C 
HETATM    3  C3  UNL     1     -34.895  15.745  -2.228  1.00 20.00     0.039 C 
HETATM    4  C4  UNL     1     -34.129  16.023  -5.417  1.00 20.00     0.051 C 
HETATM    5  C5  UNL     1     -34.720  17.985  -2.918  1.00 20.00     0.273 C 
HETATM    6  C6  UNL     1     -33.539  17.346  -4.957  1.00 20.00     0.274 C 
HETATM    7  C7  UNL     1     -33.585  15.051  -4.383  1.00 20.00     0.128 C 
HETATM    8  C8  UNL     1     -33.634  15.862  -3.087  1.00 20.00     0.240 C 
HETATM    9  N9  UNL     1     -34.881  12.769  -4.322  1.00 20.00    -0.197 NA
HETATM   10  N10 UNL     1     -33.554  17.294  -3.488  1.00 20.00     0.094 N 
ENDROOT
TORSDOF 0
ENDMDL
MODEL 2
REMARK VINA RESULT:      -4.3      2.111      2.985
REMARK  0 active torsions:
REMARK  status: ('A' for Active; 'I' for Inactive)
ROOT
HETATM    1  C1  UNL     1     -37.427  14.875  -4.220  1.00 20.00     0.066 C 
HETATM    2  C2  UNL     1     -33.263  13.692  -3.716  1.00 20.00     0.032 C 
HETATM    3  C3  UNL     1     -34.763  13.640  -3.922  1.00 20.00     0.039 C 
HETATM    4  C4  UNL     1     -35.816  16.758  -3.954  1.00 20.00     0.051 C 
HETATM    5  C5  UNL     1     -33.002  15.184  -3.734  1.00 20.00     0.273 C 
HETATM    6  C6  UNL     1     -34.422  17.015  -4.502  1.00 20.00     0.274 C 
HETATM    7  C7  UNL     1     -36.281  15.581  -4.796  1.00 20.00     0.128 C 
HETATM    8  C8  UNL     1     -35.011  14.744  -4.951  1.00 20.00     0.240 C 
HETATM    9  N9  UNL     1     -38.335  14.314  -3.763  1.00 20.00    -0.197 NA
HETATM   10  N10 UNL     1     -33.869  15.689  -4.809  1.00 20.00     0.094 N 
ENDROOT
TORSDOF 0
ENDMDL
MODEL 3
REMARK VINA RESULT:      -4.2      1.107      2.568
REMARK  0 active torsions:
REMARK  status: ('A' for Active; 'I' for Inactive)
ROOT
HETATM    1  C1  UNL     1     -34.905  13.745  -4.173  1.00 20.00     0.066 C 
HETATM    2  C2  UNL     1     -34.217  17.345  -6.529  1.00 20.00     0.032 C 
HETATM    3  C3  UNL     1     -34.672  15.964  -6.104  1.00 20.00     0.039 C 
HETATM    4  C4  UNL     1     -33.671  15.562  -2.995  1.00 20.00     0.051 C 
HETATM    5  C5  UNL     1     -33.614  17.879  -5.246  1.00 20.00     0.273 C 
HETATM    6  C6  UNL     1     -33.839  17.072  -2.953  1.00 20.00     0.274 C 
HETATM    7  C7  UNL     1     -34.966  15.111  -3.650  1.00 20.00     0.128 C 
HETATM    8  C8  UNL     1     -35.220  16.198  -4.696  1.00 20.00     0.240 C 
HETATM    9  N9  UNL     1     -34.857  12.662  -4.588  1.00 20.00    -0.197 NA
HETATM   10  N10 UNL     1     -34.539  17.424  -4.197  1.00 20.00     0.094 N 
ENDROOT
TORSDOF 0
ENDMDL
MODEL 4
REMARK VINA RESULT:      -4.2      1.703      2.202
REMARK  0 active torsions:
REMARK  status: ('A' for Active; 'I' for Inactive)
ROOT
HETATM    1  C1  UNL     1     -35.275  13.728  -4.523  1.00 20.00     0.066 C 
HETATM    2  C2  UNL     1     -33.977  16.832  -1.753  1.00 20.00     0.032 C 
HETATM    3  C3  UNL     1     -33.968  15.675  -2.731  1.00 20.00     0.039 C 
HETATM    4  C4  UNL     1     -37.101  15.144  -3.588  1.00 20.00     0.051 C 
HETATM    5  C5  UNL     1     -35.441  17.222  -1.752  1.00 20.00     0.273 C 
HETATM    6  C6  UNL     1     -37.221  16.634  -3.316  1.00 20.00     0.274 C 
HETATM    7  C7  UNL     1     -35.848  15.073  -4.446  1.00 20.00     0.128 C 
HETATM    8  C8  UNL     1     -34.941  16.132  -3.819  1.00 20.00     0.240 C 
HETATM    9  N9  UNL     1     -34.820  12.662  -4.584  1.00 20.00    -0.197 NA
HETATM   10  N10 UNL     1     -35.842  17.119  -3.163  1.00 20.00     0.094 N 
ENDROOT
TORSDOF 0
ENDMDL
MODEL 5
REMARK VINA RESULT:      -4.1      1.792      1.848
REMARK  0 active torsions:
REMARK  status: ('A' for Active; 'I' for Inactive)
ROOT
HETATM    1  C1  UNL     1     -36.968  14.575  -4.087  1.00 20.00     0.066 C 
HETATM    2  C2  UNL     1     -33.994  16.837  -1.843  1.00 20.00     0.032 C 
HETATM    3  C3  UNL     1     -35.099  15.864  -2.201  1.00 20.00     0.039 C 
HETATM    4  C4  UNL     1     -35.622  16.183  -5.434  1.00 20.00     0.051 C 
HETATM    5  C5  UNL     1     -33.621  17.392  -3.203  1.00 20.00     0.273 C 
HETATM    6  C6  UNL     1     -34.149  16.557  -5.436  1.00 20.00     0.274 C 
HETATM    7  C7  UNL     1     -35.635  14.925  -4.582  1.00 20.00     0.128 C 
HETATM    8  C8  UNL     1     -34.598  15.231  -3.500  1.00 20.00     0.240 C 
HETATM    9  N9  UNL     1     -38.024  14.298  -3.694  1.00 20.00    -0.197 NA
HETATM   10  N10 UNL     1     -33.657  16.221  -4.092  1.00 20.00     0.094 N 
ENDROOT
TORSDOF 0
ENDMDL
MODEL 6
REMARK VINA RESULT:      -4.1      1.791      2.900
REMARK  0 active torsions:
REMARK  status: ('A' for Active; 'I' for Inactive)
ROOT
HETATM    1  C1  UNL     1     -36.868  14.754  -3.568  1.00 20.00     0.066 C 
HETATM    2  C2  UNL     1     -34.484  17.421  -6.056  1.00 20.00     0.032 C 
HETATM    3  C3  UNL     1     -35.655  16.771  -5.349  1.00 20.00     0.039 C 
HETATM    4  C4  UNL     1     -34.418  14.296  -3.566  1.00 20.00     0.051 C 
HETATM    5  C5  UNL     1     -33.312  16.647  -5.487  1.00 20.00     0.273 C 
HETATM    6  C6  UNL     1     -33.195  15.196  -3.527  1.00 20.00     0.274 C 
HETATM    7  C7  UNL     1     -35.540  15.260  -3.217  1.00 20.00     0.128 C 
HETATM    8  C8  UNL     1     -35.123  16.547  -3.932  1.00 20.00     0.240 C 
HETATM    9  N9  UNL     1     -37.921  14.354  -3.846  1.00 20.00    -0.197 NA
HETATM   10  N10 UNL     1     -33.642  16.490  -4.063  1.00 20.00     0.094 N 
ENDROOT
TORSDOF 0
ENDMDL
MODEL 7
REMARK VINA RESULT:      -4.0      1.210      3.914
REMARK  0 active torsions:
REMARK  status: ('A' for Active; 'I' for Inactive)
ROOT
HETATM    1  C1  UNL     1     -33.777  17.330  -2.639  1.00 20.00     0.066 C 
HETATM    2  C2  UNL     1     -34.066  15.776  -6.700  1.00 20.00     0.032 C 
HETATM    3  C3  UNL     1     -33.718  16.645  -5.509  1.00 20.00     0.039 C 
HETATM    4  C4  UNL     1     -35.038  15.192  -2.867  1.00 20.00     0.051 C 
HETATM    5  C5  UNL     1     -34.768  14.609  -6.034  1.00 20.00     0.273 C 
HETATM    6  C6  UNL     1     -34.806  13.934  -3.689  1.00 20.00     0.274 C 
HETATM    7  C7  UNL     1     -33.705  15.913  -2.999  1.00 20.00     0.128 C 
HETATM    8  C8  UNL     1     -33.301  15.628  -4.446  1.00 20.00     0.240 C 
HETATM    9  N9  UNL     1     -33.832  18.454  -2.354  1.00 20.00    -0.197 NA
HETATM   10  N10 UNL     1     -33.973  14.354  -4.824  1.00 20.00     0.094 N 
ENDROOT
TORSDOF 0
ENDMDL
MODEL 8
REMARK VINA RESULT:      -4.0      1.589      3.295
REMARK  0 active torsions:
REMARK  status: ('A' for Active; 'I' for Inactive)
ROOT
HETATM    1  C1  UNL     1     -34.515  16.105  -1.696  1.00 20.00     0.066 C 
HETATM    2  C2  UNL     1     -33.659  17.680  -5.668  1.00 20.00     0.032 C 
HETATM    3  C3  UNL     1     -33.671  17.483  -4.166  1.00 20.00     0.039 C 
HETATM    4  C4  UNL     1     -35.590  14.874  -3.578  1.00 20.00     0.051 C 
HETATM    5  C5  UNL     1     -34.468  16.489  -6.142  1.00 20.00     0.273 C 
HETATM    6  C6  UNL     1     -35.102  14.453  -4.955  1.00 20.00     0.274 C 
HETATM    7  C7  UNL     1     -34.298  15.287  -2.891  1.00 20.00     0.128 C 
HETATM    8  C8  UNL     1     -33.514  15.969  -4.013  1.00 20.00     0.240 C 
HETATM    9  N9  UNL     1     -34.686  16.753  -0.749  1.00 20.00    -0.197 NA
HETATM   10  N10 UNL     1     -34.013  15.382  -5.287  1.00 20.00     0.094 N 
ENDROOT
TORSDOF 0
ENDMDL
MODEL 9
REMARK VINA RESULT:      -4.0      1.852      3.679
REMARK  0 active torsions:
REMARK  status: ('A' for Active; 'I' for Inactive)
ROOT
HETATM    1  C1  UNL     1     -35.070  16.355  -1.928  1.00 20.00     0.066 C 
HETATM    2  C2  UNL     1     -34.408  13.197  -4.857  1.00 20.00     0.032 C 
HETATM    3  C3  UNL     1     -34.507  13.953  -3.548  1.00 20.00     0.039 C 
HETATM    4  C4  UNL     1     -35.545  16.986  -4.292  1.00 20.00     0.051 C 
HETATM    5  C5  UNL     1     -34.947  14.215  -5.842  1.00 20.00     0.273 C 
HETATM    6  C6  UNL     1     -36.219  16.260  -5.444  1.00 20.00     0.274 C 
HETATM    7  C7  UNL     1     -35.911  16.114  -3.102  1.00 20.00     0.128 C 
HETATM    8  C8  UNL     1     -35.836  14.698  -3.677  1.00 20.00     0.240 C 
HETATM    9  N9  UNL     1     -34.403  16.545  -0.997  1.00 20.00    -0.197 NA
HETATM   10  N10 UNL     1     -36.084  14.828  -5.139  1.00 20.00     0.094 N 
ENDROOT
TORSDOF 0
ENDMDL
