MODEL 1
REMARK VINA RESULT:      -4.7      0.000      0.000
REMARK  1 active torsions:
REMARK  status: ('A' for Active; 'I' for Inactive)
REMARK    1  A    between atoms: C3_3  and  C5_5 
ROOT
HETATM    1  C1  UNL     1     -34.038  15.899  -6.189  1.00 20.00     0.034 A 
HETATM    2  C2  UNL     1     -33.681  17.083  -5.578  1.00 20.00     0.092 A 
HETATM    3  C3  UNL     1     -34.503  15.022  -5.177  1.00 20.00     0.025 A 
HETATM    4  C4  UNL     1     -34.418  15.691  -3.972  1.00 20.00     0.024 A 
HETATM    5  C6  UNL     1     -34.739  15.252  -2.583  1.00 20.00     0.058 C 
HETATM    6  C7  UNL     1     -34.879  16.437  -1.625  1.00 20.00     0.008 C 
HETATM    7  C8  UNL     1     -33.731  17.428  -1.814  1.00 20.00     0.021 C 
HETATM    8  C9  UNL     1     -33.722  17.978  -3.239  1.00 20.00     0.128 C 
HETATM    9  N10 UNL     1     -33.914  16.942  -4.238  1.00 20.00    -0.359 N 
ENDROOT
BRANCH   3  10
HETATM   10  C5  UNL     1     -34.976  13.676  -5.340  1.00 20.00     0.272 C 
HETATM   11  O11 UNL     1     -34.463  12.690  -4.781  1.00 20.00    -0.301 OA
ENDBRANCH   3  10
TORSDOF 1
ENDMDL
MODEL 2
REMARK VINA RESULT:      -4.5      2.072      2.354
REMARK  1 active torsions:
REMARK  status: ('A' for Active; 'I' for Inactive)
REMARK    1  A    between atoms: C3_3  and  C5_5 
ROOT
HETATM    1  C1  UNL     1     -36.759  14.835  -4.519  1.00 20.00     0.034 A 
HETATM    2  C2  UNL     1     -37.344  15.994  -4.054  1.00 20.00     0.092 A 
HETATM    3  C3  UNL     1     -35.555  14.647  -3.795  1.00 20.00     0.025 A 
HETATM    4  C4  UNL     1     -35.433  15.697  -2.905  1.00 20.00     0.024 A 
HETATM    5  C6  UNL     1     -34.361  16.029  -1.922  1.00 20.00     0.058 C 
HETATM    6  C7  UNL     1     -34.834  17.043  -0.879  1.00 20.00     0.008 C 
HETATM    7  C8  UNL     1     -35.577  18.201  -1.545  1.00 20.00     0.021 C 
HETATM    8  C9  UNL     1     -36.808  17.693  -2.293  1.00 20.00     0.128 C 
HETATM    9  N10 UNL     1     -36.531  16.505  -3.080  1.00 20.00    -0.359 N 
ENDROOT
BRANCH   3  10
HETATM   10  C5  UNL     1     -34.609  13.577  -3.940  1.00 20.00     0.272 C 
HETATM   11  O11 UNL     1     -34.827  12.546  -4.602  1.00 20.00    -0.301 OA
ENDBRANCH   3  10
TORSDOF 1
ENDMDL
MODEL 3
REMARK VINA RESULT:      -4.3      1.860      3.603
REMARK  1 active torsions:
REMARK  status: ('A' for Active; 'I' for Inactive)
REMARK    1  A    between atoms: C3_3  and  C5_5 
ROOT
HETATM    1  C1  UNL     1     -33.686  17.963  -3.852  1.00 20.00     0.034 A 
HETATM    2  C2  UNL     1     -33.852  17.533  -5.151  1.00 20.00     0.092 A 
HETATM    3  C3  UNL     1     -33.871  16.841  -3.004  1.00 20.00     0.025 A 
HETATM    4  C4  UNL     1     -34.145  15.752  -3.808  1.00 20.00     0.024 A 
HETATM    5  C6  UNL     1     -34.451  14.333  -3.464  1.00 20.00     0.058 C 
HETATM    6  C7  UNL     1     -34.286  13.402  -4.667  1.00 20.00     0.008 C 
HETATM    7  C8  UNL     1     -34.952  13.996  -5.908  1.00 20.00     0.021 C 
HETATM    8  C9  UNL     1     -34.321  15.340  -6.268  1.00 20.00     0.128 C 
HETATM    9  N10 UNL     1     -34.130  16.195  -5.109  1.00 20.00    -0.359 N 
ENDROOT
BRANCH   3  10
HETATM   10  C5  UNL     1     -33.800  16.811  -1.571  1.00 20.00     0.272 C 
HETATM   11  O11 UNL     1     -34.756  16.505  -0.837  1.00 20.00    -0.301 OA
ENDBRANCH   3  10
TORSDOF 1
ENDMDL
MODEL 4
REMARK VINA RESULT:      -4.3      1.139      3.029
REMARK  1 active torsions:
REMARK  status: ('A' for Active; 'I' for Inactive)
REMARK    1  A    between atoms: C3_3  and  C5_5 
ROOT
HETATM    1  C1  UNL     1     -34.050  15.425  -2.956  1.00 20.00     0.034 A 
HETATM    2  C2  UNL     1     -33.624  16.674  -3.354  1.00 20.00     0.092 A 
HETATM    3  C3  UNL     1     -34.673  14.811  -4.072  1.00 20.00     0.025 A 
HETATM    4  C4  UNL     1     -34.613  15.702  -5.126  1.00 20.00     0.024 A 
HETATM    5  C6  UNL     1     -35.130  15.605  -6.522  1.00 20.00     0.058 C 
HETATM    6  C7  UNL     1     -34.488  16.642  -7.446  1.00 20.00     0.008 C 
HETATM    7  C8  UNL     1     -34.468  18.020  -6.785  1.00 20.00     0.021 C 
HETATM    8  C9  UNL     1     -33.660  17.985  -5.488  1.00 20.00     0.128 C 
HETATM    9  N10 UNL     1     -33.973  16.829  -4.668  1.00 20.00    -0.359 N 
ENDROOT
BRANCH   3  10
HETATM   10  C5  UNL     1     -35.272  13.508  -4.129  1.00 20.00     0.272 C 
HETATM   11  O11 UNL     1     -34.810  12.561  -4.790  1.00 20.00    -0.301 OA
ENDBRANCH   3  10
TORSDOF 1
ENDMDL
MODEL 5
REMARK VINA RESULT:      -4.3      2.116      4.188
REMARK  1 active torsions:
REMARK  status: ('A' for Active; 'I' for Inactive)
REMARK    1  A    between atoms: C3_3  and  C5_5 
ROOT
HETATM    1  C1  UNL     1     -34.305  13.722  -3.609  1.00 20.00     0.034 A 
HETATM    2  C2  UNL     1     -34.751  13.248  -4.824  1.00 20.00     0.092 A 
HETATM    3  C3  UNL     1     -34.073  15.114  -3.755  1.00 20.00     0.025 A 
HETATM    4  C4  UNL     1     -34.384  15.455  -5.057  1.00 20.00     0.024 A 
HETATM    5  C6  UNL     1     -34.303  16.761  -5.774  1.00 20.00     0.058 C 
HETATM    6  C7  UNL     1     -35.122  16.757  -7.066  1.00 20.00     0.008 C 
HETATM    7  C8  UNL     1     -34.864  15.484  -7.870  1.00 20.00     0.021 C 
HETATM    8  C9  UNL     1     -35.259  14.247  -7.064  1.00 20.00     0.128 C 
HETATM    9  N10 UNL     1     -34.792  14.305  -5.690  1.00 20.00    -0.359 N 
ENDROOT
BRANCH   3  10
HETATM   10  C5  UNL     1     -33.598  16.027  -2.756  1.00 20.00     0.272 C 
HETATM   11  O11 UNL     1     -34.228  16.312  -1.721  1.00 20.00    -0.301 OA
ENDBRANCH   3  10
TORSDOF 1
ENDMDL
MODEL 6
REMARK VINA RESULT:      -4.3     12.016     13.242
REMARK  1 active torsions:
REMARK  status: ('A' for Active; 'I' for Inactive)
REMARK    1  A    between atoms: C3_3  and  C5_5 
ROOT
HETATM    1  C1  UNL     1     -40.630   4.292  -1.023  1.00 20.00     0.034 A 
HETATM    2  C2  UNL     1     -40.667   5.603  -0.601  1.00 20.00     0.092 A 
HETATM    3  C3  UNL     1     -41.561   4.159  -2.084  1.00 20.00     0.025 A 
HETATM    4  C4  UNL     1     -42.146   5.394  -2.283  1.00 20.00     0.024 A 
HETATM    5  C6  UNL     1     -43.207   5.834  -3.236  1.00 20.00     0.058 C 
HETATM    6  C7  UNL     1     -43.251   7.356  -3.382  1.00 20.00     0.008 C 
HETATM    7  C8  UNL     1     -43.193   8.035  -2.015  1.00 20.00     0.021 C 
HETATM    8  C9  UNL     1     -41.899   7.674  -1.287  1.00 20.00     0.128 C 
HETATM    9  N10 UNL     1     -41.590   6.258  -1.370  1.00 20.00    -0.359 N 
ENDROOT
BRANCH   3  10
HETATM   10  C5  UNL     1     -41.869   2.972  -2.830  1.00 20.00     0.272 C 
HETATM   11  O11 UNL     1     -41.036   2.348  -3.512  1.00 20.00    -0.301 OA
ENDBRANCH   3  10
TORSDOF 1
ENDMDL
MODEL 7
REMARK VINA RESULT:      -4.1      2.729      3.709
REMARK  1 active torsions:
REMARK  status: ('A' for Active; 'I' for Inactive)
REMARK    1  A    between atoms: C3_3  and  C5_5 
ROOT
HETATM    1  C1  UNL     1     -35.188  15.591  -7.735  1.00 20.00     0.034 A 
HETATM    2  C2  UNL     1     -35.263  14.362  -7.115  1.00 20.00     0.092 A 
HETATM    3  C3  UNL     1     -34.496  16.468  -6.862  1.00 20.00     0.025 A 
HETATM    4  C4  UNL     1     -34.165  15.752  -5.727  1.00 20.00     0.024 A 
HETATM    5  C6  UNL     1     -33.466  16.167  -4.476  1.00 20.00     0.058 C 
HETATM    6  C7  UNL     1     -32.962  14.964  -3.675  1.00 20.00     0.008 C 
HETATM    7  C8  UNL     1     -34.046  13.892  -3.567  1.00 20.00     0.021 C 
HETATM    8  C9  UNL     1     -34.451  13.392  -4.953  1.00 20.00     0.128 C 
HETATM    9  N10 UNL     1     -34.642  14.474  -5.901  1.00 20.00    -0.359 N 
ENDROOT
BRANCH   3  10
HETATM   10  C5  UNL     1     -34.186  17.852  -7.082  1.00 20.00     0.272 C 
HETATM   11  O11 UNL     1     -34.791  18.792  -6.535  1.00 20.00    -0.301 OA
ENDBRANCH   3  10
TORSDOF 1
ENDMDL
MODEL 8
REMARK VINA RESULT:      -4.1     12.013     13.484
REMARK  1 active torsions:
REMARK  status: ('A' for Active; 'I' for Inactive)
REMARK    1  A    between atoms: C3_3  and  C5_5 
ROOT
HETATM    1  C1  UNL     1     -43.417   4.547  -3.477  1.00 20.00     0.034 A 
HETATM    2  C2  UNL     1     -43.417   5.872  -3.096  1.00 20.00     0.092 A 
HETATM    3  C3  UNL     1     -42.407   3.889  -2.731  1.00 20.00     0.025 A 
HETATM    4  C4  UNL     1     -41.814   4.829  -1.910  1.00 20.00     0.024 A 
HETATM    5  C6  UNL     1     -40.687   4.711  -0.941  1.00 20.00     0.058 C 
HETATM    6  C7  UNL     1     -40.638   5.894   0.029  1.00 20.00     0.008 C 
HETATM    7  C8  UNL     1     -40.803   7.217  -0.719  1.00 20.00     0.021 C 
HETATM    8  C9  UNL     1     -42.147   7.263  -1.445  1.00 20.00     0.128 C 
HETATM    9  N10 UNL     1     -42.442   6.028  -2.150  1.00 20.00    -0.359 N 
ENDROOT
BRANCH   3  10
HETATM   10  C5  UNL     1     -42.039   2.503  -2.796  1.00 20.00     0.272 C 
HETATM   11  O11 UNL     1     -41.290   2.026  -3.668  1.00 20.00    -0.301 OA
ENDBRANCH   3  10
TORSDOF 1
ENDMDL
MODEL 9
REMARK VINA RESULT:      -4.1      1.693      2.722
REMARK  1 active torsions:
REMARK  status: ('A' for Active; 'I' for Inactive)
REMARK    1  A    between atoms: C3_3  and  C5_5 
ROOT
HETATM    1  C1  UNL     1     -34.755  13.266  -4.977  1.00 20.00     0.034 A 
HETATM    2  C2  UNL     1     -34.303  13.775  -3.778  1.00 20.00     0.092 A 
HETATM    3  C3  UNL     1     -34.853  14.347  -5.889  1.00 20.00     0.025 A 
HETATM    4  C4  UNL     1     -34.458  15.492  -5.223  1.00 20.00     0.024 A 
HETATM    5  C6  UNL     1     -34.390  16.913  -5.674  1.00 20.00     0.058 C 
HETATM    6  C7  UNL     1     -33.521  17.767  -4.749  1.00 20.00     0.008 C 
HETATM    7  C8  UNL     1     -33.860  17.497  -3.283  1.00 20.00     0.021 C 
HETATM    8  C9  UNL     1     -33.613  16.030  -2.933  1.00 20.00     0.128 C 
HETATM    9  N10 UNL     1     -34.130  15.122  -3.941  1.00 20.00    -0.359 N 
ENDROOT
BRANCH   3  10
HETATM   10  C5  UNL     1     -35.285  14.297  -7.256  1.00 20.00     0.272 C 
HETATM   11  O11 UNL     1     -36.411  14.662  -7.641  1.00 20.00    -0.301 OA
ENDBRANCH   3  10
TORSDOF 1
ENDMDL
