MODEL 1
REMARK VINA RESULT:      -5.0      0.000      0.000
REMARK  0 active torsions:
REMARK  status: ('A' for Active; 'I' for Inactive)
ROOT
HETATM    1  C1  UNL     1     -34.508  13.976  -4.512  1.00 20.00     0.101 C 
HETATM    2  C2  UNL     1     -33.712  16.159  -5.540  1.00 20.00     0.042 A 
HETATM    3  C3  UNL     1     -33.465  17.421  -5.045  1.00 20.00     0.092 A 
HETATM    4  C4  UNL     1     -34.150  15.354  -4.459  1.00 20.00     0.068 A 
HETATM    5  C5  UNL     1     -34.159  16.146  -3.327  1.00 20.00     0.032 A 
HETATM    6  C6  UNL     1     -34.499  15.823  -1.910  1.00 20.00     0.059 C 
HETATM    7  C7  UNL     1     -34.763  17.084  -1.084  1.00 20.00     0.008 C 
HETATM    8  C8  UNL     1     -33.683  18.136  -1.339  1.00 20.00     0.021 C 
HETATM    9  C9  UNL     1     -33.661  18.540  -2.812  1.00 20.00     0.128 C 
HETATM   10  N10 UNL     1     -34.800  12.854  -4.556  1.00 20.00    -0.191 NA
HETATM   11  N11 UNL     1     -33.738  17.397  -3.705  1.00 20.00    -0.359 N 
ENDROOT
TORSDOF 0
ENDMDL
MODEL 2
REMARK VINA RESULT:      -4.7      2.024      2.458
REMARK  0 active torsions:
REMARK  status: ('A' for Active; 'I' for Inactive)
ROOT
HETATM    1  C1  UNL     1     -35.388  13.613  -4.267  1.00 20.00     0.101 C 
HETATM    2  C2  UNL     1     -37.383  15.185  -4.293  1.00 20.00     0.042 A 
HETATM    3  C3  UNL     1     -37.685  16.367  -3.652  1.00 20.00     0.092 A 
HETATM    4  C4  UNL     1     -36.099  14.777  -3.855  1.00 20.00     0.068 A 
HETATM    5  C5  UNL     1     -35.646  15.722  -2.956  1.00 20.00     0.032 A 
HETATM    6  C6  UNL     1     -34.358  15.823  -2.208  1.00 20.00     0.059 C 
HETATM    7  C7  UNL     1     -34.453  16.798  -1.033  1.00 20.00     0.008 C 
HETATM    8  C8  UNL     1     -35.136  18.097  -1.459  1.00 20.00     0.021 C 
HETATM    9  C9  UNL     1     -36.555  17.823  -1.955  1.00 20.00     0.128 C 
HETATM   10  N10 UNL     1     -34.810  12.664  -4.602  1.00 20.00    -0.191 NA
HETATM   11  N11 UNL     1     -36.623  16.680  -2.848  1.00 20.00    -0.359 N 
ENDROOT
TORSDOF 0
ENDMDL
MODEL 3
REMARK VINA RESULT:      -4.5      1.508      3.830
REMARK  0 active torsions:
REMARK  status: ('A' for Active; 'I' for Inactive)
ROOT
HETATM    1  C1  UNL     1     -34.379  16.694  -1.722  1.00 20.00     0.101 C 
HETATM    2  C2  UNL     1     -33.663  17.788  -3.900  1.00 20.00     0.042 A 
HETATM    3  C3  UNL     1     -33.637  17.382  -5.217  1.00 20.00     0.092 A 
HETATM    4  C4  UNL     1     -34.172  16.711  -3.132  1.00 20.00     0.068 A 
HETATM    5  C5  UNL     1     -34.445  15.672  -3.999  1.00 20.00     0.032 A 
HETATM    6  C6  UNL     1     -35.020  14.317  -3.753  1.00 20.00     0.059 C 
HETATM    7  C7  UNL     1     -34.765  13.366  -4.925  1.00 20.00     0.008 C 
HETATM    8  C8  UNL     1     -35.083  14.046  -6.256  1.00 20.00     0.021 C 
HETATM    9  C9  UNL     1     -34.202  15.279  -6.456  1.00 20.00     0.128 C 
HETATM   10  N10 UNL     1     -34.547  16.679  -0.574  1.00 20.00    -0.191 NA
HETATM   11  N11 UNL     1     -34.114  16.100  -5.262  1.00 20.00    -0.359 N 
ENDROOT
TORSDOF 0
ENDMDL
MODEL 4
REMARK VINA RESULT:      -4.5     12.164     13.549
REMARK  0 active torsions:
REMARK  status: ('A' for Active; 'I' for Inactive)
ROOT
HETATM    1  C1  UNL     1     -41.544   3.138  -2.688  1.00 20.00     0.101 C 
HETATM    2  C2  UNL     1     -40.565   4.545  -0.813  1.00 20.00     0.042 A 
HETATM    3  C3  UNL     1     -40.737   5.847  -0.397  1.00 20.00     0.092 A 
HETATM    4  C4  UNL     1     -41.399   4.343  -1.941  1.00 20.00     0.068 A 
HETATM    5  C5  UNL     1     -42.062   5.529  -2.187  1.00 20.00     0.032 A 
HETATM    6  C6  UNL     1     -43.079   5.886  -3.219  1.00 20.00     0.059 C 
HETATM    7  C7  UNL     1     -43.230   7.401  -3.373  1.00 20.00     0.008 C 
HETATM    8  C8  UNL     1     -43.331   8.078  -2.006  1.00 20.00     0.021 C 
HETATM    9  C9  UNL     1     -42.072   7.817  -1.181  1.00 20.00     0.128 C 
HETATM   10  N10 UNL     1     -41.662   2.158  -3.298  1.00 20.00    -0.191 NA
HETATM   11  N11 UNL     1     -41.647   6.429  -1.236  1.00 20.00    -0.359 N 
ENDROOT
TORSDOF 0
ENDMDL
MODEL 5
REMARK VINA RESULT:      -4.4      1.800      4.187
REMARK  0 active torsions:
REMARK  status: ('A' for Active; 'I' for Inactive)
ROOT
HETATM    1  C1  UNL     1     -34.512  15.857  -2.182  1.00 20.00     0.101 C 
HETATM    2  C2  UNL     1     -34.395  13.726  -3.559  1.00 20.00     0.042 A 
HETATM    3  C3  UNL     1     -34.454  13.448  -4.908  1.00 20.00     0.092 A 
HETATM    4  C4  UNL     1     -34.527  15.128  -3.407  1.00 20.00     0.068 A 
HETATM    5  C5  UNL     1     -34.664  15.674  -4.667  1.00 20.00     0.032 A 
HETATM    6  C6  UNL     1     -34.805  17.092  -5.110  1.00 20.00     0.059 C 
HETATM    7  C7  UNL     1     -35.333  17.195  -6.543  1.00 20.00     0.008 C 
HETATM    8  C8  UNL     1     -34.589  16.229  -7.465  1.00 20.00     0.021 C 
HETATM    9  C9  UNL     1     -34.779  14.786  -7.001  1.00 20.00     0.128 C 
HETATM   10  N10 UNL     1     -34.501  16.450  -1.185  1.00 20.00    -0.191 NA
HETATM   11  N11 UNL     1     -34.616  14.636  -5.566  1.00 20.00    -0.359 N 
ENDROOT
TORSDOF 0
ENDMDL
MODEL 6
REMARK VINA RESULT:      -4.4      2.448      4.190
REMARK  0 active torsions:
REMARK  status: ('A' for Active; 'I' for Inactive)
ROOT
HETATM    1  C1  UNL     1     -34.040  17.937  -6.829  1.00 20.00     0.101 C 
HETATM    2  C2  UNL     1     -35.139  15.783  -7.607  1.00 20.00     0.042 A 
HETATM    3  C3  UNL     1     -35.267  14.520  -7.069  1.00 20.00     0.092 A 
HETATM    4  C4  UNL     1     -34.400  16.566  -6.686  1.00 20.00     0.068 A 
HETATM    5  C5  UNL     1     -34.093  15.761  -5.606  1.00 20.00     0.032 A 
HETATM    6  C6  UNL     1     -33.365  16.060  -4.338  1.00 20.00     0.059 C 
HETATM    7  C7  UNL     1     -32.909  14.785  -3.625  1.00 20.00     0.008 C 
HETATM    8  C8  UNL     1     -34.041  13.758  -3.575  1.00 20.00     0.021 C 
HETATM    9  C9  UNL     1     -34.482  13.371  -4.986  1.00 20.00     0.128 C 
HETATM   10  N10 UNL     1     -33.746  19.053  -6.946  1.00 20.00    -0.191 NA
HETATM   11  N11 UNL     1     -34.631  14.522  -5.858  1.00 20.00    -0.359 N 
ENDROOT
TORSDOF 0
ENDMDL
MODEL 7
REMARK VINA RESULT:      -4.3      1.759      2.503
REMARK  0 active torsions:
REMARK  status: ('A' for Active; 'I' for Inactive)
ROOT
HETATM    1  C1  UNL     1     -34.711  13.639  -5.090  1.00 20.00     0.101 C 
HETATM    2  C2  UNL     1     -34.765  14.967  -7.255  1.00 20.00     0.042 A 
HETATM    3  C3  UNL     1     -34.563  16.292  -7.576  1.00 20.00     0.092 A 
HETATM    4  C4  UNL     1     -34.602  14.837  -5.854  1.00 20.00     0.068 A 
HETATM    5  C5  UNL     1     -34.304  16.088  -5.351  1.00 20.00     0.032 A 
HETATM    6  C6  UNL     1     -34.005  16.539  -3.960  1.00 20.00     0.059 C 
HETATM    7  C7  UNL     1     -34.137  18.056  -3.808  1.00 20.00     0.008 C 
HETATM    8  C8  UNL     1     -33.439  18.779  -4.960  1.00 20.00     0.021 C 
HETATM    9  C9  UNL     1     -34.062  18.388  -6.299  1.00 20.00     0.128 C 
HETATM   10  N10 UNL     1     -34.801  12.664  -4.468  1.00 20.00    -0.191 NA
HETATM   11  N11 UNL     1     -34.284  16.958  -6.414  1.00 20.00    -0.359 N 
ENDROOT
TORSDOF 0
ENDMDL
MODEL 8
REMARK VINA RESULT:      -4.3      2.294      3.302
REMARK  0 active torsions:
REMARK  status: ('A' for Active; 'I' for Inactive)
ROOT
HETATM    1  C1  UNL     1     -37.605  14.511  -3.987  1.00 20.00     0.101 C 
HETATM    2  C2  UNL     1     -35.263  13.541  -4.148  1.00 20.00     0.042 A 
HETATM    3  C3  UNL     1     -34.021  14.068  -4.427  1.00 20.00     0.092 A 
HETATM    4  C4  UNL     1     -36.202  14.600  -4.215  1.00 20.00     0.068 A 
HETATM    5  C5  UNL     1     -35.509  15.751  -4.534  1.00 20.00     0.032 A 
HETATM    6  C6  UNL     1     -35.975  17.159  -4.705  1.00 20.00     0.059 C 
HETATM    7  C7  UNL     1     -34.949  18.015  -5.449  1.00 20.00     0.008 C 
HETATM    8  C8  UNL     1     -33.545  17.790  -4.888  1.00 20.00     0.021 C 
HETATM    9  C9  UNL     1     -33.131  16.328  -5.041  1.00 20.00     0.128 C 
HETATM   10  N10 UNL     1     -38.749  14.438  -3.802  1.00 20.00    -0.191 NA
HETATM   11  N11 UNL     1     -34.185  15.407  -4.657  1.00 20.00    -0.359 N 
ENDROOT
TORSDOF 0
ENDMDL
MODEL 9
REMARK VINA RESULT:      -4.3      2.593      3.545
REMARK  0 active torsions:
REMARK  status: ('A' for Active; 'I' for Inactive)
ROOT
HETATM    1  C1  UNL     1     -38.372  14.834  -4.025  1.00 20.00     0.101 C 
HETATM    2  C2  UNL     1     -37.233  16.875  -3.030  1.00 20.00     0.042 A 
HETATM    3  C3  UNL     1     -35.925  17.207  -2.752  1.00 20.00     0.092 A 
HETATM    4  C4  UNL     1     -37.235  15.571  -3.583  1.00 20.00     0.068 A 
HETATM    5  C5  UNL     1     -35.925  15.136  -3.629  1.00 20.00     0.032 A 
HETATM    6  C6  UNL     1     -35.333  13.864  -4.139  1.00 20.00     0.059 C 
HETATM    7  C7  UNL     1     -33.910  13.647  -3.621  1.00 20.00     0.008 C 
HETATM    8  C8  UNL     1     -33.082  14.925  -3.757  1.00 20.00     0.021 C 
HETATM    9  C9  UNL     1     -33.706  16.060  -2.946  1.00 20.00     0.128 C 
HETATM   10  N10 UNL     1     -39.297  14.233  -4.384  1.00 20.00    -0.191 NA
HETATM   11  N11 UNL     1     -35.144  16.145  -3.121  1.00 20.00    -0.359 N 
ENDROOT
TORSDOF 0
ENDMDL
