MODEL 1
REMARK VINA RESULT:      -5.2      0.000      0.000
REMARK  0 active torsions:
REMARK  status: ('A' for Active; 'I' for Inactive)
ROOT
HETATM    1  C1  UNL     1     -33.726   6.585   5.884  1.00 20.00     0.027 A 
HETATM    2  C2  UNL     1     -34.535   5.755   6.646  1.00 20.00     0.116 A 
HETATM    3  C3  UNL     1     -35.175   4.482   4.825  1.00 20.00     0.123 A 
HETATM    4  C4  UNL     1     -33.659   6.307   4.533  1.00 20.00    -0.045 A 
HETATM    5  C5  UNL     1     -34.389   5.245   3.995  1.00 20.00    -0.034 A 
HETATM    6  C6  UNL     1     -34.210   5.150   2.516  1.00 20.00     0.041 C 
HETATM    7  C7  UNL     1     -32.924   5.970   2.329  1.00 20.00     0.014 C 
HETATM    8  C8  UNL     1     -32.918   7.036   3.448  1.00 20.00     0.015 C 
HETATM    9  C9  UNL     1     -31.511   7.480   3.812  1.00 20.00     0.015 C 
HETATM   10  N10 UNL     1     -35.258   4.713   6.156  1.00 20.00    -0.273 NA
ENDROOT
TORSDOF 0
ENDMDL
MODEL 2
REMARK VINA RESULT:      -4.8      1.822      4.007
REMARK  0 active torsions:
REMARK  status: ('A' for Active; 'I' for Inactive)
ROOT
HETATM    1  C1  UNL     1     -33.552   5.644   3.005  1.00 20.00     0.027 A 
HETATM    2  C2  UNL     1     -32.513   6.416   2.504  1.00 20.00     0.116 A 
HETATM    3  C3  UNL     1     -32.206   7.542   4.499  1.00 20.00     0.123 A 
HETATM    4  C4  UNL     1     -33.893   5.857   4.326  1.00 20.00    -0.045 A 
HETATM    5  C5  UNL     1     -33.216   6.814   5.084  1.00 20.00    -0.034 A 
HETATM    6  C6  UNL     1     -33.772   6.914   6.466  1.00 20.00     0.041 C 
HETATM    7  C7  UNL     1     -34.523   5.577   6.570  1.00 20.00     0.014 C 
HETATM    8  C8  UNL     1     -34.986   5.223   5.139  1.00 20.00     0.015 C 
HETATM    9  C9  UNL     1     -35.152   3.724   4.943  1.00 20.00     0.015 C 
HETATM   10  N10 UNL     1     -31.833   7.355   3.213  1.00 20.00    -0.273 NA
ENDROOT
TORSDOF 0
ENDMDL
MODEL 3
REMARK VINA RESULT:      -4.6     12.131     13.375
REMARK  0 active torsions:
REMARK  status: ('A' for Active; 'I' for Inactive)
ROOT
HETATM    1  C1  UNL     1     -34.432  14.663  -6.100  1.00 20.00     0.027 A 
HETATM    2  C2  UNL     1     -34.854  13.392  -5.736  1.00 20.00     0.116 A 
HETATM    3  C3  UNL     1     -34.494  13.769  -3.484  1.00 20.00     0.123 A 
HETATM    4  C4  UNL     1     -34.042  15.498  -5.071  1.00 20.00    -0.045 A 
HETATM    5  C5  UNL     1     -34.072  15.050  -3.749  1.00 20.00    -0.034 A 
HETATM    6  C6  UNL     1     -33.568  16.091  -2.805  1.00 20.00     0.041 C 
HETATM    7  C7  UNL     1     -33.697  17.352  -3.673  1.00 20.00     0.014 C 
HETATM    8  C8  UNL     1     -33.500  16.898  -5.137  1.00 20.00     0.015 C 
HETATM    9  C9  UNL     1     -34.202  17.817  -6.124  1.00 20.00     0.015 C 
HETATM   10  N10 UNL     1     -34.897  12.924  -4.461  1.00 20.00    -0.273 NA
ENDROOT
TORSDOF 0
ENDMDL
MODEL 4
REMARK VINA RESULT:      -4.5     12.637     13.858
REMARK  0 active torsions:
REMARK  status: ('A' for Active; 'I' for Inactive)
ROOT
HETATM    1  C1  UNL     1     -33.911  16.710  -5.795  1.00 20.00     0.027 A 
HETATM    2  C2  UNL     1     -34.435  16.767  -7.079  1.00 20.00     0.116 A 
HETATM    3  C3  UNL     1     -35.091  14.551  -7.056  1.00 20.00     0.123 A 
HETATM    4  C4  UNL     1     -34.015  15.497  -5.143  1.00 20.00    -0.045 A 
HETATM    5  C5  UNL     1     -34.611  14.404  -5.776  1.00 20.00    -0.034 A 
HETATM    6  C6  UNL     1     -34.577  13.186  -4.915  1.00 20.00     0.041 C 
HETATM    7  C7  UNL     1     -34.332  13.816  -3.535  1.00 20.00     0.014 C 
HETATM    8  C8  UNL     1     -33.515  15.104  -3.782  1.00 20.00     0.015 C 
HETATM    9  C9  UNL     1     -33.730  16.140  -2.690  1.00 20.00     0.015 C 
HETATM   10  N10 UNL     1     -35.021  15.724  -7.725  1.00 20.00    -0.273 NA
ENDROOT
TORSDOF 0
ENDMDL
MODEL 5
REMARK VINA RESULT:      -4.4     12.518     13.556
REMARK  0 active torsions:
REMARK  status: ('A' for Active; 'I' for Inactive)
ROOT
HETATM    1  C1  UNL     1     -34.321  15.313  -3.804  1.00 20.00     0.027 A 
HETATM    2  C2  UNL     1     -34.345  14.000  -3.357  1.00 20.00     0.116 A 
HETATM    3  C3  UNL     1     -34.831  13.153  -5.452  1.00 20.00     0.123 A 
HETATM    4  C4  UNL     1     -34.558  15.508  -5.150  1.00 20.00    -0.045 A 
HETATM    5  C5  UNL     1     -34.816  14.420  -5.986  1.00 20.00    -0.034 A 
HETATM    6  C6  UNL     1     -35.089  14.856  -7.387  1.00 20.00     0.041 C 
HETATM    7  C7  UNL     1     -34.488  16.270  -7.370  1.00 20.00     0.014 C 
HETATM    8  C8  UNL     1     -34.643  16.794  -5.924  1.00 20.00     0.015 C 
HETATM    9  C9  UNL     1     -33.588  17.831  -5.572  1.00 20.00     0.015 C 
HETATM   10  N10 UNL     1     -34.591  12.917  -4.141  1.00 20.00    -0.273 NA
ENDROOT
TORSDOF 0
ENDMDL
MODEL 6
REMARK VINA RESULT:      -4.4      1.608      3.262
REMARK  0 active torsions:
REMARK  status: ('A' for Active; 'I' for Inactive)
ROOT
HETATM    1  C1  UNL     1     -32.647   6.966   4.141  1.00 20.00     0.027 A 
HETATM    2  C2  UNL     1     -32.649   6.784   2.766  1.00 20.00     0.116 A 
HETATM    3  C3  UNL     1     -34.239   5.109   2.853  1.00 20.00     0.123 A 
HETATM    4  C4  UNL     1     -33.507   6.167   4.868  1.00 20.00    -0.045 A 
HETATM    5  C5  UNL     1     -34.313   5.228   4.221  1.00 20.00    -0.034 A 
HETATM    6  C6  UNL     1     -35.128   4.442   5.194  1.00 20.00     0.041 C 
HETATM    7  C7  UNL     1     -35.062   5.355   6.428  1.00 20.00     0.014 C 
HETATM    8  C8  UNL     1     -33.705   6.091   6.356  1.00 20.00     0.015 C 
HETATM    9  C9  UNL     1     -33.739   7.431   7.073  1.00 20.00     0.015 C 
HETATM   10  N10 UNL     1     -33.420   5.881   2.104  1.00 20.00    -0.273 NA
ENDROOT
TORSDOF 0
ENDMDL
MODEL 7
REMARK VINA RESULT:      -4.4     11.475     12.356
REMARK  0 active torsions:
REMARK  status: ('A' for Active; 'I' for Inactive)
ROOT
HETATM    1  C1  UNL     1     -33.490  14.388  -3.205  1.00 20.00     0.027 A 
HETATM    2  C2  UNL     1     -33.569  13.303  -4.066  1.00 20.00     0.116 A 
HETATM    3  C3  UNL     1     -35.810  13.649  -4.515  1.00 20.00     0.123 A 
HETATM    4  C4  UNL     1     -34.649  15.118  -3.029  1.00 20.00    -0.045 A 
HETATM    5  C5  UNL     1     -35.823  14.748  -3.689  1.00 20.00    -0.034 A 
HETATM    6  C6  UNL     1     -36.962  15.640  -3.322  1.00 20.00     0.041 C 
HETATM    7  C7  UNL     1     -36.207  16.852  -2.754  1.00 20.00     0.014 C 
HETATM    8  C8  UNL     1     -34.899  16.305  -2.141  1.00 20.00     0.015 C 
HETATM    9  C9  UNL     1     -33.791  17.345  -2.126  1.00 20.00     0.015 C 
HETATM   10  N10 UNL     1     -34.693  12.915  -4.725  1.00 20.00    -0.273 NA
ENDROOT
TORSDOF 0
ENDMDL
MODEL 8
REMARK VINA RESULT:      -4.3      9.474     11.001
REMARK  0 active torsions:
REMARK  status: ('A' for Active; 'I' for Inactive)
ROOT
HETATM    1  C1  UNL     1     -43.135   5.739  -3.262  1.00 20.00     0.027 A 
HETATM    2  C2  UNL     1     -43.344   7.099  -3.438  1.00 20.00     0.116 A 
HETATM    3  C3  UNL     1     -41.892   7.682  -1.736  1.00 20.00     0.123 A 
HETATM    4  C4  UNL     1     -42.244   5.378  -2.270  1.00 20.00    -0.045 A 
HETATM    5  C5  UNL     1     -41.614   6.356  -1.498  1.00 20.00    -0.034 A 
HETATM    6  C6  UNL     1     -40.731   5.750  -0.458  1.00 20.00     0.041 C 
HETATM    7  C7  UNL     1     -40.548   4.334  -1.026  1.00 20.00     0.014 C 
HETATM    8  C8  UNL     1     -41.840   4.006  -1.808  1.00 20.00     0.015 C 
HETATM    9  C9  UNL     1     -41.600   2.995  -2.917  1.00 20.00     0.015 C 
HETATM   10  N10 UNL     1     -42.748   8.077  -2.706  1.00 20.00    -0.273 NA
ENDROOT
TORSDOF 0
ENDMDL
MODEL 9
REMARK VINA RESULT:      -4.2     12.654     13.889
REMARK  0 active torsions:
REMARK  status: ('A' for Active; 'I' for Inactive)
ROOT
HETATM    1  C1  UNL     1     -34.543  13.623  -5.130  1.00 20.00     0.027 A 
HETATM    2  C2  UNL     1     -34.266  13.651  -3.771  1.00 20.00     0.116 A 
HETATM    3  C3  UNL     1     -33.747  15.903  -3.784  1.00 20.00     0.123 A 
HETATM    4  C4  UNL     1     -34.414  14.820  -5.808  1.00 20.00    -0.045 A 
HETATM    5  C5  UNL     1     -34.013  15.974  -5.131  1.00 20.00    -0.034 A 
HETATM    6  C6  UNL     1     -33.893  17.139  -6.057  1.00 20.00     0.041 C 
HETATM    7  C7  UNL     1     -34.731  16.647  -7.247  1.00 20.00     0.014 C 
HETATM    8  C8  UNL     1     -34.596  15.109  -7.271  1.00 20.00     0.015 C 
HETATM    9  C9  UNL     1     -35.797  14.436  -7.918  1.00 20.00     0.015 C 
HETATM   10  N10 UNL     1     -33.874  14.755  -3.081  1.00 20.00    -0.273 NA
ENDROOT
TORSDOF 0
ENDMDL
