MODEL 1
REMARK VINA RESULT:      -5.7      0.000      0.000
REMARK  2 active torsions:
REMARK  status: ('A' for Active; 'I' for Inactive)
REMARK    1  A    between atoms: C1_1  and  C8_8 
REMARK    2  A    between atoms: C5_5  and  C8_8 
ROOT
HETATM    1  C2  UNL     1     -34.386   6.148   6.285  1.00 20.00     0.003 C 
HETATM    2  C3  UNL     1     -33.211   6.424   5.349  1.00 20.00     0.007 C 
HETATM    3  C4  UNL     1     -34.961   4.752   6.046  1.00 20.00     0.034 C 
HETATM    4  C5  UNL     1     -33.662   6.460   3.879  1.00 20.00     0.023 C 
HETATM    5  C6  UNL     1     -35.184   4.445   4.603  1.00 20.00     0.151 A 
HETATM    6  C7  UNL     1     -34.508   5.262   3.531  1.00 20.00     0.155 A 
HETATM    7  O10 UNL     1     -35.901   5.436   3.865  1.00 20.00    -0.375 OA
ENDROOT
BRANCH   4   8
HETATM    8  C8  UNL     1     -32.445   6.557   2.960  1.00 20.00     0.076 C 
BRANCH   8   9
HETATM    9  C1  UNL     1     -32.149   7.973   2.551  1.00 20.00     0.231 C 
HETATM   10  O9  UNL     1     -31.794   8.325   1.430  1.00 20.00    -0.307 OA
ENDBRANCH   8   9
ENDBRANCH   4   8
TORSDOF 2
ENDMDL
MODEL 2
REMARK VINA RESULT:      -4.5     11.195     12.383
REMARK  2 active torsions:
REMARK  status: ('A' for Active; 'I' for Inactive)
REMARK    1  A    between atoms: C1_1  and  C8_8 
REMARK    2  A    between atoms: C5_5  and  C8_8 
ROOT
HETATM    1  C2  UNL     1     -34.174  15.084  -6.240  1.00 20.00     0.003 C 
HETATM    2  C3  UNL     1     -34.085  16.116  -5.116  1.00 20.00     0.007 C 
HETATM    3  C4  UNL     1     -35.171  13.979  -5.892  1.00 20.00     0.034 C 
HETATM    4  C5  UNL     1     -33.513  15.497  -3.830  1.00 20.00     0.023 C 
HETATM    5  C6  UNL     1     -34.992  13.437  -4.513  1.00 20.00     0.151 A 
HETATM    6  C7  UNL     1     -34.209  14.207  -3.480  1.00 20.00     0.155 A 
HETATM    7  O10 UNL     1     -33.658  13.062  -4.164  1.00 20.00    -0.375 OA
ENDROOT
BRANCH   4   8
HETATM    8  C8  UNL     1     -33.606  16.500  -2.680  1.00 20.00     0.076 C 
BRANCH   8   9
HETATM    9  C1  UNL     1     -34.685  16.141  -1.695  1.00 20.00     0.231 C 
HETATM   10  O9  UNL     1     -34.731  16.519  -0.529  1.00 20.00    -0.307 OA
ENDBRANCH   8   9
ENDBRANCH   4   8
TORSDOF 2
ENDMDL
MODEL 3
REMARK VINA RESULT:      -4.4     11.643     12.897
REMARK  2 active torsions:
REMARK  status: ('A' for Active; 'I' for Inactive)
REMARK    1  A    between atoms: C1_1  and  C8_8 
REMARK    2  A    between atoms: C5_5  and  C8_8 
ROOT
HETATM    1  C2  UNL     1     -33.836  16.715  -2.052  1.00 20.00     0.003 C 
HETATM    2  C3  UNL     1     -34.840  15.614  -2.391  1.00 20.00     0.007 C 
HETATM    3  C4  UNL     1     -33.808  17.786  -3.142  1.00 20.00     0.034 C 
HETATM    4  C5  UNL     1     -34.421  14.843  -3.654  1.00 20.00     0.023 C 
HETATM    5  C6  UNL     1     -33.726  17.223  -4.521  1.00 20.00     0.151 A 
HETATM    6  C7  UNL     1     -34.071  15.778  -4.782  1.00 20.00     0.155 A 
HETATM    7  O10 UNL     1     -32.706  16.244  -4.729  1.00 20.00    -0.375 OA
ENDROOT
BRANCH   4   8
HETATM    8  C8  UNL     1     -35.530  13.876  -4.068  1.00 20.00     0.076 C 
BRANCH   8   9
HETATM    9  C1  UNL     1     -36.859  14.563  -4.221  1.00 20.00     0.231 C 
HETATM   10  O9  UNL     1     -37.908  14.195  -3.702  1.00 20.00    -0.307 OA
ENDBRANCH   8   9
ENDBRANCH   4   8
TORSDOF 2
ENDMDL
MODEL 4
REMARK VINA RESULT:      -4.2     11.254     12.998
REMARK  2 active torsions:
REMARK  status: ('A' for Active; 'I' for Inactive)
REMARK    1  A    between atoms: C1_1  and  C8_8 
REMARK    2  A    between atoms: C5_5  and  C8_8 
ROOT
HETATM    1  C2  UNL     1     -34.151  17.485  -2.150  1.00 20.00     0.003 C 
HETATM    2  C3  UNL     1     -34.084  15.966  -2.296  1.00 20.00     0.007 C 
HETATM    3  C4  UNL     1     -34.917  18.115  -3.313  1.00 20.00     0.034 C 
HETATM    4  C5  UNL     1     -33.268  15.557  -3.534  1.00 20.00     0.023 C 
HETATM    5  C6  UNL     1     -34.488  17.600  -4.647  1.00 20.00     0.151 A 
HETATM    6  C7  UNL     1     -33.710  16.313  -4.761  1.00 20.00     0.155 A 
HETATM    7  O10 UNL     1     -33.080  17.605  -4.888  1.00 20.00    -0.375 OA
ENDROOT
BRANCH   4   8
HETATM    8  C8  UNL     1     -33.371  14.048  -3.754  1.00 20.00     0.076 C 
BRANCH   8   9
HETATM    9  C1  UNL     1     -34.669  13.652  -4.403  1.00 20.00     0.231 C 
HETATM   10  O9  UNL     1     -35.108  12.508  -4.464  1.00 20.00    -0.307 OA
ENDBRANCH   8   9
ENDBRANCH   4   8
TORSDOF 2
ENDMDL
MODEL 5
REMARK VINA RESULT:      -4.2     11.412     12.055
REMARK  2 active torsions:
REMARK  status: ('A' for Active; 'I' for Inactive)
REMARK    1  A    between atoms: C1_1  and  C8_8 
REMARK    2  A    between atoms: C5_5  and  C8_8 
ROOT
HETATM    1  C2  UNL     1     -34.063  13.511  -4.268  1.00 20.00     0.003 C 
HETATM    2  C3  UNL     1     -33.534  14.706  -3.476  1.00 20.00     0.007 C 
HETATM    3  C4  UNL     1     -35.113  13.951  -5.288  1.00 20.00     0.034 C 
HETATM    4  C5  UNL     1     -34.639  15.340  -2.614  1.00 20.00     0.023 C 
HETATM    5  C6  UNL     1     -36.142  14.868  -4.716  1.00 20.00     0.151 A 
HETATM    6  C7  UNL     1     -35.891  15.589  -3.416  1.00 20.00     0.155 A 
HETATM    7  O10 UNL     1     -36.750  14.433  -3.499  1.00 20.00    -0.375 OA
ENDROOT
BRANCH   4   8
HETATM    8  C8  UNL     1     -34.129  16.633  -1.978  1.00 20.00     0.076 C 
BRANCH   8   9
HETATM    9  C1  UNL     1     -34.652  16.828  -0.581  1.00 20.00     0.231 C 
HETATM   10  O9  UNL     1     -34.201  17.623   0.237  1.00 20.00    -0.307 OA
ENDBRANCH   8   9
ENDBRANCH   4   8
TORSDOF 2
ENDMDL
MODEL 6
REMARK VINA RESULT:      -4.0     11.700     13.445
REMARK  2 active torsions:
REMARK  status: ('A' for Active; 'I' for Inactive)
REMARK    1  A    between atoms: C1_1  and  C8_8 
REMARK    2  A    between atoms: C5_5  and  C8_8 
ROOT
HETATM    1  C2  UNL     1     -33.844  13.794  -3.813  1.00 20.00     0.003 C 
HETATM    2  C3  UNL     1     -34.706  13.668  -5.069  1.00 20.00     0.007 C 
HETATM    3  C4  UNL     1     -34.058  15.148  -3.135  1.00 20.00     0.034 C 
HETATM    4  C5  UNL     1     -34.286  14.687  -6.142  1.00 20.00     0.023 C 
HETATM    5  C6  UNL     1     -34.008  16.297  -4.086  1.00 20.00     0.151 A 
HETATM    6  C7  UNL     1     -34.164  16.075  -5.569  1.00 20.00     0.155 A 
HETATM    7  O10 UNL     1     -32.880  16.327  -4.961  1.00 20.00    -0.375 OA
ENDROOT
BRANCH   4   8
HETATM    8  C8  UNL     1     -35.276  14.659  -7.306  1.00 20.00     0.076 C 
BRANCH   8   9
HETATM    9  C1  UNL     1     -36.527  15.440  -7.010  1.00 20.00     0.231 C 
HETATM   10  O9  UNL     1     -37.671  15.034  -7.187  1.00 20.00    -0.307 OA
ENDBRANCH   8   9
ENDBRANCH   4   8
TORSDOF 2
ENDMDL
MODEL 7
REMARK VINA RESULT:      -4.0      1.356      2.074
REMARK  2 active torsions:
REMARK  status: ('A' for Active; 'I' for Inactive)
REMARK    1  A    between atoms: C1_1  and  C8_8 
REMARK    2  A    between atoms: C5_5  and  C8_8 
ROOT
HETATM    1  C2  UNL     1     -34.816   3.958   5.097  1.00 20.00     0.003 C 
HETATM    2  C3  UNL     1     -34.649   4.873   3.885  1.00 20.00     0.007 C 
HETATM    3  C4  UNL     1     -35.321   4.741   6.309  1.00 20.00     0.034 C 
HETATM    4  C5  UNL     1     -33.554   5.927   4.123  1.00 20.00     0.023 C 
HETATM    5  C6  UNL     1     -34.575   6.013   6.542  1.00 20.00     0.151 A 
HETATM    6  C7  UNL     1     -33.736   6.623   5.448  1.00 20.00     0.155 A 
HETATM    7  O10 UNL     1     -33.151   5.901   6.552  1.00 20.00    -0.375 OA
ENDROOT
BRANCH   4   8
HETATM    8  C8  UNL     1     -33.537   6.933   2.973  1.00 20.00     0.076 C 
BRANCH   8   9
HETATM    9  C1  UNL     1     -32.157   7.464   2.699  1.00 20.00     0.231 C 
HETATM   10  O9  UNL     1     -31.866   8.246   1.799  1.00 20.00    -0.307 OA
ENDBRANCH   8   9
ENDBRANCH   4   8
TORSDOF 2
ENDMDL
MODEL 8
REMARK VINA RESULT:      -4.0     11.462     12.314
REMARK  2 active torsions:
REMARK  status: ('A' for Active; 'I' for Inactive)
REMARK    1  A    between atoms: C1_1  and  C8_8 
REMARK    2  A    between atoms: C5_5  and  C8_8 
ROOT
HETATM    1  C2  UNL     1     -34.371  15.442  -2.652  1.00 20.00     0.003 C 
HETATM    2  C3  UNL     1     -35.667  15.843  -3.355  1.00 20.00     0.007 C 
HETATM    3  C4  UNL     1     -33.364  14.864  -3.646  1.00 20.00     0.034 C 
HETATM    4  C5  UNL     1     -36.391  14.618  -3.940  1.00 20.00     0.023 C 
HETATM    5  C6  UNL     1     -33.958  13.847  -4.563  1.00 20.00     0.151 A 
HETATM    6  C7  UNL     1     -35.452  13.753  -4.742  1.00 20.00     0.155 A 
HETATM    7  O10 UNL     1     -34.716  12.814  -3.931  1.00 20.00    -0.375 OA
ENDROOT
BRANCH   4   8
HETATM    8  C8  UNL     1     -37.580  15.068  -4.788  1.00 20.00     0.076 C 
BRANCH   8   9
HETATM    9  C1  UNL     1     -38.898  14.758  -4.133  1.00 20.00     0.231 C 
HETATM   10  O9  UNL     1     -39.185  15.013  -2.968  1.00 20.00    -0.307 OA
ENDBRANCH   8   9
ENDBRANCH   4   8
TORSDOF 2
ENDMDL
MODEL 9
REMARK VINA RESULT:      -4.0     11.136     12.968
REMARK  2 active torsions:
REMARK  status: ('A' for Active; 'I' for Inactive)
REMARK    1  A    between atoms: C1_1  and  C8_8 
REMARK    2  A    between atoms: C5_5  and  C8_8 
ROOT
HETATM    1  C2  UNL     1     -35.583  15.612  -3.539  1.00 20.00     0.003 C 
HETATM    2  C3  UNL     1     -35.670  15.736  -5.060  1.00 20.00     0.007 C 
HETATM    3  C4  UNL     1     -34.255  14.985  -3.115  1.00 20.00     0.034 C 
HETATM    4  C5  UNL     1     -35.684  14.354  -5.735  1.00 20.00     0.023 C 
HETATM    5  C6  UNL     1     -33.905  13.762  -3.896  1.00 20.00     0.151 A 
HETATM    6  C7  UNL     1     -34.579  13.472  -5.212  1.00 20.00     0.155 A 
HETATM    7  O10 UNL     1     -34.935  12.778  -3.998  1.00 20.00    -0.375 OA
ENDROOT
BRANCH   4   8
HETATM    8  C8  UNL     1     -35.588  14.512  -7.252  1.00 20.00     0.076 C 
BRANCH   8   9
HETATM    9  C1  UNL     1     -36.805  15.174  -7.836  1.00 20.00     0.231 C 
HETATM   10  O9  UNL     1     -37.918  14.662  -7.916  1.00 20.00    -0.307 OA
ENDBRANCH   8   9
ENDBRANCH   4   8
TORSDOF 2
ENDMDL
