MODEL 1
REMARK VINA RESULT:      -5.0      0.000      0.000
REMARK  0 active torsions:
REMARK  status: ('A' for Active; 'I' for Inactive)
ROOT
HETATM    1  C1  UNL     1     -34.482  13.987  -4.022  1.00 20.00     0.147 C 
HETATM    2  C2  UNL     1     -33.063  14.476  -3.799  1.00 20.00     0.085 C 
HETATM    3  C3  UNL     1     -33.578  16.181  -5.552  1.00 20.00     0.008 C 
HETATM    4  C4  UNL     1     -35.002  15.607  -5.730  1.00 20.00     0.030 C 
HETATM    5  C5  UNL     1     -33.308  15.990  -4.035  1.00 20.00     0.002 C 
HETATM    6  C6  UNL     1     -35.366  15.193  -4.299  1.00 20.00     0.086 C 
HETATM    7  C7  UNL     1     -34.703  16.253  -3.396  1.00 20.00    -0.019 C 
HETATM    8  C8  UNL     1     -34.759  15.965  -1.881  1.00 20.00     0.017 C 
HETATM    9  C9  UNL     1     -35.205  17.697  -3.592  1.00 20.00     0.017 C 
HETATM   10  O10 UNL     1     -34.819  12.813  -4.007  1.00 20.00    -0.296 OA
HETATM   11 BR11 UNL     1     -37.203  14.830  -4.016  1.00 20.00    -0.076 Br
ENDROOT
TORSDOF 0
ENDMDL
MODEL 2
REMARK VINA RESULT:      -4.9      1.794      2.466
REMARK  0 active torsions:
REMARK  status: ('A' for Active; 'I' for Inactive)
ROOT
HETATM    1  C1  UNL     1     -34.649  14.617  -5.698  1.00 20.00     0.147 C 
HETATM    2  C2  UNL     1     -34.520  13.305  -4.945  1.00 20.00     0.085 C 
HETATM    3  C3  UNL     1     -32.809  14.488  -3.560  1.00 20.00     0.008 C 
HETATM    4  C4  UNL     1     -32.989  15.778  -4.392  1.00 20.00     0.030 C 
HETATM    5  C5  UNL     1     -34.239  13.884  -3.533  1.00 20.00     0.002 C 
HETATM    6  C6  UNL     1     -34.489  15.757  -4.705  1.00 20.00     0.086 C 
HETATM    7  C7  UNL     1     -35.150  15.145  -3.452  1.00 20.00    -0.019 C 
HETATM    8  C8  UNL     1     -36.656  14.835  -3.578  1.00 20.00     0.017 C 
HETATM    9  C9  UNL     1     -34.969  15.949  -2.149  1.00 20.00     0.017 C 
HETATM   10  O10 UNL     1     -34.819  14.707  -6.904  1.00 20.00    -0.296 OA
HETATM   11 BR11 UNL     1     -35.194  17.391  -5.352  1.00 20.00    -0.076 Br
ENDROOT
TORSDOF 0
ENDMDL
MODEL 3
REMARK VINA RESULT:      -4.9      2.063      3.075
REMARK  0 active torsions:
REMARK  status: ('A' for Active; 'I' for Inactive)
ROOT
HETATM    1  C1  UNL     1     -33.703  15.788  -4.983  1.00 20.00     0.147 C 
HETATM    2  C2  UNL     1     -34.254  15.271  -6.300  1.00 20.00     0.085 C 
HETATM    3  C3  UNL     1     -34.837  13.203  -5.025  1.00 20.00     0.008 C 
HETATM    4  C4  UNL     1     -34.236  13.797  -3.732  1.00 20.00     0.030 C 
HETATM    5  C5  UNL     1     -35.439  14.444  -5.737  1.00 20.00     0.002 C 
HETATM    6  C6  UNL     1     -34.595  15.282  -3.860  1.00 20.00     0.086 C 
HETATM    7  C7  UNL     1     -35.973  15.302  -4.552  1.00 20.00    -0.019 C 
HETATM    8  C8  UNL     1     -36.487  16.694  -4.973  1.00 20.00     0.017 C 
HETATM    9  C9  UNL     1     -37.116  14.624  -3.770  1.00 20.00     0.017 C 
HETATM   10  O10 UNL     1     -32.693  16.466  -4.875  1.00 20.00    -0.296 OA
HETATM   11 BR11 UNL     1     -34.403  16.291  -2.269  1.00 20.00    -0.076 Br
ENDROOT
TORSDOF 0
ENDMDL
MODEL 4
REMARK VINA RESULT:      -4.9      1.630      1.957
REMARK  0 active torsions:
REMARK  status: ('A' for Active; 'I' for Inactive)
ROOT
HETATM    1  C1  UNL     1     -36.377  14.408  -4.146  1.00 20.00     0.147 C 
HETATM    2  C2  UNL     1     -35.248  13.398  -4.244  1.00 20.00     0.085 C 
HETATM    3  C3  UNL     1     -34.633  14.578  -6.360  1.00 20.00     0.008 C 
HETATM    4  C4  UNL     1     -35.819  15.554  -6.192  1.00 20.00     0.030 C 
HETATM    5  C5  UNL     1     -34.182  14.316  -4.897  1.00 20.00     0.002 C 
HETATM    6  C6  UNL     1     -35.872  15.742  -4.671  1.00 20.00     0.086 C 
HETATM    7  C7  UNL     1     -34.400  15.698  -4.212  1.00 20.00    -0.019 C 
HETATM    8  C8  UNL     1     -34.180  15.678  -2.685  1.00 20.00     0.017 C 
HETATM    9  C9  UNL     1     -33.496  16.812  -4.777  1.00 20.00     0.017 C 
HETATM   10  O10 UNL     1     -37.499  14.151  -3.739  1.00 20.00    -0.296 OA
HETATM   11 BR11 UNL     1     -36.926  17.202  -4.083  1.00 20.00    -0.076 Br
ENDROOT
TORSDOF 0
ENDMDL
MODEL 5
REMARK VINA RESULT:      -4.8      2.225      2.978
REMARK  0 active torsions:
REMARK  status: ('A' for Active; 'I' for Inactive)
ROOT
HETATM    1  C1  UNL     1     -36.000  15.957  -4.660  1.00 20.00     0.147 C 
HETATM    2  C2  UNL     1     -36.449  14.763  -3.839  1.00 20.00     0.085 C 
HETATM    3  C3  UNL     1     -34.794  13.458  -5.182  1.00 20.00     0.008 C 
HETATM    4  C4  UNL     1     -34.410  14.721  -5.985  1.00 20.00     0.030 C 
HETATM    5  C5  UNL     1     -35.090  14.018  -3.764  1.00 20.00     0.002 C 
HETATM    6  C6  UNL     1     -34.508  15.823  -4.924  1.00 20.00     0.086 C 
HETATM    7  C7  UNL     1     -34.040  15.159  -3.613  1.00 20.00    -0.019 C 
HETATM    8  C8  UNL     1     -34.219  16.006  -2.337  1.00 20.00     0.017 C 
HETATM    9  C9  UNL     1     -32.583  14.654  -3.611  1.00 20.00     0.017 C 
HETATM   10  O10 UNL     1     -36.743  16.843  -5.055  1.00 20.00    -0.296 OA
HETATM   11 BR11 UNL     1     -33.703  17.468  -5.404  1.00 20.00    -0.076 Br
ENDROOT
TORSDOF 0
ENDMDL
MODEL 6
REMARK VINA RESULT:      -4.6      1.547      2.473
REMARK  0 active torsions:
REMARK  status: ('A' for Active; 'I' for Inactive)
ROOT
HETATM    1  C1  UNL     1     -34.548  14.082  -4.073  1.00 20.00     0.147 C 
HETATM    2  C2  UNL     1     -34.743  13.891  -5.567  1.00 20.00     0.085 C 
HETATM    3  C3  UNL     1     -36.920  15.074  -5.239  1.00 20.00     0.008 C 
HETATM    4  C4  UNL     1     -36.651  15.207  -3.723  1.00 20.00     0.030 C 
HETATM    5  C5  UNL     1     -35.505  15.210  -5.862  1.00 20.00     0.002 C 
HETATM    6  C6  UNL     1     -35.134  15.429  -3.682  1.00 20.00     0.086 C 
HETATM    7  C7  UNL     1     -34.817  16.261  -4.941  1.00 20.00    -0.019 C 
HETATM    8  C8  UNL     1     -33.318  16.468  -5.243  1.00 20.00     0.017 C 
HETATM    9  C9  UNL     1     -35.478  17.652  -4.999  1.00 20.00     0.017 C 
HETATM   10  O10 UNL     1     -34.032  13.258  -3.334  1.00 20.00    -0.296 OA
HETATM   11 BR11 UNL     1     -34.464  16.061  -2.027  1.00 20.00    -0.076 Br
ENDROOT
TORSDOF 0
ENDMDL
MODEL 7
REMARK VINA RESULT:      -4.6      1.933      2.888
REMARK  0 active torsions:
REMARK  status: ('A' for Active; 'I' for Inactive)
ROOT
HETATM    1  C1  UNL     1     -33.682  16.120  -4.325  1.00 20.00     0.147 C 
HETATM    2  C2  UNL     1     -33.693  15.911  -2.822  1.00 20.00     0.085 C 
HETATM    3  C3  UNL     1     -35.931  17.021  -2.875  1.00 20.00     0.008 C 
HETATM    4  C4  UNL     1     -35.830  17.212  -4.405  1.00 20.00     0.030 C 
HETATM    5  C5  UNL     1     -35.214  15.665  -2.641  1.00 20.00     0.002 C 
HETATM    6  C6  UNL     1     -35.100  15.937  -4.844  1.00 20.00     0.086 C 
HETATM    7  C7  UNL     1     -35.616  14.835  -3.896  1.00 20.00    -0.019 C 
HETATM    8  C8  UNL     1     -34.896  13.475  -4.001  1.00 20.00     0.017 C 
HETATM    9  C9  UNL     1     -37.128  14.545  -3.980  1.00 20.00     0.017 C 
HETATM   10  O10 UNL     1     -32.691  16.416  -4.974  1.00 20.00    -0.296 OA
HETATM   11 BR11 UNL     1     -35.155  15.585  -6.703  1.00 20.00    -0.076 Br
ENDROOT
TORSDOF 0
ENDMDL
MODEL 8
REMARK VINA RESULT:      -4.5      2.233      3.219
REMARK  0 active torsions:
REMARK  status: ('A' for Active; 'I' for Inactive)
ROOT
HETATM    1  C1  UNL     1     -33.879  16.887  -4.311  1.00 20.00     0.147 C 
HETATM    2  C2  UNL     1     -33.960  16.754  -2.801  1.00 20.00     0.085 C 
HETATM    3  C3  UNL     1     -36.309  15.993  -3.185  1.00 20.00     0.008 C 
HETATM    4  C4  UNL     1     -36.147  16.175  -4.711  1.00 20.00     0.030 C 
HETATM    5  C5  UNL     1     -34.900  15.521  -2.735  1.00 20.00     0.002 C 
HETATM    6  C6  UNL     1     -34.688  15.760  -4.934  1.00 20.00     0.086 C 
HETATM    7  C7  UNL     1     -34.435  14.626  -3.921  1.00 20.00    -0.019 C 
HETATM    8  C8  UNL     1     -32.973  14.149  -3.806  1.00 20.00     0.017 C 
HETATM    9  C9  UNL     1     -35.300  13.363  -4.111  1.00 20.00     0.017 C 
HETATM   10  O10 UNL     1     -33.283  17.779  -4.895  1.00 20.00    -0.296 OA
HETATM   11 BR11 UNL     1     -34.217  15.438  -6.740  1.00 20.00    -0.076 Br
ENDROOT
TORSDOF 0
ENDMDL
MODEL 9
REMARK VINA RESULT:      -4.5      1.817      3.144
REMARK  0 active torsions:
REMARK  status: ('A' for Active; 'I' for Inactive)
ROOT
HETATM    1  C1  UNL     1     -35.502  16.974  -4.550  1.00 20.00     0.147 C 
HETATM    2  C2  UNL     1     -34.050  17.330  -4.812  1.00 20.00     0.085 C 
HETATM    3  C3  UNL     1     -33.579  16.202  -2.632  1.00 20.00     0.008 C 
HETATM    4  C4  UNL     1     -35.082  15.896  -2.435  1.00 20.00     0.030 C 
HETATM    5  C5  UNL     1     -33.394  16.080  -4.169  1.00 20.00     0.002 C 
HETATM    6  C6  UNL     1     -35.547  15.615  -3.868  1.00 20.00     0.086 C 
HETATM    7  C7  UNL     1     -34.353  14.912  -4.545  1.00 20.00    -0.019 C 
HETATM    8  C8  UNL     1     -34.489  14.682  -6.065  1.00 20.00     0.017 C 
HETATM    9  C9  UNL     1     -33.944  13.560  -3.927  1.00 20.00     0.017 C 
HETATM   10  O10 UNL     1     -36.450  17.694  -4.823  1.00 20.00    -0.296 OA
HETATM   11 BR11 UNL     1     -37.243  14.785  -4.010  1.00 20.00    -0.076 Br
ENDROOT
TORSDOF 0
ENDMDL
