MODEL 1
REMARK VINA RESULT:      -3.8      0.000      0.000
REMARK  1 active torsions:
REMARK  status: ('A' for Active; 'I' for Inactive)
REMARK    1  A    between atoms: C4_4  and  C6_6 
ROOT
HETATM    1  C1  UNL     1     -35.182  13.400  -4.463  1.00 20.00     0.280 C 
HETATM    2  C2  UNL     1     -34.816  13.954  -5.835  1.00 20.00     0.104 C 
HETATM    3  C3  UNL     1     -33.383  15.794  -4.418  1.00 20.00     0.109 C 
HETATM    4  C4  UNL     1     -33.853  15.030  -3.174  1.00 20.00     0.229 C 
HETATM    5  N7  UNL     1     -34.146  13.618  -3.454  1.00 20.00     0.089 N 
HETATM    6  S8  UNL     1     -34.579  15.751  -5.785  1.00 20.00    -0.165 SA
HETATM    7  H21 UNL     1     -34.425  13.150  -2.579  1.00 20.00     0.316 HD
ENDROOT
BRANCH   4   8
HETATM    8  C6  UNL     1     -35.000  15.733  -2.437  1.00 20.00     0.032 C 
HETATM    9  C5  UNL     1     -34.506  16.484  -1.246  1.00 20.00     0.007 C 
ENDBRANCH   4   8
TORSDOF 1
ENDMDL
MODEL 2
REMARK VINA RESULT:      -3.5      1.392      3.604
REMARK  1 active torsions:
REMARK  status: ('A' for Active; 'I' for Inactive)
REMARK    1  A    between atoms: C4_4  and  C6_6 
ROOT
HETATM    1  C1  UNL     1     -33.343  15.476  -3.487  1.00 20.00     0.280 C 
HETATM    2  C2  UNL     1     -34.536  15.606  -2.546  1.00 20.00     0.104 C 
HETATM    3  C3  UNL     1     -35.771  13.928  -4.308  1.00 20.00     0.109 C 
HETATM    4  C4  UNL     1     -34.435  13.922  -5.060  1.00 20.00     0.229 C 
HETATM    5  N7  UNL     1     -33.288  14.191  -4.181  1.00 20.00     0.089 N 
HETATM    6  S8  UNL     1     -36.106  15.490  -3.445  1.00 20.00    -0.165 SA
HETATM    7  H21 UNL     1     -32.420  14.143  -4.733  1.00 20.00     0.316 HD
ENDROOT
BRANCH   4   8
HETATM    8  C6  UNL     1     -34.444  14.820  -6.304  1.00 20.00     0.032 C 
HETATM    9  C5  UNL     1     -35.485  14.390  -7.282  1.00 20.00     0.007 C 
ENDBRANCH   4   8
TORSDOF 1
ENDMDL
MODEL 3
REMARK VINA RESULT:      -3.5      1.041      1.204
REMARK  1 active torsions:
REMARK  status: ('A' for Active; 'I' for Inactive)
REMARK    1  A    between atoms: C4_4  and  C6_6 
ROOT
HETATM    1  C1  UNL     1     -34.865  14.165  -5.965  1.00 20.00     0.280 C 
HETATM    2  C2  UNL     1     -34.367  15.310  -6.842  1.00 20.00     0.104 C 
HETATM    3  C3  UNL     1     -33.116  16.155  -4.568  1.00 20.00     0.109 C 
HETATM    4  C4  UNL     1     -33.701  14.895  -3.917  1.00 20.00     0.229 C 
HETATM    5  N7  UNL     1     -33.942  13.817  -4.886  1.00 20.00     0.089 N 
HETATM    6  S8  UNL     1     -34.163  16.837  -5.886  1.00 20.00    -0.165 SA
HETATM    7  H21 UNL     1     -34.303  12.989  -4.389  1.00 20.00     0.316 HD
ENDROOT
BRANCH   4   8
HETATM    8  C6  UNL     1     -34.928  15.186  -3.044  1.00 20.00     0.032 C 
HETATM    9  C5  UNL     1     -34.605  16.146  -1.949  1.00 20.00     0.007 C 
ENDBRANCH   4   8
TORSDOF 1
ENDMDL
MODEL 4
REMARK VINA RESULT:      -3.4      1.896      3.179
REMARK  1 active torsions:
REMARK  status: ('A' for Active; 'I' for Inactive)
REMARK    1  A    between atoms: C4_4  and  C6_6 
ROOT
HETATM    1  C1  UNL     1     -33.447  16.675  -5.371  1.00 20.00     0.280 C 
HETATM    2  C2  UNL     1     -33.614  18.000  -4.635  1.00 20.00     0.104 C 
HETATM    3  C3  UNL     1     -33.805  16.434  -2.408  1.00 20.00     0.109 C 
HETATM    4  C4  UNL     1     -33.571  15.254  -3.360  1.00 20.00     0.229 C 
HETATM    5  N7  UNL     1     -32.815  15.636  -4.560  1.00 20.00     0.089 N 
HETATM    6  S8  UNL     1     -34.685  17.821  -3.182  1.00 20.00    -0.165 SA
HETATM    7  H21 UNL     1     -32.661  14.801  -5.143  1.00 20.00     0.316 HD
ENDROOT
BRANCH   4   8
HETATM    8  C6  UNL     1     -34.859  14.490  -3.695  1.00 20.00     0.032 C 
HETATM    9  C5  UNL     1     -34.577  13.272  -4.509  1.00 20.00     0.007 C 
ENDBRANCH   4   8
TORSDOF 1
ENDMDL
MODEL 5
REMARK VINA RESULT:      -3.4      1.278      1.410
REMARK  1 active torsions:
REMARK  status: ('A' for Active; 'I' for Inactive)
REMARK    1  A    between atoms: C4_4  and  C6_6 
ROOT
HETATM    1  C1  UNL     1     -33.895  13.671  -3.710  1.00 20.00     0.280 C 
HETATM    2  C2  UNL     1     -34.508  13.305  -5.058  1.00 20.00     0.104 C 
HETATM    3  C3  UNL     1     -34.002  15.909  -5.697  1.00 20.00     0.109 C 
HETATM    4  C4  UNL     1     -33.391  16.013  -4.295  1.00 20.00     0.229 C 
HETATM    5  N7  UNL     1     -32.886  14.725  -3.799  1.00 20.00     0.089 N 
HETATM    6  S8  UNL     1     -35.368  14.717  -5.801  1.00 20.00    -0.165 SA
HETATM    7  H21 UNL     1     -32.460  14.863  -2.871  1.00 20.00     0.316 HD
ENDROOT
BRANCH   4   8
HETATM    8  C6  UNL     1     -34.316  16.708  -3.288  1.00 20.00     0.032 C 
HETATM    9  C5  UNL     1     -33.685  16.804  -1.940  1.00 20.00     0.007 C 
ENDBRANCH   4   8
TORSDOF 1
ENDMDL
MODEL 6
REMARK VINA RESULT:      -3.4      1.735      2.243
REMARK  1 active torsions:
REMARK  status: ('A' for Active; 'I' for Inactive)
REMARK    1  A    between atoms: C4_4  and  C6_6 
ROOT
HETATM    1  C1  UNL     1     -34.021  16.081  -5.422  1.00 20.00     0.280 C 
HETATM    2  C2  UNL     1     -34.461  14.762  -6.049  1.00 20.00     0.104 C 
HETATM    3  C3  UNL     1     -35.962  14.492  -3.786  1.00 20.00     0.109 C 
HETATM    4  C4  UNL     1     -35.409  15.868  -3.395  1.00 20.00     0.229 C 
HETATM    5  N7  UNL     1     -35.038  16.682  -4.561  1.00 20.00     0.089 N 
HETATM    6  S8  UNL     1     -34.807  13.509  -4.784  1.00 20.00    -0.165 SA
HETATM    7  H21 UNL     1     -34.705  17.603  -4.239  1.00 20.00     0.316 HD
ENDROOT
BRANCH   4   8
HETATM    8  C6  UNL     1     -34.287  15.789  -2.352  1.00 20.00     0.032 C 
HETATM    9  C5  UNL     1     -34.653  16.509  -1.098  1.00 20.00     0.007 C 
ENDBRANCH   4   8
TORSDOF 1
ENDMDL
MODEL 7
REMARK VINA RESULT:      -3.4      1.986      2.320
REMARK  1 active torsions:
REMARK  status: ('A' for Active; 'I' for Inactive)
REMARK    1  A    between atoms: C4_4  and  C6_6 
ROOT
HETATM    1  C1  UNL     1     -36.131  16.906  -3.638  1.00 20.00     0.280 C 
HETATM    2  C2  UNL     1     -35.380  16.683  -4.946  1.00 20.00     0.104 C 
HETATM    3  C3  UNL     1     -33.491  15.521  -3.357  1.00 20.00     0.109 C 
HETATM    4  C4  UNL     1     -34.452  15.816  -2.198  1.00 20.00     0.229 C 
HETATM    5  N7  UNL     1     -35.855  15.885  -2.629  1.00 20.00     0.089 N 
HETATM    6  S8  UNL     1     -33.584  16.741  -4.699  1.00 20.00    -0.165 SA
HETATM    7  H21 UNL     1     -36.453  16.053  -1.808  1.00 20.00     0.316 HD
ENDROOT
BRANCH   4   8
HETATM    8  C6  UNL     1     -34.032  17.035  -1.367  1.00 20.00     0.032 C 
HETATM    9  C5  UNL     1     -34.795  17.115  -0.088  1.00 20.00     0.007 C 
ENDBRANCH   4   8
TORSDOF 1
ENDMDL
MODEL 8
REMARK VINA RESULT:      -3.4      1.752      3.311
REMARK  1 active torsions:
REMARK  status: ('A' for Active; 'I' for Inactive)
REMARK    1  A    between atoms: C4_4  and  C6_6 
ROOT
HETATM    1  C1  UNL     1     -34.057  16.590  -1.895  1.00 20.00     0.280 C 
HETATM    2  C2  UNL     1     -33.819  17.716  -2.895  1.00 20.00     0.104 C 
HETATM    3  C3  UNL     1     -35.241  16.138  -4.608  1.00 20.00     0.109 C 
HETATM    4  C4  UNL     1     -35.384  15.178  -3.420  1.00 20.00     0.229 C 
HETATM    5  N7  UNL     1     -35.306  15.865  -2.124  1.00 20.00     0.089 N 
HETATM    6  S8  UNL     1     -33.690  17.082  -4.589  1.00 20.00    -0.165 SA
HETATM    7  H21 UNL     1     -35.440  15.177  -1.368  1.00 20.00     0.316 HD
ENDROOT
BRANCH   4   8
HETATM    8  C6  UNL     1     -34.436  13.975  -3.506  1.00 20.00     0.032 C 
HETATM    9  C5  UNL     1     -34.596  13.242  -4.796  1.00 20.00     0.007 C 
ENDBRANCH   4   8
TORSDOF 1
ENDMDL
MODEL 9
REMARK VINA RESULT:      -3.3      2.166      3.196
REMARK  1 active torsions:
REMARK  status: ('A' for Active; 'I' for Inactive)
REMARK    1  A    between atoms: C4_4  and  C6_6 
ROOT
HETATM    1  C1  UNL     1     -33.047  15.260  -3.723  1.00 20.00     0.280 C 
HETATM    2  C2  UNL     1     -33.394  13.775  -3.758  1.00 20.00     0.104 C 
HETATM    3  C3  UNL     1     -34.692  14.407  -6.074  1.00 20.00     0.109 C 
HETATM    4  C4  UNL     1     -34.177  15.832  -5.838  1.00 20.00     0.229 C 
HETATM    5  N7  UNL     1     -32.938  15.863  -5.050  1.00 20.00     0.089 N 
HETATM    6  S8  UNL     1     -35.006  13.490  -4.538  1.00 20.00    -0.165 SA
HETATM    7  H21 UNL     1     -32.623  16.839  -4.952  1.00 20.00     0.316 HD
ENDROOT
BRANCH   4   8
HETATM    8  C6  UNL     1     -35.252  16.772  -5.280  1.00 20.00     0.032 C 
HETATM    9  C5  UNL     1     -36.509  16.705  -6.081  1.00 20.00     0.007 C 
ENDBRANCH   4   8
TORSDOF 1
ENDMDL
