MODEL 1
REMARK VINA RESULT:      -5.3      0.000      0.000
REMARK  1 active torsions:
REMARK  status: ('A' for Active; 'I' for Inactive)
REMARK    1  A    between atoms: C1_1  and  C5_5 
ROOT
HETATM    1  C2  UNL     1     -34.461  14.828  -6.106  1.00 20.00     0.022 C 
HETATM    2  C3  UNL     1     -33.852  16.237  -6.196  1.00 20.00     0.011 C 
HETATM    3  C4  UNL     1     -35.780  16.321  -4.771  1.00 20.00     0.031 C 
HETATM    4  C5  UNL     1     -35.080  14.931  -4.709  1.00 20.00     0.057 C 
HETATM    5  C6  UNL     1     -34.284  16.789  -4.820  1.00 20.00    -0.035 C 
HETATM    6  C7  UNL     1     -34.028  15.627  -3.745  1.00 20.00    -0.023 C 
HETATM    7  C8  UNL     1     -33.923  18.219  -4.540  1.00 20.00     0.016 C 
HETATM    8  C9  UNL     1     -32.615  15.024  -3.707  1.00 20.00     0.017 C 
HETATM    9  C10 UNL     1     -34.444  15.890  -2.285  1.00 20.00     0.017 C 
ENDROOT
BRANCH   4  10
HETATM   10  C1  UNL     1     -35.839  13.766  -4.233  1.00 20.00     0.182 C 
HETATM   11  O11 UNL     1     -37.023  14.006  -3.868  1.00 20.00    -0.647 OA
HETATM   12  O12 UNL     1     -35.202  12.675  -4.254  1.00 20.00    -0.647 OA
ENDBRANCH   4  10
TORSDOF 1
ENDMDL
MODEL 2
REMARK VINA RESULT:      -5.3      1.153      2.696
REMARK  1 active torsions:
REMARK  status: ('A' for Active; 'I' for Inactive)
REMARK    1  A    between atoms: C1_1  and  C5_5 
ROOT
HETATM    1  C2  UNL     1     -34.767  15.484  -2.726  1.00 20.00     0.022 C 
HETATM    2  C3  UNL     1     -34.651  16.966  -3.120  1.00 20.00     0.011 C 
HETATM    3  C4  UNL     1     -32.915  15.737  -4.228  1.00 20.00     0.031 C 
HETATM    4  C5  UNL     1     -34.180  14.859  -3.995  1.00 20.00     0.057 C 
HETATM    5  C6  UNL     1     -34.023  16.807  -4.522  1.00 20.00    -0.035 C 
HETATM    6  C7  UNL     1     -34.796  15.608  -5.252  1.00 20.00    -0.023 C 
HETATM    7  C8  UNL     1     -33.681  18.081  -5.239  1.00 20.00     0.016 C 
HETATM    8  C9  UNL     1     -36.328  15.715  -5.317  1.00 20.00     0.017 C 
HETATM    9  C10 UNL     1     -34.316  15.187  -6.654  1.00 20.00     0.017 C 
ENDROOT
BRANCH   4  10
HETATM   10  C1  UNL     1     -34.052  13.395  -4.014  1.00 20.00     0.182 C 
HETATM   11  O11 UNL     1     -35.110  12.764  -4.287  1.00 20.00    -0.647 OA
HETATM   12  O12 UNL     1     -32.894  12.962  -3.754  1.00 20.00    -0.647 OA
ENDBRANCH   4  10
TORSDOF 1
ENDMDL
MODEL 3
REMARK VINA RESULT:      -5.0      1.297      2.109
REMARK  1 active torsions:
REMARK  status: ('A' for Active; 'I' for Inactive)
REMARK    1  A    between atoms: C1_1  and  C5_5 
ROOT
HETATM    1  C2  UNL     1     -32.940  15.739  -4.432  1.00 20.00     0.022 C 
HETATM    2  C3  UNL     1     -33.610  17.097  -4.705  1.00 20.00     0.011 C 
HETATM    3  C4  UNL     1     -34.932  15.370  -5.716  1.00 20.00     0.031 C 
HETATM    4  C5  UNL     1     -34.192  14.856  -4.445  1.00 20.00     0.057 C 
HETATM    5  C6  UNL     1     -35.080  16.639  -4.806  1.00 20.00    -0.035 C 
HETATM    6  C7  UNL     1     -35.331  15.591  -3.619  1.00 20.00    -0.023 C 
HETATM    7  C8  UNL     1     -36.082  17.706  -5.144  1.00 20.00     0.016 C 
HETATM    8  C9  UNL     1     -34.970  16.059  -2.200  1.00 20.00     0.017 C 
HETATM    9  C10 UNL     1     -36.713  14.916  -3.531  1.00 20.00     0.017 C 
ENDROOT
BRANCH   4  10
HETATM   10  C1  UNL     1     -33.985  13.412  -4.270  1.00 20.00     0.182 C 
HETATM   11  O11 UNL     1     -34.803  12.672  -4.883  1.00 20.00    -0.647 OA
HETATM   12  O12 UNL     1     -33.011  13.103  -3.526  1.00 20.00    -0.647 OA
ENDBRANCH   4  10
TORSDOF 1
ENDMDL
MODEL 4
REMARK VINA RESULT:      -4.9      1.487      2.601
REMARK  1 active torsions:
REMARK  status: ('A' for Active; 'I' for Inactive)
REMARK    1  A    between atoms: C1_1  and  C5_5 
ROOT
HETATM    1  C2  UNL     1     -36.519  14.513  -3.824  1.00 20.00     0.022 C 
HETATM    2  C3  UNL     1     -36.855  15.981  -3.512  1.00 20.00     0.011 C 
HETATM    3  C4  UNL     1     -34.645  15.508  -2.707  1.00 20.00     0.031 C 
HETATM    4  C5  UNL     1     -34.999  14.644  -3.954  1.00 20.00     0.057 C 
HETATM    5  C6  UNL     1     -35.432  16.578  -3.542  1.00 20.00    -0.035 C 
HETATM    6  C7  UNL     1     -34.680  15.944  -4.808  1.00 20.00    -0.023 C 
HETATM    7  C8  UNL     1     -35.322  18.038  -3.207  1.00 20.00     0.016 C 
HETATM    8  C9  UNL     1     -35.388  16.075  -6.166  1.00 20.00     0.017 C 
HETATM    9  C10 UNL     1     -33.203  16.319  -5.034  1.00 20.00     0.017 C 
ENDROOT
BRANCH   4  10
HETATM   10  C1  UNL     1     -34.246  13.407  -4.206  1.00 20.00     0.182 C 
HETATM   11  O11 UNL     1     -34.807  12.583  -4.980  1.00 20.00    -0.647 OA
HETATM   12  O12 UNL     1     -33.134  13.334  -3.612  1.00 20.00    -0.647 OA
ENDBRANCH   4  10
TORSDOF 1
ENDMDL
MODEL 5
REMARK VINA RESULT:      -4.9      1.225      2.329
REMARK  1 active torsions:
REMARK  status: ('A' for Active; 'I' for Inactive)
REMARK    1  A    between atoms: C1_1  and  C5_5 
ROOT
HETATM    1  C2  UNL     1     -36.071  16.012  -4.617  1.00 20.00     0.022 C 
HETATM    2  C3  UNL     1     -35.713  17.026  -3.517  1.00 20.00     0.011 C 
HETATM    3  C4  UNL     1     -35.096  14.832  -2.772  1.00 20.00     0.031 C 
HETATM    4  C5  UNL     1     -34.998  14.960  -4.321  1.00 20.00     0.057 C 
HETATM    5  C6  UNL     1     -34.522  16.288  -2.869  1.00 20.00    -0.035 C 
HETATM    6  C7  UNL     1     -33.622  15.708  -4.062  1.00 20.00    -0.023 C 
HETATM    7  C8  UNL     1     -33.912  16.949  -1.667  1.00 20.00     0.016 C 
HETATM    8  C9  UNL     1     -33.165  16.713  -5.131  1.00 20.00     0.017 C 
HETATM    9  C10 UNL     1     -32.393  14.857  -3.691  1.00 20.00     0.017 C 
ENDROOT
BRANCH   4  10
HETATM   10  C1  UNL     1     -35.019  13.743  -5.145  1.00 20.00     0.182 C 
HETATM   11  O11 UNL     1     -34.981  12.657  -4.503  1.00 20.00    -0.647 OA
HETATM   12  O12 UNL     1     -35.073  13.948  -6.390  1.00 20.00    -0.647 OA
ENDBRANCH   4  10
TORSDOF 1
ENDMDL
MODEL 6
REMARK VINA RESULT:      -4.7      1.968      3.136
REMARK  1 active torsions:
REMARK  status: ('A' for Active; 'I' for Inactive)
REMARK    1  A    between atoms: C1_1  and  C5_5 
ROOT
HETATM    1  C2  UNL     1     -34.338  13.443  -4.912  1.00 20.00     0.022 C 
HETATM    2  C3  UNL     1     -34.230  13.747  -3.408  1.00 20.00     0.011 C 
HETATM    3  C4  UNL     1     -33.657  15.726  -4.637  1.00 20.00     0.031 C 
HETATM    4  C5  UNL     1     -34.687  14.849  -5.408  1.00 20.00     0.057 C 
HETATM    5  C6  UNL     1     -34.545  15.258  -3.431  1.00 20.00    -0.035 C 
HETATM    6  C7  UNL     1     -35.778  15.467  -4.435  1.00 20.00    -0.023 C 
HETATM    7  C8  UNL     1     -34.471  15.968  -2.110  1.00 20.00     0.016 C 
HETATM    8  C9  UNL     1     -37.033  14.621  -4.169  1.00 20.00     0.017 C 
HETATM    9  C10 UNL     1     -36.255  16.908  -4.701  1.00 20.00     0.017 C 
ENDROOT
BRANCH   4  10
HETATM   10  C1  UNL     1     -34.831  15.021  -6.861  1.00 20.00     0.182 C 
HETATM   11  O11 UNL     1     -34.243  16.028  -7.345  1.00 20.00    -0.647 OA
HETATM   12  O12 UNL     1     -35.526  14.135  -7.433  1.00 20.00    -0.647 OA
ENDBRANCH   4  10
TORSDOF 1
ENDMDL
MODEL 7
REMARK VINA RESULT:      -4.6      1.277      2.619
REMARK  1 active torsions:
REMARK  status: ('A' for Active; 'I' for Inactive)
REMARK    1  A    between atoms: C1_1  and  C5_5 
ROOT
HETATM    1  C2  UNL     1     -35.667  16.909  -4.666  1.00 20.00     0.022 C 
HETATM    2  C3  UNL     1     -34.164  16.938  -4.343  1.00 20.00     0.011 C 
HETATM    3  C4  UNL     1     -35.182  15.146  -3.115  1.00 20.00     0.031 C 
HETATM    4  C5  UNL     1     -35.921  15.413  -4.460  1.00 20.00     0.057 C 
HETATM    5  C6  UNL     1     -33.943  15.442  -4.031  1.00 20.00    -0.035 C 
HETATM    6  C7  UNL     1     -34.737  14.605  -5.144  1.00 20.00    -0.023 C 
HETATM    7  C8  UNL     1     -32.560  15.058  -3.590  1.00 20.00     0.016 C 
HETATM    8  C9  UNL     1     -34.423  14.940  -6.611  1.00 20.00     0.017 C 
HETATM    9  C10 UNL     1     -34.743  13.069  -5.026  1.00 20.00     0.017 C 
ENDROOT
BRANCH   4  10
HETATM   10  C1  UNL     1     -37.305  14.947  -4.623  1.00 20.00     0.182 C 
HETATM   11  O11 UNL     1     -37.861  15.277  -5.706  1.00 20.00    -0.647 OA
HETATM   12  O12 UNL     1     -37.755  14.276  -3.651  1.00 20.00    -0.647 OA
ENDBRANCH   4  10
TORSDOF 1
ENDMDL
MODEL 8
REMARK VINA RESULT:      -4.6      1.080      2.636
REMARK  1 active torsions:
REMARK  status: ('A' for Active; 'I' for Inactive)
REMARK    1  A    between atoms: C1_1  and  C5_5 
ROOT
HETATM    1  C2  UNL     1     -33.676  15.428  -4.340  1.00 20.00     0.022 C 
HETATM    2  C3  UNL     1     -33.365  16.562  -5.332  1.00 20.00     0.011 C 
HETATM    3  C4  UNL     1     -34.457  14.782  -6.513  1.00 20.00     0.031 C 
HETATM    4  C5  UNL     1     -34.918  14.853  -5.027  1.00 20.00     0.057 C 
HETATM    5  C6  UNL     1     -34.514  16.340  -6.339  1.00 20.00    -0.035 C 
HETATM    6  C7  UNL     1     -35.842  16.060  -5.485  1.00 20.00    -0.023 C 
HETATM    7  C8  UNL     1     -34.521  17.242  -7.539  1.00 20.00     0.016 C 
HETATM    8  C9  UNL     1     -36.205  17.102  -4.415  1.00 20.00     0.017 C 
HETATM    9  C10 UNL     1     -37.137  15.732  -6.251  1.00 20.00     0.017 C 
ENDROOT
BRANCH   4  10
HETATM   10  C1  UNL     1     -35.527  13.667  -4.408  1.00 20.00     0.182 C 
HETATM   11  O11 UNL     1     -34.918  12.580  -4.610  1.00 20.00    -0.647 OA
HETATM   12  O12 UNL     1     -36.584  13.895  -3.754  1.00 20.00    -0.647 OA
ENDBRANCH   4  10
TORSDOF 1
ENDMDL
MODEL 9
REMARK VINA RESULT:      -4.6      1.511      1.898
REMARK  1 active torsions:
REMARK  status: ('A' for Active; 'I' for Inactive)
REMARK    1  A    between atoms: C1_1  and  C5_5 
ROOT
HETATM    1  C2  UNL     1     -36.341  14.823  -5.973  1.00 20.00     0.022 C 
HETATM    2  C3  UNL     1     -34.911  15.233  -6.363  1.00 20.00     0.011 C 
HETATM    3  C4  UNL     1     -35.779  16.848  -4.817  1.00 20.00     0.031 C 
HETATM    4  C5  UNL     1     -36.382  15.433  -4.569  1.00 20.00     0.057 C 
HETATM    5  C6  UNL     1     -34.500  15.978  -5.076  1.00 20.00    -0.035 C 
HETATM    6  C7  UNL     1     -35.014  15.099  -3.837  1.00 20.00    -0.023 C 
HETATM    7  C8  UNL     1     -33.138  16.610  -5.086  1.00 20.00     0.016 C 
HETATM    8  C9  UNL     1     -34.580  13.624  -3.813  1.00 20.00     0.017 C 
HETATM    9  C10 UNL     1     -34.795  15.654  -2.417  1.00 20.00     0.017 C 
ENDROOT
BRANCH   4  10
HETATM   10  C1  UNL     1     -37.648  15.312  -3.831  1.00 20.00     0.182 C 
HETATM   11  O11 UNL     1     -38.121  16.396  -3.392  1.00 20.00    -0.647 OA
HETATM   12  O12 UNL     1     -38.093  14.134  -3.735  1.00 20.00    -0.647 OA
ENDBRANCH   4  10
TORSDOF 1
ENDMDL
