MODEL 1
REMARK VINA RESULT:      -4.4      0.000      0.000
REMARK  1 active torsions:
REMARK  status: ('A' for Active; 'I' for Inactive)
REMARK    1  A    between atoms: C3_3  and  O10_10 
ROOT
HETATM    1  C1  UNL     1     -36.180  14.457  -5.048  1.00 20.00     0.041 C 
HETATM    2  C2  UNL     1     -33.888  15.360  -5.180  1.00 20.00     0.020 C 
HETATM    3  C3  UNL     1     -35.237  13.638  -4.167  1.00 20.00     0.126 C 
HETATM    4  C4  UNL     1     -35.263  15.368  -5.898  1.00 20.00    -0.045 C 
HETATM    5  C5  UNL     1     -34.086  14.610  -3.845  1.00 20.00    -0.021 C 
HETATM    6  C6  UNL     1     -35.838  16.788  -5.987  1.00 20.00     0.015 C 
HETATM    7  C7  UNL     1     -35.119  14.814  -7.326  1.00 20.00     0.015 C 
HETATM    8  C8  UNL     1     -32.792  13.904  -3.418  1.00 20.00     0.017 C 
HETATM    9  C9  UNL     1     -34.494  15.589  -2.726  1.00 20.00     0.017 C 
ENDROOT
BRANCH   3  10
HETATM   10  O10 UNL     1     -34.792  12.513  -4.918  1.00 20.00    -0.395 OA
HETATM   11  H28 UNL     1     -35.559  11.925  -5.033  1.00 20.00     0.210 HD
ENDBRANCH   3  10
TORSDOF 1
ENDMDL
MODEL 2
REMARK VINA RESULT:      -4.4      1.404      3.440
REMARK  1 active torsions:
REMARK  status: ('A' for Active; 'I' for Inactive)
REMARK    1  A    between atoms: C3_3  and  O10_10 
ROOT
HETATM    1  C1  UNL     1     -34.744  13.810  -3.711  1.00 20.00     0.041 C 
HETATM    2  C2  UNL     1     -35.038  16.066  -4.667  1.00 20.00     0.020 C 
HETATM    3  C3  UNL     1     -35.995  13.854  -4.589  1.00 20.00     0.126 C 
HETATM    4  C4  UNL     1     -34.305  15.284  -3.545  1.00 20.00    -0.045 C 
HETATM    5  C5  UNL     1     -35.727  15.016  -5.565  1.00 20.00    -0.021 C 
HETATM    6  C6  UNL     1     -32.781  15.416  -3.678  1.00 20.00     0.015 C 
HETATM    7  C7  UNL     1     -34.719  15.823  -2.165  1.00 20.00     0.015 C 
HETATM    8  C8  UNL     1     -37.003  15.589  -6.195  1.00 20.00     0.017 C 
HETATM    9  C9  UNL     1     -34.786  14.569  -6.701  1.00 20.00     0.017 C 
ENDROOT
BRANCH   3  10
HETATM   10  O10 UNL     1     -37.117  14.109  -3.750  1.00 20.00    -0.395 OA
HETATM   11  H28 UNL     1     -37.317  13.280  -3.280  1.00 20.00     0.210 HD
ENDBRANCH   3  10
TORSDOF 1
ENDMDL
MODEL 3
REMARK VINA RESULT:      -4.3      1.844      2.684
REMARK  1 active torsions:
REMARK  status: ('A' for Active; 'I' for Inactive)
REMARK    1  A    between atoms: C3_3  and  O10_10 
ROOT
HETATM    1  C1  UNL     1     -34.097  14.312  -4.012  1.00 20.00     0.041 C 
HETATM    2  C2  UNL     1     -35.371  16.423  -4.129  1.00 20.00     0.020 C 
HETATM    3  C3  UNL     1     -33.210  15.489  -3.608  1.00 20.00     0.126 C 
HETATM    4  C4  UNL     1     -35.377  14.947  -4.607  1.00 20.00    -0.045 C 
HETATM    5  C5  UNL     1     -34.205  16.561  -3.126  1.00 20.00    -0.021 C 
HETATM    6  C6  UNL     1     -36.629  14.207  -4.116  1.00 20.00     0.015 C 
HETATM    7  C7  UNL     1     -35.351  14.887  -6.143  1.00 20.00     0.015 C 
HETATM    8  C8  UNL     1     -33.629  17.984  -3.151  1.00 20.00     0.017 C 
HETATM    9  C9  UNL     1     -34.681  16.259  -1.691  1.00 20.00     0.017 C 
ENDROOT
BRANCH   3  10
HETATM   10  O10 UNL     1     -32.483  15.913  -4.758  1.00 20.00    -0.395 OA
HETATM   11  H28 UNL     1     -33.023  16.588  -5.204  1.00 20.00     0.210 HD
ENDBRANCH   3  10
TORSDOF 1
ENDMDL
MODEL 4
REMARK VINA RESULT:      -4.3      1.722      3.365
REMARK  1 active torsions:
REMARK  status: ('A' for Active; 'I' for Inactive)
REMARK    1  A    between atoms: C3_3  and  O10_10 
ROOT
HETATM    1  C1  UNL     1     -33.852  16.826  -3.875  1.00 20.00     0.041 C 
HETATM    2  C2  UNL     1     -35.434  15.016  -3.320  1.00 20.00     0.020 C 
HETATM    3  C3  UNL     1     -33.424  15.523  -4.550  1.00 20.00     0.126 C 
HETATM    4  C4  UNL     1     -34.965  16.427  -2.877  1.00 20.00    -0.045 C 
HETATM    5  C5  UNL     1     -34.729  14.712  -4.659  1.00 20.00    -0.021 C 
HETATM    6  C6  UNL     1     -36.119  17.437  -2.917  1.00 20.00     0.015 C 
HETATM    7  C7  UNL     1     -34.415  16.377  -1.441  1.00 20.00     0.015 C 
HETATM    8  C8  UNL     1     -34.497  13.203  -4.823  1.00 20.00     0.017 C 
HETATM    9  C9  UNL     1     -35.579  15.201  -5.847  1.00 20.00     0.017 C 
ENDROOT
BRANCH   3  10
HETATM   10  O10 UNL     1     -32.465  14.884  -3.714  1.00 20.00    -0.395 OA
HETATM   11  H28 UNL     1     -31.683  14.701  -4.264  1.00 20.00     0.210 HD
ENDBRANCH   3  10
TORSDOF 1
ENDMDL
MODEL 5
REMARK VINA RESULT:      -4.2      1.910      3.224
REMARK  1 active torsions:
REMARK  status: ('A' for Active; 'I' for Inactive)
REMARK    1  A    between atoms: C3_3  and  O10_10 
ROOT
HETATM    1  C1  UNL     1     -34.783  16.981  -4.626  1.00 20.00     0.041 C 
HETATM    2  C2  UNL     1     -34.448  15.568  -2.630  1.00 20.00     0.020 C 
HETATM    3  C3  UNL     1     -33.996  15.723  -4.993  1.00 20.00     0.126 C 
HETATM    4  C4  UNL     1     -34.820  17.006  -3.079  1.00 20.00    -0.045 C 
HETATM    5  C5  UNL     1     -34.391  14.703  -3.908  1.00 20.00    -0.021 C 
HETATM    6  C6  UNL     1     -36.214  17.405  -2.575  1.00 20.00     0.015 C 
HETATM    7  C7  UNL     1     -33.798  18.015  -2.526  1.00 20.00     0.015 C 
HETATM    8  C8  UNL     1     -33.379  13.560  -3.749  1.00 20.00     0.017 C 
HETATM    9  C9  UNL     1     -35.771  14.088  -4.213  1.00 20.00     0.017 C 
ENDROOT
BRANCH   3  10
HETATM   10  O10 UNL     1     -32.608  16.039  -4.951  1.00 20.00    -0.395 OA
HETATM   11  H28 UNL     1     -32.151  15.272  -4.562  1.00 20.00     0.210 HD
ENDBRANCH   3  10
TORSDOF 1
ENDMDL
MODEL 6
REMARK VINA RESULT:      -4.2      1.957      2.927
REMARK  1 active torsions:
REMARK  status: ('A' for Active; 'I' for Inactive)
REMARK    1  A    between atoms: C3_3  and  O10_10 
ROOT
HETATM    1  C1  UNL     1     -34.336  14.907  -3.203  1.00 20.00     0.041 C 
HETATM    2  C2  UNL     1     -35.135  15.915  -5.310  1.00 20.00     0.020 C 
HETATM    3  C3  UNL     1     -33.404  16.040  -3.636  1.00 20.00     0.126 C 
HETATM    4  C4  UNL     1     -35.267  14.655  -4.413  1.00 20.00    -0.045 C 
HETATM    5  C5  UNL     1     -34.291  16.938  -4.519  1.00 20.00    -0.021 C 
HETATM    6  C6  UNL     1     -36.716  14.449  -3.950  1.00 20.00     0.015 C 
HETATM    7  C7  UNL     1     -34.824  13.403  -5.189  1.00 20.00     0.015 C 
HETATM    8  C8  UNL     1     -33.491  17.837  -5.472  1.00 20.00     0.017 C 
HETATM    9  C9  UNL     1     -35.194  17.836  -3.652  1.00 20.00     0.017 C 
ENDROOT
BRANCH   3  10
HETATM   10  O10 UNL     1     -32.323  15.470  -4.368  1.00 20.00    -0.395 OA
HETATM   11  H28 UNL     1     -31.532  15.533  -3.805  1.00 20.00     0.210 HD
ENDBRANCH   3  10
TORSDOF 1
ENDMDL
MODEL 7
REMARK VINA RESULT:      -4.1      2.168      3.446
REMARK  1 active torsions:
REMARK  status: ('A' for Active; 'I' for Inactive)
REMARK    1  A    between atoms: C3_3  and  O10_10 
ROOT
HETATM    1  C1  UNL     1     -33.303  16.071  -4.291  1.00 20.00     0.041 C 
HETATM    2  C2  UNL     1     -35.444  15.129  -3.504  1.00 20.00     0.020 C 
HETATM    3  C3  UNL     1     -34.242  17.191  -3.844  1.00 20.00     0.126 C 
HETATM    4  C4  UNL     1     -34.177  14.794  -4.333  1.00 20.00    -0.045 C 
HETATM    5  C5  UNL     1     -35.197  16.505  -2.849  1.00 20.00    -0.021 C 
HETATM    6  C6  UNL     1     -33.421  13.598  -3.738  1.00 20.00     0.015 C 
HETATM    7  C7  UNL     1     -34.566  14.449  -5.781  1.00 20.00     0.015 C 
HETATM    8  C8  UNL     1     -36.518  17.261  -2.652  1.00 20.00     0.017 C 
HETATM    9  C9  UNL     1     -34.525  16.341  -1.471  1.00 20.00     0.017 C 
ENDROOT
BRANCH   3  10
HETATM   10  O10 UNL     1     -34.928  17.681  -4.993  1.00 20.00    -0.395 OA
HETATM   11  H28 UNL     1     -34.552  17.226  -5.766  1.00 20.00     0.210 HD
ENDBRANCH   3  10
TORSDOF 1
ENDMDL
MODEL 8
REMARK VINA RESULT:      -4.1     11.309     12.706
REMARK  1 active torsions:
REMARK  status: ('A' for Active; 'I' for Inactive)
REMARK    1  A    between atoms: C3_3  and  O10_10 
ROOT
HETATM    1  C1  UNL     1     -41.154   6.396  -0.836  1.00 20.00     0.041 C 
HETATM    2  C2  UNL     1     -43.349   5.620  -1.654  1.00 20.00     0.020 C 
HETATM    3  C3  UNL     1     -41.531   5.074  -0.167  1.00 20.00     0.126 C 
HETATM    4  C4  UNL     1     -42.435   6.870  -1.562  1.00 20.00    -0.045 C 
HETATM    5  C5  UNL     1     -42.513   4.420  -1.158  1.00 20.00    -0.021 C 
HETATM    6  C6  UNL     1     -42.098   7.419  -2.956  1.00 20.00     0.015 C 
HETATM    7  C7  UNL     1     -43.135   7.981  -0.761  1.00 20.00     0.015 C 
HETATM    8  C8  UNL     1     -43.414   3.358  -0.512  1.00 20.00     0.017 C 
HETATM    9  C9  UNL     1     -41.754   3.763  -2.327  1.00 20.00     0.017 C 
ENDROOT
BRANCH   3  10
HETATM   10  O10 UNL     1     -42.148   5.368   1.082  1.00 20.00    -0.395 OA
HETATM   11  H28 UNL     1     -42.445   6.294   1.043  1.00 20.00     0.210 HD
ENDBRANCH   3  10
TORSDOF 1
ENDMDL
MODEL 9
REMARK VINA RESULT:      -4.1      1.270      2.701
REMARK  1 active torsions:
REMARK  status: ('A' for Active; 'I' for Inactive)
REMARK    1  A    between atoms: C3_3  and  O10_10 
ROOT
HETATM    1  C1  UNL     1     -34.965  14.606  -3.451  1.00 20.00     0.041 C 
HETATM    2  C2  UNL     1     -35.895  15.820  -5.388  1.00 20.00     0.020 C 
HETATM    3  C3  UNL     1     -34.300  14.130  -4.743  1.00 20.00     0.126 C 
HETATM    4  C4  UNL     1     -36.165  15.473  -3.901  1.00 20.00    -0.045 C 
HETATM    5  C5  UNL     1     -34.471  15.317  -5.711  1.00 20.00    -0.021 C 
HETATM    6  C6  UNL     1     -36.272  16.740  -3.042  1.00 20.00     0.015 C 
HETATM    7  C7  UNL     1     -37.482  14.688  -3.771  1.00 20.00     0.015 C 
HETATM    8  C8  UNL     1     -34.356  14.919  -7.189  1.00 20.00     0.017 C 
HETATM    9  C9  UNL     1     -33.426  16.412  -5.423  1.00 20.00     0.017 C 
ENDROOT
BRANCH   3  10
HETATM   10  O10 UNL     1     -34.989  12.968  -5.195  1.00 20.00    -0.395 OA
HETATM   11  H28 UNL     1     -35.941  13.137  -5.079  1.00 20.00     0.210 HD
ENDBRANCH   3  10
TORSDOF 1
ENDMDL
