MODEL 1
REMARK VINA RESULT:      -4.9      0.000      0.000
REMARK  3 active torsions:
REMARK  status: ('A' for Active; 'I' for Inactive)
REMARK    1  A    between atoms: C1_1  and  C6_6 
REMARK    2  A    between atoms: C1_1  and  O8_8 
REMARK    3  A    between atoms: C4_4  and  C6_6 
ROOT
HETATM    1  C6  UNL     1     -32.886   6.153   3.017  1.00 20.00     0.115 C 
ENDROOT
BRANCH   1   2
HETATM    2  C1  UNL     1     -32.098   7.440   2.842  1.00 20.00     0.139 C 
HETATM    3  O7  UNL     1     -32.156   8.174   1.867  1.00 20.00    -0.650 OA
BRANCH   2   4
HETATM    4  O8  UNL     1     -31.309   7.679   3.920  1.00 20.00    -0.776 OA
HETATM    5  H18 UNL     1     -31.202   8.639   4.089  1.00 20.00     0.167 HD
ENDBRANCH   2   4
ENDBRANCH   1   2
BRANCH   1   6
HETATM    6  C4  UNL     1     -33.994   6.277   4.005  1.00 20.00    -0.001 A 
HETATM    7  C2  UNL     1     -35.241   5.446   3.853  1.00 20.00     0.010 A 
HETATM    8  C3  UNL     1     -34.274   5.156   4.971  1.00 20.00    -0.014 A 
HETATM    9  C5  UNL     1     -34.647   5.459   6.380  1.00 20.00     0.010 C 
ENDBRANCH   1   6
TORSDOF 3
ENDMDL
MODEL 2
REMARK VINA RESULT:      -4.7      2.739      4.211
REMARK  3 active torsions:
REMARK  status: ('A' for Active; 'I' for Inactive)
REMARK    1  A    between atoms: C1_1  and  C6_6 
REMARK    2  A    between atoms: C1_1  and  O8_8 
REMARK    3  A    between atoms: C4_4  and  C6_6 
ROOT
HETATM    1  C6  UNL     1     -34.647   5.646   3.902  1.00 20.00     0.115 C 
ENDROOT
BRANCH   1   2
HETATM    2  C1  UNL     1     -34.916   4.998   5.249  1.00 20.00     0.139 C 
HETATM    3  O7  UNL     1     -34.718   5.524   6.335  1.00 20.00    -0.650 OA
BRANCH   2   4
HETATM    4  O8  UNL     1     -35.410   3.744   5.097  1.00 20.00    -0.776 OA
HETATM    5  H18 UNL     1     -35.864   3.429   5.908  1.00 20.00     0.167 HD
ENDBRANCH   2   4
ENDBRANCH   1   2
BRANCH   1   6
HETATM    6  C4  UNL     1     -33.363   6.400   3.864  1.00 20.00    -0.001 A 
HETATM    7  C2  UNL     1     -32.123   5.755   3.302  1.00 20.00     0.010 A 
HETATM    8  C3  UNL     1     -32.800   6.870   2.548  1.00 20.00    -0.014 A 
HETATM    9  C5  UNL     1     -32.152   8.206   2.446  1.00 20.00     0.010 C 
ENDBRANCH   1   6
TORSDOF 3
ENDMDL
MODEL 3
REMARK VINA RESULT:      -4.4     10.588     11.392
REMARK  3 active torsions:
REMARK  status: ('A' for Active; 'I' for Inactive)
REMARK    1  A    between atoms: C1_1  and  C6_6 
REMARK    2  A    between atoms: C1_1  and  O8_8 
REMARK    3  A    between atoms: C4_4  and  C6_6 
ROOT
HETATM    1  C6  UNL     1     -35.112  14.829  -3.444  1.00 20.00     0.115 C 
ENDROOT
BRANCH   1   2
HETATM    2  C1  UNL     1     -34.460  13.507  -3.809  1.00 20.00     0.139 C 
HETATM    3  O7  UNL     1     -33.259  13.283  -3.782  1.00 20.00    -0.650 OA
BRANCH   2   4
HETATM    4  O8  UNL     1     -35.390  12.588  -4.175  1.00 20.00    -0.776 OA
HETATM    5  H18 UNL     1     -35.100  12.065  -4.953  1.00 20.00     0.167 HD
ENDBRANCH   2   4
ENDBRANCH   1   2
BRANCH   1   6
HETATM    6  C4  UNL     1     -34.339  15.600  -2.431  1.00 20.00    -0.001 A 
HETATM    7  C2  UNL     1     -33.894  17.008  -2.730  1.00 20.00     0.010 A 
HETATM    8  C3  UNL     1     -34.978  16.760  -1.714  1.00 20.00    -0.014 A 
HETATM    9  C5  UNL     1     -34.712  16.982  -0.266  1.00 20.00     0.010 C 
ENDBRANCH   1   6
TORSDOF 3
ENDMDL
MODEL 4
REMARK VINA RESULT:      -4.3      2.693      4.121
REMARK  3 active torsions:
REMARK  status: ('A' for Active; 'I' for Inactive)
REMARK    1  A    between atoms: C1_1  and  C6_6 
REMARK    2  A    between atoms: C1_1  and  O8_8 
REMARK    3  A    between atoms: C4_4  and  C6_6 
ROOT
HETATM    1  C6  UNL     1     -34.650   5.658   3.908  1.00 20.00     0.115 C 
ENDROOT
BRANCH   1   2
HETATM    2  C1  UNL     1     -34.847   4.855   5.182  1.00 20.00     0.139 C 
HETATM    3  O7  UNL     1     -35.119   3.665   5.229  1.00 20.00    -0.650 OA
BRANCH   2   4
HETATM    4  O8  UNL     1     -34.680   5.635   6.281  1.00 20.00    -0.776 OA
HETATM    5  H18 UNL     1     -35.323   5.413   6.988  1.00 20.00     0.167 HD
ENDBRANCH   2   4
ENDBRANCH   1   2
BRANCH   1   6
HETATM    6  C4  UNL     1     -33.349   6.382   3.871  1.00 20.00    -0.001 A 
HETATM    7  C2  UNL     1     -32.139   5.733   3.252  1.00 20.00     0.010 A 
HETATM    8  C3  UNL     1     -32.806   6.895   2.563  1.00 20.00    -0.014 A 
HETATM    9  C5  UNL     1     -32.128   8.219   2.501  1.00 20.00     0.010 C 
ENDBRANCH   1   6
TORSDOF 3
ENDMDL
MODEL 5
REMARK VINA RESULT:      -4.0     11.273     12.121
REMARK  3 active torsions:
REMARK  status: ('A' for Active; 'I' for Inactive)
REMARK    1  A    between atoms: C1_1  and  C6_6 
REMARK    2  A    between atoms: C1_1  and  O8_8 
REMARK    3  A    between atoms: C4_4  and  C6_6 
ROOT
HETATM    1  C6  UNL     1     -34.080  15.385  -2.864  1.00 20.00     0.115 C 
ENDROOT
BRANCH   1   2
HETATM    2  C1  UNL     1     -32.947  15.566  -3.861  1.00 20.00     0.139 C 
HETATM    3  O7  UNL     1     -32.894  16.438  -4.715  1.00 20.00    -0.650 OA
BRANCH   2   4
HETATM    4  O8  UNL     1     -31.986  14.625  -3.683  1.00 20.00    -0.776 OA
HETATM    5  H18 UNL     1     -32.362  13.770  -3.383  1.00 20.00     0.167 HD
ENDBRANCH   2   4
ENDBRANCH   1   2
BRANCH   1   6
HETATM    6  C4  UNL     1     -34.472  16.655  -2.192  1.00 20.00    -0.001 A 
HETATM    7  C2  UNL     1     -34.683  16.687  -0.701  1.00 20.00     0.010 A 
HETATM    8  C3  UNL     1     -33.490  17.377  -1.307  1.00 20.00    -0.014 A 
HETATM    9  C5  UNL     1     -33.415  18.863  -1.330  1.00 20.00     0.010 C 
ENDBRANCH   1   6
TORSDOF 3
ENDMDL
MODEL 6
REMARK VINA RESULT:      -4.0     10.878     12.658
REMARK  3 active torsions:
REMARK  status: ('A' for Active; 'I' for Inactive)
REMARK    1  A    between atoms: C1_1  and  C6_6 
REMARK    2  A    between atoms: C1_1  and  O8_8 
REMARK    3  A    between atoms: C4_4  and  C6_6 
ROOT
HETATM    1  C6  UNL     1     -34.830  14.910  -3.909  1.00 20.00     0.115 C 
ENDROOT
BRANCH   1   2
HETATM    2  C1  UNL     1     -34.344  13.470  -3.915  1.00 20.00     0.139 C 
HETATM    3  O7  UNL     1     -33.186  13.118  -3.749  1.00 20.00    -0.650 OA
BRANCH   2   4
HETATM    4  O8  UNL     1     -35.371  12.610  -4.131  1.00 20.00    -0.776 OA
HETATM    5  H18 UNL     1     -35.157  11.702  -3.827  1.00 20.00     0.167 HD
ENDBRANCH   2   4
ENDBRANCH   1   2
BRANCH   1   6
HETATM    6  C4  UNL     1     -35.252  15.388  -5.255  1.00 20.00    -0.001 A 
HETATM    7  C2  UNL     1     -34.484  16.486  -5.943  1.00 20.00     0.010 A 
HETATM    8  C3  UNL     1     -34.412  15.075  -6.466  1.00 20.00    -0.014 A 
HETATM    9  C5  UNL     1     -35.064  14.720  -7.757  1.00 20.00     0.010 C 
ENDBRANCH   1   6
TORSDOF 3
ENDMDL
MODEL 7
REMARK VINA RESULT:      -4.0     10.883     11.847
REMARK  3 active torsions:
REMARK  status: ('A' for Active; 'I' for Inactive)
REMARK    1  A    between atoms: C1_1  and  C6_6 
REMARK    2  A    between atoms: C1_1  and  O8_8 
REMARK    3  A    between atoms: C4_4  and  C6_6 
ROOT
HETATM    1  C6  UNL     1     -34.194  14.240  -3.290  1.00 20.00     0.115 C 
ENDROOT
BRANCH   1   2
HETATM    2  C1  UNL     1     -35.133  13.383  -4.122  1.00 20.00     0.139 C 
HETATM    3  O7  UNL     1     -34.783  12.564  -4.959  1.00 20.00    -0.650 OA
BRANCH   2   4
HETATM    4  O8  UNL     1     -36.430  13.643  -3.817  1.00 20.00    -0.776 OA
HETATM    5  H18 UNL     1     -36.606  13.550  -2.856  1.00 20.00     0.167 HD
ENDBRANCH   2   4
ENDBRANCH   1   2
BRANCH   1   6
HETATM    6  C4  UNL     1     -34.739  15.598  -3.012  1.00 20.00    -0.001 A 
HETATM    7  C2  UNL     1     -34.669  16.170  -1.620  1.00 20.00     0.010 A 
HETATM    8  C3  UNL     1     -33.804  16.741  -2.713  1.00 20.00    -0.014 A 
HETATM    9  C5  UNL     1     -34.083  18.098  -3.258  1.00 20.00     0.010 C 
ENDBRANCH   1   6
TORSDOF 3
ENDMDL
MODEL 8
REMARK VINA RESULT:      -3.8     11.082     12.843
REMARK  3 active torsions:
REMARK  status: ('A' for Active; 'I' for Inactive)
REMARK    1  A    between atoms: C1_1  and  C6_6 
REMARK    2  A    between atoms: C1_1  and  O8_8 
REMARK    3  A    between atoms: C4_4  and  C6_6 
ROOT
HETATM    1  C6  UNL     1     -34.234  15.113  -4.256  1.00 20.00     0.115 C 
ENDROOT
BRANCH   1   2
HETATM    2  C1  UNL     1     -34.178  13.605  -4.080  1.00 20.00     0.139 C 
HETATM    3  O7  UNL     1     -35.133  12.849  -4.179  1.00 20.00    -0.650 OA
BRANCH   2   4
HETATM    4  O8  UNL     1     -32.916  13.194  -3.794  1.00 20.00    -0.776 OA
HETATM    5  H18 UNL     1     -32.615  12.487  -4.404  1.00 20.00     0.167 HD
ENDBRANCH   2   4
ENDBRANCH   1   2
BRANCH   1   6
HETATM    6  C4  UNL     1     -34.938  15.528  -5.502  1.00 20.00    -0.001 A 
HETATM    7  C2  UNL     1     -34.302  16.525  -6.434  1.00 20.00     0.010 A 
HETATM    8  C3  UNL     1     -34.424  15.082  -6.845  1.00 20.00    -0.014 A 
HETATM    9  C5  UNL     1     -35.378  14.686  -7.918  1.00 20.00     0.010 C 
ENDBRANCH   1   6
TORSDOF 3
ENDMDL
MODEL 9
REMARK VINA RESULT:      -3.8      1.430      1.644
REMARK  3 active torsions:
REMARK  status: ('A' for Active; 'I' for Inactive)
REMARK    1  A    between atoms: C1_1  and  C6_6 
REMARK    2  A    between atoms: C1_1  and  O8_8 
REMARK    3  A    between atoms: C4_4  and  C6_6 
ROOT
HETATM    1  C6  UNL     1     -32.137   7.210   2.710  1.00 20.00     0.115 C 
ENDROOT
BRANCH   1   2
HETATM    2  C1  UNL     1     -32.172   8.496   1.903  1.00 20.00     0.139 C 
HETATM    3  O7  UNL     1     -32.805   9.498   2.202  1.00 20.00    -0.650 OA
BRANCH   2   4
HETATM    4  O8  UNL     1     -31.402   8.395   0.790  1.00 20.00    -0.776 OA
HETATM    5  H18 UNL     1     -30.577   7.892   0.961  1.00 20.00     0.167 HD
ENDBRANCH   2   4
ENDBRANCH   1   2
BRANCH   1   6
HETATM    6  C4  UNL     1     -33.395   6.964   3.469  1.00 20.00    -0.001 A 
HETATM    7  C2  UNL     1     -34.154   5.677   3.280  1.00 20.00     0.010 A 
HETATM    8  C3  UNL     1     -33.425   5.938   4.572  1.00 20.00    -0.014 A 
HETATM    9  C5  UNL     1     -34.189   6.206   5.821  1.00 20.00     0.010 C 
ENDBRANCH   1   6
TORSDOF 3
ENDMDL
