MODEL 1
REMARK VINA RESULT:      -5.2      0.000      0.000
REMARK  0 active torsions:
REMARK  status: ('A' for Active; 'I' for Inactive)
ROOT
HETATM    1  C1  UNL     1     -32.732   6.999   3.242  1.00 20.00     0.124 C 
HETATM    2  C2  UNL     1     -33.590   6.544   5.432  1.00 20.00     0.021 C 
HETATM    3  C3  UNL     1     -33.583   6.270   4.117  1.00 20.00     0.145 C 
HETATM    4  C4  UNL     1     -34.422   5.770   6.407  1.00 20.00     0.033 C 
HETATM    5  C5  UNL     1     -34.989   4.509   5.764  1.00 20.00     0.031 C 
HETATM    6  C6  UNL     1     -35.439   4.812   4.343  1.00 20.00     0.176 C 
HETATM    7  N7  UNL     1     -32.037   7.593   2.528  1.00 20.00    -0.189 NA
HETATM    8  O8  UNL     1     -34.362   5.292   3.529  1.00 20.00    -0.341 OA
ENDROOT
TORSDOF 0
ENDMDL
MODEL 2
REMARK VINA RESULT:      -4.0     11.924     12.679
REMARK  0 active torsions:
REMARK  status: ('A' for Active; 'I' for Inactive)
ROOT
HETATM    1  C1  UNL     1     -37.058  14.513  -3.908  1.00 20.00     0.124 C 
HETATM    2  C2  UNL     1     -34.842  13.604  -3.857  1.00 20.00     0.021 C 
HETATM    3  C3  UNL     1     -35.646  14.675  -3.957  1.00 20.00     0.145 C 
HETATM    4  C4  UNL     1     -33.350  13.721  -3.844  1.00 20.00     0.033 C 
HETATM    5  C5  UNL     1     -32.915  15.171  -3.666  1.00 20.00     0.031 C 
HETATM    6  C6  UNL     1     -33.814  16.084  -4.486  1.00 20.00     0.176 C 
HETATM    7  N7  UNL     1     -38.210  14.382  -3.867  1.00 20.00    -0.189 NA
HETATM    8  O8  UNL     1     -35.190  15.971  -4.100  1.00 20.00    -0.341 OA
ENDROOT
TORSDOF 0
ENDMDL
MODEL 3
REMARK VINA RESULT:      -3.9     11.772     12.297
REMARK  0 active torsions:
REMARK  status: ('A' for Active; 'I' for Inactive)
ROOT
HETATM    1  C1  UNL     1     -34.816  13.602  -4.168  1.00 20.00     0.124 C 
HETATM    2  C2  UNL     1     -33.697  15.396  -3.043  1.00 20.00     0.021 C 
HETATM    3  C3  UNL     1     -34.845  14.809  -3.418  1.00 20.00     0.145 C 
HETATM    4  C4  UNL     1     -33.668  16.635  -2.202  1.00 20.00     0.033 C 
HETATM    5  C5  UNL     1     -35.046  16.936  -1.622  1.00 20.00     0.031 C 
HETATM    6  C6  UNL     1     -36.117  16.664  -2.668  1.00 20.00     0.176 C 
HETATM    7  N7  UNL     1     -34.793  12.616  -4.780  1.00 20.00    -0.189 NA
HETATM    8  O8  UNL     1     -36.099  15.302  -3.113  1.00 20.00    -0.341 OA
ENDROOT
TORSDOF 0
ENDMDL
MODEL 4
REMARK VINA RESULT:      -3.8      9.349     10.379
REMARK  0 active torsions:
REMARK  status: ('A' for Active; 'I' for Inactive)
ROOT
HETATM    1  C1  UNL     1     -41.760   3.262  -2.674  1.00 20.00     0.124 C 
HETATM    2  C2  UNL     1     -40.830   4.702  -1.000  1.00 20.00     0.021 C 
HETATM    3  C3  UNL     1     -41.591   4.550  -2.096  1.00 20.00     0.145 C 
HETATM    4  C4  UNL     1     -40.664   6.023  -0.316  1.00 20.00     0.033 C 
HETATM    5  C5  UNL     1     -41.670   7.042  -0.841  1.00 20.00     0.031 C 
HETATM    6  C6  UNL     1     -41.812   6.897  -2.349  1.00 20.00     0.176 C 
HETATM    7  N7  UNL     1     -41.898   2.211  -3.145  1.00 20.00    -0.189 NA
HETATM    8  O8  UNL     1     -42.255   5.587  -2.723  1.00 20.00    -0.341 OA
ENDROOT
TORSDOF 0
ENDMDL
MODEL 5
REMARK VINA RESULT:      -3.8     12.072     13.086
REMARK  0 active torsions:
REMARK  status: ('A' for Active; 'I' for Inactive)
ROOT
HETATM    1  C1  UNL     1     -34.707  13.778  -4.217  1.00 20.00     0.124 C 
HETATM    2  C2  UNL     1     -34.229  15.528  -2.652  1.00 20.00     0.021 C 
HETATM    3  C3  UNL     1     -34.338  15.120  -3.927  1.00 20.00     0.145 C 
HETATM    4  C4  UNL     1     -33.901  16.943  -2.289  1.00 20.00     0.033 C 
HETATM    5  C5  UNL     1     -34.004  17.859  -3.504  1.00 20.00     0.031 C 
HETATM    6  C6  UNL     1     -33.430  17.159  -4.727  1.00 20.00     0.176 C 
HETATM    7  N7  UNL     1     -35.009  12.683  -4.453  1.00 20.00    -0.189 NA
HETATM    8  O8  UNL     1     -34.119  15.937  -5.019  1.00 20.00    -0.341 OA
ENDROOT
TORSDOF 0
ENDMDL
MODEL 6
REMARK VINA RESULT:      -3.7      9.455     10.288
REMARK  0 active torsions:
REMARK  status: ('A' for Active; 'I' for Inactive)
ROOT
HETATM    1  C1  UNL     1     -42.338   7.644  -3.292  1.00 20.00     0.124 C 
HETATM    2  C2  UNL     1     -41.257   7.034  -1.243  1.00 20.00     0.021 C 
HETATM    3  C3  UNL     1     -41.886   6.661  -2.370  1.00 20.00     0.145 C 
HETATM    4  C4  UNL     1     -40.707   6.041  -0.266  1.00 20.00     0.033 C 
HETATM    5  C5  UNL     1     -40.702   4.636  -0.858  1.00 20.00     0.031 C 
HETATM    6  C6  UNL     1     -41.981   4.404  -1.650  1.00 20.00     0.176 C 
HETATM    7  N7  UNL     1     -42.708   8.446  -4.044  1.00 20.00    -0.189 NA
HETATM    8  O8  UNL     1     -42.127   5.347  -2.719  1.00 20.00    -0.341 OA
ENDROOT
TORSDOF 0
ENDMDL
MODEL 7
REMARK VINA RESULT:      -3.7      9.327     10.456
REMARK  0 active torsions:
REMARK  status: ('A' for Active; 'I' for Inactive)
ROOT
HETATM    1  C1  UNL     1     -41.583   3.135  -2.773  1.00 20.00     0.124 C 
HETATM    2  C2  UNL     1     -42.452   5.351  -2.511  1.00 20.00     0.021 C 
HETATM    3  C3  UNL     1     -41.547   4.420  -2.168  1.00 20.00     0.145 C 
HETATM    4  C4  UNL     1     -42.426   6.739  -1.950  1.00 20.00     0.033 C 
HETATM    5  C5  UNL     1     -41.120   7.007  -1.210  1.00 20.00     0.031 C 
HETATM    6  C6  UNL     1     -40.719   5.777  -0.409  1.00 20.00     0.176 C 
HETATM    7  N7  UNL     1     -41.612   2.085  -3.268  1.00 20.00    -0.189 NA
HETATM    8  O8  UNL     1     -40.541   4.627  -1.245  1.00 20.00    -0.341 OA
ENDROOT
TORSDOF 0
ENDMDL
MODEL 8
REMARK VINA RESULT:      -3.7     11.806     12.632
REMARK  0 active torsions:
REMARK  status: ('A' for Active; 'I' for Inactive)
ROOT
HETATM    1  C1  UNL     1     -34.730  15.904  -2.089  1.00 20.00     0.124 C 
HETATM    2  C2  UNL     1     -34.414  13.995  -3.500  1.00 20.00     0.021 C 
HETATM    3  C3  UNL     1     -34.887  15.241  -3.336  1.00 20.00     0.145 C 
HETATM    4  C4  UNL     1     -34.499  13.270  -4.808  1.00 20.00     0.033 C 
HETATM    5  C5  UNL     1     -34.904  14.217  -5.933  1.00 20.00     0.031 C 
HETATM    6  C6  UNL     1     -35.979  15.174  -5.440  1.00 20.00     0.176 C 
HETATM    7  N7  UNL     1     -34.601  16.447  -1.072  1.00 20.00    -0.189 NA
HETATM    8  O8  UNL     1     -35.530  15.957  -4.327  1.00 20.00    -0.341 OA
ENDROOT
TORSDOF 0
ENDMDL
MODEL 9
REMARK VINA RESULT:      -3.5     12.194     13.057
REMARK  0 active torsions:
REMARK  status: ('A' for Active; 'I' for Inactive)
ROOT
HETATM    1  C1  UNL     1     -33.715  17.381  -4.651  1.00 20.00     0.124 C 
HETATM    2  C2  UNL     1     -33.155  15.162  -3.945  1.00 20.00     0.021 C 
HETATM    3  C3  UNL     1     -34.073  16.029  -4.403  1.00 20.00     0.145 C 
HETATM    4  C4  UNL     1     -33.461  13.713  -3.722  1.00 20.00     0.033 C 
HETATM    5  C5  UNL     1     -34.802  13.335  -4.341  1.00 20.00     0.031 C 
HETATM    6  C6  UNL     1     -35.813  14.447  -4.102  1.00 20.00     0.176 C 
HETATM    7  N7  UNL     1     -33.422  18.486  -4.855  1.00 20.00    -0.189 NA
HETATM    8  O8  UNL     1     -35.386  15.692  -4.668  1.00 20.00    -0.341 OA
ENDROOT
TORSDOF 0
ENDMDL
