MODEL 1
REMARK VINA RESULT:      -5.7      0.000      0.000
REMARK  3 active torsions:
REMARK  status: ('A' for Active; 'I' for Inactive)
REMARK    1  A    between atoms: C1_1  and  C4_4 
REMARK    2  A    between atoms: C2_2  and  C9_9 
REMARK    3  A    between atoms: C9_9  and  N10_10 
ROOT
HETATM    1  C5  UNL     1     -34.514   4.661   6.274  1.00 20.00     0.032 C 
HETATM    2  C6  UNL     1     -35.144   4.134   4.992  1.00 20.00     0.032 C 
HETATM    3  C7  UNL     1     -34.248   6.136   6.014  1.00 20.00     0.273 C 
HETATM    4  C8  UNL     1     -35.207   5.332   4.055  1.00 20.00     0.273 C 
HETATM    5  N10 UNL     1     -34.222   6.301   4.554  1.00 20.00     0.099 N 
ENDROOT
BRANCH   5   6
HETATM    6  C9  UNL     1     -32.883   5.981   4.029  1.00 20.00     0.366 C 
BRANCH   6   7
HETATM    7  C2  UNL     1     -32.464   6.965   3.027  1.00 20.00    -0.072 C 
HETATM    8  C1  UNL     1     -32.125   7.774   2.206  1.00 20.00    -0.078 C 
BRANCH   8   9
HETATM    9  C4  UNL     1     -31.730   8.734   1.238  1.00 20.00     0.054 C 
HETATM   10  C3  UNL     1     -32.413   9.866   1.047  1.00 20.00     0.020 C 
ENDBRANCH   8   9
ENDBRANCH   6   7
ENDBRANCH   5   6
TORSDOF 3
ENDMDL
MODEL 2
REMARK VINA RESULT:      -4.4     11.188     11.892
REMARK  3 active torsions:
REMARK  status: ('A' for Active; 'I' for Inactive)
REMARK    1  A    between atoms: C1_1  and  C4_4 
REMARK    2  A    between atoms: C2_2  and  C9_9 
REMARK    3  A    between atoms: C9_9  and  N10_10 
ROOT
HETATM    1  C5  UNL     1     -35.102  14.101  -5.998  1.00 20.00     0.032 C 
HETATM    2  C6  UNL     1     -36.224  14.945  -5.410  1.00 20.00     0.032 C 
HETATM    3  C7  UNL     1     -34.511  13.342  -4.819  1.00 20.00     0.273 C 
HETATM    4  C8  UNL     1     -36.221  14.633  -3.920  1.00 20.00     0.273 C 
HETATM    5  N10 UNL     1     -34.892  14.088  -3.613  1.00 20.00     0.099 N 
ENDROOT
BRANCH   5   6
HETATM    6  C9  UNL     1     -33.937  15.184  -3.369  1.00 20.00     0.366 C 
BRANCH   6   7
HETATM    7  C2  UNL     1     -34.290  15.927  -2.155  1.00 20.00    -0.072 C 
HETATM    8  C1  UNL     1     -34.579  16.531  -1.158  1.00 20.00    -0.078 C 
BRANCH   8   9
HETATM    9  C4  UNL     1     -34.918  17.239   0.024  1.00 20.00     0.054 C 
HETATM   10  C3  UNL     1     -34.069  18.091   0.605  1.00 20.00     0.020 C 
ENDBRANCH   8   9
ENDBRANCH   6   7
ENDBRANCH   5   6
TORSDOF 3
ENDMDL
MODEL 3
REMARK VINA RESULT:      -4.2     11.306     12.238
REMARK  3 active torsions:
REMARK  status: ('A' for Active; 'I' for Inactive)
REMARK    1  A    between atoms: C1_1  and  C4_4 
REMARK    2  A    between atoms: C2_2  and  C9_9 
REMARK    3  A    between atoms: C9_9  and  N10_10 
ROOT
HETATM    1  C5  UNL     1     -34.051  15.803  -5.840  1.00 20.00     0.032 C 
HETATM    2  C6  UNL     1     -34.691  14.438  -6.051  1.00 20.00     0.032 C 
HETATM    3  C7  UNL     1     -33.325  15.704  -4.507  1.00 20.00     0.273 C 
HETATM    4  C8  UNL     1     -34.303  13.620  -4.826  1.00 20.00     0.273 C 
HETATM    5  N10 UNL     1     -33.942  14.587  -3.781  1.00 20.00     0.099 N 
ENDROOT
BRANCH   5   6
HETATM    6  C9  UNL     1     -35.151  15.045  -3.072  1.00 20.00     0.366 C 
BRANCH   6   7
HETATM    7  C2  UNL     1     -34.805  15.971  -1.990  1.00 20.00    -0.072 C 
HETATM    8  C1  UNL     1     -34.526  16.731  -1.103  1.00 20.00    -0.078 C 
BRANCH   8   9
HETATM    9  C4  UNL     1     -34.204  17.632  -0.055  1.00 20.00     0.054 C 
HETATM   10  C3  UNL     1     -33.133  18.428  -0.112  1.00 20.00     0.020 C 
ENDBRANCH   8   9
ENDBRANCH   6   7
ENDBRANCH   5   6
TORSDOF 3
ENDMDL
MODEL 4
REMARK VINA RESULT:      -3.8     11.574     12.915
REMARK  3 active torsions:
REMARK  status: ('A' for Active; 'I' for Inactive)
REMARK    1  A    between atoms: C1_1  and  C4_4 
REMARK    2  A    between atoms: C2_2  and  C9_9 
REMARK    3  A    between atoms: C9_9  and  N10_10 
ROOT
HETATM    1  C5  UNL     1     -36.521  16.034  -6.242  1.00 20.00     0.032 C 
HETATM    2  C6  UNL     1     -35.930  14.834  -6.969  1.00 20.00     0.032 C 
HETATM    3  C7  UNL     1     -35.373  16.621  -5.436  1.00 20.00     0.273 C 
HETATM    4  C8  UNL     1     -34.470  14.787  -6.542  1.00 20.00     0.273 C 
HETATM    5  N10 UNL     1     -34.380  15.548  -5.289  1.00 20.00     0.099 N 
ENDROOT
BRANCH   5   6
HETATM    6  C9  UNL     1     -34.725  14.686  -4.144  1.00 20.00     0.366 C 
BRANCH   6   7
HETATM    7  C2  UNL     1     -34.673  15.438  -2.887  1.00 20.00    -0.072 C 
HETATM    8  C1  UNL     1     -34.630  16.059  -1.860  1.00 20.00    -0.078 C 
BRANCH   8   9
HETATM    9  C4  UNL     1     -34.579  16.798  -0.649  1.00 20.00     0.054 C 
HETATM   10  C3  UNL     1     -33.721  17.806  -0.473  1.00 20.00     0.020 C 
ENDBRANCH   8   9
ENDBRANCH   6   7
ENDBRANCH   5   6
TORSDOF 3
ENDMDL
MODEL 5
REMARK VINA RESULT:      -3.8      9.814     11.491
REMARK  3 active torsions:
REMARK  status: ('A' for Active; 'I' for Inactive)
REMARK    1  A    between atoms: C1_1  and  C4_4 
REMARK    2  A    between atoms: C2_2  and  C9_9 
REMARK    3  A    between atoms: C9_9  and  N10_10 
ROOT
HETATM    1  C5  UNL     1     -41.897   7.205  -2.589  1.00 20.00     0.032 C 
HETATM    2  C6  UNL     1     -41.534   7.402  -1.124  1.00 20.00     0.032 C 
HETATM    3  C7  UNL     1     -42.738   5.938  -2.628  1.00 20.00     0.273 C 
HETATM    4  C8  UNL     1     -42.182   6.235  -0.391  1.00 20.00     0.273 C 
HETATM    5  N10 UNL     1     -42.425   5.196  -1.400  1.00 20.00     0.099 N 
ENDROOT
BRANCH   5   6
HETATM    6  C9  UNL     1     -41.212   4.380  -1.592  1.00 20.00     0.366 C 
BRANCH   6   7
HETATM    7  C2  UNL     1     -41.455   3.296  -2.548  1.00 20.00    -0.072 C 
HETATM    8  C1  UNL     1     -41.651   2.409  -3.334  1.00 20.00    -0.078 C 
BRANCH   8   9
HETATM    9  C4  UNL     1     -41.878   1.364  -4.267  1.00 20.00     0.054 C 
HETATM   10  C3  UNL     1     -41.593   0.090  -3.983  1.00 20.00     0.020 C 
ENDBRANCH   8   9
ENDBRANCH   6   7
ENDBRANCH   5   6
TORSDOF 3
ENDMDL
MODEL 6
REMARK VINA RESULT:      -3.7     10.902     12.205
REMARK  3 active torsions:
REMARK  status: ('A' for Active; 'I' for Inactive)
REMARK    1  A    between atoms: C1_1  and  C4_4 
REMARK    2  A    between atoms: C2_2  and  C9_9 
REMARK    3  A    between atoms: C9_9  and  N10_10 
ROOT
HETATM    1  C5  UNL     1     -32.668  18.718   1.180  1.00 20.00     0.032 C 
HETATM    2  C6  UNL     1     -33.933  19.069   1.949  1.00 20.00     0.032 C 
HETATM    3  C7  UNL     1     -33.085  18.677  -0.282  1.00 20.00     0.273 C 
HETATM    4  C8  UNL     1     -35.019  19.210   0.891  1.00 20.00     0.273 C 
HETATM    5  N10 UNL     1     -34.541  18.482  -0.292  1.00 20.00     0.099 N 
ENDROOT
BRANCH   5   6
HETATM    6  C9  UNL     1     -34.865  17.049  -0.173  1.00 20.00     0.366 C 
BRANCH   6   7
HETATM    7  C2  UNL     1     -34.579  16.341  -1.424  1.00 20.00    -0.072 C 
HETATM    8  C1  UNL     1     -34.346  15.757  -2.447  1.00 20.00    -0.078 C 
BRANCH   8   9
HETATM    9  C4  UNL     1     -34.075  15.061  -3.654  1.00 20.00     0.054 C 
HETATM   10  C3  UNL     1     -33.977  13.729  -3.693  1.00 20.00     0.020 C 
ENDBRANCH   8   9
ENDBRANCH   6   7
ENDBRANCH   5   6
TORSDOF 3
ENDMDL
MODEL 7
REMARK VINA RESULT:      -3.6     11.645     12.887
REMARK  3 active torsions:
REMARK  status: ('A' for Active; 'I' for Inactive)
REMARK    1  A    between atoms: C1_1  and  C4_4 
REMARK    2  A    between atoms: C2_2  and  C9_9 
REMARK    3  A    between atoms: C9_9  and  N10_10 
ROOT
HETATM    1  C5  UNL     1     -33.300  16.284  -5.044  1.00 20.00     0.032 C 
HETATM    2  C6  UNL     1     -33.661  17.751  -4.868  1.00 20.00     0.032 C 
HETATM    3  C7  UNL     1     -34.242  15.524  -4.123  1.00 20.00     0.273 C 
HETATM    4  C8  UNL     1     -34.794  17.765  -3.850  1.00 20.00     0.273 C 
HETATM    5  N10 UNL     1     -34.712  16.492  -3.123  1.00 20.00     0.099 N 
ENDROOT
BRANCH   5   6
HETATM    6  C9  UNL     1     -33.740  16.597  -2.020  1.00 20.00     0.366 C 
BRANCH   6   7
HETATM    7  C2  UNL     1     -34.403  16.990  -0.773  1.00 20.00    -0.072 C 
HETATM    8  C1  UNL     1     -34.943  17.309   0.252  1.00 20.00    -0.078 C 
BRANCH   8   9
HETATM    9  C4  UNL     1     -35.576  17.682   1.466  1.00 20.00     0.054 C 
HETATM   10  C3  UNL     1     -34.877  17.956   2.571  1.00 20.00     0.020 C 
ENDBRANCH   8   9
ENDBRANCH   6   7
ENDBRANCH   5   6
TORSDOF 3
ENDMDL
MODEL 8
REMARK VINA RESULT:      -3.6     11.465     12.228
REMARK  3 active torsions:
REMARK  status: ('A' for Active; 'I' for Inactive)
REMARK    1  A    between atoms: C1_1  and  C4_4 
REMARK    2  A    between atoms: C2_2  and  C9_9 
REMARK    3  A    between atoms: C9_9  and  N10_10 
ROOT
HETATM    1  C5  UNL     1     -36.964  14.692  -3.764  1.00 20.00     0.032 C 
HETATM    2  C6  UNL     1     -35.726  14.146  -4.460  1.00 20.00     0.032 C 
HETATM    3  C7  UNL     1     -36.632  16.138  -3.430  1.00 20.00     0.273 C 
HETATM    4  C8  UNL     1     -34.740  15.305  -4.491  1.00 20.00     0.273 C 
HETATM    5  N10 UNL     1     -35.167  16.240  -3.441  1.00 20.00     0.099 N 
ENDROOT
BRANCH   5   6
HETATM    6  C9  UNL     1     -34.617  15.827  -2.137  1.00 20.00     0.366 C 
BRANCH   6   7
HETATM    7  C2  UNL     1     -34.029  16.969  -1.431  1.00 20.00    -0.072 C 
HETATM    8  C1  UNL     1     -33.551  17.907  -0.853  1.00 20.00    -0.078 C 
BRANCH   8   9
HETATM    9  C4  UNL     1     -32.993  19.019  -0.171  1.00 20.00     0.054 C 
HETATM   10  C3  UNL     1     -31.823  18.940   0.469  1.00 20.00     0.020 C 
ENDBRANCH   8   9
ENDBRANCH   6   7
ENDBRANCH   5   6
TORSDOF 3
ENDMDL
MODEL 9
REMARK VINA RESULT:      -3.5      9.886     10.755
REMARK  3 active torsions:
REMARK  status: ('A' for Active; 'I' for Inactive)
REMARK    1  A    between atoms: C1_1  and  C4_4 
REMARK    2  A    between atoms: C2_2  and  C9_9 
REMARK    3  A    between atoms: C9_9  and  N10_10 
ROOT
HETATM    1  C5  UNL     1     -40.790   5.985  -0.353  1.00 20.00     0.032 C 
HETATM    2  C6  UNL     1     -42.081   5.408   0.212  1.00 20.00     0.032 C 
HETATM    3  C7  UNL     1     -41.170   7.348  -0.911  1.00 20.00     0.273 C 
HETATM    4  C8  UNL     1     -43.142   6.467  -0.052  1.00 20.00     0.273 C 
HETATM    5  N10 UNL     1     -42.622   7.314  -1.133  1.00 20.00     0.099 N 
ENDROOT
BRANCH   5   6
HETATM    6  C9  UNL     1     -42.923   6.709  -2.443  1.00 20.00     0.366 C 
BRANCH   6   7
HETATM    7  C2  UNL     1     -42.553   7.613  -3.536  1.00 20.00    -0.072 C 
HETATM    8  C1  UNL     1     -42.245   8.352  -4.431  1.00 20.00    -0.078 C 
BRANCH   8   9
HETATM    9  C4  UNL     1     -41.874   9.223  -5.489  1.00 20.00     0.054 C 
HETATM   10  C3  UNL     1     -41.962  10.551  -5.373  1.00 20.00     0.020 C 
ENDBRANCH   8   9
ENDBRANCH   6   7
ENDBRANCH   5   6
TORSDOF 3
ENDMDL
