MODEL 1
REMARK VINA RESULT:      -4.4      0.000      0.000
REMARK  1 active torsions:
REMARK  status: ('A' for Active; 'I' for Inactive)
REMARK    1  A    between atoms: C8_8  and  N10_10 
ROOT
HETATM    1  C1  UNL     1     -34.891  17.173   0.161  1.00 20.00     0.013 C 
HETATM    2  C2  UNL     1     -34.421  16.949  -0.921  1.00 20.00    -0.087 C 
HETATM    3  C8  UNL     1     -33.843  16.679  -2.240  1.00 20.00     0.365 C 
ENDROOT
BRANCH   3   4
HETATM    4  N10 UNL     1     -34.347  15.415  -2.775  1.00 20.00     0.102 N 
HETATM    5  C5  UNL     1     -33.368  14.805  -3.682  1.00 20.00     0.303 C 
HETATM    6  C3  UNL     1     -33.898  13.482  -4.247  1.00 20.00     0.302 C 
HETATM    7  N9  UNL     1     -35.209  13.597  -4.899  1.00 20.00     0.087 N 
HETATM    8  C4  UNL     1     -36.160  14.289  -4.021  1.00 20.00     0.302 C 
HETATM    9  C7  UNL     1     -35.115  14.228  -6.214  1.00 20.00     0.310 C 
HETATM   10  C6  UNL     1     -35.633  15.613  -3.454  1.00 20.00     0.303 C 
ENDBRANCH   3   4
TORSDOF 1
ENDMDL
MODEL 2
REMARK VINA RESULT:      -4.3     11.241     12.015
REMARK  1 active torsions:
REMARK  status: ('A' for Active; 'I' for Inactive)
REMARK    1  A    between atoms: C8_8  and  N10_10 
ROOT
HETATM    1  C1  UNL     1     -32.198   9.078   1.562  1.00 20.00     0.013 C 
HETATM    2  C2  UNL     1     -32.183   8.042   2.169  1.00 20.00    -0.087 C 
HETATM    3  C8  UNL     1     -32.157   6.777   2.908  1.00 20.00     0.365 C 
ENDROOT
BRANCH   3   4
HETATM    4  N10 UNL     1     -33.389   6.606   3.678  1.00 20.00     0.102 N 
HETATM    5  C5  UNL     1     -33.092   6.439   5.106  1.00 20.00     0.303 C 
HETATM    6  C3  UNL     1     -34.382   6.254   5.914  1.00 20.00     0.302 C 
HETATM    7  N9  UNL     1     -35.236   5.162   5.428  1.00 20.00     0.087 N 
HETATM    8  C4  UNL     1     -35.455   5.286   3.982  1.00 20.00     0.302 C 
HETATM    9  C7  UNL     1     -34.710   3.848   5.794  1.00 20.00     0.310 C 
HETATM   10  C6  UNL     1     -34.167   5.470   3.171  1.00 20.00     0.303 C 
ENDBRANCH   3   4
TORSDOF 1
ENDMDL
MODEL 3
REMARK VINA RESULT:      -4.1      1.028      1.028
REMARK  1 active torsions:
REMARK  status: ('A' for Active; 'I' for Inactive)
REMARK    1  A    between atoms: C8_8  and  N10_10 
ROOT
HETATM    1  C1  UNL     1     -34.841  16.909  -0.351  1.00 20.00     0.013 C 
HETATM    2  C2  UNL     1     -34.312  16.594  -1.382  1.00 20.00    -0.087 C 
HETATM    3  C8  UNL     1     -33.660  16.211  -2.638  1.00 20.00     0.365 C 
ENDROOT
BRANCH   3   4
HETATM    4  N10 UNL     1     -34.557  15.396  -3.455  1.00 20.00     0.102 N 
HETATM    5  C5  UNL     1     -33.813  14.339  -4.150  1.00 20.00     0.303 C 
HETATM    6  C3  UNL     1     -34.752  13.487  -5.012  1.00 20.00     0.302 C 
HETATM    7  N9  UNL     1     -35.558  14.265  -5.961  1.00 20.00     0.087 N 
HETATM    8  C4  UNL     1     -36.229  15.376  -5.275  1.00 20.00     0.302 C 
HETATM    9  C7  UNL     1     -34.772  14.722  -7.106  1.00 20.00     0.310 C 
HETATM   10  C6  UNL     1     -35.294  16.231  -4.412  1.00 20.00     0.303 C 
ENDBRANCH   3   4
TORSDOF 1
ENDMDL
MODEL 4
REMARK VINA RESULT:      -3.9      1.183      2.075
REMARK  1 active torsions:
REMARK  status: ('A' for Active; 'I' for Inactive)
REMARK    1  A    between atoms: C8_8  and  N10_10 
ROOT
HETATM    1  C1  UNL     1     -33.005  18.390  -0.405  1.00 20.00     0.013 C 
HETATM    2  C2  UNL     1     -33.771  17.531  -0.747  1.00 20.00    -0.087 C 
HETATM    3  C8  UNL     1     -34.707  16.482  -1.159  1.00 20.00     0.365 C 
ENDROOT
BRANCH   3   4
HETATM    4  N10 UNL     1     -34.733  16.357  -2.615  1.00 20.00     0.102 N 
HETATM    5  C5  UNL     1     -35.881  15.552  -3.050  1.00 20.00     0.303 C 
HETATM    6  C3  UNL     1     -35.907  15.416  -4.577  1.00 20.00     0.302 C 
HETATM    7  N9  UNL     1     -34.659  14.893  -5.148  1.00 20.00     0.087 N 
HETATM    8  C4  UNL     1     -33.506  15.647  -4.639  1.00 20.00     0.302 C 
HETATM    9  C7  UNL     1     -34.514  13.455  -4.930  1.00 20.00     0.310 C 
HETATM   10  C6  UNL     1     -33.477  15.784  -3.112  1.00 20.00     0.303 C 
ENDBRANCH   3   4
TORSDOF 1
ENDMDL
MODEL 5
REMARK VINA RESULT:      -3.8      1.593      2.015
REMARK  1 active torsions:
REMARK  status: ('A' for Active; 'I' for Inactive)
REMARK    1  A    between atoms: C8_8  and  N10_10 
ROOT
HETATM    1  C1  UNL     1     -32.917  18.492  -0.280  1.00 20.00     0.013 C 
HETATM    2  C2  UNL     1     -33.602  17.629  -0.757  1.00 20.00    -0.087 C 
HETATM    3  C8  UNL     1     -34.442  16.576  -1.335  1.00 20.00     0.365 C 
ENDROOT
BRANCH   3   4
HETATM    4  N10 UNL     1     -33.889  16.118  -2.609  1.00 20.00     0.102 N 
HETATM    5  C5  UNL     1     -33.897  17.200  -3.601  1.00 20.00     0.303 C 
HETATM    6  C3  UNL     1     -33.323  16.718  -4.939  1.00 20.00     0.302 C 
HETATM    7  N9  UNL     1     -33.982  15.519  -5.471  1.00 20.00     0.087 N 
HETATM    8  C4  UNL     1     -34.050  14.472  -4.445  1.00 20.00     0.302 C 
HETATM    9  C7  UNL     1     -35.295  15.819  -6.038  1.00 20.00     0.310 C 
HETATM   10  C6  UNL     1     -34.624  14.949  -3.106  1.00 20.00     0.303 C 
ENDBRANCH   3   4
TORSDOF 1
ENDMDL
MODEL 6
REMARK VINA RESULT:      -3.8      1.409      1.988
REMARK  1 active torsions:
REMARK  status: ('A' for Active; 'I' for Inactive)
REMARK    1  A    between atoms: C8_8  and  N10_10 
ROOT
HETATM    1  C1  UNL     1     -34.488  16.744  -0.746  1.00 20.00     0.013 C 
HETATM    2  C2  UNL     1     -35.124  16.538  -1.743  1.00 20.00    -0.087 C 
HETATM    3  C8  UNL     1     -35.904  16.290  -2.958  1.00 20.00     0.365 C 
ENDROOT
BRANCH   3   4
HETATM    4  N10 UNL     1     -35.078  15.646  -3.978  1.00 20.00     0.102 N 
HETATM    5  C5  UNL     1     -34.927  16.515  -5.152  1.00 20.00     0.303 C 
HETATM    6  C3  UNL     1     -34.065  15.837  -6.225  1.00 20.00     0.302 C 
HETATM    7  N9  UNL     1     -34.545  14.507  -6.620  1.00 20.00     0.087 N 
HETATM    8  C4  UNL     1     -34.780  13.673  -5.435  1.00 20.00     0.302 C 
HETATM    9  C7  UNL     1     -35.723  14.581  -7.482  1.00 20.00     0.310 C 
HETATM   10  C6  UNL     1     -35.641  14.346  -4.361  1.00 20.00     0.303 C 
ENDBRANCH   3   4
TORSDOF 1
ENDMDL
MODEL 7
REMARK VINA RESULT:      -3.7     10.281     11.952
REMARK  1 active torsions:
REMARK  status: ('A' for Active; 'I' for Inactive)
REMARK    1  A    between atoms: C8_8  and  N10_10 
ROOT
HETATM    1  C1  UNL     1     -41.865   9.018  -5.293  1.00 20.00     0.013 C 
HETATM    2  C2  UNL     1     -42.343   8.496  -4.323  1.00 20.00    -0.087 C 
HETATM    3  C8  UNL     1     -42.932   7.862  -3.140  1.00 20.00     0.365 C 
ENDROOT
BRANCH   3   4
HETATM    4  N10 UNL     1     -42.009   6.884  -2.567  1.00 20.00     0.102 N 
HETATM    5  C5  UNL     1     -42.565   5.529  -2.652  1.00 20.00     0.303 C 
HETATM    6  C3  UNL     1     -41.600   4.503  -2.046  1.00 20.00     0.302 C 
HETATM    7  N9  UNL     1     -41.192   4.812  -0.670  1.00 20.00     0.087 N 
HETATM    8  C4  UNL     1     -40.720   6.199  -0.573  1.00 20.00     0.302 C 
HETATM    9  C7  UNL     1     -42.251   4.523   0.296  1.00 20.00     0.310 C 
HETATM   10  C6  UNL     1     -41.683   7.227  -1.178  1.00 20.00     0.303 C 
ENDBRANCH   3   4
TORSDOF 1
ENDMDL
MODEL 8
REMARK VINA RESULT:      -3.7      1.736      4.389
REMARK  1 active torsions:
REMARK  status: ('A' for Active; 'I' for Inactive)
REMARK    1  A    between atoms: C8_8  and  N10_10 
ROOT
HETATM    1  C1  UNL     1     -37.682  15.456  -6.573  1.00 20.00     0.013 C 
HETATM    2  C2  UNL     1     -36.608  15.041  -6.912  1.00 20.00    -0.087 C 
HETATM    3  C8  UNL     1     -35.298  14.535  -7.331  1.00 20.00     0.365 C 
ENDROOT
BRANCH   3   4
HETATM    4  N10 UNL     1     -34.340  14.610  -6.230  1.00 20.00     0.102 N 
HETATM    5  C5  UNL     1     -34.726  13.705  -5.140  1.00 20.00     0.303 C 
HETATM    6  C3  UNL     1     -33.725  13.787  -3.981  1.00 20.00     0.302 C 
HETATM    7  N9  UNL     1     -33.512  15.149  -3.476  1.00 20.00     0.087 N 
HETATM    8  C4  UNL     1     -33.213  16.067  -4.582  1.00 20.00     0.302 C 
HETATM    9  C7  UNL     1     -34.632  15.616  -2.661  1.00 20.00     0.310 C 
HETATM   10  C6  UNL     1     -34.213  15.988  -5.742  1.00 20.00     0.303 C 
ENDBRANCH   3   4
TORSDOF 1
ENDMDL
MODEL 9
REMARK VINA RESULT:      -3.7      1.942      4.067
REMARK  1 active torsions:
REMARK  status: ('A' for Active; 'I' for Inactive)
REMARK    1  A    between atoms: C8_8  and  N10_10 
ROOT
HETATM    1  C1  UNL     1     -35.179  13.263  -4.307  1.00 20.00     0.013 C 
HETATM    2  C2  UNL     1     -34.125  13.768  -4.033  1.00 20.00    -0.087 C 
HETATM    3  C8  UNL     1     -32.835  14.379  -3.700  1.00 20.00     0.365 C 
ENDROOT
BRANCH   3   4
HETATM    4  N10 UNL     1     -32.958  15.834  -3.627  1.00 20.00     0.102 N 
HETATM    5  C5  UNL     1     -33.902  16.225  -2.573  1.00 20.00     0.303 C 
HETATM    6  C3  UNL     1     -34.036  17.751  -2.499  1.00 20.00     0.302 C 
HETATM    7  N9  UNL     1     -34.394  18.379  -3.777  1.00 20.00     0.087 N 
HETATM    8  C4  UNL     1     -33.500  17.914  -4.846  1.00 20.00     0.302 C 
HETATM    9  C7  UNL     1     -35.803  18.180  -4.113  1.00 20.00     0.310 C 
HETATM   10  C6  UNL     1     -33.364  16.389  -4.923  1.00 20.00     0.303 C 
ENDBRANCH   3   4
TORSDOF 1
ENDMDL
