MODEL 1
REMARK VINA RESULT:      -4.7      0.000      0.000
REMARK  0 active torsions:
REMARK  status: ('A' for Active; 'I' for Inactive)
ROOT
HETATM    1  C1  UNL     1     -33.537  17.092  -4.580  1.00 20.00     0.011 A 
HETATM    2  C2  UNL     1     -33.735  15.810  -5.092  1.00 20.00     0.024 A 
HETATM    3  C3  UNL     1     -34.478  15.056  -2.920  1.00 20.00     0.031 A 
HETATM    4  C4  UNL     1     -33.799  17.366  -3.232  1.00 20.00    -0.024 A 
HETATM    5  C5  UNL     1     -34.291  16.343  -2.400  1.00 20.00    -0.047 A 
HETATM    6  C6  UNL     1     -34.203  14.792  -4.262  1.00 20.00     0.034 A 
HETATM    7  C7  UNL     1     -34.557  16.615  -0.941  1.00 20.00     0.069 C 
HETATM    8  C8  UNL     1     -33.618  18.765  -2.697  1.00 20.00     0.308 C 
HETATM    9  C9  UNL     1     -34.661  18.109  -0.631  1.00 20.00     0.274 C 
HETATM   10  N10 UNL     1     -33.542  18.830  -1.234  1.00 20.00     0.087 N 
HETATM   11 CL11 UNL     1     -34.442  13.209  -4.893  1.00 20.00    -0.084 Cl
HETATM   12  H21 UNL     1     -32.664  18.412  -0.923  1.00 20.00     0.316 HD
ENDROOT
TORSDOF 0
ENDMDL
MODEL 2
REMARK VINA RESULT:      -4.6      3.474      4.450
REMARK  0 active torsions:
REMARK  status: ('A' for Active; 'I' for Inactive)
ROOT
HETATM    1  C1  UNL     1     -35.262  14.854  -6.853  1.00 20.00     0.011 A 
HETATM    2  C2  UNL     1     -35.173  16.096  -7.481  1.00 20.00     0.024 A 
HETATM    3  C3  UNL     1     -33.726  16.888  -5.717  1.00 20.00     0.031 A 
HETATM    4  C4  UNL     1     -34.590  14.621  -5.646  1.00 20.00    -0.024 A 
HETATM    5  C5  UNL     1     -33.802  15.641  -5.083  1.00 20.00    -0.047 A 
HETATM    6  C6  UNL     1     -34.408  17.113  -6.912  1.00 20.00     0.034 A 
HETATM    7  C7  UNL     1     -33.091  15.414  -3.773  1.00 20.00     0.069 C 
HETATM    8  C8  UNL     1     -34.662  13.261  -4.994  1.00 20.00     0.308 C 
HETATM    9  C9  UNL     1     -32.970  13.931  -3.419  1.00 20.00     0.274 C 
HETATM   10  N10 UNL     1     -34.261  13.265  -3.583  1.00 20.00     0.087 N 
HETATM   11 CL11 UNL     1     -34.305  18.646  -7.685  1.00 20.00    -0.084 Cl
HETATM   12  H21 UNL     1     -34.967  13.757  -3.033  1.00 20.00     0.316 HD
ENDROOT
TORSDOF 0
ENDMDL
MODEL 3
REMARK VINA RESULT:      -4.5      2.920      4.134
REMARK  0 active torsions:
REMARK  status: ('A' for Active; 'I' for Inactive)
ROOT
HETATM    1  C1  UNL     1     -33.710  17.625  -3.992  1.00 20.00     0.011 A 
HETATM    2  C2  UNL     1     -33.751  18.036  -2.660  1.00 20.00     0.024 A 
HETATM    3  C3  UNL     1     -34.520  15.843  -2.003  1.00 20.00     0.031 A 
HETATM    4  C4  UNL     1     -34.082  16.320  -4.342  1.00 20.00    -0.024 A 
HETATM    5  C5  UNL     1     -34.473  15.417  -3.336  1.00 20.00    -0.047 A 
HETATM    6  C6  UNL     1     -34.158  17.147  -1.666  1.00 20.00     0.034 A 
HETATM    7  C7  UNL     1     -34.898  14.017  -3.698  1.00 20.00     0.069 C 
HETATM    8  C8  UNL     1     -33.998  15.873  -5.781  1.00 20.00     0.308 C 
HETATM    9  C9  UNL     1     -34.443  13.608  -5.100  1.00 20.00     0.274 C 
HETATM   10  N10 UNL     1     -34.768  14.657  -6.064  1.00 20.00     0.087 N 
HETATM   11 CL11 UNL     1     -34.214  17.659  -0.025  1.00 20.00    -0.084 Cl
HETATM   12  H21 UNL     1     -35.766  14.869  -6.008  1.00 20.00     0.316 HD
ENDROOT
TORSDOF 0
ENDMDL
MODEL 4
REMARK VINA RESULT:      -4.5      3.068      4.707
REMARK  0 active torsions:
REMARK  status: ('A' for Active; 'I' for Inactive)
ROOT
HETATM    1  C1  UNL     1     -34.772  15.561  -2.253  1.00 20.00     0.011 A 
HETATM    2  C2  UNL     1     -34.325  16.823  -1.862  1.00 20.00     0.024 A 
HETATM    3  C3  UNL     1     -33.757  17.336  -4.153  1.00 20.00     0.031 A 
HETATM    4  C4  UNL     1     -34.707  15.172  -3.598  1.00 20.00    -0.024 A 
HETATM    5  C5  UNL     1     -34.212  16.074  -4.557  1.00 20.00    -0.047 A 
HETATM    6  C6  UNL     1     -33.816  17.709  -2.810  1.00 20.00     0.034 A 
HETATM    7  C7  UNL     1     -34.114  15.663  -6.005  1.00 20.00     0.069 C 
HETATM    8  C8  UNL     1     -35.227  13.819  -4.017  1.00 20.00     0.308 C 
HETATM    9  C9  UNL     1     -34.974  14.440  -6.328  1.00 20.00     0.274 C 
HETATM   10  N10 UNL     1     -34.752  13.389  -5.336  1.00 20.00     0.087 N 
HETATM   11 CL11 UNL     1     -33.260  19.263  -2.325  1.00 20.00    -0.084 Cl
HETATM   12  H21 UNL     1     -33.754  13.181  -5.283  1.00 20.00     0.316 HD
ENDROOT
TORSDOF 0
ENDMDL
MODEL 5
REMARK VINA RESULT:      -4.4      3.133      4.331
REMARK  0 active torsions:
REMARK  status: ('A' for Active; 'I' for Inactive)
ROOT
HETATM    1  C1  UNL     1     -33.531  17.135  -4.228  1.00 20.00     0.011 A 
HETATM    2  C2  UNL     1     -33.589  18.014  -5.310  1.00 20.00     0.024 A 
HETATM    3  C3  UNL     1     -34.528  16.264  -6.685  1.00 20.00     0.031 A 
HETATM    4  C4  UNL     1     -33.962  15.810  -4.369  1.00 20.00    -0.024 A 
HETATM    5  C5  UNL     1     -34.482  15.377  -5.602  1.00 20.00    -0.047 A 
HETATM    6  C6  UNL     1     -34.085  17.578  -6.538  1.00 20.00     0.034 A 
HETATM    7  C7  UNL     1     -34.928  13.947  -5.777  1.00 20.00     0.069 C 
HETATM    8  C8  UNL     1     -33.930  14.877  -3.182  1.00 20.00     0.308 C 
HETATM    9  C9  UNL     1     -35.160  13.237  -4.442  1.00 20.00     0.274 C 
HETATM   10  N10 UNL     1     -34.027  13.460  -3.546  1.00 20.00     0.087 N 
HETATM   11 CL11 UNL     1     -34.150  18.662  -7.872  1.00 20.00    -0.084 Cl
HETATM   12  H21 UNL     1     -33.166  13.173  -4.014  1.00 20.00     0.316 HD
ENDROOT
TORSDOF 0
ENDMDL
MODEL 6
REMARK VINA RESULT:      -4.4      3.204      4.535
REMARK  0 active torsions:
REMARK  status: ('A' for Active; 'I' for Inactive)
ROOT
HETATM    1  C1  UNL     1     -36.428  16.358  -2.973  1.00 20.00     0.011 A 
HETATM    2  C2  UNL     1     -35.891  17.456  -2.300  1.00 20.00     0.024 A 
HETATM    3  C3  UNL     1     -33.691  16.468  -2.438  1.00 20.00     0.031 A 
HETATM    4  C4  UNL     1     -35.602  15.301  -3.376  1.00 20.00    -0.024 A 
HETATM    5  C5  UNL     1     -34.220  15.365  -3.122  1.00 20.00    -0.047 A 
HETATM    6  C6  UNL     1     -34.524  17.509  -2.031  1.00 20.00     0.034 A 
HETATM    7  C7  UNL     1     -33.320  14.226  -3.528  1.00 20.00     0.069 C 
HETATM    8  C8  UNL     1     -36.186  14.135  -4.136  1.00 20.00     0.308 C 
HETATM    9  C9  UNL     1     -33.968  13.306  -4.565  1.00 20.00     0.274 C 
HETATM   10  N10 UNL     1     -35.323  12.949  -4.148  1.00 20.00     0.087 N 
HETATM   11 CL11 UNL     1     -33.865  18.862  -1.196  1.00 20.00    -0.084 Cl
HETATM   12  H21 UNL     1     -35.292  12.545  -3.210  1.00 20.00     0.316 HD
ENDROOT
TORSDOF 0
ENDMDL
MODEL 7
REMARK VINA RESULT:      -4.3      2.973      4.520
REMARK  0 active torsions:
REMARK  status: ('A' for Active; 'I' for Inactive)
ROOT
HETATM    1  C1  UNL     1     -34.579  15.169  -2.947  1.00 20.00     0.011 A 
HETATM    2  C2  UNL     1     -34.440  15.994  -1.831  1.00 20.00     0.024 A 
HETATM    3  C3  UNL     1     -33.813  17.833  -3.266  1.00 20.00     0.031 A 
HETATM    4  C4  UNL     1     -34.328  15.667  -4.232  1.00 20.00    -0.024 A 
HETATM    5  C5  UNL     1     -33.960  17.015  -4.393  1.00 20.00    -0.047 A 
HETATM    6  C6  UNL     1     -34.054  17.324  -1.990  1.00 20.00     0.034 A 
HETATM    7  C7  UNL     1     -33.663  17.560  -5.767  1.00 20.00     0.069 C 
HETATM    8  C8  UNL     1     -34.519  14.776  -5.436  1.00 20.00     0.308 C 
HETATM    9  C9  UNL     1     -34.219  16.675  -6.884  1.00 20.00     0.274 C 
HETATM   10  N10 UNL     1     -33.861  15.277  -6.647  1.00 20.00     0.087 N 
HETATM   11 CL11 UNL     1     -33.877  18.339  -0.612  1.00 20.00    -0.084 Cl
HETATM   12  H21 UNL     1     -32.849  15.203  -6.537  1.00 20.00     0.316 HD
ENDROOT
TORSDOF 0
ENDMDL
MODEL 8
REMARK VINA RESULT:      -4.3      3.357      4.455
REMARK  0 active torsions:
REMARK  status: ('A' for Active; 'I' for Inactive)
ROOT
HETATM    1  C1  UNL     1     -37.164  14.613  -4.041  1.00 20.00     0.011 A 
HETATM    2  C2  UNL     1     -37.911  15.724  -3.649  1.00 20.00     0.024 A 
HETATM    3  C3  UNL     1     -35.906  16.779  -2.810  1.00 20.00     0.031 A 
HETATM    4  C4  UNL     1     -35.783  14.572  -3.812  1.00 20.00    -0.024 A 
HETATM    5  C5  UNL     1     -35.146  15.672  -3.208  1.00 20.00    -0.047 A 
HETATM    6  C6  UNL     1     -37.283  16.805  -3.032  1.00 20.00     0.034 A 
HETATM    7  C7  UNL     1     -33.664  15.634  -2.934  1.00 20.00     0.069 C 
HETATM    8  C8  UNL     1     -34.978  13.381  -4.274  1.00 20.00     0.308 C 
HETATM    9  C9  UNL     1     -32.944  14.554  -3.744  1.00 20.00     0.274 C 
HETATM   10  N10 UNL     1     -33.659  13.283  -3.641  1.00 20.00     0.087 N 
HETATM   11 CL11 UNL     1     -38.207  18.172  -2.544  1.00 20.00    -0.084 Cl
HETATM   12  H21 UNL     1     -33.774  13.040  -2.656  1.00 20.00     0.316 HD
ENDROOT
TORSDOF 0
ENDMDL
MODEL 9
REMARK VINA RESULT:      -4.3     12.931     14.108
REMARK  0 active torsions:
REMARK  status: ('A' for Active; 'I' for Inactive)
ROOT
HETATM    1  C1  UNL     1     -43.333   5.152  -3.250  1.00 20.00     0.011 A 
HETATM    2  C2  UNL     1     -43.268   3.790  -3.546  1.00 20.00     0.024 A 
HETATM    3  C3  UNL     1     -41.432   3.539  -1.996  1.00 20.00     0.031 A 
HETATM    4  C4  UNL     1     -42.442   5.721  -2.331  1.00 20.00    -0.024 A 
HETATM    5  C5  UNL     1     -41.496   4.904  -1.686  1.00 20.00    -0.047 A 
HETATM    6  C6  UNL     1     -42.317   2.985  -2.922  1.00 20.00     0.034 A 
HETATM    7  C7  UNL     1     -40.514   5.504  -0.712  1.00 20.00     0.069 C 
HETATM    8  C8  UNL     1     -42.545   7.188  -1.990  1.00 20.00     0.308 C 
HETATM    9  C9  UNL     1     -40.949   6.884  -0.215  1.00 20.00     0.274 C 
HETATM   10  N10 UNL     1     -41.345   7.726  -1.343  1.00 20.00     0.087 N 
HETATM   11 CL11 UNL     1     -42.234   1.307  -3.292  1.00 20.00    -0.084 Cl
HETATM   12  H21 UNL     1     -40.583   7.761  -2.022  1.00 20.00     0.316 HD
ENDROOT
TORSDOF 0
ENDMDL
