MODEL 1
REMARK VINA RESULT:      -5.1      0.000      0.000
REMARK  2 active torsions:
REMARK  status: ('A' for Active; 'I' for Inactive)
REMARK    1  A    between atoms: C2_2  and  C3_3 
REMARK    2  A    between atoms: C3_3  and  O10_10 
ROOT
HETATM    1  C1  UNL     1     -33.915   5.731   4.392  1.00 20.00    -0.067 C 
HETATM    2  C2  UNL     1     -33.397   6.019   3.194  1.00 20.00     0.014 C 
HETATM    3  C4  UNL     1     -34.953   4.672   4.642  1.00 20.00     0.035 C 
HETATM    4  C5  UNL     1     -33.541   6.421   5.672  1.00 20.00     0.035 C 
HETATM    5  C6  UNL     1     -34.956   4.547   6.160  1.00 20.00     0.005 C 
HETATM    6  C7  UNL     1     -34.616   5.950   6.644  1.00 20.00     0.005 C 
HETATM    7  C8  UNL     1     -33.805   5.301   1.941  1.00 20.00     0.056 C 
ENDROOT
BRANCH   2   8
HETATM    8  C3  UNL     1     -32.377   7.099   3.132  1.00 20.00     0.171 C 
HETATM    9  O9  UNL     1     -31.362   7.154   3.807  1.00 20.00    -0.646 OA
BRANCH   8  10
HETATM   10  O10 UNL     1     -32.722   8.032   2.213  1.00 20.00    -0.773 OA
HETATM   11  H22 UNL     1     -32.877   8.910   2.623  1.00 20.00     0.167 HD
ENDBRANCH   8  10
ENDBRANCH   2   8
TORSDOF 2
ENDMDL
MODEL 2
REMARK VINA RESULT:      -5.0     11.602     12.669
REMARK  2 active torsions:
REMARK  status: ('A' for Active; 'I' for Inactive)
REMARK    1  A    between atoms: C2_2  and  C3_3 
REMARK    2  A    between atoms: C3_3  and  O10_10 
ROOT
HETATM    1  C1  UNL     1     -34.522  15.840  -3.667  1.00 20.00    -0.067 C 
HETATM    2  C2  UNL     1     -34.905  14.961  -4.599  1.00 20.00     0.014 C 
HETATM    3  C4  UNL     1     -33.627  17.020  -3.924  1.00 20.00     0.035 C 
HETATM    4  C5  UNL     1     -34.925  15.782  -2.222  1.00 20.00     0.035 C 
HETATM    5  C6  UNL     1     -33.764  17.838  -2.645  1.00 20.00     0.005 C 
HETATM    6  C7  UNL     1     -33.991  16.791  -1.564  1.00 20.00     0.005 C 
HETATM    7  C8  UNL     1     -34.472  15.060  -6.032  1.00 20.00     0.056 C 
ENDROOT
BRANCH   2   8
HETATM    8  C3  UNL     1     -35.795  13.851  -4.167  1.00 20.00     0.171 C 
HETATM    9  O9  UNL     1     -36.988  13.951  -3.931  1.00 20.00    -0.646 OA
BRANCH   8  10
HETATM   10  O10 UNL     1     -35.102  12.692  -4.065  1.00 20.00    -0.773 OA
HETATM   11  H22 UNL     1     -35.676  11.944  -3.797  1.00 20.00     0.167 HD
ENDBRANCH   8  10
ENDBRANCH   2   8
TORSDOF 2
ENDMDL
MODEL 3
REMARK VINA RESULT:      -4.9      2.385      4.119
REMARK  2 active torsions:
REMARK  status: ('A' for Active; 'I' for Inactive)
REMARK    1  A    between atoms: C2_2  and  C3_3 
REMARK    2  A    between atoms: C3_3  and  O10_10 
ROOT
HETATM    1  C1  UNL     1     -33.399   6.294   4.351  1.00 20.00    -0.067 C 
HETATM    2  C2  UNL     1     -34.250   5.741   5.220  1.00 20.00     0.014 C 
HETATM    3  C4  UNL     1     -32.420   7.383   4.690  1.00 20.00     0.035 C 
HETATM    4  C5  UNL     1     -33.289   5.912   2.902  1.00 20.00     0.035 C 
HETATM    5  C6  UNL     1     -31.511   7.420   3.467  1.00 20.00     0.005 C 
HETATM    6  C7  UNL     1     -32.428   7.026   2.318  1.00 20.00     0.005 C 
HETATM    7  C8  UNL     1     -34.323   6.157   6.659  1.00 20.00     0.056 C 
ENDROOT
BRANCH   2   8
HETATM    8  C3  UNL     1     -35.150   4.672   4.710  1.00 20.00     0.171 C 
HETATM    9  O9  UNL     1     -35.003   3.475   4.895  1.00 20.00    -0.646 OA
BRANCH   8  10
HETATM   10  O10 UNL     1     -36.172   5.204   3.999  1.00 20.00    -0.773 OA
HETATM   11  H22 UNL     1     -36.065   5.056   3.036  1.00 20.00     0.167 HD
ENDBRANCH   8  10
ENDBRANCH   2   8
TORSDOF 2
ENDMDL
MODEL 4
REMARK VINA RESULT:      -4.9     11.504     13.401
REMARK  2 active torsions:
REMARK  status: ('A' for Active; 'I' for Inactive)
REMARK    1  A    between atoms: C2_2  and  C3_3 
REMARK    2  A    between atoms: C3_3  and  O10_10 
ROOT
HETATM    1  C1  UNL     1     -34.551  15.512  -5.129  1.00 20.00    -0.067 C 
HETATM    2  C2  UNL     1     -34.460  14.906  -3.941  1.00 20.00     0.014 C 
HETATM    3  C4  UNL     1     -34.902  16.961  -5.324  1.00 20.00     0.035 C 
HETATM    4  C5  UNL     1     -34.318  14.839  -6.451  1.00 20.00     0.035 C 
HETATM    5  C6  UNL     1     -34.566  17.201  -6.791  1.00 20.00     0.005 C 
HETATM    6  C7  UNL     1     -34.845  15.859  -7.454  1.00 20.00     0.005 C 
HETATM    7  C8  UNL     1     -34.704  15.622  -2.646  1.00 20.00     0.056 C 
ENDROOT
BRANCH   2   8
HETATM    8  C3  UNL     1     -34.100  13.463  -3.936  1.00 20.00     0.171 C 
HETATM    9  O9  UNL     1     -32.971  13.015  -3.817  1.00 20.00    -0.646 OA
BRANCH   8  10
HETATM   10  O10 UNL     1     -35.204  12.693  -4.083  1.00 20.00    -0.773 OA
HETATM   11  H22 UNL     1     -35.043  11.929  -4.676  1.00 20.00     0.167 HD
ENDBRANCH   8  10
ENDBRANCH   2   8
TORSDOF 2
ENDMDL
MODEL 5
REMARK VINA RESULT:      -4.8     11.784     12.234
REMARK  2 active torsions:
REMARK  status: ('A' for Active; 'I' for Inactive)
REMARK    1  A    between atoms: C2_2  and  C3_3 
REMARK    2  A    between atoms: C3_3  and  O10_10 
ROOT
HETATM    1  C1  UNL     1     -35.281  15.466  -3.064  1.00 20.00    -0.067 C 
HETATM    2  C2  UNL     1     -35.979  14.686  -3.894  1.00 20.00     0.014 C 
HETATM    3  C4  UNL     1     -35.887  16.460  -2.113  1.00 20.00     0.035 C 
HETATM    4  C5  UNL     1     -33.783  15.470  -2.954  1.00 20.00     0.035 C 
HETATM    5  C6  UNL     1     -34.715  16.833  -1.214  1.00 20.00     0.005 C 
HETATM    6  C7  UNL     1     -33.502  16.720  -2.127  1.00 20.00     0.005 C 
HETATM    7  C8  UNL     1     -37.477  14.719  -3.969  1.00 20.00     0.056 C 
ENDROOT
BRANCH   2   8
HETATM    8  C3  UNL     1     -35.213  13.758  -4.768  1.00 20.00     0.171 C 
HETATM    9  O9  UNL     1     -34.735  14.041  -5.855  1.00 20.00    -0.646 OA
BRANCH   8  10
HETATM   10  O10 UNL     1     -35.109  12.535  -4.195  1.00 20.00    -0.773 OA
HETATM   11  H22 UNL     1     -34.311  12.054  -4.499  1.00 20.00     0.167 HD
ENDBRANCH   8  10
ENDBRANCH   2   8
TORSDOF 2
ENDMDL
MODEL 6
REMARK VINA RESULT:      -4.8     11.149     12.457
REMARK  2 active torsions:
REMARK  status: ('A' for Active; 'I' for Inactive)
REMARK    1  A    between atoms: C2_2  and  C3_3 
REMARK    2  A    between atoms: C3_3  and  O10_10 
ROOT
HETATM    1  C1  UNL     1     -34.496  15.652  -3.882  1.00 20.00    -0.067 C 
HETATM    2  C2  UNL     1     -34.329  14.648  -4.748  1.00 20.00     0.014 C 
HETATM    3  C4  UNL     1     -34.788  17.075  -4.269  1.00 20.00     0.035 C 
HETATM    4  C5  UNL     1     -34.415  15.513  -2.388  1.00 20.00     0.035 C 
HETATM    5  C6  UNL     1     -35.186  17.716  -2.945  1.00 20.00     0.005 C 
HETATM    6  C7  UNL     1     -34.363  16.960  -1.911  1.00 20.00     0.005 C 
HETATM    7  C8  UNL     1     -34.417  14.838  -6.234  1.00 20.00     0.056 C 
ENDROOT
BRANCH   2   8
HETATM    8  C3  UNL     1     -34.046  13.301  -4.187  1.00 20.00     0.171 C 
HETATM    9  O9  UNL     1     -32.958  12.913  -3.793  1.00 20.00    -0.646 OA
BRANCH   8  10
HETATM   10  O10 UNL     1     -35.168  12.544  -4.168  1.00 20.00    -0.773 OA
HETATM   11  H22 UNL     1     -35.716  12.721  -3.374  1.00 20.00     0.167 HD
ENDBRANCH   8  10
ENDBRANCH   2   8
TORSDOF 2
ENDMDL
MODEL 7
REMARK VINA RESULT:      -4.7     11.435     13.039
REMARK  2 active torsions:
REMARK  status: ('A' for Active; 'I' for Inactive)
REMARK    1  A    between atoms: C2_2  and  C3_3 
REMARK    2  A    between atoms: C3_3  and  O10_10 
ROOT
HETATM    1  C1  UNL     1     -34.943  15.224  -4.806  1.00 20.00    -0.067 C 
HETATM    2  C2  UNL     1     -34.227  15.116  -3.683  1.00 20.00     0.014 C 
HETATM    3  C4  UNL     1     -36.193  16.048  -4.946  1.00 20.00     0.035 C 
HETATM    4  C5  UNL     1     -34.611  14.539  -6.101  1.00 20.00     0.035 C 
HETATM    5  C6  UNL     1     -36.419  16.076  -6.452  1.00 20.00     0.005 C 
HETATM    6  C7  UNL     1     -35.876  14.736  -6.928  1.00 20.00     0.005 C 
HETATM    7  C8  UNL     1     -34.601  15.821  -2.413  1.00 20.00     0.056 C 
ENDROOT
BRANCH   2   8
HETATM    8  C3  UNL     1     -33.015  14.256  -3.726  1.00 20.00     0.171 C 
HETATM    9  O9  UNL     1     -33.000  13.046  -3.565  1.00 20.00    -0.646 OA
BRANCH   8  10
HETATM   10  O10 UNL     1     -31.909  14.997  -3.971  1.00 20.00    -0.773 OA
HETATM   11  H22 UNL     1     -32.006  15.546  -4.778  1.00 20.00     0.167 HD
ENDBRANCH   8  10
ENDBRANCH   2   8
TORSDOF 2
ENDMDL
MODEL 8
REMARK VINA RESULT:      -4.6     11.753     12.988
REMARK  2 active torsions:
REMARK  status: ('A' for Active; 'I' for Inactive)
REMARK    1  A    between atoms: C2_2  and  C3_3 
REMARK    2  A    between atoms: C3_3  and  O10_10 
ROOT
HETATM    1  C1  UNL     1     -34.169  16.665  -2.504  1.00 20.00    -0.067 C 
HETATM    2  C2  UNL     1     -34.163  15.765  -3.492  1.00 20.00     0.014 C 
HETATM    3  C4  UNL     1     -34.647  16.393  -1.105  1.00 20.00     0.035 C 
HETATM    4  C5  UNL     1     -33.701  18.085  -2.640  1.00 20.00     0.035 C 
HETATM    5  C6  UNL     1     -34.157  17.612  -0.333  1.00 20.00     0.005 C 
HETATM    6  C7  UNL     1     -34.204  18.737  -1.357  1.00 20.00     0.005 C 
HETATM    7  C8  UNL     1     -34.644  14.356  -3.308  1.00 20.00     0.056 C 
ENDROOT
BRANCH   2   8
HETATM    8  C3  UNL     1     -33.654  16.208  -4.817  1.00 20.00     0.171 C 
HETATM    9  O9  UNL     1     -34.309  16.784  -5.671  1.00 20.00    -0.646 OA
BRANCH   8  10
HETATM   10  O10 UNL     1     -32.347  15.886  -4.961  1.00 20.00    -0.773 OA
HETATM   11  H22 UNL     1     -31.902  15.762  -4.095  1.00 20.00     0.167 HD
ENDBRANCH   8  10
ENDBRANCH   2   8
TORSDOF 2
ENDMDL
MODEL 9
REMARK VINA RESULT:      -4.4     11.778     12.547
REMARK  2 active torsions:
REMARK  status: ('A' for Active; 'I' for Inactive)
REMARK    1  A    between atoms: C2_2  and  C3_3 
REMARK    2  A    between atoms: C3_3  and  O10_10 
ROOT
HETATM    1  C1  UNL     1     -35.340  15.459  -3.100  1.00 20.00    -0.067 C 
HETATM    2  C2  UNL     1     -35.858  14.514  -3.891  1.00 20.00     0.014 C 
HETATM    3  C4  UNL     1     -33.920  15.474  -2.606  1.00 20.00     0.035 C 
HETATM    4  C5  UNL     1     -36.096  16.649  -2.583  1.00 20.00     0.035 C 
HETATM    5  C6  UNL     1     -33.773  16.878  -2.031  1.00 20.00     0.005 C 
HETATM    6  C7  UNL     1     -35.165  17.209  -1.513  1.00 20.00     0.005 C 
HETATM    7  C8  UNL     1     -35.062  13.341  -4.381  1.00 20.00     0.056 C 
ENDROOT
BRANCH   2   8
HETATM    8  C3  UNL     1     -37.285  14.659  -4.283  1.00 20.00     0.171 C 
HETATM    9  O9  UNL     1     -38.240  14.246  -3.645  1.00 20.00    -0.646 OA
BRANCH   8  10
HETATM   10  O10 UNL     1     -37.394  15.319  -5.460  1.00 20.00    -0.773 OA
HETATM   11  H22 UNL     1     -38.137  15.959  -5.454  1.00 20.00     0.167 HD
ENDBRANCH   8  10
ENDBRANCH   2   8
TORSDOF 2
ENDMDL
