MODEL 1
REMARK VINA RESULT:      -4.0      0.000      0.000
REMARK  1 active torsions:
REMARK  status: ('A' for Active; 'I' for Inactive)
REMARK    1  A    between atoms: C6_6  and  N8_8 
ROOT
HETATM    1  C1  UNL     1     -36.382  14.045  -4.143  1.00 20.00     0.137 A 
HETATM    2  C2  UNL     1     -36.101  15.218  -3.485  1.00 20.00     0.113 A 
HETATM    3  C3  UNL     1     -34.314  13.938  -3.652  1.00 20.00     0.203 A 
HETATM    4  N7  UNL     1     -35.267  13.252  -4.244  1.00 20.00    -0.231 NA
HETATM    5  N8  UNL     1     -34.772  15.134  -3.175  1.00 20.00    -0.327 N 
HETATM    6 CL9  UNL     1     -32.694  13.468  -3.456  1.00 20.00    -0.043 Cl
ENDROOT
BRANCH   5   7
HETATM    7  C6  UNL     1     -34.007  16.165  -2.460  1.00 20.00     0.083 C 
HETATM    8  C4  UNL     1     -34.632  16.506  -1.106  1.00 20.00     0.032 C 
HETATM    9  C5  UNL     1     -33.794  17.416  -3.314  1.00 20.00     0.032 C 
ENDBRANCH   5   7
TORSDOF 1
ENDMDL
MODEL 2
REMARK VINA RESULT:      -3.8      1.744      2.442
REMARK  1 active torsions:
REMARK  status: ('A' for Active; 'I' for Inactive)
REMARK    1  A    between atoms: C6_6  and  N8_8 
ROOT
HETATM    1  C1  UNL     1     -33.964  13.240  -4.361  1.00 20.00     0.137 A 
HETATM    2  C2  UNL     1     -33.563  14.433  -3.810  1.00 20.00     0.113 A 
HETATM    3  C3  UNL     1     -35.760  14.284  -3.899  1.00 20.00     0.203 A 
HETATM    4  N7  UNL     1     -35.333  13.153  -4.414  1.00 20.00    -0.231 NA
HETATM    5  N8  UNL     1     -34.724  15.093  -3.520  1.00 20.00    -0.327 N 
HETATM    6 CL9  UNL     1     -37.377  14.764  -3.697  1.00 20.00    -0.043 Cl
ENDROOT
BRANCH   5   7
HETATM    7  C6  UNL     1     -34.807  16.426  -2.909  1.00 20.00     0.083 C 
HETATM    8  C4  UNL     1     -33.804  17.402  -3.527  1.00 20.00     0.032 C 
HETATM    9  C5  UNL     1     -34.672  16.369  -1.387  1.00 20.00     0.032 C 
ENDBRANCH   5   7
TORSDOF 1
ENDMDL
MODEL 3
REMARK VINA RESULT:      -3.7      1.375      1.487
REMARK  1 active torsions:
REMARK  status: ('A' for Active; 'I' for Inactive)
REMARK    1  A    between atoms: C6_6  and  N8_8 
ROOT
HETATM    1  C1  UNL     1     -37.479  15.211  -3.503  1.00 20.00     0.137 A 
HETATM    2  C2  UNL     1     -36.440  16.017  -3.102  1.00 20.00     0.113 A 
HETATM    3  C3  UNL     1     -35.707  14.166  -4.048  1.00 20.00     0.203 A 
HETATM    4  N7  UNL     1     -37.016  14.060  -4.090  1.00 20.00    -0.231 NA
HETATM    5  N8  UNL     1     -35.311  15.333  -3.456  1.00 20.00    -0.327 N 
HETATM    6 CL9  UNL     1     -34.576  13.038  -4.625  1.00 20.00    -0.043 Cl
ENDROOT
BRANCH   5   7
HETATM    7  C6  UNL     1     -33.937  15.801  -3.230  1.00 20.00     0.083 C 
HETATM    8  C4  UNL     1     -33.834  16.701  -1.998  1.00 20.00     0.032 C 
HETATM    9  C5  UNL     1     -33.348  16.475  -4.471  1.00 20.00     0.032 C 
ENDBRANCH   5   7
TORSDOF 1
ENDMDL
MODEL 4
REMARK VINA RESULT:      -3.7      2.004      3.696
REMARK  1 active torsions:
REMARK  status: ('A' for Active; 'I' for Inactive)
REMARK    1  A    between atoms: C6_6  and  N8_8 
ROOT
HETATM    1  C1  UNL     1     -33.608  17.775  -4.515  1.00 20.00     0.137 A 
HETATM    2  C2  UNL     1     -33.831  16.452  -4.813  1.00 20.00     0.113 A 
HETATM    3  C3  UNL     1     -34.148  16.861  -2.670  1.00 20.00     0.203 A 
HETATM    4  N7  UNL     1     -33.807  18.023  -3.180  1.00 20.00    -0.231 NA
HETATM    5  N8  UNL     1     -34.174  15.878  -3.621  1.00 20.00    -0.327 N 
HETATM    6 CL9  UNL     1     -34.520  16.532  -1.046  1.00 20.00    -0.043 Cl
ENDROOT
BRANCH   5   7
HETATM    7  C6  UNL     1     -34.508  14.460  -3.433  1.00 20.00     0.083 C 
HETATM    8  C4  UNL     1     -33.327  13.546  -3.763  1.00 20.00     0.032 C 
HETATM    9  C5  UNL     1     -35.765  14.059  -4.208  1.00 20.00     0.032 C 
ENDBRANCH   5   7
TORSDOF 1
ENDMDL
MODEL 5
REMARK VINA RESULT:      -3.6      2.137      2.764
REMARK  1 active torsions:
REMARK  status: ('A' for Active; 'I' for Inactive)
REMARK    1  A    between atoms: C6_6  and  N8_8 
ROOT
HETATM    1  C1  UNL     1     -34.419  13.159  -4.821  1.00 20.00     0.137 A 
HETATM    2  C2  UNL     1     -34.612  14.269  -5.608  1.00 20.00     0.113 A 
HETATM    3  C3  UNL     1     -34.492  14.805  -3.473  1.00 20.00     0.203 A 
HETATM    4  N7  UNL     1     -34.346  13.499  -3.493  1.00 20.00    -0.231 NA
HETATM    5  N8  UNL     1     -34.659  15.316  -4.731  1.00 20.00    -0.327 N 
HETATM    6 CL9  UNL     1     -34.493  15.808  -2.103  1.00 20.00    -0.043 Cl
ENDROOT
BRANCH   5   7
HETATM    7  C6  UNL     1     -34.851  16.723  -5.107  1.00 20.00     0.083 C 
HETATM    8  C4  UNL     1     -35.782  16.872  -6.312  1.00 20.00     0.032 C 
HETATM    9  C5  UNL     1     -33.520  17.444  -5.331  1.00 20.00     0.032 C 
ENDBRANCH   5   7
TORSDOF 1
ENDMDL
MODEL 6
REMARK VINA RESULT:      -3.6      2.339      2.805
REMARK  1 active torsions:
REMARK  status: ('A' for Active; 'I' for Inactive)
REMARK    1  A    between atoms: C6_6  and  N8_8 
ROOT
HETATM    1  C1  UNL     1     -34.188  13.410  -3.607  1.00 20.00     0.137 A 
HETATM    2  C2  UNL     1     -34.176  14.784  -3.565  1.00 20.00     0.113 A 
HETATM    3  C3  UNL     1     -34.847  14.043  -5.530  1.00 20.00     0.203 A 
HETATM    4  N7  UNL     1     -34.607  12.955  -4.833  1.00 20.00    -0.231 NA
HETATM    5  N8  UNL     1     -34.599  15.175  -4.804  1.00 20.00    -0.327 N 
HETATM    6 CL9  UNL     1     -35.394  14.123  -7.136  1.00 20.00    -0.043 Cl
ENDROOT
BRANCH   5   7
HETATM    7  C6  UNL     1     -34.751  16.570  -5.241  1.00 20.00     0.083 C 
HETATM    8  C4  UNL     1     -33.431  17.340  -5.166  1.00 20.00     0.032 C 
HETATM    9  C5  UNL     1     -35.867  17.290  -4.484  1.00 20.00     0.032 C 
ENDBRANCH   5   7
TORSDOF 1
ENDMDL
MODEL 7
REMARK VINA RESULT:      -3.5      2.763      3.890
REMARK  1 active torsions:
REMARK  status: ('A' for Active; 'I' for Inactive)
REMARK    1  A    between atoms: C6_6  and  N8_8 
ROOT
HETATM    1  C1  UNL     1     -33.619  17.521  -5.462  1.00 20.00     0.137 A 
HETATM    2  C2  UNL     1     -33.584  16.481  -4.565  1.00 20.00     0.113 A 
HETATM    3  C3  UNL     1     -34.317  15.822  -6.537  1.00 20.00     0.203 A 
HETATM    4  N7  UNL     1     -34.076  17.105  -6.687  1.00 20.00    -0.231 NA
HETATM    5  N8  UNL     1     -34.036  15.399  -5.267  1.00 20.00    -0.327 N 
HETATM    6 CL9  UNL     1     -34.910  14.753  -7.716  1.00 20.00    -0.043 Cl
ENDROOT
BRANCH   5   7
HETATM    7  C6  UNL     1     -34.178  14.041  -4.724  1.00 20.00     0.083 C 
HETATM    8  C4  UNL     1     -35.598  13.770  -4.225  1.00 20.00     0.032 C 
HETATM    9  C5  UNL     1     -33.135  13.743  -3.646  1.00 20.00     0.032 C 
ENDBRANCH   5   7
TORSDOF 1
ENDMDL
MODEL 8
REMARK VINA RESULT:      -3.5      2.440      3.226
REMARK  1 active torsions:
REMARK  status: ('A' for Active; 'I' for Inactive)
REMARK    1  A    between atoms: C6_6  and  N8_8 
ROOT
HETATM    1  C1  UNL     1     -37.784  14.999  -4.593  1.00 20.00     0.137 A 
HETATM    2  C2  UNL     1     -37.030  15.485  -5.634  1.00 20.00     0.113 A 
HETATM    3  C3  UNL     1     -35.817  14.256  -4.264  1.00 20.00     0.203 A 
HETATM    4  N7  UNL     1     -37.023  14.236  -3.743  1.00 20.00    -0.231 NA
HETATM    5  N8  UNL     1     -35.771  15.002  -5.409  1.00 20.00    -0.327 N 
HETATM    6 CL9  UNL     1     -34.431  13.486  -3.653  1.00 20.00    -0.043 Cl
ENDROOT
BRANCH   5   7
HETATM    7  C6  UNL     1     -34.605  15.255  -6.266  1.00 20.00     0.083 C 
HETATM    8  C4  UNL     1     -34.141  16.710  -6.186  1.00 20.00     0.032 C 
HETATM    9  C5  UNL     1     -34.851  14.821  -7.712  1.00 20.00     0.032 C 
ENDBRANCH   5   7
TORSDOF 1
ENDMDL
MODEL 9
REMARK VINA RESULT:      -3.5      2.633      3.781
REMARK  1 active torsions:
REMARK  status: ('A' for Active; 'I' for Inactive)
REMARK    1  A    between atoms: C6_6  and  N8_8 
ROOT
HETATM    1  C1  UNL     1     -33.438  13.768  -3.825  1.00 20.00     0.137 A 
HETATM    2  C2  UNL     1     -34.401  13.704  -4.804  1.00 20.00     0.113 A 
HETATM    3  C3  UNL     1     -33.567  15.736  -4.626  1.00 20.00     0.203 A 
HETATM    4  N7  UNL     1     -32.923  15.036  -3.719  1.00 20.00    -0.231 NA
HETATM    5  N8  UNL     1     -34.474  14.972  -5.307  1.00 20.00    -0.327 N 
HETATM    6 CL9  UNL     1     -33.364  17.387  -4.970  1.00 20.00    -0.043 Cl
ENDROOT
BRANCH   5   7
HETATM    7  C6  UNL     1     -35.373  15.401  -6.386  1.00 20.00     0.083 C 
HETATM    8  C4  UNL     1     -36.844  15.311  -5.976  1.00 20.00     0.032 C 
HETATM    9  C5  UNL     1     -35.105  14.648  -7.690  1.00 20.00     0.032 C 
ENDBRANCH   5   7
TORSDOF 1
ENDMDL
