MODEL 1
REMARK VINA RESULT:      -5.5      0.000      0.000
REMARK  1 active torsions:
REMARK  status: ('A' for Active; 'I' for Inactive)
REMARK    1  A    between atoms: C5_5  and  O7_7 
ROOT
HETATM    1  C1  UNL     1     -34.404   5.298   3.494  1.00 20.00     0.037 C 
HETATM    2  C2  UNL     1     -33.299   6.619   5.343  1.00 20.00     0.037 C 
HETATM    3  C3  UNL     1     -35.411   4.736   4.492  1.00 20.00     0.081 C 
HETATM    4  C4  UNL     1     -34.303   6.061   6.347  1.00 20.00     0.081 C 
HETATM    5  C5  UNL     1     -33.881   6.666   3.930  1.00 20.00     0.118 C 
HETATM    6  C6  UNL     1     -34.841   4.711   5.901  1.00 20.00     0.243 C 
HETATM    7  F8  UNL     1     -35.797   4.296   6.769  1.00 20.00    -0.206 F 
HETATM    8  F9  UNL     1     -33.843   3.791   5.962  1.00 20.00    -0.206 F 
ENDROOT
BRANCH   5   9
HETATM    9  O7  UNL     1     -32.875   7.082   3.013  1.00 20.00    -0.396 OA
HETATM   10  H19 UNL     1     -32.834   8.049   3.065  1.00 20.00     0.210 HD
ENDBRANCH   5   9
TORSDOF 1
ENDMDL
MODEL 2
REMARK VINA RESULT:      -4.9      2.676      3.694
REMARK  1 active torsions:
REMARK  status: ('A' for Active; 'I' for Inactive)
REMARK    1  A    between atoms: C5_5  and  O7_7 
ROOT
HETATM    1  C1  UNL     1     -33.992   5.785   6.084  1.00 20.00     0.037 C 
HETATM    2  C2  UNL     1     -34.932   4.532   4.100  1.00 20.00     0.037 C 
HETATM    3  C3  UNL     1     -33.541   6.913   5.162  1.00 20.00     0.081 C 
HETATM    4  C4  UNL     1     -34.483   5.657   3.173  1.00 20.00     0.081 C 
HETATM    5  C5  UNL     1     -35.201   5.043   5.516  1.00 20.00     0.118 C 
HETATM    6  C6  UNL     1     -33.295   6.410   3.750  1.00 20.00     0.243 C 
HETATM    7  F8  UNL     1     -32.989   7.457   2.943  1.00 20.00    -0.206 F 
HETATM    8  F9  UNL     1     -32.207   5.596   3.749  1.00 20.00    -0.206 F 
ENDROOT
BRANCH   5   9
HETATM    9  O7  UNL     1     -35.504   3.945   6.370  1.00 20.00    -0.396 OA
HETATM   10  H19 UNL     1     -36.425   4.057   6.652  1.00 20.00     0.210 HD
ENDBRANCH   5   9
TORSDOF 1
ENDMDL
MODEL 3
REMARK VINA RESULT:      -4.7      2.795      3.447
REMARK  1 active torsions:
REMARK  status: ('A' for Active; 'I' for Inactive)
REMARK    1  A    between atoms: C5_5  and  O7_7 
ROOT
HETATM    1  C1  UNL     1     -35.223   4.608   4.278  1.00 20.00     0.037 C 
HETATM    2  C2  UNL     1     -34.265   5.918   6.214  1.00 20.00     0.037 C 
HETATM    3  C3  UNL     1     -34.213   5.256   3.336  1.00 20.00     0.081 C 
HETATM    4  C4  UNL     1     -33.252   6.569   5.278  1.00 20.00     0.081 C 
HETATM    5  C5  UNL     1     -34.694   4.541   5.710  1.00 20.00     0.118 C 
HETATM    6  C6  UNL     1     -33.769   6.616   3.849  1.00 20.00     0.243 C 
HETATM    7  F8  UNL     1     -32.804   7.113   3.035  1.00 20.00    -0.206 F 
HETATM    8  F9  UNL     1     -34.812   7.482   3.779  1.00 20.00    -0.206 F 
ENDROOT
BRANCH   5   9
HETATM    9  O7  UNL     1     -35.721   4.023   6.549  1.00 20.00    -0.396 OA
HETATM   10  H19 UNL     1     -35.933   3.137   6.216  1.00 20.00     0.210 HD
ENDBRANCH   5   9
TORSDOF 1
ENDMDL
MODEL 4
REMARK VINA RESULT:      -4.7     12.370     13.238
REMARK  1 active torsions:
REMARK  status: ('A' for Active; 'I' for Inactive)
REMARK    1  A    between atoms: C5_5  and  O7_7 
ROOT
HETATM    1  C1  UNL     1     -35.846  14.809  -3.619  1.00 20.00     0.037 C 
HETATM    2  C2  UNL     1     -33.486  13.906  -3.684  1.00 20.00     0.037 C 
HETATM    3  C3  UNL     1     -35.305  16.234  -3.637  1.00 20.00     0.081 C 
HETATM    4  C4  UNL     1     -32.939  15.329  -3.702  1.00 20.00     0.081 C 
HETATM    5  C5  UNL     1     -34.885  13.833  -4.297  1.00 20.00     0.118 C 
HETATM    6  C6  UNL     1     -33.905  16.304  -3.048  1.00 20.00     0.243 C 
HETATM    7  F8  UNL     1     -33.426  17.567  -3.171  1.00 20.00    -0.206 F 
HETATM    8  F9  UNL     1     -33.968  16.045  -1.716  1.00 20.00    -0.206 F 
ENDROOT
BRANCH   5   9
HETATM    9  O7  UNL     1     -35.401  12.513  -4.153  1.00 20.00    -0.396 OA
HETATM   10  H19 UNL     1     -36.359  12.601  -4.028  1.00 20.00     0.210 HD
ENDBRANCH   5   9
TORSDOF 1
ENDMDL
MODEL 5
REMARK VINA RESULT:      -4.6     13.257     14.225
REMARK  1 active torsions:
REMARK  status: ('A' for Active; 'I' for Inactive)
REMARK    1  A    between atoms: C5_5  and  O7_7 
ROOT
HETATM    1  C1  UNL     1     -35.131  14.277  -5.778  1.00 20.00     0.037 C 
HETATM    2  C2  UNL     1     -34.041  14.432  -3.504  1.00 20.00     0.037 C 
HETATM    3  C3  UNL     1     -34.276  15.439  -6.271  1.00 20.00     0.081 C 
HETATM    4  C4  UNL     1     -33.182  15.594  -3.990  1.00 20.00     0.081 C 
HETATM    5  C5  UNL     1     -34.441  13.507  -4.654  1.00 20.00     0.118 C 
HETATM    6  C6  UNL     1     -33.859  16.346  -5.125  1.00 20.00     0.243 C 
HETATM    7  F8  UNL     1     -33.024  17.309  -5.591  1.00 20.00    -0.206 F 
HETATM    8  F9  UNL     1     -34.954  16.989  -4.643  1.00 20.00    -0.206 F 
ENDROOT
BRANCH   5   9
HETATM    9  O7  UNL     1     -35.333  12.506  -4.173  1.00 20.00    -0.396 OA
HETATM   10  H19 UNL     1     -36.079  12.477  -4.793  1.00 20.00     0.210 HD
ENDBRANCH   5   9
TORSDOF 1
ENDMDL
MODEL 6
REMARK VINA RESULT:      -4.5      1.953      2.716
REMARK  1 active torsions:
REMARK  status: ('A' for Active; 'I' for Inactive)
REMARK    1  A    between atoms: C5_5  and  O7_7 
ROOT
HETATM    1  C1  UNL     1     -34.753   5.575   6.736  1.00 20.00     0.037 C 
HETATM    2  C2  UNL     1     -33.690   6.782   4.786  1.00 20.00     0.037 C 
HETATM    3  C3  UNL     1     -34.886   4.315   5.888  1.00 20.00     0.081 C 
HETATM    4  C4  UNL     1     -33.820   5.525   3.933  1.00 20.00     0.081 C 
HETATM    5  C5  UNL     1     -33.585   6.445   6.274  1.00 20.00     0.118 C 
HETATM    6  C6  UNL     1     -34.968   4.648   4.408  1.00 20.00     0.243 C 
HETATM    7  F8  UNL     1     -34.988   3.500   3.686  1.00 20.00    -0.206 F 
HETATM    8  F9  UNL     1     -36.145   5.280   4.157  1.00 20.00    -0.206 F 
ENDROOT
BRANCH   5   9
HETATM    9  O7  UNL     1     -33.583   7.647   7.037  1.00 20.00    -0.396 OA
HETATM   10  H19 UNL     1     -32.826   8.170   6.730  1.00 20.00     0.210 HD
ENDBRANCH   5   9
TORSDOF 1
ENDMDL
MODEL 7
REMARK VINA RESULT:      -4.3      9.166     10.021
REMARK  1 active torsions:
REMARK  status: ('A' for Active; 'I' for Inactive)
REMARK    1  A    between atoms: C5_5  and  O7_7 
ROOT
HETATM    1  C1  UNL     1     -42.687   6.660  -1.913  1.00 20.00     0.037 C 
HETATM    2  C2  UNL     1     -41.844   4.285  -1.721  1.00 20.00     0.037 C 
HETATM    3  C3  UNL     1     -41.566   7.136  -0.996  1.00 20.00     0.081 C 
HETATM    4  C4  UNL     1     -40.721   4.754  -0.804  1.00 20.00     0.081 C 
HETATM    5  C5  UNL     1     -42.295   5.394  -2.673  1.00 20.00     0.118 C 
HETATM    6  C6  UNL     1     -41.103   6.027  -0.065  1.00 20.00     0.243 C 
HETATM    7  F8  UNL     1     -40.044   6.462   0.664  1.00 20.00    -0.206 F 
HETATM    8  F9  UNL     1     -42.091   5.748   0.824  1.00 20.00    -0.206 F 
ENDROOT
BRANCH   5   9
HETATM    9  O7  UNL     1     -43.417   4.949  -3.427  1.00 20.00    -0.396 OA
HETATM   10  H19 UNL     1     -43.072   4.373  -4.127  1.00 20.00     0.210 HD
ENDBRANCH   5   9
TORSDOF 1
ENDMDL
MODEL 8
REMARK VINA RESULT:      -4.2     12.901     13.736
REMARK  1 active torsions:
REMARK  status: ('A' for Active; 'I' for Inactive)
REMARK    1  A    between atoms: C5_5  and  O7_7 
ROOT
HETATM    1  C1  UNL     1     -33.607  15.985  -5.020  1.00 20.00     0.037 C 
HETATM    2  C2  UNL     1     -33.752  13.676  -4.004  1.00 20.00     0.037 C 
HETATM    3  C3  UNL     1     -35.127  16.032  -5.138  1.00 20.00     0.081 C 
HETATM    4  C4  UNL     1     -35.272  13.716  -4.119  1.00 20.00     0.081 C 
HETATM    5  C5  UNL     1     -33.159  15.079  -3.874  1.00 20.00     0.118 C 
HETATM    6  C6  UNL     1     -35.718  14.636  -5.244  1.00 20.00     0.243 C 
HETATM    7  F8  UNL     1     -37.073  14.718  -5.250  1.00 20.00    -0.206 F 
HETATM    8  F9  UNL     1     -35.362  14.089  -6.435  1.00 20.00    -0.206 F 
ENDROOT
BRANCH   5   9
HETATM    9  O7  UNL     1     -31.737  15.000  -3.887  1.00 20.00    -0.396 OA
HETATM   10  H19 UNL     1     -31.505  14.119  -3.553  1.00 20.00     0.210 HD
ENDBRANCH   5   9
TORSDOF 1
ENDMDL
MODEL 9
REMARK VINA RESULT:      -4.1      9.002      9.649
REMARK  1 active torsions:
REMARK  status: ('A' for Active; 'I' for Inactive)
REMARK    1  A    between atoms: C5_5  and  O7_7 
ROOT
HETATM    1  C1  UNL     1     -42.321   5.597  -2.572  1.00 20.00     0.037 C 
HETATM    2  C2  UNL     1     -40.960   7.175  -1.143  1.00 20.00     0.037 C 
HETATM    3  C3  UNL     1     -42.469   4.647  -1.389  1.00 20.00     0.081 C 
HETATM    4  C4  UNL     1     -41.104   6.229   0.045  1.00 20.00     0.081 C 
HETATM    5  C5  UNL     1     -42.133   7.042  -2.114  1.00 20.00     0.118 C 
HETATM    6  C6  UNL     1     -41.315   4.794  -0.412  1.00 20.00     0.243 C 
HETATM    7  F8  UNL     1     -41.534   4.003   0.669  1.00 20.00    -0.206 F 
HETATM    8  F9  UNL     1     -40.175   4.339  -0.995  1.00 20.00    -0.206 F 
ENDROOT
BRANCH   5   9
HETATM    9  O7  UNL     1     -41.899   7.856  -3.259  1.00 20.00    -0.396 OA
HETATM   10  H19 UNL     1     -42.735   7.894  -3.749  1.00 20.00     0.210 HD
ENDBRANCH   5   9
TORSDOF 1
ENDMDL
