MODEL 1
REMARK VINA RESULT:      -5.4      0.000      0.000
REMARK  3 active torsions:
REMARK  status: ('A' for Active; 'I' for Inactive)
REMARK    1  A    between atoms: C1_1  and  C3_3 
REMARK    2  A    between atoms: C2_2  and  C5_5 
REMARK    3  A    between atoms: C4_4  and  C7_7 
ROOT
HETATM    1  C1  UNL     1     -33.657   5.752   3.200  1.00 20.00     0.000 C 
HETATM    2  C2  UNL     1     -33.321   7.031   2.969  1.00 20.00    -0.000 C 
ENDROOT
BRANCH   1   3
HETATM    3  C3  UNL     1     -35.010   5.332   3.497  1.00 20.00     0.004 C 
HETATM    4  C4  UNL     1     -35.405   4.984   4.729  1.00 20.00     0.049 C 
BRANCH   4   5
HETATM    5  C7  UNL     1     -34.447   5.017   5.869  1.00 20.00     0.145 C 
HETATM    6  C9  UNL     1     -34.180   6.364   6.487  1.00 20.00     0.096 C 
HETATM    7  O10 UNL     1     -33.916   4.000   6.310  1.00 20.00    -0.294 OA
ENDBRANCH   4   5
ENDBRANCH   1   3
BRANCH   2   8
HETATM    8  C5  UNL     1     -31.966   7.443   2.673  1.00 20.00    -0.004 C 
HETATM    9  C6  UNL     1     -31.586   8.449   1.872  1.00 20.00    -0.031 C 
HETATM   10  C8  UNL     1     -32.445   9.393   1.093  1.00 20.00     0.036 C 
ENDBRANCH   2   8
TORSDOF 3
ENDMDL
MODEL 2
REMARK VINA RESULT:      -5.1      0.993      1.748
REMARK  3 active torsions:
REMARK  status: ('A' for Active; 'I' for Inactive)
REMARK    1  A    between atoms: C1_1  and  C3_3 
REMARK    2  A    between atoms: C2_2  and  C5_5 
REMARK    3  A    between atoms: C4_4  and  C7_7 
ROOT
HETATM    1  C1  UNL     1     -33.030   6.528   4.073  1.00 20.00     0.000 C 
HETATM    2  C2  UNL     1     -32.207   7.469   3.584  1.00 20.00    -0.000 C 
ENDROOT
BRANCH   1   3
HETATM    3  C3  UNL     1     -33.439   6.481   5.461  1.00 20.00     0.004 C 
HETATM    4  C4  UNL     1     -34.409   5.668   5.902  1.00 20.00     0.049 C 
BRANCH   4   5
HETATM    5  C7  UNL     1     -35.120   4.759   4.961  1.00 20.00     0.145 C 
HETATM    6  C9  UNL     1     -35.824   5.409   3.798  1.00 20.00     0.096 C 
HETATM    7  O10 UNL     1     -35.116   3.538   5.098  1.00 20.00    -0.294 OA
ENDBRANCH   4   5
ENDBRANCH   1   3
BRANCH   2   8
HETATM    8  C5  UNL     1     -31.802   7.508   2.195  1.00 20.00    -0.004 C 
HETATM    9  C6  UNL     1     -31.942   8.534   1.344  1.00 20.00    -0.031 C 
HETATM   10  C8  UNL     1     -32.539   9.882   1.600  1.00 20.00     0.036 C 
ENDBRANCH   2   8
TORSDOF 3
ENDMDL
MODEL 3
REMARK VINA RESULT:      -4.9      2.507      5.548
REMARK  3 active torsions:
REMARK  status: ('A' for Active; 'I' for Inactive)
REMARK    1  A    between atoms: C1_1  and  C3_3 
REMARK    2  A    between atoms: C2_2  and  C5_5 
REMARK    3  A    between atoms: C4_4  and  C7_7 
ROOT
HETATM    1  C1  UNL     1     -33.131   7.039   3.121  1.00 20.00     0.000 C 
HETATM    2  C2  UNL     1     -33.510   5.804   3.486  1.00 20.00    -0.000 C 
ENDROOT
BRANCH   1   3
HETATM    3  C3  UNL     1     -31.747   7.414   2.924  1.00 20.00     0.004 C 
HETATM    4  C4  UNL     1     -31.381   8.455   2.164  1.00 20.00     0.049 C 
BRANCH   4   5
HETATM    5  C7  UNL     1     -32.406   9.287   1.477  1.00 20.00     0.145 C 
HETATM    6  C9  UNL     1     -32.672   8.971   0.028  1.00 20.00     0.096 C 
HETATM    7  O10 UNL     1     -33.032  10.172   2.058  1.00 20.00    -0.294 OA
ENDBRANCH   4   5
ENDBRANCH   1   3
BRANCH   2   8
HETATM    8  C5  UNL     1     -34.896   5.438   3.682  1.00 20.00    -0.004 C 
HETATM    9  C6  UNL     1     -35.422   4.809   4.743  1.00 20.00    -0.031 C 
HETATM   10  C8  UNL     1     -34.729   4.332   5.979  1.00 20.00     0.036 C 
ENDBRANCH   2   8
TORSDOF 3
ENDMDL
MODEL 4
REMARK VINA RESULT:      -4.6     11.424     12.117
REMARK  3 active torsions:
REMARK  status: ('A' for Active; 'I' for Inactive)
REMARK    1  A    between atoms: C1_1  and  C3_3 
REMARK    2  A    between atoms: C2_2  and  C5_5 
REMARK    3  A    between atoms: C4_4  and  C7_7 
ROOT
HETATM    1  C1  UNL     1     -33.774  15.691  -2.884  1.00 20.00     0.000 C 
HETATM    2  C2  UNL     1     -34.396  16.718  -2.283  1.00 20.00    -0.000 C 
ENDROOT
BRANCH   1   3
HETATM    3  C3  UNL     1     -33.588  15.609  -4.318  1.00 20.00     0.004 C 
HETATM    4  C4  UNL     1     -34.272  14.754  -5.088  1.00 20.00     0.049 C 
BRANCH   4   5
HETATM    5  C7  UNL     1     -35.275  13.831  -4.488  1.00 20.00     0.145 C 
HETATM    6  C9  UNL     1     -36.645  14.399  -4.230  1.00 20.00     0.096 C 
HETATM    7  O10 UNL     1     -35.018  12.655  -4.239  1.00 20.00    -0.294 OA
ENDBRANCH   4   5
ENDBRANCH   1   3
BRANCH   2   8
HETATM    8  C5  UNL     1     -34.578  16.791  -0.850  1.00 20.00    -0.004 C 
HETATM    9  C6  UNL     1     -33.978  17.640  -0.003  1.00 20.00    -0.031 C 
HETATM   10  C8  UNL     1     -32.984  18.714  -0.311  1.00 20.00     0.036 C 
ENDBRANCH   2   8
TORSDOF 3
ENDMDL
MODEL 5
REMARK VINA RESULT:      -4.4     11.279     12.473
REMARK  3 active torsions:
REMARK  status: ('A' for Active; 'I' for Inactive)
REMARK    1  A    between atoms: C1_1  and  C3_3 
REMARK    2  A    between atoms: C2_2  and  C5_5 
REMARK    3  A    between atoms: C4_4  and  C7_7 
ROOT
HETATM    1  C1  UNL     1     -33.479  14.844  -3.618  1.00 20.00     0.000 C 
HETATM    2  C2  UNL     1     -34.132  15.582  -2.705  1.00 20.00    -0.000 C 
ENDROOT
BRANCH   1   3
HETATM    3  C3  UNL     1     -33.910  13.522  -4.019  1.00 20.00     0.004 C 
HETATM    4  C4  UNL     1     -34.749  13.314  -5.042  1.00 20.00     0.049 C 
BRANCH   4   5
HETATM    5  C7  UNL     1     -35.284  14.461  -5.827  1.00 20.00     0.145 C 
HETATM    6  C9  UNL     1     -34.489  14.882  -7.035  1.00 20.00     0.096 C 
HETATM    7  O10 UNL     1     -36.335  15.026  -5.531  1.00 20.00    -0.294 OA
ENDBRANCH   4   5
ENDBRANCH   1   3
BRANCH   2   8
HETATM    8  C5  UNL     1     -33.694  16.903  -2.310  1.00 20.00    -0.004 C 
HETATM    9  C6  UNL     1     -33.985  17.540  -1.166  1.00 20.00    -0.031 C 
HETATM   10  C8  UNL     1     -34.820  17.062  -0.021  1.00 20.00     0.036 C 
ENDBRANCH   2   8
TORSDOF 3
ENDMDL
MODEL 6
REMARK VINA RESULT:      -4.4     11.430     12.054
REMARK  3 active torsions:
REMARK  status: ('A' for Active; 'I' for Inactive)
REMARK    1  A    between atoms: C1_1  and  C3_3 
REMARK    2  A    between atoms: C2_2  and  C5_5 
REMARK    3  A    between atoms: C4_4  and  C7_7 
ROOT
HETATM    1  C1  UNL     1     -35.463  15.981  -3.042  1.00 20.00     0.000 C 
HETATM    2  C2  UNL     1     -34.764  15.930  -1.896  1.00 20.00    -0.000 C 
ENDROOT
BRANCH   1   3
HETATM    3  C3  UNL     1     -36.399  14.951  -3.442  1.00 20.00     0.004 C 
HETATM    4  C4  UNL     1     -36.062  13.949  -4.265  1.00 20.00     0.049 C 
BRANCH   4   5
HETATM    5  C7  UNL     1     -34.681  13.850  -4.812  1.00 20.00     0.145 C 
HETATM    6  C9  UNL     1     -34.394  14.634  -6.065  1.00 20.00     0.096 C 
HETATM    7  O10 UNL     1     -33.803  13.189  -4.262  1.00 20.00    -0.294 OA
ENDBRANCH   4   5
ENDBRANCH   1   3
BRANCH   2   8
HETATM    8  C5  UNL     1     -33.830  16.962  -1.504  1.00 20.00    -0.004 C 
HETATM    9  C6  UNL     1     -33.879  17.713  -0.393  1.00 20.00    -0.031 C 
HETATM   10  C8  UNL     1     -34.887  17.678   0.710  1.00 20.00     0.036 C 
ENDBRANCH   2   8
TORSDOF 3
ENDMDL
MODEL 7
REMARK VINA RESULT:      -4.3     11.497     12.293
REMARK  3 active torsions:
REMARK  status: ('A' for Active; 'I' for Inactive)
REMARK    1  A    between atoms: C1_1  and  C3_3 
REMARK    2  A    between atoms: C2_2  and  C5_5 
REMARK    3  A    between atoms: C4_4  and  C7_7 
ROOT
HETATM    1  C1  UNL     1     -35.082  15.740  -2.238  1.00 20.00     0.000 C 
HETATM    2  C2  UNL     1     -34.239  16.425  -1.449  1.00 20.00    -0.000 C 
ENDROOT
BRANCH   1   3
HETATM    3  C3  UNL     1     -34.634  14.871  -3.306  1.00 20.00     0.004 C 
HETATM    4  C4  UNL     1     -35.454  14.422  -4.265  1.00 20.00     0.049 C 
BRANCH   4   5
HETATM    5  C7  UNL     1     -36.893  14.808  -4.272  1.00 20.00     0.145 C 
HETATM    6  C9  UNL     1     -37.260  16.030  -5.072  1.00 20.00     0.096 C 
HETATM    7  O10 UNL     1     -37.750  14.154  -3.682  1.00 20.00    -0.294 OA
ENDBRANCH   4   5
ENDBRANCH   1   3
BRANCH   2   8
HETATM    8  C5  UNL     1     -34.695  17.292  -0.385  1.00 20.00    -0.004 C 
HETATM    9  C6  UNL     1     -33.985  18.243   0.240  1.00 20.00    -0.031 C 
HETATM   10  C8  UNL     1     -32.567  18.653   0.003  1.00 20.00     0.036 C 
ENDBRANCH   2   8
TORSDOF 3
ENDMDL
MODEL 8
REMARK VINA RESULT:      -4.3     11.500     12.659
REMARK  3 active torsions:
REMARK  status: ('A' for Active; 'I' for Inactive)
REMARK    1  A    between atoms: C1_1  and  C3_3 
REMARK    2  A    between atoms: C2_2  and  C5_5 
REMARK    3  A    between atoms: C4_4  and  C7_7 
ROOT
HETATM    1  C1  UNL     1     -33.664  16.081  -4.980  1.00 20.00     0.000 C 
HETATM    2  C2  UNL     1     -34.206  17.191  -4.454  1.00 20.00    -0.000 C 
ENDROOT
BRANCH   1   3
HETATM    3  C3  UNL     1     -34.184  15.434  -6.167  1.00 20.00     0.004 C 
HETATM    4  C4  UNL     1     -34.951  14.338  -6.114  1.00 20.00     0.049 C 
BRANCH   4   5
HETATM    5  C7  UNL     1     -35.310  13.727  -4.805  1.00 20.00     0.145 C 
HETATM    6  C9  UNL     1     -36.491  14.321  -4.084  1.00 20.00     0.096 C 
HETATM    7  O10 UNL     1     -34.699  12.768  -4.339  1.00 20.00    -0.294 OA
ENDBRANCH   4   5
ENDBRANCH   1   3
BRANCH   2   8
HETATM    8  C5  UNL     1     -33.680  17.831  -3.268  1.00 20.00    -0.004 C 
HETATM    9  C6  UNL     1     -33.877  17.455  -1.995  1.00 20.00    -0.031 C 
HETATM   10  C8  UNL     1     -34.671  16.298  -1.479  1.00 20.00     0.036 C 
ENDBRANCH   2   8
TORSDOF 3
ENDMDL
MODEL 9
REMARK VINA RESULT:      -4.3     11.521     12.350
REMARK  3 active torsions:
REMARK  status: ('A' for Active; 'I' for Inactive)
REMARK    1  A    between atoms: C1_1  and  C3_3 
REMARK    2  A    between atoms: C2_2  and  C5_5 
REMARK    3  A    between atoms: C4_4  and  C7_7 
ROOT
HETATM    1  C1  UNL     1     -34.992  16.632  -2.101  1.00 20.00     0.000 C 
HETATM    2  C2  UNL     1     -34.531  16.598  -0.841  1.00 20.00    -0.000 C 
ENDROOT
BRANCH   1   3
HETATM    3  C3  UNL     1     -35.467  15.456  -2.800  1.00 20.00     0.004 C 
HETATM    4  C4  UNL     1     -34.735  14.818  -3.723  1.00 20.00     0.049 C 
BRANCH   4   5
HETATM    5  C7  UNL     1     -33.372  15.303  -4.074  1.00 20.00     0.145 C 
HETATM    6  C9  UNL     1     -33.291  16.404  -5.099  1.00 20.00     0.096 C 
HETATM    7  O10 UNL     1     -32.358  14.855  -3.542  1.00 20.00    -0.294 OA
ENDBRANCH   4   5
ENDBRANCH   1   3
BRANCH   2   8
HETATM    8  C5  UNL     1     -34.057  17.778  -0.150  1.00 20.00    -0.004 C 
HETATM    9  C6  UNL     1     -34.426  18.201   1.068  1.00 20.00    -0.031 C 
HETATM   10  C8  UNL     1     -35.402  17.578   2.014  1.00 20.00     0.036 C 
ENDBRANCH   2   8
TORSDOF 3
ENDMDL
