MODEL 1
REMARK VINA RESULT:      -5.2      0.000      0.000
REMARK  3 active torsions:
REMARK  status: ('A' for Active; 'I' for Inactive)
REMARK    1  A    between atoms: C1_1  and  C3_3 
REMARK    2  A    between atoms: C2_2  and  C5_5 
REMARK    3  A    between atoms: C4_4  and  C7_7 
ROOT
HETATM    1  C1  UNL     1     -32.885   5.768   3.690  1.00 20.00     0.000 C 
HETATM    2  C2  UNL     1     -32.067   6.775   3.345  1.00 20.00    -0.000 C 
ENDROOT
BRANCH   1   3
HETATM    3  C3  UNL     1     -34.292   5.743   3.352  1.00 20.00     0.003 C 
HETATM    4  C4  UNL     1     -35.229   5.282   4.189  1.00 20.00     0.041 C 
BRANCH   4   5
HETATM    5  C7  UNL     1     -34.818   4.777   5.514  1.00 20.00     0.258 C 
HETATM    6  O9  UNL     1     -34.818   5.491   6.509  1.00 20.00    -0.302 OA
ENDBRANCH   4   5
ENDBRANCH   1   3
BRANCH   2   7
HETATM    7  C5  UNL     1     -32.514   7.932   2.603  1.00 20.00    -0.004 C 
HETATM    8  C6  UNL     1     -31.868   8.408   1.528  1.00 20.00    -0.031 C 
HETATM    9  C8  UNL     1     -32.319   9.602   0.752  1.00 20.00     0.036 C 
ENDBRANCH   2   7
TORSDOF 3
ENDMDL
MODEL 2
REMARK VINA RESULT:      -5.0      1.143      1.165
REMARK  3 active torsions:
REMARK  status: ('A' for Active; 'I' for Inactive)
REMARK    1  A    between atoms: C1_1  and  C3_3 
REMARK    2  A    between atoms: C2_2  and  C5_5 
REMARK    3  A    between atoms: C4_4  and  C7_7 
ROOT
HETATM    1  C1  UNL     1     -32.971   5.732   3.827  1.00 20.00     0.000 C 
HETATM    2  C2  UNL     1     -32.197   6.361   2.929  1.00 20.00    -0.000 C 
ENDROOT
BRANCH   1   3
HETATM    3  C3  UNL     1     -33.897   6.428   4.694  1.00 20.00     0.003 C 
HETATM    4  C4  UNL     1     -34.616   5.802   5.635  1.00 20.00     0.041 C 
BRANCH   4   5
HETATM    5  C7  UNL     1     -34.463   4.343   5.799  1.00 20.00     0.258 C 
HETATM    6  O9  UNL     1     -35.178   3.545   5.205  1.00 20.00    -0.302 OA
ENDBRANCH   4   5
ENDBRANCH   1   3
BRANCH   2   7
HETATM    7  C5  UNL     1     -32.213   7.795   2.743  1.00 20.00    -0.004 C 
HETATM    8  C6  UNL     1     -32.232   8.378   1.535  1.00 20.00    -0.031 C 
HETATM    9  C8  UNL     1     -32.249   9.856   1.329  1.00 20.00     0.036 C 
ENDBRANCH   2   7
TORSDOF 3
ENDMDL
MODEL 3
REMARK VINA RESULT:      -5.0      2.360      5.085
REMARK  3 active torsions:
REMARK  status: ('A' for Active; 'I' for Inactive)
REMARK    1  A    between atoms: C1_1  and  C3_3 
REMARK    2  A    between atoms: C2_2  and  C5_5 
REMARK    3  A    between atoms: C4_4  and  C7_7 
ROOT
HETATM    1  C1  UNL     1     -33.233   5.838   2.554  1.00 20.00     0.000 C 
HETATM    2  C2  UNL     1     -34.404   5.343   2.983  1.00 20.00    -0.000 C 
ENDROOT
BRANCH   1   3
HETATM    3  C3  UNL     1     -32.303   6.527   3.423  1.00 20.00     0.003 C 
HETATM    4  C4  UNL     1     -31.747   7.702   3.100  1.00 20.00     0.041 C 
BRANCH   4   5
HETATM    5  C7  UNL     1     -32.093   8.326   1.808  1.00 20.00     0.258 C 
HETATM    6  O9  UNL     1     -32.448   9.496   1.728  1.00 20.00    -0.302 OA
ENDBRANCH   4   5
ENDBRANCH   1   3
BRANCH   2   7
HETATM    7  C5  UNL     1     -34.850   5.452   4.354  1.00 20.00    -0.004 C 
HETATM    8  C6  UNL     1     -34.789   4.435   5.228  1.00 20.00    -0.031 C 
HETATM    9  C8  UNL     1     -35.244   4.534   6.646  1.00 20.00     0.036 C 
ENDBRANCH   2   7
TORSDOF 3
ENDMDL
MODEL 4
REMARK VINA RESULT:      -4.9      1.656      2.695
REMARK  3 active torsions:
REMARK  status: ('A' for Active; 'I' for Inactive)
REMARK    1  A    between atoms: C1_1  and  C3_3 
REMARK    2  A    between atoms: C2_2  and  C5_5 
REMARK    3  A    between atoms: C4_4  and  C7_7 
ROOT
HETATM    1  C1  UNL     1     -35.556   4.795   4.412  1.00 20.00     0.000 C 
HETATM    2  C2  UNL     1     -35.092   5.540   3.397  1.00 20.00    -0.000 C 
ENDROOT
BRANCH   1   3
HETATM    3  C3  UNL     1     -34.691   4.106   5.346  1.00 20.00     0.003 C 
HETATM    4  C4  UNL     1     -34.156   4.709   6.415  1.00 20.00     0.041 C 
BRANCH   4   5
HETATM    5  C7  UNL     1     -34.456   6.134   6.658  1.00 20.00     0.258 C 
HETATM    6  O9  UNL     1     -33.576   6.985   6.688  1.00 20.00    -0.302 OA
ENDBRANCH   4   5
ENDBRANCH   1   3
BRANCH   2   7
HETATM    7  C5  UNL     1     -33.682   5.725   3.138  1.00 20.00    -0.004 C 
HETATM    8  C6  UNL     1     -33.045   6.889   3.343  1.00 20.00    -0.031 C 
HETATM    9  C8  UNL     1     -31.590   7.094   3.080  1.00 20.00     0.036 C 
ENDBRANCH   2   7
TORSDOF 3
ENDMDL
MODEL 5
REMARK VINA RESULT:      -4.6     10.679     11.557
REMARK  3 active torsions:
REMARK  status: ('A' for Active; 'I' for Inactive)
REMARK    1  A    between atoms: C1_1  and  C3_3 
REMARK    2  A    between atoms: C2_2  and  C5_5 
REMARK    3  A    between atoms: C4_4  and  C7_7 
ROOT
HETATM    1  C1  UNL     1     -34.724  15.855  -2.047  1.00 20.00     0.000 C 
HETATM    2  C2  UNL     1     -34.644  16.826  -1.125  1.00 20.00    -0.000 C 
ENDROOT
BRANCH   1   3
HETATM    3  C3  UNL     1     -33.659  15.567  -2.983  1.00 20.00     0.003 C 
HETATM    4  C4  UNL     1     -33.733  14.575  -3.879  1.00 20.00     0.041 C 
BRANCH   4   5
HETATM    5  C7  UNL     1     -34.947  13.737  -3.921  1.00 20.00     0.258 C 
HETATM    6  O9  UNL     1     -34.961  12.642  -4.469  1.00 20.00    -0.302 OA
ENDBRANCH   4   5
ENDBRANCH   1   3
BRANCH   2   7
HETATM    7  C5  UNL     1     -33.485  17.678  -0.977  1.00 20.00    -0.004 C 
HETATM    8  C6  UNL     1     -33.213  18.358   0.147  1.00 20.00    -0.031 C 
HETATM    9  C8  UNL     1     -32.020  19.241   0.313  1.00 20.00     0.036 C 
ENDBRANCH   2   7
TORSDOF 3
ENDMDL
MODEL 6
REMARK VINA RESULT:      -4.5      2.630      4.260
REMARK  3 active torsions:
REMARK  status: ('A' for Active; 'I' for Inactive)
REMARK    1  A    between atoms: C1_1  and  C3_3 
REMARK    2  A    between atoms: C2_2  and  C5_5 
REMARK    3  A    between atoms: C4_4  and  C7_7 
ROOT
HETATM    1  C1  UNL     1     -35.075   4.249   4.562  1.00 20.00     0.000 C 
HETATM    2  C2  UNL     1     -34.742   4.326   5.860  1.00 20.00    -0.000 C 
ENDROOT
BRANCH   1   3
HETATM    3  C3  UNL     1     -35.387   5.411   3.758  1.00 20.00     0.003 C 
HETATM    4  C4  UNL     1     -34.468   6.052   3.026  1.00 20.00     0.041 C 
BRANCH   4   5
HETATM    5  C7  UNL     1     -33.076   5.560   3.034  1.00 20.00     0.258 C 
HETATM    6  O9  UNL     1     -32.130   6.295   3.287  1.00 20.00    -0.302 OA
ENDBRANCH   4   5
ENDBRANCH   1   3
BRANCH   2   7
HETATM    7  C5  UNL     1     -34.664   5.577   6.580  1.00 20.00    -0.004 C 
HETATM    8  C6  UNL     1     -33.633   6.427   6.463  1.00 20.00    -0.031 C 
HETATM    9  C8  UNL     1     -33.540   7.723   7.199  1.00 20.00     0.036 C 
ENDBRANCH   2   7
TORSDOF 3
ENDMDL
MODEL 7
REMARK VINA RESULT:      -4.4      2.903      5.288
REMARK  3 active torsions:
REMARK  status: ('A' for Active; 'I' for Inactive)
REMARK    1  A    between atoms: C1_1  and  C3_3 
REMARK    2  A    between atoms: C2_2  and  C5_5 
REMARK    3  A    between atoms: C4_4  and  C7_7 
ROOT
HETATM    1  C1  UNL     1     -32.131   7.149   2.352  1.00 20.00     0.000 C 
HETATM    2  C2  UNL     1     -32.546   6.149   3.143  1.00 20.00    -0.000 C 
ENDROOT
BRANCH   1   3
HETATM    3  C3  UNL     1     -32.453   8.538   2.602  1.00 20.00     0.003 C 
HETATM    4  C4  UNL     1     -32.482   9.460   1.631  1.00 20.00     0.041 C 
BRANCH   4   5
HETATM    5  C7  UNL     1     -32.175   9.050   0.246  1.00 20.00     0.258 C 
HETATM    6  O9  UNL     1     -33.035   9.018  -0.625  1.00 20.00    -0.302 OA
ENDBRANCH   4   5
ENDBRANCH   1   3
BRANCH   2   7
HETATM    7  C5  UNL     1     -33.355   6.361   4.322  1.00 20.00    -0.004 C 
HETATM    8  C6  UNL     1     -33.937   5.362   5.002  1.00 20.00    -0.031 C 
HETATM    9  C8  UNL     1     -34.775   5.567   6.221  1.00 20.00     0.036 C 
ENDBRANCH   2   7
TORSDOF 3
ENDMDL
MODEL 8
REMARK VINA RESULT:      -4.4     11.184     11.479
REMARK  3 active torsions:
REMARK  status: ('A' for Active; 'I' for Inactive)
REMARK    1  A    between atoms: C1_1  and  C3_3 
REMARK    2  A    between atoms: C2_2  and  C5_5 
REMARK    3  A    between atoms: C4_4  and  C7_7 
ROOT
HETATM    1  C1  UNL     1     -34.489  15.803  -3.174  1.00 20.00     0.000 C 
HETATM    2  C2  UNL     1     -33.987  16.382  -2.072  1.00 20.00    -0.000 C 
ENDROOT
BRANCH   1   3
HETATM    3  C3  UNL     1     -35.837  15.282  -3.247  1.00 20.00     0.003 C 
HETATM    4  C4  UNL     1     -36.184  14.287  -4.072  1.00 20.00     0.041 C 
BRANCH   4   5
HETATM    5  C7  UNL     1     -35.155  13.690  -4.947  1.00 20.00     0.258 C 
HETATM    6  O9  UNL     1     -34.731  12.556  -4.767  1.00 20.00    -0.302 OA
ENDBRANCH   4   5
ENDBRANCH   1   3
BRANCH   2   7
HETATM    7  C5  UNL     1     -34.745  16.540  -0.852  1.00 20.00    -0.004 C 
HETATM    8  C6  UNL     1     -34.489  17.499   0.051  1.00 20.00    -0.031 C 
HETATM    9  C8  UNL     1     -35.264  17.674   1.315  1.00 20.00     0.036 C 
ENDBRANCH   2   7
TORSDOF 3
ENDMDL
MODEL 9
REMARK VINA RESULT:      -4.4     10.435     11.652
REMARK  3 active torsions:
REMARK  status: ('A' for Active; 'I' for Inactive)
REMARK    1  A    between atoms: C1_1  and  C3_3 
REMARK    2  A    between atoms: C2_2  and  C5_5 
REMARK    3  A    between atoms: C4_4  and  C7_7 
ROOT
HETATM    1  C1  UNL     1     -33.238  16.115  -4.421  1.00 20.00     0.000 C 
HETATM    2  C2  UNL     1     -33.735  17.186  -3.783  1.00 20.00    -0.000 C 
ENDROOT
BRANCH   1   3
HETATM    3  C3  UNL     1     -32.672  14.977  -3.730  1.00 20.00     0.003 C 
HETATM    4  C4  UNL     1     -33.280  13.785  -3.682  1.00 20.00     0.041 C 
BRANCH   4   5
HETATM    5  C7  UNL     1     -34.581  13.617  -4.360  1.00 20.00     0.258 C 
HETATM    6  O9  UNL     1     -35.133  12.527  -4.442  1.00 20.00    -0.302 OA
ENDBRANCH   4   5
ENDBRANCH   1   3
BRANCH   2   7
HETATM    7  C5  UNL     1     -33.753  17.305  -2.342  1.00 20.00    -0.004 C 
HETATM    8  C6  UNL     1     -34.778  16.887  -1.584  1.00 20.00    -0.031 C 
HETATM    9  C8  UNL     1     -34.809  17.003  -0.096  1.00 20.00     0.036 C 
ENDBRANCH   2   7
TORSDOF 3
ENDMDL
