MODEL 1
REMARK VINA RESULT:      -5.1      0.000      0.000
REMARK  3 active torsions:
REMARK  status: ('A' for Active; 'I' for Inactive)
REMARK    1  A    between atoms: C1_1  and  C3_3 
REMARK    2  A    between atoms: C2_2  and  C5_5 
REMARK    3  A    between atoms: C4_4  and  C7_7 
ROOT
HETATM    1  C1  UNL     1     -32.755   6.422   3.207  1.00 20.00     0.000 C 
HETATM    2  C2  UNL     1     -33.861   6.354   3.965  1.00 20.00    -0.000 C 
ENDROOT
BRANCH   1   3
HETATM    3  C3  UNL     1     -31.686   7.365   3.454  1.00 20.00     0.003 C 
HETATM    4  C4  UNL     1     -31.412   8.379   2.624  1.00 20.00     0.041 C 
BRANCH   4   5
HETATM    5  C7  UNL     1     -32.228   8.548   1.407  1.00 20.00     0.258 C 
HETATM    6  O9  UNL     1     -32.461   9.653   0.931  1.00 20.00    -0.302 OA
ENDBRANCH   4   5
ENDBRANCH   1   3
BRANCH   2   7
HETATM    7  C5  UNL     1     -34.929   5.411   3.718  1.00 20.00    -0.004 C 
HETATM    8  C6  UNL     1     -35.343   4.517   4.628  1.00 20.00    -0.031 C 
HETATM    9  C8  UNL     1     -34.754   4.393   5.995  1.00 20.00     0.036 C 
ENDBRANCH   2   7
TORSDOF 3
ENDMDL
MODEL 2
REMARK VINA RESULT:      -5.0      2.760      5.186
REMARK  3 active torsions:
REMARK  status: ('A' for Active; 'I' for Inactive)
REMARK    1  A    between atoms: C1_1  and  C3_3 
REMARK    2  A    between atoms: C2_2  and  C5_5 
REMARK    3  A    between atoms: C4_4  and  C7_7 
ROOT
HETATM    1  C1  UNL     1     -33.142   6.538   3.871  1.00 20.00     0.000 C 
HETATM    2  C2  UNL     1     -32.261   7.439   3.409  1.00 20.00    -0.000 C 
ENDROOT
BRANCH   1   3
HETATM    3  C3  UNL     1     -33.550   6.473   5.257  1.00 20.00     0.003 C 
HETATM    4  C4  UNL     1     -34.488   5.624   5.694  1.00 20.00     0.041 C 
BRANCH   4   5
HETATM    5  C7  UNL     1     -35.136   4.714   4.730  1.00 20.00     0.258 C 
HETATM    6  O9  UNL     1     -35.139   3.499   4.888  1.00 20.00    -0.302 OA
ENDBRANCH   4   5
ENDBRANCH   1   3
BRANCH   2   7
HETATM    7  C5  UNL     1     -31.852   7.504   2.023  1.00 20.00    -0.004 C 
HETATM    8  C6  UNL     1     -31.999   8.601   1.266  1.00 20.00    -0.031 C 
HETATM    9  C8  UNL     1     -32.596   9.877   1.763  1.00 20.00     0.036 C 
ENDBRANCH   2   7
TORSDOF 3
ENDMDL
MODEL 3
REMARK VINA RESULT:      -5.0      2.494      5.230
REMARK  3 active torsions:
REMARK  status: ('A' for Active; 'I' for Inactive)
REMARK    1  A    between atoms: C1_1  and  C3_3 
REMARK    2  A    between atoms: C2_2  and  C5_5 
REMARK    3  A    between atoms: C4_4  and  C7_7 
ROOT
HETATM    1  C1  UNL     1     -33.832   6.401   3.835  1.00 20.00     0.000 C 
HETATM    2  C2  UNL     1     -32.757   6.483   3.035  1.00 20.00    -0.000 C 
ENDROOT
BRANCH   1   3
HETATM    3  C3  UNL     1     -34.870   5.408   3.663  1.00 20.00     0.003 C 
HETATM    4  C4  UNL     1     -35.261   4.594   4.651  1.00 20.00     0.041 C 
BRANCH   4   5
HETATM    5  C7  UNL     1     -34.614   4.708   5.971  1.00 20.00     0.258 C 
HETATM    6  O9  UNL     1     -34.853   5.639   6.732  1.00 20.00    -0.302 OA
ENDBRANCH   4   5
ENDBRANCH   1   3
BRANCH   2   7
HETATM    7  C5  UNL     1     -31.720   7.476   3.207  1.00 20.00    -0.004 C 
HETATM    8  C6  UNL     1     -31.524   8.487   2.348  1.00 20.00    -0.031 C 
HETATM    9  C8  UNL     1     -32.349   8.706   1.123  1.00 20.00     0.036 C 
ENDBRANCH   2   7
TORSDOF 3
ENDMDL
MODEL 4
REMARK VINA RESULT:      -4.4     10.565     11.327
REMARK  3 active torsions:
REMARK  status: ('A' for Active; 'I' for Inactive)
REMARK    1  A    between atoms: C1_1  and  C3_3 
REMARK    2  A    between atoms: C2_2  and  C5_5 
REMARK    3  A    between atoms: C4_4  and  C7_7 
ROOT
HETATM    1  C1  UNL     1     -34.376  15.950  -2.190  1.00 20.00     0.000 C 
HETATM    2  C2  UNL     1     -34.044  16.827  -1.230  1.00 20.00    -0.000 C 
ENDROOT
BRANCH   1   3
HETATM    3  C3  UNL     1     -33.512  15.639  -3.308  1.00 20.00     0.003 C 
HETATM    4  C4  UNL     1     -33.758  14.631  -4.153  1.00 20.00     0.041 C 
BRANCH   4   5
HETATM    5  C7  UNL     1     -34.959  13.799  -3.944  1.00 20.00     0.258 C 
HETATM    6  O9  UNL     1     -35.023  12.642  -4.344  1.00 20.00    -0.302 OA
ENDBRANCH   4   5
ENDBRANCH   1   3
BRANCH   2   7
HETATM    7  C5  UNL     1     -34.909  17.138  -0.113  1.00 20.00    -0.004 C 
HETATM    8  C6  UNL     1     -34.560  17.979   0.872  1.00 20.00    -0.031 C 
HETATM    9  C8  UNL     1     -33.248  18.690   0.928  1.00 20.00     0.036 C 
ENDBRANCH   2   7
TORSDOF 3
ENDMDL
MODEL 5
REMARK VINA RESULT:      -4.3      2.395      4.732
REMARK  3 active torsions:
REMARK  status: ('A' for Active; 'I' for Inactive)
REMARK    1  A    between atoms: C1_1  and  C3_3 
REMARK    2  A    between atoms: C2_2  and  C5_5 
REMARK    3  A    between atoms: C4_4  and  C7_7 
ROOT
HETATM    1  C1  UNL     1     -34.674   5.743   3.673  1.00 20.00     0.000 C 
HETATM    2  C2  UNL     1     -33.376   5.707   3.333  1.00 20.00    -0.000 C 
ENDROOT
BRANCH   1   3
HETATM    3  C3  UNL     1     -35.269   4.818   4.613  1.00 20.00     0.003 C 
HETATM    4  C4  UNL     1     -34.947   4.802   5.912  1.00 20.00     0.041 C 
BRANCH   4   5
HETATM    5  C7  UNL     1     -33.947   5.764   6.414  1.00 20.00     0.258 C 
HETATM    6  O9  UNL     1     -34.257   6.893   6.775  1.00 20.00    -0.302 OA
ENDBRANCH   4   5
ENDBRANCH   1   3
BRANCH   2   7
HETATM    7  C5  UNL     1     -32.781   6.632   2.393  1.00 20.00    -0.004 C 
HETATM    8  C6  UNL     1     -31.886   7.564   2.749  1.00 20.00    -0.031 C 
HETATM    9  C8  UNL     1     -31.399   7.754   4.148  1.00 20.00     0.036 C 
ENDBRANCH   2   7
TORSDOF 3
ENDMDL
MODEL 6
REMARK VINA RESULT:      -4.2      1.617      2.066
REMARK  3 active torsions:
REMARK  status: ('A' for Active; 'I' for Inactive)
REMARK    1  A    between atoms: C1_1  and  C3_3 
REMARK    2  A    between atoms: C2_2  and  C5_5 
REMARK    3  A    between atoms: C4_4  and  C7_7 
ROOT
HETATM    1  C1  UNL     1     -33.516   5.819   3.319  1.00 20.00     0.000 C 
HETATM    2  C2  UNL     1     -34.782   5.573   3.692  1.00 20.00    -0.000 C 
ENDROOT
BRANCH   1   3
HETATM    3  C3  UNL     1     -33.158   6.864   2.385  1.00 20.00     0.003 C 
HETATM    4  C4  UNL     1     -32.088   7.651   2.556  1.00 20.00     0.041 C 
BRANCH   4   5
HETATM    5  C7  UNL     1     -31.235   7.449   3.743  1.00 20.00     0.258 C 
HETATM    6  O9  UNL     1     -31.226   8.242   4.677  1.00 20.00    -0.302 OA
ENDBRANCH   4   5
ENDBRANCH   1   3
BRANCH   2   7
HETATM    7  C5  UNL     1     -35.140   4.528   4.626  1.00 20.00    -0.004 C 
HETATM    8  C6  UNL     1     -34.981   4.645   5.952  1.00 20.00    -0.031 C 
HETATM    9  C8  UNL     1     -34.423   5.860   6.616  1.00 20.00     0.036 C 
ENDBRANCH   2   7
TORSDOF 3
ENDMDL
MODEL 7
REMARK VINA RESULT:      -4.1     10.474     11.531
REMARK  3 active torsions:
REMARK  status: ('A' for Active; 'I' for Inactive)
REMARK    1  A    between atoms: C1_1  and  C3_3 
REMARK    2  A    between atoms: C2_2  and  C5_5 
REMARK    3  A    between atoms: C4_4  and  C7_7 
ROOT
HETATM    1  C1  UNL     1     -33.780  14.862  -3.368  1.00 20.00     0.000 C 
HETATM    2  C2  UNL     1     -34.326  15.733  -2.504  1.00 20.00    -0.000 C 
ENDROOT
BRANCH   1   3
HETATM    3  C3  UNL     1     -34.385  13.589  -3.693  1.00 20.00     0.003 C 
HETATM    4  C4  UNL     1     -34.902  13.322  -4.899  1.00 20.00     0.041 C 
BRANCH   4   5
HETATM    5  C7  UNL     1     -34.856  14.363  -5.943  1.00 20.00     0.258 C 
HETATM    6  O9  UNL     1     -35.254  14.154  -7.083  1.00 20.00    -0.302 OA
ENDBRANCH   4   5
ENDBRANCH   1   3
BRANCH   2   7
HETATM    7  C5  UNL     1     -33.721  17.005  -2.179  1.00 20.00    -0.004 C 
HETATM    8  C6  UNL     1     -33.933  17.643  -1.019  1.00 20.00    -0.031 C 
HETATM    9  C8  UNL     1     -34.812  17.116   0.067  1.00 20.00     0.036 C 
ENDBRANCH   2   7
TORSDOF 3
ENDMDL
MODEL 8
REMARK VINA RESULT:      -4.1     10.429     11.250
REMARK  3 active torsions:
REMARK  status: ('A' for Active; 'I' for Inactive)
REMARK    1  A    between atoms: C1_1  and  C3_3 
REMARK    2  A    between atoms: C2_2  and  C5_5 
REMARK    3  A    between atoms: C4_4  and  C7_7 
ROOT
HETATM    1  C1  UNL     1     -34.627  16.443  -1.267  1.00 20.00     0.000 C 
HETATM    2  C2  UNL     1     -34.523  16.097  -2.560  1.00 20.00    -0.000 C 
ENDROOT
BRANCH   1   3
HETATM    3  C3  UNL     1     -33.815  17.472  -0.657  1.00 20.00     0.003 C 
HETATM    4  C4  UNL     1     -34.154  18.077   0.488  1.00 20.00     0.041 C 
BRANCH   4   5
HETATM    5  C7  UNL     1     -35.406  17.683   1.162  1.00 20.00     0.258 C 
HETATM    6  O9  UNL     1     -35.424  17.309   2.329  1.00 20.00    -0.302 OA
ENDBRANCH   4   5
ENDBRANCH   1   3
BRANCH   2   7
HETATM    7  C5  UNL     1     -35.335  15.068  -3.169  1.00 20.00    -0.004 C 
HETATM    8  C6  UNL     1     -34.821  13.967  -3.735  1.00 20.00    -0.031 C 
HETATM    9  C8  UNL     1     -33.358  13.675  -3.800  1.00 20.00     0.036 C 
ENDBRANCH   2   7
TORSDOF 3
ENDMDL
MODEL 9
REMARK VINA RESULT:      -4.0     11.053     11.490
REMARK  3 active torsions:
REMARK  status: ('A' for Active; 'I' for Inactive)
REMARK    1  A    between atoms: C1_1  and  C3_3 
REMARK    2  A    between atoms: C2_2  and  C5_5 
REMARK    3  A    between atoms: C4_4  and  C7_7 
ROOT
HETATM    1  C1  UNL     1     -34.205  16.598  -1.653  1.00 20.00     0.000 C 
HETATM    2  C2  UNL     1     -34.648  16.979  -0.445  1.00 20.00    -0.000 C 
ENDROOT
BRANCH   1   3
HETATM    3  C3  UNL     1     -34.838  15.558  -2.434  1.00 20.00     0.003 C 
HETATM    4  C4  UNL     1     -34.323  15.104  -3.584  1.00 20.00     0.041 C 
BRANCH   4   5
HETATM    5  C7  UNL     1     -33.060  15.681  -4.080  1.00 20.00     0.258 C 
HETATM    6  O9  UNL     1     -33.011  16.346  -5.108  1.00 20.00    -0.302 OA
ENDBRANCH   4   5
ENDBRANCH   1   3
BRANCH   2   7
HETATM    7  C5  UNL     1     -34.015  18.018   0.336  1.00 20.00    -0.004 C 
HETATM    8  C6  UNL     1     -34.360  18.298   1.601  1.00 20.00    -0.031 C 
HETATM    9  C8  UNL     1     -35.430  17.571   2.348  1.00 20.00     0.036 C 
ENDBRANCH   2   7
TORSDOF 3
ENDMDL
