MODEL 1
REMARK VINA RESULT:      -5.4      0.000      0.000
REMARK  1 active torsions:
REMARK  status: ('A' for Active; 'I' for Inactive)
REMARK    1  A    between atoms: C2_2  and  C10_10 
ROOT
HETATM    1  C1  UNL     1     -33.598  14.627  -3.363  1.00 20.00    -0.022 C 
HETATM    2  C2  UNL     1     -34.385  15.587  -2.847  1.00 20.00    -0.073 C 
HETATM    3  C3  UNL     1     -36.376  14.482  -3.921  1.00 20.00     0.134 C 
HETATM    4  C4  UNL     1     -34.097  13.547  -4.277  1.00 20.00     0.039 C 
HETATM    5  C5  UNL     1     -35.863  15.664  -3.118  1.00 20.00     0.113 C 
HETATM    6  C6  UNL     1     -35.439  13.864  -4.941  1.00 20.00     0.055 C 
HETATM    7  C7  UNL     1     -35.298  14.793  -6.145  1.00 20.00     0.018 C 
HETATM    8  O11 UNL     1     -37.542  14.100  -3.812  1.00 20.00    -0.297 OA
ENDROOT
BRANCH   2   9
HETATM    9  C10 UNL     1     -33.833  16.652  -1.946  1.00 20.00     0.006 C 
HETATM   10  C8  UNL     1     -33.811  17.994  -2.669  1.00 20.00     0.014 C 
HETATM   11  C9  UNL     1     -34.640  16.740  -0.655  1.00 20.00     0.014 C 
ENDBRANCH   2   9
TORSDOF 1
ENDMDL
MODEL 2
REMARK VINA RESULT:      -5.2      1.433      1.748
REMARK  1 active torsions:
REMARK  status: ('A' for Active; 'I' for Inactive)
REMARK    1  A    between atoms: C2_2  and  C10_10 
ROOT
HETATM    1  C1  UNL     1     -33.638  16.407  -4.769  1.00 20.00    -0.022 C 
HETATM    2  C2  UNL     1     -33.975  15.949  -3.551  1.00 20.00    -0.073 C 
HETATM    3  C3  UNL     1     -34.786  13.817  -4.616  1.00 20.00     0.134 C 
HETATM    4  C4  UNL     1     -33.914  15.662  -6.041  1.00 20.00     0.039 C 
HETATM    5  C5  UNL     1     -34.650  14.622  -3.336  1.00 20.00     0.113 C 
HETATM    6  C6  UNL     1     -34.990  14.582  -5.911  1.00 20.00     0.055 C 
HETATM    7  C7  UNL     1     -36.408  15.151  -5.957  1.00 20.00     0.018 C 
HETATM    8  O11 UNL     1     -34.822  12.586  -4.590  1.00 20.00    -0.297 OA
ENDROOT
BRANCH   2   9
HETATM    9  C10 UNL     1     -33.687  16.741  -2.309  1.00 20.00     0.006 C 
HETATM   10  C8  UNL     1     -33.709  18.233  -2.619  1.00 20.00     0.014 C 
HETATM   11  C9  UNL     1     -34.682  16.397  -1.206  1.00 20.00     0.014 C 
ENDBRANCH   2   9
TORSDOF 1
ENDMDL
MODEL 3
REMARK VINA RESULT:      -5.1     11.510     12.316
REMARK  1 active torsions:
REMARK  status: ('A' for Active; 'I' for Inactive)
REMARK    1  A    between atoms: C2_2  and  C10_10 
ROOT
HETATM    1  C1  UNL     1     -33.142   6.692   5.431  1.00 20.00    -0.022 C 
HETATM    2  C2  UNL     1     -33.045   6.548   4.098  1.00 20.00    -0.073 C 
HETATM    3  C3  UNL     1     -35.333   5.497   4.081  1.00 20.00     0.134 C 
HETATM    4  C4  UNL     1     -34.298   6.181   6.239  1.00 20.00     0.039 C 
HETATM    5  C5  UNL     1     -34.105   5.874   3.270  1.00 20.00     0.113 C 
HETATM    6  C6  UNL     1     -35.125   5.105   5.532  1.00 20.00     0.055 C 
HETATM    7  C7  UNL     1     -34.484   3.721   5.608  1.00 20.00     0.018 C 
HETATM    8  O11 UNL     1     -36.443   5.423   3.553  1.00 20.00    -0.297 OA
ENDROOT
BRANCH   2   9
HETATM    9  C10 UNL     1     -31.860   7.067   3.337  1.00 20.00     0.006 C 
HETATM   10  C8  UNL     1     -32.322   7.903   2.149  1.00 20.00     0.014 C 
HETATM   11  C9  UNL     1     -30.945   7.876   4.251  1.00 20.00     0.014 C 
ENDBRANCH   2   9
TORSDOF 1
ENDMDL
MODEL 4
REMARK VINA RESULT:      -4.8      1.711      2.289
REMARK  1 active torsions:
REMARK  status: ('A' for Active; 'I' for Inactive)
REMARK    1  A    between atoms: C2_2  and  C10_10 
ROOT
HETATM    1  C1  UNL     1     -35.466  15.607  -2.707  1.00 20.00    -0.022 C 
HETATM    2  C2  UNL     1     -34.299  16.271  -2.774  1.00 20.00    -0.073 C 
HETATM    3  C3  UNL     1     -34.114  15.628  -5.201  1.00 20.00     0.134 C 
HETATM    4  C4  UNL     1     -36.037  14.816  -3.846  1.00 20.00     0.039 C 
HETATM    5  C5  UNL     1     -33.451  16.308  -4.015  1.00 20.00     0.113 C 
HETATM    6  C6  UNL     1     -35.013  14.439  -4.919  1.00 20.00     0.055 C 
HETATM    7  C7  UNL     1     -34.164  13.230  -4.528  1.00 20.00     0.018 C 
HETATM    8  O11 UNL     1     -33.856  15.974  -6.355  1.00 20.00    -0.297 OA
ENDROOT
BRANCH   2   9
HETATM    9  C10 UNL     1     -33.766  17.039  -1.599  1.00 20.00     0.006 C 
HETATM   10  C8  UNL     1     -33.575  18.505  -1.972  1.00 20.00     0.014 C 
HETATM   11  C9  UNL     1     -34.692  16.897  -0.396  1.00 20.00     0.014 C 
ENDBRANCH   2   9
TORSDOF 1
ENDMDL
MODEL 5
REMARK VINA RESULT:      -4.7      1.729      2.353
REMARK  1 active torsions:
REMARK  status: ('A' for Active; 'I' for Inactive)
REMARK    1  A    between atoms: C2_2  and  C10_10 
ROOT
HETATM    1  C1  UNL     1     -33.724  17.258  -4.124  1.00 20.00    -0.022 C 
HETATM    2  C2  UNL     1     -34.180  16.762  -2.960  1.00 20.00    -0.073 C 
HETATM    3  C3  UNL     1     -33.982  14.440  -3.913  1.00 20.00     0.134 C 
HETATM    4  C4  UNL     1     -33.431  16.413  -5.328  1.00 20.00     0.039 C 
HETATM    5  C5  UNL     1     -34.424  15.295  -2.738  1.00 20.00     0.113 C 
HETATM    6  C6  UNL     1     -34.103  15.038  -5.303  1.00 20.00     0.055 C 
HETATM    7  C7  UNL     1     -35.572  15.090  -5.718  1.00 20.00     0.018 C 
HETATM    8  O11 UNL     1     -33.627  13.272  -3.750  1.00 20.00    -0.297 OA
ENDROOT
BRANCH   2   9
HETATM    9  C10 UNL     1     -34.469  17.654  -1.788  1.00 20.00     0.006 C 
HETATM   10  C8  UNL     1     -34.631  16.822  -0.521  1.00 20.00     0.014 C 
HETATM   11  C9  UNL     1     -33.369  18.698  -1.620  1.00 20.00     0.014 C 
ENDBRANCH   2   9
TORSDOF 1
ENDMDL
MODEL 6
REMARK VINA RESULT:      -4.7      1.917      3.895
REMARK  1 active torsions:
REMARK  status: ('A' for Active; 'I' for Inactive)
REMARK    1  A    between atoms: C2_2  and  C10_10 
ROOT
HETATM    1  C1  UNL     1     -35.967  15.727  -2.965  1.00 20.00    -0.022 C 
HETATM    2  C2  UNL     1     -36.286  14.795  -3.880  1.00 20.00    -0.073 C 
HETATM    3  C3  UNL     1     -33.920  13.941  -3.785  1.00 20.00     0.134 C 
HETATM    4  C4  UNL     1     -34.580  15.921  -2.428  1.00 20.00     0.039 C 
HETATM    5  C5  UNL     1     -35.282  13.829  -4.447  1.00 20.00     0.113 C 
HETATM    6  C6  UNL     1     -33.482  15.312  -3.303  1.00 20.00     0.055 C 
HETATM    7  C7  UNL     1     -33.123  16.191  -4.500  1.00 20.00     0.018 C 
HETATM    8  O11 UNL     1     -33.162  12.972  -3.726  1.00 20.00    -0.297 OA
ENDROOT
BRANCH   2   9
HETATM    9  C10 UNL     1     -37.689  14.649  -4.393  1.00 20.00     0.006 C 
HETATM   10  C8  UNL     1     -38.677  15.259  -3.406  1.00 20.00     0.014 C 
HETATM   11  C9  UNL     1     -37.829  15.288  -5.771  1.00 20.00     0.014 C 
ENDBRANCH   2   9
TORSDOF 1
ENDMDL
MODEL 7
REMARK VINA RESULT:      -4.5     11.462     13.272
REMARK  1 active torsions:
REMARK  status: ('A' for Active; 'I' for Inactive)
REMARK    1  A    between atoms: C2_2  and  C10_10 
ROOT
HETATM    1  C1  UNL     1     -41.187   4.187  -1.531  1.00 20.00    -0.022 C 
HETATM    2  C2  UNL     1     -42.107   4.166  -2.512  1.00 20.00    -0.073 C 
HETATM    3  C3  UNL     1     -42.211   6.680  -2.418  1.00 20.00     0.134 C 
HETATM    4  C4  UNL     1     -40.746   5.439  -0.834  1.00 20.00     0.039 C 
HETATM    5  C5  UNL     1     -42.777   5.410  -3.029  1.00 20.00     0.113 C 
HETATM    6  C6  UNL     1     -41.717   6.612  -0.985  1.00 20.00     0.055 C 
HETATM    7  C7  UNL     1     -42.907   6.522  -0.031  1.00 20.00     0.018 C 
HETATM    8  O11 UNL     1     -42.239   7.746  -3.034  1.00 20.00    -0.297 OA
ENDROOT
BRANCH   2   9
HETATM    9  C10 UNL     1     -42.522   2.883  -3.170  1.00 20.00     0.006 C 
HETATM   10  C8  UNL     1     -41.293   2.093  -3.606  1.00 20.00     0.014 C 
HETATM   11  C9  UNL     1     -43.400   2.056  -2.235  1.00 20.00     0.014 C 
ENDBRANCH   2   9
TORSDOF 1
ENDMDL
MODEL 8
REMARK VINA RESULT:      -4.4      1.964      3.951
REMARK  1 active torsions:
REMARK  status: ('A' for Active; 'I' for Inactive)
REMARK    1  A    between atoms: C2_2  and  C10_10 
ROOT
HETATM    1  C1  UNL     1     -34.802  16.563  -4.719  1.00 20.00    -0.022 C 
HETATM    2  C2  UNL     1     -34.749  15.910  -5.893  1.00 20.00    -0.073 C 
HETATM    3  C3  UNL     1     -34.625  13.732  -4.637  1.00 20.00     0.134 C 
HETATM    4  C4  UNL     1     -34.686  15.884  -3.387  1.00 20.00     0.039 C 
HETATM    5  C5  UNL     1     -34.590  14.418  -5.992  1.00 20.00     0.113 C 
HETATM    6  C6  UNL     1     -34.058  14.490  -3.450  1.00 20.00     0.055 C 
HETATM    7  C7  UNL     1     -32.534  14.530  -3.542  1.00 20.00     0.018 C 
HETATM    8  O11 UNL     1     -35.013  12.569  -4.525  1.00 20.00    -0.297 OA
ENDROOT
BRANCH   2   9
HETATM    9  C10 UNL     1     -34.858  16.640  -7.200  1.00 20.00     0.006 C 
HETATM   10  C8  UNL     1     -36.311  16.682  -7.660  1.00 20.00     0.014 C 
HETATM   11  C9  UNL     1     -34.282  18.047  -7.084  1.00 20.00     0.014 C 
ENDBRANCH   2   9
TORSDOF 1
ENDMDL
MODEL 9
REMARK VINA RESULT:      -4.3      2.580      4.120
REMARK  1 active torsions:
REMARK  status: ('A' for Active; 'I' for Inactive)
REMARK    1  A    between atoms: C2_2  and  C10_10 
ROOT
HETATM    1  C1  UNL     1     -35.772  16.017  -4.785  1.00 20.00    -0.022 C 
HETATM    2  C2  UNL     1     -34.697  16.640  -5.298  1.00 20.00    -0.073 C 
HETATM    3  C3  UNL     1     -33.232  15.335  -3.720  1.00 20.00     0.134 C 
HETATM    4  C4  UNL     1     -35.705  15.057  -3.635  1.00 20.00     0.039 C 
HETATM    5  C5  UNL     1     -33.302  16.419  -4.781  1.00 20.00     0.113 C 
HETATM    6  C6  UNL     1     -34.428  15.173  -2.799  1.00 20.00     0.055 C 
HETATM    7  C7  UNL     1     -34.475  16.332  -1.805  1.00 20.00     0.018 C 
HETATM    8  O11 UNL     1     -32.206  14.674  -3.555  1.00 20.00    -0.297 OA
ENDROOT
BRANCH   2   9
HETATM    9  C10 UNL     1     -34.821  17.603  -6.442  1.00 20.00     0.006 C 
HETATM   10  C8  UNL     1     -33.729  18.663  -6.359  1.00 20.00     0.014 C 
HETATM   11  C9  UNL     1     -34.766  16.866  -7.776  1.00 20.00     0.014 C 
ENDBRANCH   2   9
TORSDOF 1
ENDMDL
