MODEL 1
REMARK VINA RESULT:      -4.5      0.000      0.000
REMARK  1 active torsions:
REMARK  status: ('A' for Active; 'I' for Inactive)
REMARK    1  A    between atoms: C4_4  and  O11_11 
ROOT
HETATM    1  C1  UNL     1     -35.928  14.425  -3.918  1.00 20.00    -0.021 C 
HETATM    2  C2  UNL     1     -35.543  14.545  -5.199  1.00 20.00    -0.025 C 
HETATM    3  C3  UNL     1     -34.184  15.990  -3.197  1.00 20.00    -0.043 C 
HETATM    4  C4  UNL     1     -34.117  16.909  -2.231  1.00 20.00     0.045 C 
HETATM    5  C5  UNL     1     -33.723  16.160  -4.641  1.00 20.00     0.046 C 
HETATM    6  C6  UNL     1     -33.688  13.869  -3.994  1.00 20.00     0.022 C 
HETATM    7  C7  UNL     1     -34.688  14.564  -3.064  1.00 20.00     0.040 C 
HETATM    8  C8  UNL     1     -34.041  14.750  -5.199  1.00 20.00     0.013 C 
HETATM    9  C9  UNL     1     -34.588  16.676  -0.830  1.00 20.00     0.076 C 
ENDROOT
BRANCH   4  10
HETATM   10  O11 UNL     1     -33.591  18.160  -2.495  1.00 20.00    -0.360 OA
HETATM   11  C10 UNL     1     -33.274  18.870  -1.324  1.00 20.00     0.209 C 
ENDBRANCH   4  10
TORSDOF 1
ENDMDL
MODEL 2
REMARK VINA RESULT:      -4.5     12.528     14.455
REMARK  1 active torsions:
REMARK  status: ('A' for Active; 'I' for Inactive)
REMARK    1  A    between atoms: C4_4  and  O11_11 
ROOT
HETATM    1  C1  UNL     1     -43.174   5.639  -0.355  1.00 20.00    -0.021 C 
HETATM    2  C2  UNL     1     -42.098   5.740   0.443  1.00 20.00    -0.025 C 
HETATM    3  C3  UNL     1     -41.878   4.396  -2.024  1.00 20.00    -0.043 C 
HETATM    4  C4  UNL     1     -42.179   3.411  -2.873  1.00 20.00     0.045 C 
HETATM    5  C5  UNL     1     -40.637   4.482  -1.142  1.00 20.00     0.046 C 
HETATM    6  C6  UNL     1     -41.513   6.648  -1.604  1.00 20.00     0.022 C 
HETATM    7  C7  UNL     1     -42.676   5.665  -1.782  1.00 20.00     0.040 C 
HETATM    8  C8  UNL     1     -40.882   5.849  -0.455  1.00 20.00     0.013 C 
HETATM    9  C9  UNL     1     -43.417   3.388  -3.713  1.00 20.00     0.076 C 
ENDROOT
BRANCH   4  10
HETATM   10  O11 UNL     1     -41.329   2.330  -3.017  1.00 20.00    -0.360 OA
HETATM   11  C10 UNL     1     -41.656   1.530  -4.125  1.00 20.00     0.209 C 
ENDBRANCH   4  10
TORSDOF 1
ENDMDL
MODEL 3
REMARK VINA RESULT:      -4.5      2.547      3.923
REMARK  1 active torsions:
REMARK  status: ('A' for Active; 'I' for Inactive)
REMARK    1  A    between atoms: C4_4  and  O11_11 
ROOT
HETATM    1  C1  UNL     1     -33.744  15.400  -3.267  1.00 20.00    -0.021 C 
HETATM    2  C2  UNL     1     -33.319  14.161  -3.566  1.00 20.00    -0.025 C 
HETATM    3  C3  UNL     1     -36.003  14.868  -4.057  1.00 20.00    -0.043 C 
HETATM    4  C4  UNL     1     -37.224  15.245  -3.670  1.00 20.00     0.045 C 
HETATM    5  C5  UNL     1     -35.561  13.450  -4.402  1.00 20.00     0.046 C 
HETATM    6  C6  UNL     1     -34.202  15.063  -5.505  1.00 20.00     0.022 C 
HETATM    7  C7  UNL     1     -34.800  15.768  -4.283  1.00 20.00     0.040 C 
HETATM    8  C8  UNL     1     -34.085  13.709  -4.793  1.00 20.00     0.013 C 
HETATM    9  C9  UNL     1     -37.592  16.659  -3.346  1.00 20.00     0.076 C 
ENDROOT
BRANCH   4  10
HETATM   10  O11 UNL     1     -38.235  14.311  -3.547  1.00 20.00    -0.360 OA
HETATM   11  C10 UNL     1     -39.384  14.661  -4.279  1.00 20.00     0.209 C 
ENDBRANCH   4  10
TORSDOF 1
ENDMDL
MODEL 4
REMARK VINA RESULT:      -4.4      1.680      4.562
REMARK  1 active torsions:
REMARK  status: ('A' for Active; 'I' for Inactive)
REMARK    1  A    between atoms: C4_4  and  O11_11 
ROOT
HETATM    1  C1  UNL     1     -34.836  19.113  -1.993  1.00 20.00    -0.021 C 
HETATM    2  C2  UNL     1     -35.403  18.874  -0.798  1.00 20.00    -0.025 C 
HETATM    3  C3  UNL     1     -34.045  16.796  -2.133  1.00 20.00    -0.043 C 
HETATM    4  C4  UNL     1     -33.877  15.943  -3.146  1.00 20.00     0.045 C 
HETATM    5  C5  UNL     1     -34.683  16.484  -0.784  1.00 20.00     0.046 C 
HETATM    6  C6  UNL     1     -33.166  18.312  -0.613  1.00 20.00     0.022 C 
HETATM    7  C7  UNL     1     -33.600  18.247  -2.081  1.00 20.00     0.040 C 
HETATM    8  C8  UNL     1     -34.534  17.859  -0.084  1.00 20.00     0.013 C 
HETATM    9  C9  UNL     1     -33.240  16.315  -4.448  1.00 20.00     0.076 C 
ENDROOT
BRANCH   4  10
HETATM   10  O11 UNL     1     -34.301  14.632  -3.030  1.00 20.00    -0.360 OA
HETATM   11  C10 UNL     1     -33.653  13.774  -3.937  1.00 20.00     0.209 C 
ENDBRANCH   4  10
TORSDOF 1
ENDMDL
MODEL 5
REMARK VINA RESULT:      -4.4      1.290      2.229
REMARK  1 active torsions:
REMARK  status: ('A' for Active; 'I' for Inactive)
REMARK    1  A    between atoms: C4_4  and  O11_11 
ROOT
HETATM    1  C1  UNL     1     -32.754  14.530  -3.521  1.00 20.00    -0.021 C 
HETATM    2  C2  UNL     1     -33.749  13.713  -3.905  1.00 20.00    -0.025 C 
HETATM    3  C3  UNL     1     -34.361  16.120  -2.574  1.00 20.00    -0.043 C 
HETATM    4  C4  UNL     1     -34.332  16.936  -1.517  1.00 20.00     0.045 C 
HETATM    5  C5  UNL     1     -35.517  15.216  -2.986  1.00 20.00     0.046 C 
HETATM    6  C6  UNL     1     -34.160  15.780  -4.859  1.00 20.00     0.022 C 
HETATM    7  C7  UNL     1     -33.274  15.945  -3.620  1.00 20.00     0.040 C 
HETATM    8  C8  UNL     1     -34.929  14.588  -4.275  1.00 20.00     0.013 C 
HETATM    9  C9  UNL     1     -33.161  17.801  -1.169  1.00 20.00     0.076 C 
ENDROOT
BRANCH   4  10
HETATM   10  O11 UNL     1     -35.421  17.019  -0.671  1.00 20.00    -0.360 OA
HETATM   11  C10 UNL     1     -35.067  17.436   0.624  1.00 20.00     0.209 C 
ENDBRANCH   4  10
TORSDOF 1
ENDMDL
MODEL 6
REMARK VINA RESULT:      -4.4      2.096      4.137
REMARK  1 active torsions:
REMARK  status: ('A' for Active; 'I' for Inactive)
REMARK    1  A    between atoms: C4_4  and  O11_11 
ROOT
HETATM    1  C1  UNL     1     -33.850  17.617  -3.162  1.00 20.00    -0.021 C 
HETATM    2  C2  UNL     1     -35.130  18.024  -3.147  1.00 20.00    -0.025 C 
HETATM    3  C3  UNL     1     -34.543  15.273  -2.965  1.00 20.00    -0.043 C 
HETATM    4  C4  UNL     1     -34.052  14.127  -3.442  1.00 20.00     0.045 C 
HETATM    5  C5  UNL     1     -36.008  15.695  -2.954  1.00 20.00     0.046 C 
HETATM    6  C6  UNL     1     -34.790  16.785  -1.223  1.00 20.00     0.022 C 
HETATM    7  C7  UNL     1     -33.762  16.387  -2.288  1.00 20.00     0.040 C 
HETATM    8  C8  UNL     1     -35.894  17.071  -2.250  1.00 20.00     0.013 C 
HETATM    9  C9  UNL     1     -32.598  13.775  -3.421  1.00 20.00     0.076 C 
ENDROOT
BRANCH   4  10
HETATM   10  O11 UNL     1     -34.898  13.185  -3.998  1.00 20.00    -0.360 OA
HETATM   11  C10 UNL     1     -34.926  13.248  -5.402  1.00 20.00     0.209 C 
ENDBRANCH   4  10
TORSDOF 1
ENDMDL
MODEL 7
REMARK VINA RESULT:      -4.3      2.512      4.436
REMARK  1 active torsions:
REMARK  status: ('A' for Active; 'I' for Inactive)
REMARK    1  A    between atoms: C4_4  and  O11_11 
ROOT
HETATM    1  C1  UNL     1     -34.607  16.289  -3.381  1.00 20.00    -0.021 C 
HETATM    2  C2  UNL     1     -34.801  15.133  -2.723  1.00 20.00    -0.025 C 
HETATM    3  C3  UNL     1     -34.358  15.092  -5.506  1.00 20.00    -0.043 C 
HETATM    4  C4  UNL     1     -34.686  15.382  -6.768  1.00 20.00     0.045 C 
HETATM    5  C5  UNL     1     -34.582  13.761  -4.797  1.00 20.00     0.046 C 
HETATM    6  C6  UNL     1     -32.771  14.959  -3.820  1.00 20.00     0.022 C 
HETATM    7  C7  UNL     1     -33.651  16.002  -4.517  1.00 20.00     0.040 C 
HETATM    8  C8  UNL     1     -33.960  14.078  -3.414  1.00 20.00     0.013 C 
HETATM    9  C9  UNL     1     -34.436  16.712  -7.405  1.00 20.00     0.076 C 
ENDROOT
BRANCH   4  10
HETATM   10  O11 UNL     1     -35.292  14.430  -7.566  1.00 20.00    -0.360 OA
HETATM   11  C10 UNL     1     -36.608  14.781  -7.918  1.00 20.00     0.209 C 
ENDBRANCH   4  10
TORSDOF 1
ENDMDL
MODEL 8
REMARK VINA RESULT:      -4.2      2.367      3.956
REMARK  1 active torsions:
REMARK  status: ('A' for Active; 'I' for Inactive)
REMARK    1  A    between atoms: C4_4  and  O11_11 
ROOT
HETATM    1  C1  UNL     1     -34.181  13.342  -4.268  1.00 20.00    -0.021 C 
HETATM    2  C2  UNL     1     -33.120  13.877  -3.641  1.00 20.00    -0.025 C 
HETATM    3  C3  UNL     1     -34.570  15.429  -5.494  1.00 20.00    -0.043 C 
HETATM    4  C4  UNL     1     -35.023  15.703  -6.720  1.00 20.00     0.045 C 
HETATM    5  C5  UNL     1     -33.367  16.069  -4.810  1.00 20.00     0.046 C 
HETATM    6  C6  UNL     1     -34.930  15.253  -3.209  1.00 20.00     0.022 C 
HETATM    7  C7  UNL     1     -35.176  14.457  -4.496  1.00 20.00     0.040 C 
HETATM    8  C8  UNL     1     -33.416  15.350  -3.439  1.00 20.00     0.013 C 
HETATM    9  C9  UNL     1     -36.214  15.036  -7.333  1.00 20.00     0.076 C 
ENDROOT
BRANCH   4  10
HETATM   10  O11 UNL     1     -34.387  16.648  -7.502  1.00 20.00    -0.360 OA
HETATM   11  C10 UNL     1     -35.154  17.815  -7.669  1.00 20.00     0.209 C 
ENDBRANCH   4  10
TORSDOF 1
ENDMDL
MODEL 9
REMARK VINA RESULT:      -4.2      1.209      1.675
REMARK  1 active torsions:
REMARK  status: ('A' for Active; 'I' for Inactive)
REMARK    1  A    between atoms: C4_4  and  O11_11 
ROOT
HETATM    1  C1  UNL     1     -35.516  15.302  -5.687  1.00 20.00    -0.021 C 
HETATM    2  C2  UNL     1     -34.472  14.502  -5.961  1.00 20.00    -0.025 C 
HETATM    3  C3  UNL     1     -34.824  15.479  -3.341  1.00 20.00    -0.043 C 
HETATM    4  C4  UNL     1     -34.891  16.458  -2.436  1.00 20.00     0.045 C 
HETATM    5  C5  UNL     1     -33.623  14.581  -3.615  1.00 20.00     0.046 C 
HETATM    6  C6  UNL     1     -35.655  13.508  -4.239  1.00 20.00     0.022 C 
HETATM    7  C7  UNL     1     -35.937  15.014  -4.264  1.00 20.00     0.040 C 
HETATM    8  C8  UNL     1     -34.208  13.669  -4.723  1.00 20.00     0.013 C 
HETATM    9  C9  UNL     1     -36.106  17.304  -2.217  1.00 20.00     0.076 C 
ENDROOT
BRANCH   4  10
HETATM   10  O11 UNL     1     -33.801  16.741  -1.634  1.00 20.00    -0.360 OA
HETATM   11  C10 UNL     1     -34.167  17.364  -0.428  1.00 20.00     0.209 C 
ENDBRANCH   4  10
TORSDOF 1
ENDMDL
