MODEL 1
REMARK VINA RESULT:      -3.5      0.000      0.000
REMARK  1 active torsions:
REMARK  status: ('A' for Active; 'I' for Inactive)
REMARK    1  A    between atoms: C1_1  and  C2_2 
ROOT
HETATM    1  C1  UNL     1     -35.139   4.817   4.813  1.00 20.00     0.326 C 
HETATM    2  O3  UNL     1     -35.153   3.606   4.976  1.00 20.00    -0.257 OA
HETATM    3  F4  UNL     1     -35.969   5.322   3.890  1.00 20.00    -0.162 F 
ENDROOT
BRANCH   1   4
HETATM    4  C2  UNL     1     -34.273   5.777   5.558  1.00 20.00     0.338 C 
HETATM    5  F5  UNL     1     -34.747   6.002   6.812  1.00 20.00    -0.245 F 
ENDBRANCH   1   4
TORSDOF 1
ENDMDL
MODEL 2
REMARK VINA RESULT:      -3.4      1.709      2.492
REMARK  1 active torsions:
REMARK  status: ('A' for Active; 'I' for Inactive)
REMARK    1  A    between atoms: C1_1  and  C2_2 
ROOT
HETATM    1  C1  UNL     1     -34.863   5.044   5.700  1.00 20.00     0.326 C 
HETATM    2  O3  UNL     1     -34.494   5.921   6.467  1.00 20.00    -0.257 OA
HETATM    3  F4  UNL     1     -35.276   3.889   6.241  1.00 20.00    -0.162 F 
ENDROOT
BRANCH   1   4
HETATM    4  C2  UNL     1     -34.892   5.155   4.212  1.00 20.00     0.338 C 
HETATM    5  F5  UNL     1     -36.132   5.486   3.764  1.00 20.00    -0.245 F 
ENDBRANCH   1   4
TORSDOF 1
ENDMDL
MODEL 3
REMARK VINA RESULT:      -3.4      0.733      2.203
REMARK  1 active torsions:
REMARK  status: ('A' for Active; 'I' for Inactive)
REMARK    1  A    between atoms: C1_1  and  C2_2 
ROOT
HETATM    1  C1  UNL     1     -34.916   4.793   5.294  1.00 20.00     0.326 C 
HETATM    2  O3  UNL     1     -35.031   3.579   5.384  1.00 20.00    -0.257 OA
HETATM    3  F4  UNL     1     -34.875   5.492   6.437  1.00 20.00    -0.162 F 
ENDROOT
BRANCH   1   4
HETATM    4  C2  UNL     1     -34.817   5.557   4.016  1.00 20.00     0.338 C 
HETATM    5  F5  UNL     1     -36.026   5.659   3.405  1.00 20.00    -0.245 F 
ENDBRANCH   1   4
TORSDOF 1
ENDMDL
MODEL 4
REMARK VINA RESULT:      -3.4      1.557      1.557
REMARK  1 active torsions:
REMARK  status: ('A' for Active; 'I' for Inactive)
REMARK    1  A    between atoms: C1_1  and  C2_2 
ROOT
HETATM    1  C1  UNL     1     -35.051   4.763   5.074  1.00 20.00     0.326 C 
HETATM    2  O3  UNL     1     -35.433   5.312   4.051  1.00 20.00    -0.257 OA
HETATM    3  F4  UNL     1     -35.062   3.423   5.094  1.00 20.00    -0.162 F 
ENDROOT
BRANCH   1   4
HETATM    4  C2  UNL     1     -34.571   5.466   6.300  1.00 20.00     0.338 C 
HETATM    5  F5  UNL     1     -34.079   6.698   6.006  1.00 20.00    -0.245 F 
ENDBRANCH   1   4
TORSDOF 1
ENDMDL
MODEL 5
REMARK VINA RESULT:      -3.4      1.665      2.633
REMARK  1 active torsions:
REMARK  status: ('A' for Active; 'I' for Inactive)
REMARK    1  A    between atoms: C1_1  and  C2_2 
ROOT
HETATM    1  C1  UNL     1     -34.343   5.705   5.680  1.00 20.00     0.326 C 
HETATM    2  O3  UNL     1     -33.875   6.112   4.627  1.00 20.00    -0.257 OA
HETATM    3  F4  UNL     1     -34.352   6.554   6.717  1.00 20.00    -0.162 F 
ENDROOT
BRANCH   1   4
HETATM    4  C2  UNL     1     -34.906   4.341   5.904  1.00 20.00     0.338 C 
HETATM    5  F5  UNL     1     -35.190   3.723   4.727  1.00 20.00    -0.245 F 
ENDBRANCH   1   4
TORSDOF 1
ENDMDL
MODEL 6
REMARK VINA RESULT:      -3.3      1.378      1.378
REMARK  1 active torsions:
REMARK  status: ('A' for Active; 'I' for Inactive)
REMARK    1  A    between atoms: C1_1  and  C2_2 
ROOT
HETATM    1  C1  UNL     1     -34.889   5.309   4.413  1.00 20.00     0.326 C 
HETATM    2  O3  UNL     1     -33.873   5.695   3.856  1.00 20.00    -0.257 OA
HETATM    3  F4  UNL     1     -36.041   5.417   3.736  1.00 20.00    -0.162 F 
ENDROOT
BRANCH   1   4
HETATM    4  C2  UNL     1     -34.951   4.726   5.786  1.00 20.00     0.338 C 
HETATM    5  F5  UNL     1     -34.872   5.693   6.738  1.00 20.00    -0.245 F 
ENDBRANCH   1   4
TORSDOF 1
ENDMDL
MODEL 7
REMARK VINA RESULT:      -3.3      1.463      1.463
REMARK  1 active torsions:
REMARK  status: ('A' for Active; 'I' for Inactive)
REMARK    1  A    between atoms: C1_1  and  C2_2 
ROOT
HETATM    1  C1  UNL     1     -34.976   4.539   5.562  1.00 20.00     0.326 C 
HETATM    2  O3  UNL     1     -35.076   3.583   4.808  1.00 20.00    -0.257 OA
HETATM    3  F4  UNL     1     -35.602   4.457   6.744  1.00 20.00    -0.162 F 
ENDROOT
BRANCH   1   4
HETATM    4  C2  UNL     1     -34.214   5.789   5.273  1.00 20.00     0.338 C 
HETATM    5  F5  UNL     1     -34.194   6.618   6.350  1.00 20.00    -0.245 F 
ENDBRANCH   1   4
TORSDOF 1
ENDMDL
MODEL 8
REMARK VINA RESULT:      -3.2      1.971      2.493
REMARK  1 active torsions:
REMARK  status: ('A' for Active; 'I' for Inactive)
REMARK    1  A    between atoms: C1_1  and  C2_2 
ROOT
HETATM    1  C1  UNL     1     -34.786   4.835   5.384  1.00 20.00     0.326 C 
HETATM    2  O3  UNL     1     -34.470   5.539   6.331  1.00 20.00    -0.257 OA
HETATM    3  F4  UNL     1     -34.790   3.509   5.579  1.00 20.00    -0.162 F 
ENDROOT
BRANCH   1   4
HETATM    4  C2  UNL     1     -35.167   5.331   4.030  1.00 20.00     0.338 C 
HETATM    5  F5  UNL     1     -34.085   5.426   3.213  1.00 20.00    -0.245 F 
ENDBRANCH   1   4
TORSDOF 1
ENDMDL
MODEL 9
REMARK VINA RESULT:      -3.1      2.124      2.444
REMARK  1 active torsions:
REMARK  status: ('A' for Active; 'I' for Inactive)
REMARK    1  A    between atoms: C1_1  and  C2_2 
ROOT
HETATM    1  C1  UNL     1     -34.315   5.785   5.325  1.00 20.00     0.326 C 
HETATM    2  O3  UNL     1     -34.332   6.082   6.510  1.00 20.00    -0.257 OA
HETATM    3  F4  UNL     1     -33.491   6.481   4.529  1.00 20.00    -0.162 F 
ENDROOT
BRANCH   1   4
HETATM    4  C2  UNL     1     -35.136   4.711   4.694  1.00 20.00     0.338 C 
HETATM    5  F5  UNL     1     -34.996   3.529   5.351  1.00 20.00    -0.245 F 
ENDBRANCH   1   4
TORSDOF 1
ENDMDL
