MODEL 1
REMARK VINA RESULT:      -3.8      0.000      0.000
REMARK  0 active torsions:
REMARK  status: ('A' for Active; 'I' for Inactive)
ROOT
HETATM    1  C1  UNL     1     -36.351  14.801  -3.656  1.00 20.00     0.063 C 
HETATM    2  C2  UNL     1     -34.455  15.613  -2.499  1.00 20.00     0.167 C 
HETATM    3  C3  UNL     1     -34.071  14.587  -5.100  1.00 20.00     0.112 C 
HETATM    4  C4  UNL     1     -37.813  14.800  -4.000  1.00 20.00     0.078 C 
HETATM    5  C5  UNL     1     -34.149  16.837  -1.636  1.00 20.00     0.046 C 
HETATM    6  C6  UNL     1     -34.584  15.516  -6.197  1.00 20.00     0.033 C 
HETATM    7  N7  UNL     1     -35.876  15.691  -2.856  1.00 20.00    -0.272 NA
HETATM    8  S8  UNL     1     -35.410  13.548  -4.443  1.00 20.00    -0.100 SA
HETATM    9  S9  UNL     1     -33.192  15.551  -3.827  1.00 20.00    -0.127 SA
ENDROOT
TORSDOF 0
ENDMDL
MODEL 2
REMARK VINA RESULT:      -3.7      1.945      2.475
REMARK  0 active torsions:
REMARK  status: ('A' for Active; 'I' for Inactive)
ROOT
HETATM    1  C1  UNL     1     -34.404  15.168  -3.408  1.00 20.00     0.063 C 
HETATM    2  C2  UNL     1     -34.034  16.714  -1.658  1.00 20.00     0.167 C 
HETATM    3  C3  UNL     1     -33.798  17.647  -4.311  1.00 20.00     0.112 C 
HETATM    4  C4  UNL     1     -35.065  13.964  -4.016  1.00 20.00     0.078 C 
HETATM    5  C5  UNL     1     -34.719  17.038  -0.330  1.00 20.00     0.046 C 
HETATM    6  C6  UNL     1     -35.143  17.806  -5.016  1.00 20.00     0.033 C 
HETATM    7  N7  UNL     1     -34.752  15.573  -2.237  1.00 20.00    -0.272 NA
HETATM    8  S8  UNL     1     -33.198  15.935  -4.423  1.00 20.00    -0.100 SA
HETATM    9  S9  UNL     1     -33.911  18.279  -2.605  1.00 20.00    -0.127 SA
ENDROOT
TORSDOF 0
ENDMDL
MODEL 3
REMARK VINA RESULT:      -3.6      0.967      3.165
REMARK  0 active torsions:
REMARK  status: ('A' for Active; 'I' for Inactive)
ROOT
HETATM    1  C1  UNL     1     -34.995  16.192  -2.546  1.00 20.00     0.063 C 
HETATM    2  C2  UNL     1     -36.574  15.460  -4.147  1.00 20.00     0.167 C 
HETATM    3  C3  UNL     1     -33.853  14.876  -4.618  1.00 20.00     0.112 C 
HETATM    4  C4  UNL     1     -34.559  16.525  -1.148  1.00 20.00     0.078 C 
HETATM    5  C5  UNL     1     -37.951  14.797  -4.094  1.00 20.00     0.046 C 
HETATM    6  C6  UNL     1     -33.310  13.769  -3.719  1.00 20.00     0.033 C 
HETATM    7  N7  UNL     1     -36.169  15.709  -2.759  1.00 20.00    -0.272 NA
HETATM    8  S8  UNL     1     -33.788  16.489  -3.783  1.00 20.00    -0.100 SA
HETATM    9  S9  UNL     1     -35.512  14.427  -5.226  1.00 20.00    -0.127 SA
ENDROOT
TORSDOF 0
ENDMDL
MODEL 4
REMARK VINA RESULT:      -3.6      1.951      4.068
REMARK  0 active torsions:
REMARK  status: ('A' for Active; 'I' for Inactive)
ROOT
HETATM    1  C1  UNL     1     -33.730  16.598  -5.242  1.00 20.00     0.063 C 
HETATM    2  C2  UNL     1     -34.501  14.678  -6.388  1.00 20.00     0.167 C 
HETATM    3  C3  UNL     1     -34.529  14.628  -3.567  1.00 20.00     0.112 C 
HETATM    4  C4  UNL     1     -33.520  18.078  -5.095  1.00 20.00     0.078 C 
HETATM    5  C5  UNL     1     -35.396  14.421  -7.600  1.00 20.00     0.046 C 
HETATM    6  C6  UNL     1     -35.636  15.485  -2.959  1.00 20.00     0.033 C 
HETATM    7  N7  UNL     1     -34.378  16.134  -6.253  1.00 20.00    -0.272 NA
HETATM    8  S8  UNL     1     -33.059  15.629  -3.944  1.00 20.00    -0.100 SA
HETATM    9  S9  UNL     1     -35.174  13.696  -4.994  1.00 20.00    -0.127 SA
ENDROOT
TORSDOF 0
ENDMDL
MODEL 5
REMARK VINA RESULT:      -3.6      2.074      3.255
REMARK  0 active torsions:
REMARK  status: ('A' for Active; 'I' for Inactive)
ROOT
HETATM    1  C1  UNL     1     -35.010  16.119  -2.487  1.00 20.00     0.063 C 
HETATM    2  C2  UNL     1     -35.196  14.590  -4.281  1.00 20.00     0.167 C 
HETATM    3  C3  UNL     1     -35.033  17.338  -4.903  1.00 20.00     0.112 C 
HETATM    4  C4  UNL     1     -34.561  16.525  -1.112  1.00 20.00     0.078 C 
HETATM    5  C5  UNL     1     -34.565  13.242  -4.631  1.00 20.00     0.046 C 
HETATM    6  C6  UNL     1     -33.633  17.918  -4.713  1.00 20.00     0.033 C 
HETATM    7  N7  UNL     1     -34.680  14.969  -2.961  1.00 20.00    -0.272 NA
HETATM    8  S8  UNL     1     -35.955  17.326  -3.337  1.00 20.00    -0.100 SA
HETATM    9  S9  UNL     1     -34.927  15.706  -5.710  1.00 20.00    -0.127 SA
ENDROOT
TORSDOF 0
ENDMDL
MODEL 6
REMARK VINA RESULT:      -3.6      1.876      2.990
REMARK  0 active torsions:
REMARK  status: ('A' for Active; 'I' for Inactive)
ROOT
HETATM    1  C1  UNL     1     -34.062  16.086  -3.026  1.00 20.00     0.063 C 
HETATM    2  C2  UNL     1     -33.477  16.949  -5.147  1.00 20.00     0.167 C 
HETATM    3  C3  UNL     1     -34.775  14.445  -5.057  1.00 20.00     0.112 C 
HETATM    4  C4  UNL     1     -34.489  16.225  -1.592  1.00 20.00     0.078 C 
HETATM    5  C5  UNL     1     -33.557  18.318  -5.825  1.00 20.00     0.046 C 
HETATM    6  C6  UNL     1     -36.262  14.548  -4.725  1.00 20.00     0.033 C 
HETATM    7  N7  UNL     1     -33.960  17.128  -3.774  1.00 20.00    -0.272 NA
HETATM    8  S8  UNL     1     -33.765  14.438  -3.546  1.00 20.00    -0.100 SA
HETATM    9  S9  UNL     1     -34.312  15.745  -6.248  1.00 20.00    -0.127 SA
ENDROOT
TORSDOF 0
ENDMDL
MODEL 7
REMARK VINA RESULT:      -3.5      2.137      2.834
REMARK  0 active torsions:
REMARK  status: ('A' for Active; 'I' for Inactive)
ROOT
HETATM    1  C1  UNL     1     -35.135  15.197  -5.899  1.00 20.00     0.063 C 
HETATM    2  C2  UNL     1     -34.444  17.103  -4.683  1.00 20.00     0.167 C 
HETATM    3  C3  UNL     1     -34.482  14.624  -3.336  1.00 20.00     0.112 C 
HETATM    4  C4  UNL     1     -35.268  14.383  -7.155  1.00 20.00     0.078 C 
HETATM    5  C5  UNL     1     -33.537  18.302  -4.962  1.00 20.00     0.046 C 
HETATM    6  C6  UNL     1     -33.343  13.694  -3.750  1.00 20.00     0.033 C 
HETATM    7  N7  UNL     1     -34.491  16.311  -5.917  1.00 20.00    -0.272 NA
HETATM    8  S8  UNL     1     -35.886  14.490  -4.482  1.00 20.00    -0.100 SA
HETATM    9  S9  UNL     1     -33.856  16.323  -3.132  1.00 20.00    -0.127 SA
ENDROOT
TORSDOF 0
ENDMDL
MODEL 8
REMARK VINA RESULT:      -3.5      1.820      3.145
REMARK  0 active torsions:
REMARK  status: ('A' for Active; 'I' for Inactive)
ROOT
HETATM    1  C1  UNL     1     -34.182  14.659  -4.008  1.00 20.00     0.063 C 
HETATM    2  C2  UNL     1     -36.407  15.457  -4.049  1.00 20.00     0.167 C 
HETATM    3  C3  UNL     1     -34.703  16.193  -6.176  1.00 20.00     0.112 C 
HETATM    4  C4  UNL     1     -33.128  13.643  -3.672  1.00 20.00     0.078 C 
HETATM    5  C5  UNL     1     -37.784  14.856  -3.770  1.00 20.00     0.046 C 
HETATM    6  C6  UNL     1     -34.427  15.051  -7.150  1.00 20.00     0.033 C 
HETATM    7  N7  UNL     1     -35.420  14.409  -3.765  1.00 20.00    -0.272 NA
HETATM    8  S8  UNL     1     -33.576  16.127  -4.752  1.00 20.00    -0.100 SA
HETATM    9  S9  UNL     1     -36.468  16.210  -5.720  1.00 20.00    -0.127 SA
ENDROOT
TORSDOF 0
ENDMDL
MODEL 9
REMARK VINA RESULT:      -3.5      1.798      2.763
REMARK  0 active torsions:
REMARK  status: ('A' for Active; 'I' for Inactive)
ROOT
HETATM    1  C1  UNL     1     -34.827  14.598  -4.195  1.00 20.00     0.063 C 
HETATM    2  C2  UNL     1     -34.909  16.371  -2.633  1.00 20.00     0.167 C 
HETATM    3  C3  UNL     1     -37.095  16.062  -4.390  1.00 20.00     0.112 C 
HETATM    4  C4  UNL     1     -34.427  13.220  -4.641  1.00 20.00     0.078 C 
HETATM    5  C5  UNL     1     -34.576  16.529  -1.149  1.00 20.00     0.046 C 
HETATM    6  C6  UNL     1     -37.987  14.873  -4.040  1.00 20.00     0.033 C 
HETATM    7  N7  UNL     1     -34.557  14.995  -3.001  1.00 20.00    -0.272 NA
HETATM    8  S8  UNL     1     -35.679  15.542  -5.403  1.00 20.00    -0.100 SA
HETATM    9  S9  UNL     1     -36.628  16.958  -2.873  1.00 20.00    -0.127 SA
ENDROOT
TORSDOF 0
ENDMDL
