MODEL 1
REMARK VINA RESULT:      -3.5      0.000      0.000
REMARK  0 active torsions:
REMARK  status: ('A' for Active; 'I' for Inactive)
ROOT
HETATM    1  C1  UNL     1     -35.226  14.331  -5.555  1.00 20.00     0.302 C 
HETATM    2  C2  UNL     1     -34.837  13.025  -4.898  1.00 20.00     0.201 C 
HETATM    3  C3  UNL     1     -33.852  14.758  -3.754  1.00 20.00     0.253 C 
HETATM    4  C4  UNL     1     -32.338  14.745  -3.533  1.00 20.00     0.081 C 
HETATM    5  C5  UNL     1     -34.536  15.560  -2.640  1.00 20.00     0.081 C 
HETATM    6  C6  UNL     1     -34.407  16.601  -5.341  1.00 20.00     0.314 C 
HETATM    7  N7  UNL     1     -34.128  15.191  -5.131  1.00 20.00     0.120 N 
HETATM    8  O8  UNL     1     -34.318  13.395  -3.615  1.00 20.00    -0.351 OA
ENDROOT
TORSDOF 0
ENDMDL
MODEL 2
REMARK VINA RESULT:      -3.5      1.509      2.572
REMARK  0 active torsions:
REMARK  status: ('A' for Active; 'I' for Inactive)
ROOT
HETATM    1  C1  UNL     1     -34.476  15.279  -5.911  1.00 20.00     0.302 C 
HETATM    2  C2  UNL     1     -33.729  16.593  -5.828  1.00 20.00     0.201 C 
HETATM    3  C3  UNL     1     -33.530  15.495  -3.820  1.00 20.00     0.253 C 
HETATM    4  C4  UNL     1     -33.929  16.215  -2.529  1.00 20.00     0.081 C 
HETATM    5  C5  UNL     1     -32.469  14.429  -3.516  1.00 20.00     0.081 C 
HETATM    6  C6  UNL     1     -35.165  13.660  -4.246  1.00 20.00     0.314 C 
HETATM    7  N7  UNL     1     -34.745  15.027  -4.501  1.00 20.00     0.120 N 
HETATM    8  O8  UNL     1     -32.889  16.470  -4.675  1.00 20.00    -0.351 OA
ENDROOT
TORSDOF 0
ENDMDL
MODEL 3
REMARK VINA RESULT:      -3.4      1.735      2.741
REMARK  0 active torsions:
REMARK  status: ('A' for Active; 'I' for Inactive)
ROOT
HETATM    1  C1  UNL     1     -33.812  17.233  -3.860  1.00 20.00     0.302 C 
HETATM    2  C2  UNL     1     -33.356  16.682  -5.194  1.00 20.00     0.201 C 
HETATM    3  C3  UNL     1     -34.213  14.964  -3.932  1.00 20.00     0.253 C 
HETATM    4  C4  UNL     1     -33.362  13.715  -3.690  1.00 20.00     0.081 C 
HETATM    5  C5  UNL     1     -35.703  14.604  -3.857  1.00 20.00     0.081 C 
HETATM    6  C6  UNL     1     -34.461  16.188  -1.773  1.00 20.00     0.314 C 
HETATM    7  N7  UNL     1     -33.756  16.033  -3.034  1.00 20.00     0.120 N 
HETATM    8  O8  UNL     1     -33.970  15.392  -5.293  1.00 20.00    -0.351 OA
ENDROOT
TORSDOF 0
ENDMDL
MODEL 4
REMARK VINA RESULT:      -3.4      1.368      1.540
REMARK  0 active torsions:
REMARK  status: ('A' for Active; 'I' for Inactive)
ROOT
HETATM    1  C1  UNL     1     -35.853  14.089  -4.230  1.00 20.00     0.302 C 
HETATM    2  C2  UNL     1     -34.570  13.352  -4.545  1.00 20.00     0.201 C 
HETATM    3  C3  UNL     1     -34.066  15.529  -4.010  1.00 20.00     0.253 C 
HETATM    4  C4  UNL     1     -33.236  16.367  -4.986  1.00 20.00     0.081 C 
HETATM    5  C5  UNL     1     -33.870  16.047  -2.579  1.00 20.00     0.081 C 
HETATM    6  C6  UNL     1     -36.389  16.437  -3.958  1.00 20.00     0.314 C 
HETATM    7  N7  UNL     1     -35.452  15.465  -4.495  1.00 20.00     0.120 N 
HETATM    8  O8  UNL     1     -33.526  14.187  -4.030  1.00 20.00    -0.351 OA
ENDROOT
TORSDOF 0
ENDMDL
MODEL 5
REMARK VINA RESULT:      -3.3      1.594      2.393
REMARK  0 active torsions:
REMARK  status: ('A' for Active; 'I' for Inactive)
ROOT
HETATM    1  C1  UNL     1     -35.857  15.932  -3.089  1.00 20.00     0.302 C 
HETATM    2  C2  UNL     1     -36.825  14.894  -3.614  1.00 20.00     0.201 C 
HETATM    3  C3  UNL     1     -34.760  14.529  -4.553  1.00 20.00     0.253 C 
HETATM    4  C4  UNL     1     -34.631  14.454  -6.076  1.00 20.00     0.081 C 
HETATM    5  C5  UNL     1     -33.641  13.712  -3.893  1.00 20.00     0.081 C 
HETATM    6  C6  UNL     1     -33.628  16.606  -3.760  1.00 20.00     0.314 C 
HETATM    7  N7  UNL     1     -34.859  15.939  -4.151  1.00 20.00     0.120 N 
HETATM    8  O8  UNL     1     -36.000  13.876  -4.194  1.00 20.00    -0.351 OA
ENDROOT
TORSDOF 0
ENDMDL
MODEL 6
REMARK VINA RESULT:      -3.3      1.434      2.699
REMARK  0 active torsions:
REMARK  status: ('A' for Active; 'I' for Inactive)
ROOT
HETATM    1  C1  UNL     1     -33.336  16.132  -4.517  1.00 20.00     0.302 C 
HETATM    2  C2  UNL     1     -33.677  16.229  -3.046  1.00 20.00     0.201 C 
HETATM    3  C3  UNL     1     -35.091  14.716  -4.041  1.00 20.00     0.253 C 
HETATM    4  C4  UNL     1     -36.604  14.893  -3.892  1.00 20.00     0.081 C 
HETATM    5  C5  UNL     1     -34.758  13.234  -4.262  1.00 20.00     0.081 C 
HETATM    6  C6  UNL     1     -34.470  15.148  -6.419  1.00 20.00     0.314 C 
HETATM    7  N7  UNL     1     -34.600  15.652  -5.062  1.00 20.00     0.120 N 
HETATM    8  O8  UNL     1     -34.489  15.080  -2.777  1.00 20.00    -0.351 OA
ENDROOT
TORSDOF 0
ENDMDL
MODEL 7
REMARK VINA RESULT:      -3.3      1.986      2.698
REMARK  0 active torsions:
REMARK  status: ('A' for Active; 'I' for Inactive)
ROOT
HETATM    1  C1  UNL     1     -35.964  14.241  -4.158  1.00 20.00     0.302 C 
HETATM    2  C2  UNL     1     -36.992  15.192  -3.584  1.00 20.00     0.201 C 
HETATM    3  C3  UNL     1     -34.891  15.949  -3.042  1.00 20.00     0.253 C 
HETATM    4  C4  UNL     1     -34.549  16.227  -1.576  1.00 20.00     0.081 C 
HETATM    5  C5  UNL     1     -34.023  16.825  -3.956  1.00 20.00     0.081 C 
HETATM    6  C6  UNL     1     -33.583  13.966  -3.802  1.00 20.00     0.314 C 
HETATM    7  N7  UNL     1     -34.829  14.501  -3.280  1.00 20.00     0.120 N 
HETATM    8  O8  UNL     1     -36.257  16.377  -3.253  1.00 20.00    -0.351 OA
ENDROOT
TORSDOF 0
ENDMDL
MODEL 8
REMARK VINA RESULT:      -3.3      1.323      2.655
REMARK  0 active torsions:
REMARK  status: ('A' for Active; 'I' for Inactive)
ROOT
HETATM    1  C1  UNL     1     -32.976  15.121  -3.911  1.00 20.00     0.302 C 
HETATM    2  C2  UNL     1     -33.653  13.770  -3.828  1.00 20.00     0.201 C 
HETATM    3  C3  UNL     1     -34.698  15.030  -5.441  1.00 20.00     0.253 C 
HETATM    4  C4  UNL     1     -36.213  15.236  -5.366  1.00 20.00     0.081 C 
HETATM    5  C5  UNL     1     -34.228  15.135  -6.898  1.00 20.00     0.081 C 
HETATM    6  C6  UNL     1     -33.575  17.210  -4.983  1.00 20.00     0.314 C 
HETATM    7  N7  UNL     1     -34.046  15.931  -4.480  1.00 20.00     0.120 N 
HETATM    8  O8  UNL     1     -34.429  13.670  -5.028  1.00 20.00    -0.351 OA
ENDROOT
TORSDOF 0
ENDMDL
MODEL 9
REMARK VINA RESULT:      -3.3      1.345      1.547
REMARK  0 active torsions:
REMARK  status: ('A' for Active; 'I' for Inactive)
ROOT
HETATM    1  C1  UNL     1     -35.659  16.141  -5.434  1.00 20.00     0.302 C 
HETATM    2  C2  UNL     1     -36.503  14.945  -5.048  1.00 20.00     0.201 C 
HETATM    3  C3  UNL     1     -34.589  14.948  -3.777  1.00 20.00     0.253 C 
HETATM    4  C4  UNL     1     -33.703  13.699  -3.754  1.00 20.00     0.081 C 
HETATM    5  C5  UNL     1     -34.417  15.734  -2.471  1.00 20.00     0.081 C 
HETATM    6  C6  UNL     1     -33.366  16.769  -4.965  1.00 20.00     0.314 C 
HETATM    7  N7  UNL     1     -34.336  15.689  -5.021  1.00 20.00     0.120 N 
HETATM    8  O8  UNL     1     -35.964  14.498  -3.799  1.00 20.00    -0.351 OA
ENDROOT
TORSDOF 0
ENDMDL
