MODEL 1
REMARK VINA RESULT:      -5.4      0.000      0.000
REMARK  1 active torsions:
REMARK  status: ('A' for Active; 'I' for Inactive)
REMARK    1  A    between atoms: C8_8  and  N9_9 
ROOT
HETATM    1  C1  UNL     1     -31.997   8.108   2.072  1.00 20.00     0.013 C 
HETATM    2  C2  UNL     1     -32.391   7.212   2.767  1.00 20.00    -0.087 C 
HETATM    3  C8  UNL     1     -32.866   6.116   3.615  1.00 20.00     0.364 C 
ENDROOT
BRANCH   3   4
HETATM    4  N9  UNL     1     -34.180   6.429   4.173  1.00 20.00     0.099 N 
HETATM    5  C6  UNL     1     -34.140   6.596   5.631  1.00 20.00     0.273 C 
HETATM    6  C4  UNL     1     -33.985   5.284   6.408  1.00 20.00     0.030 C 
HETATM    7  C3  UNL     1     -35.049   4.271   6.000  1.00 20.00     0.003 C 
HETATM    8  C5  UNL     1     -35.083   4.099   4.485  1.00 20.00     0.030 C 
HETATM    9  C7  UNL     1     -35.201   5.451   3.776  1.00 20.00     0.273 C 
ENDBRANCH   3   4
TORSDOF 1
ENDMDL
MODEL 2
REMARK VINA RESULT:      -4.3     11.727     12.943
REMARK  1 active torsions:
REMARK  status: ('A' for Active; 'I' for Inactive)
REMARK    1  A    between atoms: C8_8  and  N9_9 
ROOT
HETATM    1  C1  UNL     1     -34.408  16.990  -0.607  1.00 20.00     0.013 C 
HETATM    2  C2  UNL     1     -34.685  16.327  -1.568  1.00 20.00    -0.087 C 
HETATM    3  C8  UNL     1     -35.031  15.519  -2.741  1.00 20.00     0.364 C 
ENDROOT
BRANCH   3   4
HETATM    4  N9  UNL     1     -33.823  15.069  -3.430  1.00 20.00     0.099 N 
HETATM    5  C6  UNL     1     -33.321  16.069  -4.381  1.00 20.00     0.273 C 
HETATM    6  C4  UNL     1     -34.155  16.192  -5.660  1.00 20.00     0.030 C 
HETATM    7  C3  UNL     1     -34.337  14.836  -6.334  1.00 20.00     0.003 C 
HETATM    8  C5  UNL     1     -34.862  13.803  -5.342  1.00 20.00     0.030 C 
HETATM    9  C7  UNL     1     -34.004  13.763  -4.075  1.00 20.00     0.273 C 
ENDBRANCH   3   4
TORSDOF 1
ENDMDL
MODEL 3
REMARK VINA RESULT:      -4.2     11.582     12.442
REMARK  1 active torsions:
REMARK  status: ('A' for Active; 'I' for Inactive)
REMARK    1  A    between atoms: C8_8  and  N9_9 
ROOT
HETATM    1  C1  UNL     1     -33.606  17.934  -0.627  1.00 20.00     0.013 C 
HETATM    2  C2  UNL     1     -34.117  17.033  -1.235  1.00 20.00    -0.087 C 
HETATM    3  C8  UNL     1     -34.745  15.932  -1.971  1.00 20.00     0.364 C 
ENDROOT
BRANCH   3   4
HETATM    4  N9  UNL     1     -34.420  16.013  -3.393  1.00 20.00     0.099 N 
HETATM    5  C6  UNL     1     -35.551  15.620  -4.244  1.00 20.00     0.273 C 
HETATM    6  C4  UNL     1     -35.825  14.113  -4.266  1.00 20.00     0.030 C 
HETATM    7  C3  UNL     1     -34.569  13.327  -4.624  1.00 20.00     0.003 C 
HETATM    8  C5  UNL     1     -33.399  13.736  -3.734  1.00 20.00     0.030 C 
HETATM    9  C7  UNL     1     -33.209  15.255  -3.732  1.00 20.00     0.273 C 
ENDBRANCH   3   4
TORSDOF 1
ENDMDL
MODEL 4
REMARK VINA RESULT:      -3.9     12.051     13.069
REMARK  1 active torsions:
REMARK  status: ('A' for Active; 'I' for Inactive)
REMARK    1  A    between atoms: C8_8  and  N9_9 
ROOT
HETATM    1  C1  UNL     1     -35.518  14.435  -7.830  1.00 20.00     0.013 C 
HETATM    2  C2  UNL     1     -34.918  14.922  -6.911  1.00 20.00    -0.087 C 
HETATM    3  C8  UNL     1     -34.185  15.522  -5.793  1.00 20.00     0.364 C 
ENDROOT
BRANCH   3   4
HETATM    4  N9  UNL     1     -34.048  14.567  -4.696  1.00 20.00     0.099 N 
HETATM    5  C6  UNL     1     -35.341  14.239  -4.080  1.00 20.00     0.273 C 
HETATM    6  C4  UNL     1     -35.918  15.354  -3.202  1.00 20.00     0.030 C 
HETATM    7  C3  UNL     1     -34.909  15.810  -2.153  1.00 20.00     0.003 C 
HETATM    8  C5  UNL     1     -33.570  16.153  -2.799  1.00 20.00     0.030 C 
HETATM    9  C7  UNL     1     -33.075  15.010  -3.690  1.00 20.00     0.273 C 
ENDBRANCH   3   4
TORSDOF 1
ENDMDL
MODEL 5
REMARK VINA RESULT:      -3.9      8.964     10.570
REMARK  1 active torsions:
REMARK  status: ('A' for Active; 'I' for Inactive)
REMARK    1  A    between atoms: C8_8  and  N9_9 
ROOT
HETATM    1  C1  UNL     1     -42.149   1.761  -3.579  1.00 20.00     0.013 C 
HETATM    2  C2  UNL     1     -41.683   2.673  -2.954  1.00 20.00    -0.087 C 
HETATM    3  C8  UNL     1     -41.108   3.787  -2.194  1.00 20.00     0.364 C 
ENDROOT
BRANCH   3   4
HETATM    4  N9  UNL     1     -42.151   4.501  -1.460  1.00 20.00     0.099 N 
HETATM    5  C6  UNL     1     -42.686   5.638  -2.221  1.00 20.00     0.273 C 
HETATM    6  C4  UNL     1     -41.742   6.841  -2.298  1.00 20.00     0.030 C 
HETATM    7  C3  UNL     1     -41.285   7.276  -0.909  1.00 20.00     0.003 C 
HETATM    8  C5  UNL     1     -40.727   6.093  -0.126  1.00 20.00     0.030 C 
HETATM    9  C7  UNL     1     -41.706   4.916  -0.124  1.00 20.00     0.273 C 
ENDBRANCH   3   4
TORSDOF 1
ENDMDL
MODEL 6
REMARK VINA RESULT:      -3.7     11.714     13.514
REMARK  1 active torsions:
REMARK  status: ('A' for Active; 'I' for Inactive)
REMARK    1  A    between atoms: C8_8  and  N9_9 
ROOT
HETATM    1  C1  UNL     1     -33.897  18.933  -6.200  1.00 20.00     0.013 C 
HETATM    2  C2  UNL     1     -33.636  17.911  -5.627  1.00 20.00    -0.087 C 
HETATM    3  C8  UNL     1     -33.310  16.665  -4.928  1.00 20.00     0.364 C 
ENDROOT
BRANCH   3   4
HETATM    4  N9  UNL     1     -34.503  16.100  -4.301  1.00 20.00     0.099 N 
HETATM    5  C6  UNL     1     -34.172  15.124  -3.255  1.00 20.00     0.273 C 
HETATM    6  C4  UNL     1     -33.664  13.781  -3.789  1.00 20.00     0.030 C 
HETATM    7  C3  UNL     1     -34.634  13.188  -4.806  1.00 20.00     0.003 C 
HETATM    8  C5  UNL     1     -34.970  14.204  -5.892  1.00 20.00     0.030 C 
HETATM    9  C7  UNL     1     -35.433  15.532  -5.286  1.00 20.00     0.273 C 
ENDBRANCH   3   4
TORSDOF 1
ENDMDL
MODEL 7
REMARK VINA RESULT:      -3.7     12.353     13.543
REMARK  1 active torsions:
REMARK  status: ('A' for Active; 'I' for Inactive)
REMARK    1  A    between atoms: C8_8  and  N9_9 
ROOT
HETATM    1  C1  UNL     1     -34.374  15.236  -7.119  1.00 20.00     0.013 C 
HETATM    2  C2  UNL     1     -33.945  15.808  -6.154  1.00 20.00    -0.087 C 
HETATM    3  C8  UNL     1     -33.416  16.506  -4.979  1.00 20.00     0.364 C 
ENDROOT
BRANCH   3   4
HETATM    4  N9  UNL     1     -34.475  17.252  -4.303  1.00 20.00     0.099 N 
HETATM    5  C6  UNL     1     -33.964  18.047  -3.179  1.00 20.00     0.273 C 
HETATM    6  C4  UNL     1     -33.588  17.220  -1.946  1.00 20.00     0.030 C 
HETATM    7  C3  UNL     1     -34.742  16.326  -1.506  1.00 20.00     0.003 C 
HETATM    8  C5  UNL     1     -35.266  15.500  -2.676  1.00 20.00     0.030 C 
HETATM    9  C7  UNL     1     -35.584  16.386  -3.883  1.00 20.00     0.273 C 
ENDBRANCH   3   4
TORSDOF 1
ENDMDL
MODEL 8
REMARK VINA RESULT:      -3.6     11.559     13.305
REMARK  1 active torsions:
REMARK  status: ('A' for Active; 'I' for Inactive)
REMARK    1  A    between atoms: C8_8  and  N9_9 
ROOT
HETATM    1  C1  UNL     1     -36.802  15.292  -7.918  1.00 20.00     0.013 C 
HETATM    2  C2  UNL     1     -36.020  14.779  -7.166  1.00 20.00    -0.087 C 
HETATM    3  C8  UNL     1     -35.061  14.149  -6.254  1.00 20.00     0.364 C 
ENDROOT
BRANCH   3   4
HETATM    4  N9  UNL     1     -35.313  14.565  -4.876  1.00 20.00     0.099 N 
HETATM    5  C6  UNL     1     -34.870  15.942  -4.620  1.00 20.00     0.273 C 
HETATM    6  C4  UNL     1     -33.350  16.102  -4.522  1.00 20.00     0.030 C 
HETATM    7  C3  UNL     1     -32.756  15.135  -3.502  1.00 20.00     0.003 C 
HETATM    8  C5  UNL     1     -33.217  13.708  -3.775  1.00 20.00     0.030 C 
HETATM    9  C7  UNL     1     -34.741  13.630  -3.899  1.00 20.00     0.273 C 
ENDBRANCH   3   4
TORSDOF 1
ENDMDL
MODEL 9
REMARK VINA RESULT:      -3.6     12.430     13.477
REMARK  1 active torsions:
REMARK  status: ('A' for Active; 'I' for Inactive)
REMARK    1  A    between atoms: C8_8  and  N9_9 
ROOT
HETATM    1  C1  UNL     1     -35.419  14.567  -7.918  1.00 20.00     0.013 C 
HETATM    2  C2  UNL     1     -34.860  14.780  -6.877  1.00 20.00    -0.087 C 
HETATM    3  C8  UNL     1     -34.172  15.034  -5.608  1.00 20.00     0.364 C 
ENDROOT
BRANCH   3   4
HETATM    4  N9  UNL     1     -34.606  16.306  -5.034  1.00 20.00     0.099 N 
HETATM    5  C6  UNL     1     -33.629  16.847  -4.080  1.00 20.00     0.273 C 
HETATM    6  C4  UNL     1     -33.592  16.111  -2.737  1.00 20.00     0.030 C 
HETATM    7  C3  UNL     1     -34.981  16.027  -2.113  1.00 20.00     0.003 C 
HETATM    8  C5  UNL     1     -35.990  15.461  -3.108  1.00 20.00     0.030 C 
HETATM    9  C7  UNL     1     -35.944  16.220  -4.437  1.00 20.00     0.273 C 
ENDBRANCH   3   4
TORSDOF 1
ENDMDL
