MODEL 1
REMARK VINA RESULT:      -4.6      0.000      0.000
REMARK  1 active torsions:
REMARK  status: ('A' for Active; 'I' for Inactive)
REMARK    1  A    between atoms: C9_9  and  N11_11 
ROOT
HETATM    1  C1  UNL     1     -34.875  13.709  -4.993  1.00 20.00     0.102 C 
HETATM    2  C2  UNL     1     -35.395  15.393  -7.464  1.00 20.00     0.007 C 
HETATM    3  C5  UNL     1     -34.153  15.592  -6.568  1.00 20.00     0.058 C 
HETATM    4  C6  UNL     1     -36.260  15.495  -6.187  1.00 20.00     0.058 C 
HETATM    5  C9  UNL     1     -35.005  15.090  -5.381  1.00 20.00     0.246 C 
HETATM    6  N10 UNL     1     -34.770  12.597  -4.681  1.00 20.00    -0.194 NA
ENDROOT
BRANCH   5   7
HETATM    7  N11 UNL     1     -34.843  16.002  -4.243  1.00 20.00     0.112 N 
HETATM    8  C7  UNL     1     -35.755  15.643  -3.155  1.00 20.00     0.275 C 
HETATM    9  C3  UNL     1     -35.147  16.351  -1.954  1.00 20.00     0.032 C 
HETATM   10  C4  UNL     1     -33.668  16.511  -2.291  1.00 20.00     0.032 C 
HETATM   11  C8  UNL     1     -33.503  15.882  -3.667  1.00 20.00     0.275 C 
ENDBRANCH   5   7
TORSDOF 1
ENDMDL
MODEL 2
REMARK VINA RESULT:      -4.4      1.392      3.886
REMARK  1 active torsions:
REMARK  status: ('A' for Active; 'I' for Inactive)
REMARK    1  A    between atoms: C9_9  and  N11_11 
ROOT
HETATM    1  C1  UNL     1     -36.670  14.877  -3.787  1.00 20.00     0.102 C 
HETATM    2  C2  UNL     1     -34.746  16.179  -1.834  1.00 20.00     0.007 C 
HETATM    3  C5  UNL     1     -35.388  16.950  -3.009  1.00 20.00     0.058 C 
HETATM    4  C6  UNL     1     -34.301  15.109  -2.856  1.00 20.00     0.058 C 
HETATM    5  C9  UNL     1     -35.432  15.613  -3.781  1.00 20.00     0.246 C 
HETATM    6  N10 UNL     1     -37.668  14.285  -3.791  1.00 20.00    -0.194 NA
ENDROOT
BRANCH   5   7
HETATM    7  N11 UNL     1     -34.900  15.812  -5.135  1.00 20.00     0.112 N 
HETATM    8  C7  UNL     1     -34.656  14.527  -5.792  1.00 20.00     0.275 C 
HETATM    9  C3  UNL     1     -34.570  14.908  -7.262  1.00 20.00     0.032 C 
HETATM   10  C4  UNL     1     -35.372  16.199  -7.388  1.00 20.00     0.032 C 
HETATM   11  C8  UNL     1     -35.881  16.490  -5.983  1.00 20.00     0.275 C 
ENDBRANCH   5   7
TORSDOF 1
ENDMDL
MODEL 3
REMARK VINA RESULT:      -4.4      0.818      3.763
REMARK  1 active torsions:
REMARK  status: ('A' for Active; 'I' for Inactive)
REMARK    1  A    between atoms: C9_9  and  N11_11 
ROOT
HETATM    1  C1  UNL     1     -34.925  13.940  -4.116  1.00 20.00     0.102 C 
HETATM    2  C2  UNL     1     -34.551  16.009  -1.927  1.00 20.00     0.007 C 
HETATM    3  C5  UNL     1     -35.799  15.976  -2.836  1.00 20.00     0.058 C 
HETATM    4  C6  UNL     1     -33.688  15.984  -3.208  1.00 20.00     0.058 C 
HETATM    5  C9  UNL     1     -34.904  15.370  -3.939  1.00 20.00     0.246 C 
HETATM    6  N10 UNL     1     -34.943  12.789  -4.257  1.00 20.00    -0.194 NA
ENDROOT
BRANCH   5   7
HETATM    7  N11 UNL     1     -35.127  16.086  -5.200  1.00 20.00     0.112 N 
HETATM    8  C7  UNL     1     -34.118  15.716  -6.194  1.00 20.00     0.275 C 
HETATM    9  C3  UNL     1     -34.751  16.161  -7.503  1.00 20.00     0.032 C 
HETATM   10  C4  UNL     1     -36.255  16.153  -7.243  1.00 20.00     0.032 C 
HETATM   11  C8  UNL     1     -36.405  15.700  -5.798  1.00 20.00     0.275 C 
ENDBRANCH   5   7
TORSDOF 1
ENDMDL
MODEL 4
REMARK VINA RESULT:      -4.3      1.876      2.830
REMARK  1 active torsions:
REMARK  status: ('A' for Active; 'I' for Inactive)
REMARK    1  A    between atoms: C9_9  and  N11_11 
ROOT
HETATM    1  C1  UNL     1     -33.753  16.060  -4.602  1.00 20.00     0.102 C 
HETATM    2  C2  UNL     1     -34.814  13.226  -4.824  1.00 20.00     0.007 C 
HETATM    3  C5  UNL     1     -35.743  14.458  -4.743  1.00 20.00     0.058 C 
HETATM    4  C6  UNL     1     -34.101  13.753  -3.559  1.00 20.00     0.058 C 
HETATM    5  C9  UNL     1     -34.641  15.157  -3.916  1.00 20.00     0.246 C 
HETATM    6  N10 UNL     1     -33.039  16.788  -5.155  1.00 20.00    -0.194 NA
ENDROOT
BRANCH   5   7
HETATM    7  N11 UNL     1     -35.238  15.767  -2.723  1.00 20.00     0.112 N 
HETATM    8  C7  UNL     1     -34.200  16.208  -1.790  1.00 20.00     0.275 C 
HETATM    9  C3  UNL     1     -34.942  17.187  -0.893  1.00 20.00     0.032 C 
HETATM   10  C4  UNL     1     -36.109  17.694  -1.734  1.00 20.00     0.032 C 
HETATM   11  C8  UNL     1     -35.972  16.983  -3.073  1.00 20.00     0.275 C 
ENDBRANCH   5   7
TORSDOF 1
ENDMDL
MODEL 5
REMARK VINA RESULT:      -4.2      1.521      1.719
REMARK  1 active torsions:
REMARK  status: ('A' for Active; 'I' for Inactive)
REMARK    1  A    between atoms: C9_9  and  N11_11 
ROOT
HETATM    1  C1  UNL     1     -36.866  14.646  -4.244  1.00 20.00     0.102 C 
HETATM    2  C2  UNL     1     -35.287  14.371  -6.820  1.00 20.00     0.007 C 
HETATM    3  C5  UNL     1     -34.679  14.059  -5.435  1.00 20.00     0.058 C 
HETATM    4  C6  UNL     1     -35.729  15.739  -6.254  1.00 20.00     0.058 C 
HETATM    5  C9  UNL     1     -35.643  15.112  -4.844  1.00 20.00     0.246 C 
HETATM    6  N10 UNL     1     -37.851  14.269  -3.760  1.00 20.00    -0.194 NA
ENDROOT
BRANCH   5   7
HETATM    7  N11 UNL     1     -34.899  16.012  -3.956  1.00 20.00     0.112 N 
HETATM    8  C7  UNL     1     -35.720  17.163  -3.575  1.00 20.00     0.275 C 
HETATM    9  C3  UNL     1     -35.000  17.703  -2.348  1.00 20.00     0.032 C 
HETATM   10  C4  UNL     1     -34.245  16.510  -1.771  1.00 20.00     0.032 C 
HETATM   11  C8  UNL     1     -34.574  15.346  -2.694  1.00 20.00     0.275 C 
ENDBRANCH   5   7
TORSDOF 1
ENDMDL
MODEL 6
REMARK VINA RESULT:      -4.2      1.491      3.603
REMARK  1 active torsions:
REMARK  status: ('A' for Active; 'I' for Inactive)
REMARK    1  A    between atoms: C9_9  and  N11_11 
ROOT
HETATM    1  C1  UNL     1     -34.976  13.738  -4.319  1.00 20.00     0.102 C 
HETATM    2  C2  UNL     1     -33.605  16.084  -2.969  1.00 20.00     0.007 C 
HETATM    3  C5  UNL     1     -34.999  15.576  -2.539  1.00 20.00     0.058 C 
HETATM    4  C6  UNL     1     -34.140  16.151  -4.417  1.00 20.00     0.058 C 
HETATM    5  C9  UNL     1     -35.215  15.122  -4.000  1.00 20.00     0.246 C 
HETATM    6  N10 UNL     1     -34.784  12.623  -4.574  1.00 20.00    -0.194 NA
ENDROOT
BRANCH   5   7
HETATM    7  N11 UNL     1     -36.531  15.578  -4.464  1.00 20.00     0.112 N 
HETATM    8  C7  UNL     1     -36.662  15.399  -5.911  1.00 20.00     0.275 C 
HETATM    9  C3  UNL     1     -38.166  15.471  -6.128  1.00 20.00     0.032 C 
HETATM   10  C4  UNL     1     -38.781  15.055  -4.795  1.00 20.00     0.032 C 
HETATM   11  C8  UNL     1     -37.598  14.762  -3.885  1.00 20.00     0.275 C 
ENDBRANCH   5   7
TORSDOF 1
ENDMDL
MODEL 7
REMARK VINA RESULT:      -4.1      1.762      4.032
REMARK  1 active torsions:
REMARK  status: ('A' for Active; 'I' for Inactive)
REMARK    1  A    between atoms: C9_9  and  N11_11 
ROOT
HETATM    1  C1  UNL     1     -33.347  15.496  -3.265  1.00 20.00     0.102 C 
HETATM    2  C2  UNL     1     -33.646  17.584  -1.083  1.00 20.00     0.007 C 
HETATM    3  C5  UNL     1     -34.622  16.397  -1.238  1.00 20.00     0.058 C 
HETATM    4  C6  UNL     1     -33.882  17.898  -2.577  1.00 20.00     0.058 C 
HETATM    5  C9  UNL     1     -34.320  16.426  -2.753  1.00 20.00     0.246 C 
HETATM    6  N10 UNL     1     -32.564  14.746  -3.676  1.00 20.00    -0.194 NA
ENDROOT
BRANCH   5   7
HETATM    7  N11 UNL     1     -35.579  16.380  -3.505  1.00 20.00     0.112 N 
HETATM    8  C7  UNL     1     -35.343  16.613  -4.930  1.00 20.00     0.275 C 
HETATM    9  C3  UNL     1     -36.614  16.083  -5.577  1.00 20.00     0.032 C 
HETATM   10  C4  UNL     1     -37.164  15.056  -4.592  1.00 20.00     0.032 C 
HETATM   11  C8  UNL     1     -36.177  15.046  -3.434  1.00 20.00     0.275 C 
ENDBRANCH   5   7
TORSDOF 1
ENDMDL
MODEL 8
REMARK VINA RESULT:      -4.0      2.195      4.160
REMARK  1 active torsions:
REMARK  status: ('A' for Active; 'I' for Inactive)
REMARK    1  A    between atoms: C9_9  and  N11_11 
ROOT
HETATM    1  C1  UNL     1     -33.929  17.542  -3.784  1.00 20.00     0.102 C 
HETATM    2  C2  UNL     1     -34.888  18.121  -0.964  1.00 20.00     0.007 C 
HETATM    3  C5  UNL     1     -33.713  17.164  -1.263  1.00 20.00     0.058 C 
HETATM    4  C6  UNL     1     -35.727  17.316  -1.981  1.00 20.00     0.058 C 
HETATM    5  C9  UNL     1     -34.395  16.847  -2.612  1.00 20.00     0.246 C 
HETATM    6  N10 UNL     1     -33.553  18.102  -4.728  1.00 20.00    -0.194 NA
ENDROOT
BRANCH   5   7
HETATM    7  N11 UNL     1     -34.437  15.394  -2.810  1.00 20.00     0.112 N 
HETATM    8  C7  UNL     1     -35.526  15.022  -3.715  1.00 20.00     0.275 C 
HETATM    9  C3  UNL     1     -35.138  13.619  -4.156  1.00 20.00     0.032 C 
HETATM   10  C4  UNL     1     -33.623  13.553  -3.993  1.00 20.00     0.032 C 
HETATM   11  C8  UNL     1     -33.219  14.925  -3.472  1.00 20.00     0.275 C 
ENDBRANCH   5   7
TORSDOF 1
ENDMDL
MODEL 9
REMARK VINA RESULT:      -4.0      1.757      3.743
REMARK  1 active torsions:
REMARK  status: ('A' for Active; 'I' for Inactive)
REMARK    1  A    between atoms: C9_9  and  N11_11 
ROOT
HETATM    1  C1  UNL     1     -36.688  14.466  -4.139  1.00 20.00     0.102 C 
HETATM    2  C2  UNL     1     -33.858  13.632  -3.429  1.00 20.00     0.007 C 
HETATM    3  C5  UNL     1     -34.261  15.107  -3.644  1.00 20.00     0.058 C 
HETATM    4  C6  UNL     1     -34.502  13.317  -4.797  1.00 20.00     0.058 C 
HETATM    5  C9  UNL     1     -35.340  14.604  -4.628  1.00 20.00     0.246 C 
HETATM    6  N10 UNL     1     -37.773  14.355  -3.744  1.00 20.00    -0.194 NA
ENDROOT
BRANCH   5   7
HETATM    7  N11 UNL     1     -35.279  15.390  -5.866  1.00 20.00     0.112 N 
HETATM    8  C7  UNL     1     -36.078  14.763  -6.920  1.00 20.00     0.275 C 
HETATM    9  C3  UNL     1     -36.275  15.896  -7.917  1.00 20.00     0.032 C 
HETATM   10  C4  UNL     1     -36.140  17.176  -7.098  1.00 20.00     0.032 C 
HETATM   11  C8  UNL     1     -35.878  16.711  -5.673  1.00 20.00     0.275 C 
ENDBRANCH   5   7
TORSDOF 1
ENDMDL
