MODEL 1
REMARK VINA RESULT:      -4.7      0.000      0.000
REMARK  2 active torsions:
REMARK  status: ('A' for Active; 'I' for Inactive)
REMARK    1  A    between atoms: C8_8  and  C9_9 
REMARK    2  A    between atoms: C9_9  and  N11_11 
ROOT
HETATM    1  C1  UNL     1     -35.577  14.698  -7.161  1.00 20.00     0.064 C 
HETATM    2  C2  UNL     1     -34.735  13.720  -5.057  1.00 20.00     0.047 C 
HETATM    3  C3  UNL     1     -34.224  16.117  -5.661  1.00 20.00     0.047 C 
HETATM    4  C4  UNL     1     -33.638  13.760  -4.001  1.00 20.00     0.236 C 
HETATM    5  C5  UNL     1     -33.130  16.142  -4.602  1.00 20.00     0.236 C 
HETATM    6  C6  UNL     1     -34.462  14.702  -6.200  1.00 20.00     0.096 C 
HETATM    7  N10 UNL     1     -36.456  14.695  -7.918  1.00 20.00    -0.197 NA
HETATM    8  N11 UNL     1     -33.430  15.165  -3.492  1.00 20.00    -0.071 N 
HETATM    9  H28 UNL     1     -32.546  15.124  -2.906  1.00 20.00     0.279 HD
ENDROOT
BRANCH   8  10
HETATM   10  C9  UNL     1     -34.503  15.631  -2.547  1.00 20.00     0.234 C 
BRANCH  10  11
HETATM   11  C8  UNL     1     -33.977  16.808  -1.739  1.00 20.00     0.023 C 
HETATM   12  C7  UNL     1     -34.699  16.926  -0.406  1.00 20.00     0.007 C 
ENDBRANCH  10  11
ENDBRANCH   8  10
TORSDOF 2
ENDMDL
MODEL 2
REMARK VINA RESULT:      -4.3      2.001      2.853
REMARK  2 active torsions:
REMARK  status: ('A' for Active; 'I' for Inactive)
REMARK    1  A    between atoms: C8_8  and  C9_9 
REMARK    2  A    between atoms: C9_9  and  N11_11 
ROOT
HETATM    1  C1  UNL     1     -34.811  13.772  -4.601  1.00 20.00     0.064 C 
HETATM    2  C2  UNL     1     -33.561  15.843  -4.109  1.00 20.00     0.047 C 
HETATM    3  C3  UNL     1     -35.823  15.424  -3.071  1.00 20.00     0.047 C 
HETATM    4  C4  UNL     1     -33.663  17.312  -3.721  1.00 20.00     0.236 C 
HETATM    5  C5  UNL     1     -35.912  16.896  -2.689  1.00 20.00     0.236 C 
HETATM    6  C6  UNL     1     -34.941  15.209  -4.306  1.00 20.00     0.096 C 
HETATM    7  N10 UNL     1     -34.708  12.640  -4.832  1.00 20.00    -0.197 NA
HETATM    8  N11 UNL     1     -34.537  17.489  -2.503  1.00 20.00    -0.071 N 
HETATM    9  H28 UNL     1     -34.691  18.536  -2.417  1.00 20.00     0.279 HD
ENDROOT
BRANCH   8  10
HETATM   10  C9  UNL     1     -33.871  17.086  -1.216  1.00 20.00     0.234 C 
BRANCH  10  11
HETATM   11  C8  UNL     1     -34.844  17.295  -0.067  1.00 20.00     0.023 C 
HETATM   12  C7  UNL     1     -34.242  18.188   1.007  1.00 20.00     0.007 C 
ENDBRANCH  10  11
ENDBRANCH   8  10
TORSDOF 2
ENDMDL
MODEL 3
REMARK VINA RESULT:      -4.2      1.648      4.981
REMARK  2 active torsions:
REMARK  status: ('A' for Active; 'I' for Inactive)
REMARK    1  A    between atoms: C8_8  and  C9_9 
REMARK    2  A    between atoms: C9_9  and  N11_11 
ROOT
HETATM    1  C1  UNL     1     -34.377  16.612  -1.246  1.00 20.00     0.064 C 
HETATM    2  C2  UNL     1     -33.813  17.318  -3.543  1.00 20.00     0.047 C 
HETATM    3  C3  UNL     1     -34.629  14.975  -3.077  1.00 20.00     0.047 C 
HETATM    4  C4  UNL     1     -33.326  16.868  -4.914  1.00 20.00     0.236 C 
HETATM    5  C5  UNL     1     -34.136  14.539  -4.451  1.00 20.00     0.236 C 
HETATM    6  C6  UNL     1     -33.827  16.164  -2.536  1.00 20.00     0.096 C 
HETATM    7  N10 UNL     1     -34.812  16.965  -0.230  1.00 20.00    -0.197 NA
HETATM    8  N11 UNL     1     -34.136  15.698  -5.417  1.00 20.00    -0.071 N 
HETATM    9  H28 UNL     1     -33.620  15.347  -6.277  1.00 20.00     0.279 HD
ENDROOT
BRANCH   8  10
HETATM   10  C9  UNL     1     -35.505  16.076  -5.911  1.00 20.00     0.234 C 
BRANCH  10  11
HETATM   11  C8  UNL     1     -36.151  14.864  -6.562  1.00 20.00     0.023 C 
HETATM   12  C7  UNL     1     -35.529  14.570  -7.918  1.00 20.00     0.007 C 
ENDBRANCH  10  11
ENDBRANCH   8  10
TORSDOF 2
ENDMDL
MODEL 4
REMARK VINA RESULT:      -4.1      2.296      2.572
REMARK  2 active torsions:
REMARK  status: ('A' for Active; 'I' for Inactive)
REMARK    1  A    between atoms: C8_8  and  C9_9 
REMARK    2  A    between atoms: C9_9  and  N11_11 
ROOT
HETATM    1  C1  UNL     1     -37.177  14.759  -3.989  1.00 20.00     0.064 C 
HETATM    2  C2  UNL     1     -34.971  15.159  -2.957  1.00 20.00     0.047 C 
HETATM    3  C3  UNL     1     -35.986  16.853  -4.530  1.00 20.00     0.047 C 
HETATM    4  C4  UNL     1     -33.618  15.845  -3.104  1.00 20.00     0.236 C 
HETATM    5  C5  UNL     1     -34.627  17.527  -4.667  1.00 20.00     0.236 C 
HETATM    6  C6  UNL     1     -35.850  15.363  -4.194  1.00 20.00     0.096 C 
HETATM    7  N10 UNL     1     -38.222  14.283  -3.827  1.00 20.00    -0.197 NA
HETATM    8  N11 UNL     1     -33.788  17.308  -3.433  1.00 20.00    -0.071 N 
HETATM    9  H28 UNL     1     -32.817  17.653  -3.687  1.00 20.00     0.279 HD
ENDROOT
BRANCH   8  10
HETATM   10  C9  UNL     1     -34.205  18.149  -2.258  1.00 20.00     0.234 C 
BRANCH  10  11
HETATM   11  C8  UNL     1     -33.594  17.572  -0.991  1.00 20.00     0.023 C 
HETATM   12  C7  UNL     1     -34.650  17.360   0.082  1.00 20.00     0.007 C 
ENDBRANCH  10  11
ENDBRANCH   8  10
TORSDOF 2
ENDMDL
MODEL 5
REMARK VINA RESULT:      -4.0      2.275      3.354
REMARK  2 active torsions:
REMARK  status: ('A' for Active; 'I' for Inactive)
REMARK    1  A    between atoms: C8_8  and  C9_9 
REMARK    2  A    between atoms: C9_9  and  N11_11 
ROOT
HETATM    1  C1  UNL     1     -37.074  14.448  -4.019  1.00 20.00     0.064 C 
HETATM    2  C2  UNL     1     -34.738  14.996  -3.443  1.00 20.00     0.047 C 
HETATM    3  C3  UNL     1     -35.621  15.398  -5.773  1.00 20.00     0.047 C 
HETATM    4  C4  UNL     1     -33.314  15.143  -3.965  1.00 20.00     0.236 C 
HETATM    5  C5  UNL     1     -34.192  15.542  -6.281  1.00 20.00     0.236 C 
HETATM    6  C6  UNL     1     -35.695  14.503  -4.532  1.00 20.00     0.096 C 
HETATM    7  N10 UNL     1     -38.161  14.406  -3.615  1.00 20.00    -0.197 NA
HETATM    8  N11 UNL     1     -33.276  16.030  -5.185  1.00 20.00    -0.071 N 
HETATM    9  H28 UNL     1     -32.293  15.930  -5.574  1.00 20.00     0.279 HD
ENDROOT
BRANCH   8  10
HETATM   10  C9  UNL     1     -33.426  17.494  -4.875  1.00 20.00     0.234 C 
BRANCH  10  11
HETATM   11  C8  UNL     1     -33.648  18.256  -6.172  1.00 20.00     0.023 C 
HETATM   12  C7  UNL     1     -34.781  19.261  -6.032  1.00 20.00     0.007 C 
ENDBRANCH  10  11
ENDBRANCH   8  10
TORSDOF 2
ENDMDL
MODEL 6
REMARK VINA RESULT:      -4.0      1.756      4.678
REMARK  2 active torsions:
REMARK  status: ('A' for Active; 'I' for Inactive)
REMARK    1  A    between atoms: C8_8  and  C9_9 
REMARK    2  A    between atoms: C9_9  and  N11_11 
ROOT
HETATM    1  C1  UNL     1     -34.483  16.190  -1.996  1.00 20.00     0.064 C 
HETATM    2  C2  UNL     1     -34.137  14.312  -3.559  1.00 20.00     0.047 C 
HETATM    3  C3  UNL     1     -35.786  16.148  -4.093  1.00 20.00     0.047 C 
HETATM    4  C4  UNL     1     -34.766  13.443  -4.642  1.00 20.00     0.236 C 
HETATM    5  C5  UNL     1     -36.404  15.268  -5.172  1.00 20.00     0.236 C 
HETATM    6  C6  UNL     1     -35.141  15.314  -2.980  1.00 20.00     0.096 C 
HETATM    7  N10 UNL     1     -33.965  16.881  -1.221  1.00 20.00    -0.197 NA
HETATM    8  N11 UNL     1     -35.391  14.293  -5.720  1.00 20.00    -0.071 N 
HETATM    9  H28 UNL     1     -35.946  13.619  -6.324  1.00 20.00     0.279 HD
ENDROOT
BRANCH   8  10
HETATM   10  C9  UNL     1     -34.391  14.919  -6.654  1.00 20.00     0.234 C 
BRANCH  10  11
HETATM   11  C8  UNL     1     -35.134  15.634  -7.771  1.00 20.00     0.023 C 
HETATM   12  C7  UNL     1     -34.678  17.080  -7.897  1.00 20.00     0.007 C 
ENDBRANCH  10  11
ENDBRANCH   8  10
TORSDOF 2
ENDMDL
MODEL 7
REMARK VINA RESULT:      -4.0      2.130      2.926
REMARK  2 active torsions:
REMARK  status: ('A' for Active; 'I' for Inactive)
REMARK    1  A    between atoms: C8_8  and  C9_9 
REMARK    2  A    between atoms: C9_9  and  N11_11 
ROOT
HETATM    1  C1  UNL     1     -34.411  13.663  -4.314  1.00 20.00     0.064 C 
HETATM    2  C2  UNL     1     -34.397  15.534  -2.705  1.00 20.00     0.047 C 
HETATM    3  C3  UNL     1     -33.968  15.940  -5.159  1.00 20.00     0.047 C 
HETATM    4  C4  UNL     1     -33.842  16.917  -2.387  1.00 20.00     0.236 C 
HETATM    5  C5  UNL     1     -33.414  17.319  -4.826  1.00 20.00     0.236 C 
HETATM    6  C6  UNL     1     -33.796  14.961  -3.992  1.00 20.00     0.096 C 
HETATM    7  N10 UNL     1     -34.896  12.640  -4.568  1.00 20.00    -0.197 NA
HETATM    8  N11 UNL     1     -34.026  17.854  -3.555  1.00 20.00    -0.071 N 
HETATM    9  H28 UNL     1     -33.462  18.720  -3.313  1.00 20.00     0.279 HD
ENDROOT
BRANCH   8  10
HETATM   10  C9  UNL     1     -35.439  18.344  -3.721  1.00 20.00     0.234 C 
BRANCH  10  11
HETATM   11  C8  UNL     1     -35.937  18.885  -2.391  1.00 20.00     0.023 C 
HETATM   12  C7  UNL     1     -37.285  18.284  -2.023  1.00 20.00     0.007 C 
ENDBRANCH  10  11
ENDBRANCH   8  10
TORSDOF 2
ENDMDL
MODEL 8
REMARK VINA RESULT:      -4.0      1.450      1.562
REMARK  2 active torsions:
REMARK  status: ('A' for Active; 'I' for Inactive)
REMARK    1  A    between atoms: C8_8  and  C9_9 
REMARK    2  A    between atoms: C9_9  and  N11_11 
ROOT
HETATM    1  C1  UNL     1     -34.820  16.372  -6.968  1.00 20.00     0.064 C 
HETATM    2  C2  UNL     1     -35.853  15.310  -4.994  1.00 20.00     0.047 C 
HETATM    3  C3  UNL     1     -33.519  16.264  -4.872  1.00 20.00     0.047 C 
HETATM    4  C4  UNL     1     -35.602  14.551  -3.697  1.00 20.00     0.236 C 
HETATM    5  C5  UNL     1     -33.282  15.498  -3.577  1.00 20.00     0.236 C 
HETATM    6  C6  UNL     1     -34.554  15.568  -5.763  1.00 20.00     0.096 C 
HETATM    7  N10 UNL     1     -35.029  17.007  -7.916  1.00 20.00    -0.197 NA
HETATM    8  N11 UNL     1     -34.580  15.261  -2.844  1.00 20.00    -0.071 N 
HETATM    9  H28 UNL     1     -34.343  14.582  -2.064  1.00 20.00     0.279 HD
ENDROOT
BRANCH   8  10
HETATM   10  C9  UNL     1     -35.115  16.482  -2.149  1.00 20.00     0.234 C 
BRANCH  10  11
HETATM   11  C8  UNL     1     -34.162  16.877  -1.033  1.00 20.00     0.023 C 
HETATM   12  C7  UNL     1     -34.919  17.247   0.233  1.00 20.00     0.007 C 
ENDBRANCH  10  11
ENDBRANCH   8  10
TORSDOF 2
ENDMDL
MODEL 9
REMARK VINA RESULT:      -3.9      2.255      3.467
REMARK  2 active torsions:
REMARK  status: ('A' for Active; 'I' for Inactive)
REMARK    1  A    between atoms: C8_8  and  C9_9 
REMARK    2  A    between atoms: C9_9  and  N11_11 
ROOT
HETATM    1  C1  UNL     1     -34.395  13.661  -4.291  1.00 20.00     0.064 C 
HETATM    2  C2  UNL     1     -34.402  15.555  -2.708  1.00 20.00     0.047 C 
HETATM    3  C3  UNL     1     -33.963  15.929  -5.166  1.00 20.00     0.047 C 
HETATM    4  C4  UNL     1     -33.858  16.945  -2.407  1.00 20.00     0.236 C 
HETATM    5  C5  UNL     1     -33.421  17.317  -4.850  1.00 20.00     0.236 C 
HETATM    6  C6  UNL     1     -33.791  14.968  -3.984  1.00 20.00     0.096 C 
HETATM    7  N10 UNL     1     -34.872  12.632  -4.534  1.00 20.00    -0.197 NA
HETATM    8  N11 UNL     1     -34.043  17.865  -3.589  1.00 20.00    -0.071 N 
HETATM    9  H28 UNL     1     -33.485  18.738  -3.356  1.00 20.00     0.279 HD
ENDROOT
BRANCH   8  10
HETATM   10  C9  UNL     1     -35.458  18.343  -3.769  1.00 20.00     0.234 C 
BRANCH  10  11
HETATM   11  C8  UNL     1     -35.522  19.263  -4.977  1.00 20.00     0.023 C 
HETATM   12  C7  UNL     1     -36.642  18.854  -5.921  1.00 20.00     0.007 C 
ENDBRANCH  10  11
ENDBRANCH   8  10
TORSDOF 2
ENDMDL
