MODEL 1
REMARK VINA RESULT:      -4.0      0.000      0.000
REMARK  2 active torsions:
REMARK  status: ('A' for Active; 'I' for Inactive)
REMARK    1  A    between atoms: C1_1  and  O6_6 
REMARK    2  A    between atoms: C4_4  and  O6_6 
ROOT
HETATM    1  O6  UNL     1     -33.706   6.735   3.843  1.00 20.00    -0.301 OA
ENDROOT
BRANCH   1   2
HETATM    2  C1  UNL     1     -32.555   6.599   3.124  1.00 20.00     0.256 C 
HETATM    3  C2  UNL     1     -32.221   7.906   2.469  1.00 20.00     0.126 C 
HETATM    4  O5  UNL     1     -31.881   5.586   3.010  1.00 20.00    -0.266 OA
ENDBRANCH   1   2
BRANCH   1   5
HETATM    5  C4  UNL     1     -33.984   5.727   4.829  1.00 20.00     0.223 C 
HETATM    6  C3  UNL     1     -35.304   5.040   4.518  1.00 20.00     0.057 C 
HETATM    7 CL7  UNL     1     -34.090   6.533   6.417  1.00 20.00    -0.095 Cl
ENDBRANCH   1   5
TORSDOF 2
ENDMDL
MODEL 2
REMARK VINA RESULT:      -3.9      2.171      3.644
REMARK  2 active torsions:
REMARK  status: ('A' for Active; 'I' for Inactive)
REMARK    1  A    between atoms: C1_1  and  O6_6 
REMARK    2  A    between atoms: C4_4  and  O6_6 
ROOT
HETATM    1  O6  UNL     1     -34.147   6.644   4.587  1.00 20.00    -0.301 OA
ENDROOT
BRANCH   1   2
HETATM    2  C1  UNL     1     -34.077   6.313   5.908  1.00 20.00     0.256 C 
HETATM    3  C2  UNL     1     -34.741   4.986   6.124  1.00 20.00     0.126 C 
HETATM    4  O5  UNL     1     -33.563   6.973   6.799  1.00 20.00    -0.266 OA
ENDBRANCH   1   2
BRANCH   1   5
HETATM    5  C4  UNL     1     -33.218   5.997   3.700  1.00 20.00     0.223 C 
HETATM    6  C3  UNL     1     -32.309   7.029   3.051  1.00 20.00     0.057 C 
HETATM    7 CL7  UNL     1     -34.163   5.156   2.442  1.00 20.00    -0.095 Cl
ENDBRANCH   1   5
TORSDOF 2
ENDMDL
MODEL 3
REMARK VINA RESULT:      -3.9      1.602      1.883
REMARK  2 active torsions:
REMARK  status: ('A' for Active; 'I' for Inactive)
REMARK    1  A    between atoms: C1_1  and  O6_6 
REMARK    2  A    between atoms: C4_4  and  O6_6 
ROOT
HETATM    1  O6  UNL     1     -33.213   5.658   4.565  1.00 20.00    -0.301 OA
ENDROOT
BRANCH   1   2
HETATM    2  C1  UNL     1     -33.357   5.938   3.239  1.00 20.00     0.256 C 
HETATM    3  C2  UNL     1     -32.416   7.041   2.858  1.00 20.00     0.126 C 
HETATM    4  O5  UNL     1     -34.124   5.394   2.457  1.00 20.00    -0.266 OA
ENDBRANCH   1   2
BRANCH   1   5
HETATM    5  C4  UNL     1     -34.365   5.854   5.404  1.00 20.00     0.223 C 
HETATM    6  C3  UNL     1     -33.993   6.693   6.616  1.00 20.00     0.057 C 
HETATM    7 CL7  UNL     1     -34.928   4.247   5.939  1.00 20.00    -0.095 Cl
ENDBRANCH   1   5
TORSDOF 2
ENDMDL
MODEL 4
REMARK VINA RESULT:      -3.7      2.291      3.556
REMARK  2 active torsions:
REMARK  status: ('A' for Active; 'I' for Inactive)
REMARK    1  A    between atoms: C1_1  and  O6_6 
REMARK    2  A    between atoms: C4_4  and  O6_6 
ROOT
HETATM    1  O6  UNL     1     -33.391   5.561   4.881  1.00 20.00    -0.301 OA
ENDROOT
BRANCH   1   2
HETATM    2  C1  UNL     1     -34.172   5.788   5.976  1.00 20.00     0.256 C 
HETATM    3  C2  UNL     1     -35.067   4.608   6.202  1.00 20.00     0.126 C 
HETATM    4  O5  UNL     1     -34.166   6.787   6.681  1.00 20.00    -0.266 OA
ENDBRANCH   1   2
BRANCH   1   5
HETATM    5  C4  UNL     1     -33.690   6.318   3.696  1.00 20.00     0.223 C 
HETATM    6  C3  UNL     1     -34.338   5.422   2.653  1.00 20.00     0.057 C 
HETATM    7 CL7  UNL     1     -32.153   6.962   3.059  1.00 20.00    -0.095 Cl
ENDBRANCH   1   5
TORSDOF 2
ENDMDL
MODEL 5
REMARK VINA RESULT:      -3.5     11.111     11.718
REMARK  2 active torsions:
REMARK  status: ('A' for Active; 'I' for Inactive)
REMARK    1  A    between atoms: C1_1  and  O6_6 
REMARK    2  A    between atoms: C4_4  and  O6_6 
ROOT
HETATM    1  O6  UNL     1     -34.372  14.302  -3.218  1.00 20.00    -0.301 OA
ENDROOT
BRANCH   1   2
HETATM    2  C1  UNL     1     -35.163  13.611  -4.088  1.00 20.00     0.256 C 
HETATM    3  C2  UNL     1     -36.501  14.280  -4.183  1.00 20.00     0.126 C 
HETATM    4  O5  UNL     1     -34.858  12.602  -4.707  1.00 20.00    -0.266 OA
ENDBRANCH   1   2
BRANCH   1   5
HETATM    5  C4  UNL     1     -34.542  15.729  -3.170  1.00 20.00     0.223 C 
HETATM    6  C3  UNL     1     -33.417  16.415  -3.929  1.00 20.00     0.057 C 
HETATM    7 CL7  UNL     1     -34.498  16.226  -1.457  1.00 20.00    -0.095 Cl
ENDBRANCH   1   5
TORSDOF 2
ENDMDL
MODEL 6
REMARK VINA RESULT:      -3.5     11.257     11.656
REMARK  2 active torsions:
REMARK  status: ('A' for Active; 'I' for Inactive)
REMARK    1  A    between atoms: C1_1  and  O6_6 
REMARK    2  A    between atoms: C4_4  and  O6_6 
ROOT
HETATM    1  O6  UNL     1     -34.974  14.906  -3.346  1.00 20.00    -0.301 OA
ENDROOT
BRANCH   1   2
HETATM    2  C1  UNL     1     -34.456  13.724  -3.784  1.00 20.00     0.256 C 
HETATM    3  C2  UNL     1     -32.971  13.726  -3.582  1.00 20.00     0.126 C 
HETATM    4  O5  UNL     1     -35.078  12.790  -4.271  1.00 20.00    -0.266 OA
ENDBRANCH   1   2
BRANCH   1   5
HETATM    5  C4  UNL     1     -34.061  15.837  -2.741  1.00 20.00     0.223 C 
HETATM    6  C3  UNL     1     -34.626  16.343  -1.423  1.00 20.00     0.057 C 
HETATM    7 CL7  UNL     1     -33.852  17.206  -3.866  1.00 20.00    -0.095 Cl
ENDBRANCH   1   5
TORSDOF 2
ENDMDL
MODEL 7
REMARK VINA RESULT:      -3.5      2.201      3.534
REMARK  2 active torsions:
REMARK  status: ('A' for Active; 'I' for Inactive)
REMARK    1  A    between atoms: C1_1  and  O6_6 
REMARK    2  A    between atoms: C4_4  and  O6_6 
ROOT
HETATM    1  O6  UNL     1     -34.078   6.627   4.319  1.00 20.00    -0.301 OA
ENDROOT
BRANCH   1   2
HETATM    2  C1  UNL     1     -34.408   5.888   5.417  1.00 20.00     0.256 C 
HETATM    3  C2  UNL     1     -33.952   6.602   6.653  1.00 20.00     0.126 C 
HETATM    4  O5  UNL     1     -34.983   4.809   5.423  1.00 20.00    -0.266 OA
ENDBRANCH   1   2
BRANCH   1   5
HETATM    5  C4  UNL     1     -33.056   6.099   3.458  1.00 20.00     0.223 C 
HETATM    6  C3  UNL     1     -32.280   7.235   2.809  1.00 20.00     0.057 C 
HETATM    7 CL7  UNL     1     -33.856   5.125   2.195  1.00 20.00    -0.095 Cl
ENDBRANCH   1   5
TORSDOF 2
ENDMDL
MODEL 8
REMARK VINA RESULT:      -3.4      1.477      3.416
REMARK  2 active torsions:
REMARK  status: ('A' for Active; 'I' for Inactive)
REMARK    1  A    between atoms: C1_1  and  O6_6 
REMARK    2  A    between atoms: C4_4  and  O6_6 
ROOT
HETATM    1  O6  UNL     1     -33.818   5.308   4.017  1.00 20.00    -0.301 OA
ENDROOT
BRANCH   1   2
HETATM    2  C1  UNL     1     -35.080   4.964   4.400  1.00 20.00     0.256 C 
HETATM    3  C2  UNL     1     -35.007   3.997   5.543  1.00 20.00     0.126 C 
HETATM    4  O5  UNL     1     -36.126   5.363   3.909  1.00 20.00    -0.266 OA
ENDBRANCH   1   2
BRANCH   1   5
HETATM    5  C4  UNL     1     -33.430   6.681   4.196  1.00 20.00     0.223 C 
HETATM    6  C3  UNL     1     -32.082   6.934   3.540  1.00 20.00     0.057 C 
HETATM    7 CL7  UNL     1     -33.309   6.988   5.950  1.00 20.00    -0.095 Cl
ENDBRANCH   1   5
TORSDOF 2
ENDMDL
MODEL 9
REMARK VINA RESULT:      -3.4     11.328     11.883
REMARK  2 active torsions:
REMARK  status: ('A' for Active; 'I' for Inactive)
REMARK    1  A    between atoms: C1_1  and  O6_6 
REMARK    2  A    between atoms: C4_4  and  O6_6 
ROOT
HETATM    1  O6  UNL     1     -35.336  14.736  -4.079  1.00 20.00    -0.301 OA
ENDROOT
BRANCH   1   2
HETATM    2  C1  UNL     1     -35.068  13.755  -4.988  1.00 20.00     0.256 C 
HETATM    3  C2  UNL     1     -35.091  14.338  -6.369  1.00 20.00     0.126 C 
HETATM    4  O5  UNL     1     -34.843  12.578  -4.746  1.00 20.00    -0.266 OA
ENDBRANCH   1   2
BRANCH   1   5
HETATM    5  C4  UNL     1     -34.409  14.891  -2.991  1.00 20.00     0.223 C 
HETATM    6  C3  UNL     1     -34.811  16.075  -2.126  1.00 20.00     0.057 C 
HETATM    7 CL7  UNL     1     -32.794  15.182  -3.690  1.00 20.00    -0.095 Cl
ENDBRANCH   1   5
TORSDOF 2
ENDMDL
