MODEL 1
REMARK VINA RESULT:      -4.1      0.000      0.000
REMARK  2 active torsions:
REMARK  status: ('A' for Active; 'I' for Inactive)
REMARK    1  A    between atoms: C2_2  and  C5_5 
REMARK    2  A    between atoms: C5_5  and  C6_6 
ROOT
HETATM    1  C1  UNL     1     -34.833   4.061   4.913  1.00 20.00     0.206 A 
HETATM    2  C2  UNL     1     -34.353   5.472   4.671  1.00 20.00     0.079 A 
HETATM    3  C3  UNL     1     -34.039   6.354   5.836  1.00 20.00     0.048 C 
HETATM    4  O7  UNL     1     -35.739   5.120   4.569  1.00 20.00    -0.375 OA
ENDROOT
BRANCH   2   5
HETATM    5  C5  UNL     1     -33.710   5.826   3.339  1.00 20.00     0.039 C 
BRANCH   5   6
HETATM    6  C6  UNL     1     -32.369   6.529   3.534  1.00 20.00    -0.002 C 
HETATM    7  C4  UNL     1     -32.185   7.664   2.538  1.00 20.00     0.005 C 
ENDBRANCH   5   6
ENDBRANCH   2   5
TORSDOF 2
ENDMDL
MODEL 2
REMARK VINA RESULT:      -4.0      1.222      1.589
REMARK  2 active torsions:
REMARK  status: ('A' for Active; 'I' for Inactive)
REMARK    1  A    between atoms: C2_2  and  C5_5 
REMARK    2  A    between atoms: C5_5  and  C6_6 
ROOT
HETATM    1  C1  UNL     1     -34.827   5.363   6.360  1.00 20.00     0.206 A 
HETATM    2  C2  UNL     1     -34.429   5.565   4.917  1.00 20.00     0.079 A 
HETATM    3  C3  UNL     1     -35.450   5.391   3.840  1.00 20.00     0.048 C 
HETATM    4  O7  UNL     1     -34.120   4.354   5.622  1.00 20.00    -0.375 OA
ENDROOT
BRANCH   2   5
HETATM    5  C5  UNL     1     -33.210   6.412   4.588  1.00 20.00     0.039 C 
BRANCH   5   6
HETATM    6  C6  UNL     1     -32.797   6.255   3.127  1.00 20.00    -0.002 C 
HETATM    7  C4  UNL     1     -32.161   7.526   2.587  1.00 20.00     0.005 C 
ENDBRANCH   5   6
ENDBRANCH   2   5
TORSDOF 2
ENDMDL
MODEL 3
REMARK VINA RESULT:      -3.8      1.723      3.599
REMARK  2 active torsions:
REMARK  status: ('A' for Active; 'I' for Inactive)
REMARK    1  A    between atoms: C2_2  and  C5_5 
REMARK    2  A    between atoms: C5_5  and  C6_6 
ROOT
HETATM    1  C1  UNL     1     -32.018   6.250   3.252  1.00 20.00     0.206 A 
HETATM    2  C2  UNL     1     -33.487   6.099   3.569  1.00 20.00     0.079 A 
HETATM    3  C3  UNL     1     -34.375   5.362   2.620  1.00 20.00     0.048 C 
HETATM    4  O7  UNL     1     -32.953   7.318   3.033  1.00 20.00    -0.375 OA
ENDROOT
BRANCH   2   5
HETATM    5  C5  UNL     1     -33.957   6.217   5.011  1.00 20.00     0.039 C 
BRANCH   5   6
HETATM    6  C6  UNL     1     -35.078   5.227   5.316  1.00 20.00    -0.002 C 
HETATM    7  C4  UNL     1     -34.551   3.987   6.020  1.00 20.00     0.005 C 
ENDBRANCH   5   6
ENDBRANCH   2   5
TORSDOF 2
ENDMDL
MODEL 4
REMARK VINA RESULT:      -3.8     11.225     11.851
REMARK  2 active torsions:
REMARK  status: ('A' for Active; 'I' for Inactive)
REMARK    1  A    between atoms: C2_2  and  C5_5 
REMARK    2  A    between atoms: C5_5  and  C6_6 
ROOT
HETATM    1  C1  UNL     1     -34.831  13.660  -5.344  1.00 20.00     0.206 A 
HETATM    2  C2  UNL     1     -34.351  13.997  -3.953  1.00 20.00     0.079 A 
HETATM    3  C3  UNL     1     -32.918  13.770  -3.593  1.00 20.00     0.048 C 
HETATM    4  O7  UNL     1     -35.076  12.790  -4.228  1.00 20.00    -0.375 OA
ENDROOT
BRANCH   2   5
HETATM    5  C5  UNL     1     -35.127  15.003  -3.117  1.00 20.00     0.039 C 
BRANCH   5   6
HETATM    6  C6  UNL     1     -34.207  16.074  -2.535  1.00 20.00    -0.002 C 
HETATM    7  C4  UNL     1     -34.658  16.501  -1.147  1.00 20.00     0.005 C 
ENDBRANCH   5   6
ENDBRANCH   2   5
TORSDOF 2
ENDMDL
MODEL 5
REMARK VINA RESULT:      -3.4      1.628      2.704
REMARK  2 active torsions:
REMARK  status: ('A' for Active; 'I' for Inactive)
REMARK    1  A    between atoms: C2_2  and  C5_5 
REMARK    2  A    between atoms: C5_5  and  C6_6 
ROOT
HETATM    1  C1  UNL     1     -34.395   5.023   2.823  1.00 20.00     0.206 A 
HETATM    2  C2  UNL     1     -34.572   5.247   4.305  1.00 20.00     0.079 A 
HETATM    3  C3  UNL     1     -34.972   4.104   5.181  1.00 20.00     0.048 C 
HETATM    4  O7  UNL     1     -35.579   5.632   3.360  1.00 20.00    -0.375 OA
ENDROOT
BRANCH   2   5
HETATM    5  C5  UNL     1     -33.875   6.423   4.973  1.00 20.00     0.039 C 
BRANCH   5   6
HETATM    6  C6  UNL     1     -34.047   6.387   6.489  1.00 20.00    -0.002 C 
HETATM    7  C4  UNL     1     -33.378   7.580   7.154  1.00 20.00     0.005 C 
ENDBRANCH   5   6
ENDBRANCH   2   5
TORSDOF 2
ENDMDL
MODEL 6
REMARK VINA RESULT:      -3.3     11.456     12.180
REMARK  2 active torsions:
REMARK  status: ('A' for Active; 'I' for Inactive)
REMARK    1  A    between atoms: C2_2  and  C5_5 
REMARK    2  A    between atoms: C5_5  and  C6_6 
ROOT
HETATM    1  C1  UNL     1     -36.178  14.011  -4.041  1.00 20.00     0.206 A 
HETATM    2  C2  UNL     1     -34.789  13.989  -4.634  1.00 20.00     0.079 A 
HETATM    3  C3  UNL     1     -34.582  14.441  -6.044  1.00 20.00     0.048 C 
HETATM    4  O7  UNL     1     -35.579  12.797  -4.519  1.00 20.00    -0.375 OA
ENDROOT
BRANCH   2   5
HETATM    5  C5  UNL     1     -33.580  14.016  -3.711  1.00 20.00     0.039 C 
BRANCH   5   6
HETATM    6  C6  UNL     1     -32.975  15.415  -3.624  1.00 20.00    -0.002 C 
HETATM    7  C4  UNL     1     -33.680  16.263  -2.577  1.00 20.00     0.005 C 
ENDBRANCH   5   6
ENDBRANCH   2   5
TORSDOF 2
ENDMDL
MODEL 7
REMARK VINA RESULT:      -3.2     11.112     12.746
REMARK  2 active torsions:
REMARK  status: ('A' for Active; 'I' for Inactive)
REMARK    1  A    between atoms: C2_2  and  C5_5 
REMARK    2  A    between atoms: C5_5  and  C6_6 
ROOT
HETATM    1  C1  UNL     1     -34.116  13.511  -3.655  1.00 20.00     0.206 A 
HETATM    2  C2  UNL     1     -35.112  14.059  -4.649  1.00 20.00     0.079 A 
HETATM    3  C3  UNL     1     -36.402  14.632  -4.161  1.00 20.00     0.048 C 
HETATM    4  O7  UNL     1     -34.979  12.650  -4.414  1.00 20.00    -0.375 OA
ENDROOT
BRANCH   2   5
HETATM    5  C5  UNL     1     -34.631  14.499  -6.024  1.00 20.00     0.039 C 
BRANCH   5   6
HETATM    6  C6  UNL     1     -34.683  16.017  -6.174  1.00 20.00    -0.002 C 
HETATM    7  C4  UNL     1     -33.505  16.686  -5.483  1.00 20.00     0.005 C 
ENDBRANCH   5   6
ENDBRANCH   2   5
TORSDOF 2
ENDMDL
MODEL 8
REMARK VINA RESULT:      -3.2     11.991     12.914
REMARK  2 active torsions:
REMARK  status: ('A' for Active; 'I' for Inactive)
REMARK    1  A    between atoms: C2_2  and  C5_5 
REMARK    2  A    between atoms: C5_5  and  C6_6 
ROOT
HETATM    1  C1  UNL     1     -33.275  16.277  -4.929  1.00 20.00     0.206 A 
HETATM    2  C2  UNL     1     -33.893  15.788  -3.641  1.00 20.00     0.079 A 
HETATM    3  C3  UNL     1     -34.244  14.343  -3.493  1.00 20.00     0.048 C 
HETATM    4  O7  UNL     1     -34.667  16.473  -4.636  1.00 20.00    -0.375 OA
ENDROOT
BRANCH   2   5
HETATM    5  C5  UNL     1     -33.692  16.588  -2.363  1.00 20.00     0.039 C 
BRANCH   5   6
HETATM    6  C6  UNL     1     -34.791  16.299  -1.344  1.00 20.00    -0.002 C 
HETATM    7  C4  UNL     1     -34.664  17.191  -0.119  1.00 20.00     0.005 C 
ENDBRANCH   5   6
ENDBRANCH   2   5
TORSDOF 2
ENDMDL
MODEL 9
REMARK VINA RESULT:      -3.1     11.655     12.355
REMARK  2 active torsions:
REMARK  status: ('A' for Active; 'I' for Inactive)
REMARK    1  A    between atoms: C2_2  and  C5_5 
REMARK    2  A    between atoms: C5_5  and  C6_6 
ROOT
HETATM    1  C1  UNL     1     -36.762  14.926  -4.861  1.00 20.00     0.206 A 
HETATM    2  C2  UNL     1     -35.613  14.344  -4.072  1.00 20.00     0.079 A 
HETATM    3  C3  UNL     1     -34.861  13.173  -4.619  1.00 20.00     0.048 C 
HETATM    4  O7  UNL     1     -36.978  14.051  -3.743  1.00 20.00    -0.375 OA
ENDROOT
BRANCH   2   5
HETATM    5  C5  UNL     1     -34.903  15.204  -3.038  1.00 20.00     0.039 C 
BRANCH   5   6
HETATM    6  C6  UNL     1     -33.443  15.439  -3.414  1.00 20.00    -0.002 C 
HETATM    7  C4  UNL     1     -33.311  16.486  -4.510  1.00 20.00     0.005 C 
ENDBRANCH   5   6
ENDBRANCH   2   5
TORSDOF 2
ENDMDL
