MODEL 1
REMARK VINA RESULT:      -4.8      0.000      0.000
REMARK  2 active torsions:
REMARK  status: ('A' for Active; 'I' for Inactive)
REMARK    1  A    between atoms: C2_2  and  C5_5 
REMARK    2  A    between atoms: C5_5  and  C6_6 
ROOT
HETATM    1  C1  UNL     1     -34.756   4.576   5.215  1.00 20.00     0.223 C 
HETATM    2  C2  UNL     1     -34.276   5.788   5.162  1.00 20.00    -0.030 C 
HETATM    3  C3  UNL     1     -33.956   6.571   6.404  1.00 20.00     0.048 C 
HETATM    4  O7  UNL     1     -35.190   3.482   5.261  1.00 20.00    -0.284 OA
ENDROOT
BRANCH   2   5
HETATM    5  C5  UNL     1     -34.013   6.487   3.848  1.00 20.00     0.037 C 
BRANCH   5   6
HETATM    6  C6  UNL     1     -32.556   6.347   3.402  1.00 20.00    -0.000 C 
HETATM    7  C4  UNL     1     -32.091   7.576   2.635  1.00 20.00     0.005 C 
ENDBRANCH   5   6
ENDBRANCH   2   5
TORSDOF 2
ENDMDL
MODEL 2
REMARK VINA RESULT:      -4.7      1.690      2.124
REMARK  2 active torsions:
REMARK  status: ('A' for Active; 'I' for Inactive)
REMARK    1  A    between atoms: C2_2  and  C5_5 
REMARK    2  A    between atoms: C5_5  and  C6_6 
ROOT
HETATM    1  C1  UNL     1     -33.958   6.379   6.051  1.00 20.00     0.223 C 
HETATM    2  C2  UNL     1     -34.340   5.523   5.143  1.00 20.00    -0.030 C 
HETATM    3  C3  UNL     1     -34.960   4.203   5.506  1.00 20.00     0.048 C 
HETATM    4  O7  UNL     1     -33.612   7.152   6.869  1.00 20.00    -0.284 OA
ENDROOT
BRANCH   2   5
HETATM    5  C5  UNL     1     -34.182   5.801   3.666  1.00 20.00     0.037 C 
BRANCH   5   6
HETATM    6  C6  UNL     1     -32.713   5.894   3.250  1.00 20.00    -0.000 C 
HETATM    7  C4  UNL     1     -32.345   7.308   2.827  1.00 20.00     0.005 C 
ENDBRANCH   5   6
ENDBRANCH   2   5
TORSDOF 2
ENDMDL
MODEL 3
REMARK VINA RESULT:      -4.4      1.707      2.197
REMARK  2 active torsions:
REMARK  status: ('A' for Active; 'I' for Inactive)
REMARK    1  A    between atoms: C2_2  and  C5_5 
REMARK    2  A    between atoms: C5_5  and  C6_6 
ROOT
HETATM    1  C1  UNL     1     -33.852   6.361   5.446  1.00 20.00     0.223 C 
HETATM    2  C2  UNL     1     -33.958   5.952   4.211  1.00 20.00    -0.030 C 
HETATM    3  C3  UNL     1     -35.248   5.413   3.661  1.00 20.00     0.048 C 
HETATM    4  O7  UNL     1     -33.754   6.730   6.560  1.00 20.00    -0.284 OA
ENDROOT
BRANCH   2   5
HETATM    5  C5  UNL     1     -32.791   5.991   3.253  1.00 20.00     0.037 C 
BRANCH   5   6
HETATM    6  C6  UNL     1     -31.974   7.278   3.390  1.00 20.00    -0.000 C 
HETATM    7  C4  UNL     1     -32.088   8.142   2.144  1.00 20.00     0.005 C 
ENDBRANCH   5   6
ENDBRANCH   2   5
TORSDOF 2
ENDMDL
MODEL 4
REMARK VINA RESULT:      -4.2      2.417      4.032
REMARK  2 active torsions:
REMARK  status: ('A' for Active; 'I' for Inactive)
REMARK    1  A    between atoms: C2_2  and  C5_5 
REMARK    2  A    between atoms: C5_5  and  C6_6 
ROOT
HETATM    1  C1  UNL     1     -32.357   6.960   3.456  1.00 20.00     0.223 C 
HETATM    2  C2  UNL     1     -33.399   6.205   3.672  1.00 20.00    -0.030 C 
HETATM    3  C3  UNL     1     -34.012   5.366   2.586  1.00 20.00     0.048 C 
HETATM    4  O7  UNL     1     -31.417   7.641   3.262  1.00 20.00    -0.284 OA
ENDROOT
BRANCH   2   5
HETATM    5  C5  UNL     1     -34.061   6.126   5.028  1.00 20.00     0.037 C 
BRANCH   5   6
HETATM    6  C6  UNL     1     -35.165   5.067   5.070  1.00 20.00    -0.000 C 
HETATM    7  C4  UNL     1     -34.771   3.891   5.952  1.00 20.00     0.005 C 
ENDBRANCH   5   6
ENDBRANCH   2   5
TORSDOF 2
ENDMDL
MODEL 5
REMARK VINA RESULT:      -4.1      1.770      3.380
REMARK  2 active torsions:
REMARK  status: ('A' for Active; 'I' for Inactive)
REMARK    1  A    between atoms: C2_2  and  C5_5 
REMARK    2  A    between atoms: C5_5  and  C6_6 
ROOT
HETATM    1  C1  UNL     1     -33.487   6.699   5.451  1.00 20.00     0.223 C 
HETATM    2  C2  UNL     1     -33.386   6.360   4.195  1.00 20.00    -0.030 C 
HETATM    3  C3  UNL     1     -32.270   6.864   3.323  1.00 20.00     0.048 C 
HETATM    4  O7  UNL     1     -33.580   7.004   6.584  1.00 20.00    -0.284 OA
ENDROOT
BRANCH   2   5
HETATM    5  C5  UNL     1     -34.385   5.440   3.532  1.00 20.00     0.037 C 
BRANCH   5   6
HETATM    6  C6  UNL     1     -35.460   4.956   4.508  1.00 20.00    -0.000 C 
HETATM    7  C4  UNL     1     -34.934   3.846   5.405  1.00 20.00     0.005 C 
ENDBRANCH   5   6
ENDBRANCH   2   5
TORSDOF 2
ENDMDL
MODEL 6
REMARK VINA RESULT:      -4.1      2.080      3.451
REMARK  2 active torsions:
REMARK  status: ('A' for Active; 'I' for Inactive)
REMARK    1  A    between atoms: C2_2  and  C5_5 
REMARK    2  A    between atoms: C5_5  and  C6_6 
ROOT
HETATM    1  C1  UNL     1     -33.242   6.043   3.432  1.00 20.00     0.223 C 
HETATM    2  C2  UNL     1     -34.316   5.552   3.989  1.00 20.00    -0.030 C 
HETATM    3  C3  UNL     1     -35.679   5.734   3.385  1.00 20.00     0.048 C 
HETATM    4  O7  UNL     1     -32.274   6.485   2.930  1.00 20.00    -0.284 OA
ENDROOT
BRANCH   2   5
HETATM    5  C5  UNL     1     -34.259   4.770   5.281  1.00 20.00     0.037 C 
BRANCH   5   6
HETATM    6  C6  UNL     1     -34.650   5.622   6.490  1.00 20.00    -0.000 C 
HETATM    7  C4  UNL     1     -33.776   6.863   6.598  1.00 20.00     0.005 C 
ENDBRANCH   5   6
ENDBRANCH   2   5
TORSDOF 2
ENDMDL
MODEL 7
REMARK VINA RESULT:      -4.0     11.678     12.168
REMARK  2 active torsions:
REMARK  status: ('A' for Active; 'I' for Inactive)
REMARK    1  A    between atoms: C2_2  and  C5_5 
REMARK    2  A    between atoms: C5_5  and  C6_6 
ROOT
HETATM    1  C1  UNL     1     -34.653  13.611  -3.967  1.00 20.00     0.223 C 
HETATM    2  C2  UNL     1     -34.148  14.685  -3.425  1.00 20.00    -0.030 C 
HETATM    3  C3  UNL     1     -32.731  15.113  -3.681  1.00 20.00     0.048 C 
HETATM    4  O7  UNL     1     -35.110  12.642  -4.455  1.00 20.00    -0.284 OA
ENDROOT
BRANCH   2   5
HETATM    5  C5  UNL     1     -34.954  15.569  -2.502  1.00 20.00     0.037 C 
BRANCH   5   6
HETATM    6  C6  UNL     1     -34.088  16.622  -1.807  1.00 20.00    -0.000 C 
HETATM    7  C4  UNL     1     -34.638  16.975  -0.434  1.00 20.00     0.005 C 
ENDBRANCH   5   6
ENDBRANCH   2   5
TORSDOF 2
ENDMDL
MODEL 8
REMARK VINA RESULT:      -4.0      2.398      3.712
REMARK  2 active torsions:
REMARK  status: ('A' for Active; 'I' for Inactive)
REMARK    1  A    between atoms: C2_2  and  C5_5 
REMARK    2  A    between atoms: C5_5  and  C6_6 
ROOT
HETATM    1  C1  UNL     1     -32.663   7.008   3.170  1.00 20.00     0.223 C 
HETATM    2  C2  UNL     1     -33.492   6.430   3.997  1.00 20.00    -0.030 C 
HETATM    3  C3  UNL     1     -33.536   6.786   5.456  1.00 20.00     0.048 C 
HETATM    4  O7  UNL     1     -31.916   7.528   2.424  1.00 20.00    -0.284 OA
ENDROOT
BRANCH   2   5
HETATM    5  C5  UNL     1     -34.460   5.363   3.542  1.00 20.00     0.037 C 
BRANCH   5   6
HETATM    6  C6  UNL     1     -35.440   4.964   4.647  1.00 20.00    -0.000 C 
HETATM    7  C4  UNL     1     -34.885   3.832   5.498  1.00 20.00     0.005 C 
ENDBRANCH   5   6
ENDBRANCH   2   5
TORSDOF 2
ENDMDL
MODEL 9
REMARK VINA RESULT:      -3.8      3.100      4.408
REMARK  2 active torsions:
REMARK  status: ('A' for Active; 'I' for Inactive)
REMARK    1  A    between atoms: C2_2  and  C5_5 
REMARK    2  A    between atoms: C5_5  and  C6_6 
ROOT
HETATM    1  C1  UNL     1     -32.066   8.209   1.870  1.00 20.00     0.223 C 
HETATM    2  C2  UNL     1     -32.096   7.437   2.922  1.00 20.00    -0.030 C 
HETATM    3  C3  UNL     1     -31.290   7.741   4.154  1.00 20.00     0.048 C 
HETATM    4  O7  UNL     1     -32.040   8.904   0.921  1.00 20.00    -0.284 OA
ENDROOT
BRANCH   2   5
HETATM    5  C5  UNL     1     -32.940   6.185   2.971  1.00 20.00     0.037 C 
BRANCH   5   6
HETATM    6  C6  UNL     1     -33.816   6.127   4.224  1.00 20.00    -0.000 C 
HETATM    7  C4  UNL     1     -35.078   5.314   3.982  1.00 20.00     0.005 C 
ENDBRANCH   5   6
ENDBRANCH   2   5
TORSDOF 2
ENDMDL
