MODEL 1
REMARK VINA RESULT:      -4.7      0.000      0.000
REMARK  3 active torsions:
REMARK  status: ('A' for Active; 'I' for Inactive)
REMARK    1  A    between atoms: C2_2  and  C5_5 
REMARK    2  A    between atoms: C5_5  and  C6_6 
REMARK    3  A    between atoms: C6_6  and  C7_7 
ROOT
HETATM    1  C5  UNL     1     -33.913   6.807   3.690  1.00 20.00     0.034 C 
ENDROOT
BRANCH   1   2
HETATM    2  C2  UNL     1     -32.567   6.729   2.985  1.00 20.00     0.145 A 
HETATM    3  C1  UNL     1     -31.990   7.921   2.274  1.00 20.00     0.200 A 
HETATM    4  O8  UNL     1     -31.537   7.527   3.578  1.00 20.00    -0.381 OA
ENDBRANCH   1   2
BRANCH   1   5
HETATM    5  C6  UNL     1     -34.479   5.413   3.966  1.00 20.00     0.006 C 
BRANCH   5   6
HETATM    6  C7  UNL     1     -34.974   5.226   5.412  1.00 20.00    -0.023 C 
HETATM    7  C3  UNL     1     -34.205   6.161   6.348  1.00 20.00     0.009 C 
HETATM    8  C4  UNL     1     -34.834   3.783   5.897  1.00 20.00     0.009 C 
ENDBRANCH   5   6
ENDBRANCH   1   5
TORSDOF 3
ENDMDL
MODEL 2
REMARK VINA RESULT:      -4.6      0.379      1.293
REMARK  3 active torsions:
REMARK  status: ('A' for Active; 'I' for Inactive)
REMARK    1  A    between atoms: C2_2  and  C5_5 
REMARK    2  A    between atoms: C5_5  and  C6_6 
REMARK    3  A    between atoms: C6_6  and  C7_7 
ROOT
HETATM    1  C5  UNL     1     -33.992   6.761   3.590  1.00 20.00     0.034 C 
ENDROOT
BRANCH   1   2
HETATM    2  C2  UNL     1     -32.608   6.695   2.960  1.00 20.00     0.145 A 
HETATM    3  C1  UNL     1     -31.988   7.902   2.315  1.00 20.00     0.200 A 
HETATM    4  O8  UNL     1     -31.610   7.470   3.631  1.00 20.00    -0.381 OA
ENDBRANCH   1   2
BRANCH   1   5
HETATM    5  C6  UNL     1     -34.456   5.381   4.060  1.00 20.00     0.006 C 
BRANCH   5   6
HETATM    6  C7  UNL     1     -34.164   5.108   5.548  1.00 20.00    -0.023 C 
HETATM    7  C3  UNL     1     -35.226   4.167   6.120  1.00 20.00     0.009 C 
HETATM    8  C4  UNL     1     -34.110   6.391   6.378  1.00 20.00     0.009 C 
ENDBRANCH   5   6
ENDBRANCH   1   5
TORSDOF 3
ENDMDL
MODEL 3
REMARK VINA RESULT:      -4.2      1.014      1.738
REMARK  3 active torsions:
REMARK  status: ('A' for Active; 'I' for Inactive)
REMARK    1  A    between atoms: C2_2  and  C5_5 
REMARK    2  A    between atoms: C5_5  and  C6_6 
REMARK    3  A    between atoms: C6_6  and  C7_7 
ROOT
HETATM    1  C5  UNL     1     -32.636   6.245   3.061  1.00 20.00     0.034 C 
ENDROOT
BRANCH   1   2
HETATM    2  C2  UNL     1     -31.936   7.584   2.877  1.00 20.00     0.145 A 
HETATM    3  C1  UNL     1     -31.795   8.209   1.518  1.00 20.00     0.200 A 
HETATM    4  O8  UNL     1     -32.792   8.650   2.453  1.00 20.00    -0.381 OA
ENDBRANCH   1   2
BRANCH   1   5
HETATM    5  C6  UNL     1     -33.945   6.403   3.836  1.00 20.00     0.006 C 
BRANCH   5   6
HETATM    6  C7  UNL     1     -33.943   5.683   5.198  1.00 20.00    -0.023 C 
HETATM    7  C3  UNL     1     -35.126   4.716   5.275  1.00 20.00     0.009 C 
HETATM    8  C4  UNL     1     -33.996   6.658   6.375  1.00 20.00     0.009 C 
ENDBRANCH   5   6
ENDBRANCH   1   5
TORSDOF 3
ENDMDL
MODEL 4
REMARK VINA RESULT:      -3.9      1.823      4.005
REMARK  3 active torsions:
REMARK  status: ('A' for Active; 'I' for Inactive)
REMARK    1  A    between atoms: C2_2  and  C5_5 
REMARK    2  A    between atoms: C5_5  and  C6_6 
REMARK    3  A    between atoms: C6_6  and  C7_7 
ROOT
HETATM    1  C5  UNL     1     -34.680   5.417   3.571  1.00 20.00     0.034 C 
ENDROOT
BRANCH   1   2
HETATM    2  C2  UNL     1     -35.349   4.973   4.864  1.00 20.00     0.145 A 
HETATM    3  C1  UNL     1     -34.672   4.013   5.801  1.00 20.00     0.200 A 
HETATM    4  O8  UNL     1     -34.700   5.426   6.056  1.00 20.00    -0.381 OA
ENDBRANCH   1   2
BRANCH   1   5
HETATM    5  C6  UNL     1     -34.045   6.801   3.719  1.00 20.00     0.006 C 
BRANCH   5   6
HETATM    6  C7  UNL     1     -32.525   6.808   3.472  1.00 20.00    -0.023 C 
HETATM    7  C3  UNL     1     -32.173   7.879   2.436  1.00 20.00     0.009 C 
HETATM    8  C4  UNL     1     -32.001   5.449   3.007  1.00 20.00     0.009 C 
ENDBRANCH   5   6
ENDBRANCH   1   5
TORSDOF 3
ENDMDL
MODEL 5
REMARK VINA RESULT:      -3.9      2.022      4.360
REMARK  3 active torsions:
REMARK  status: ('A' for Active; 'I' for Inactive)
REMARK    1  A    between atoms: C2_2  and  C5_5 
REMARK    2  A    between atoms: C5_5  and  C6_6 
REMARK    3  A    between atoms: C6_6  and  C7_7 
ROOT
HETATM    1  C5  UNL     1     -33.559   6.161   4.609  1.00 20.00     0.034 C 
ENDROOT
BRANCH   1   2
HETATM    2  C2  UNL     1     -34.816   5.337   4.850  1.00 20.00     0.145 A 
HETATM    3  C1  UNL     1     -34.754   4.008   5.548  1.00 20.00     0.200 A 
HETATM    4  O8  UNL     1     -35.182   5.198   6.227  1.00 20.00    -0.381 OA
ENDBRANCH   1   2
BRANCH   1   5
HETATM    5  C6  UNL     1     -33.292   6.343   3.113  1.00 20.00     0.006 C 
BRANCH   5   6
HETATM    6  C7  UNL     1     -31.996   7.120   2.812  1.00 20.00    -0.023 C 
HETATM    7  C3  UNL     1     -31.387   7.639   4.116  1.00 20.00     0.009 C 
HETATM    8  C4  UNL     1     -32.223   8.285   1.849  1.00 20.00     0.009 C 
ENDBRANCH   5   6
ENDBRANCH   1   5
TORSDOF 3
ENDMDL
MODEL 6
REMARK VINA RESULT:      -3.8     11.189     12.037
REMARK  3 active torsions:
REMARK  status: ('A' for Active; 'I' for Inactive)
REMARK    1  A    between atoms: C2_2  and  C5_5 
REMARK    2  A    between atoms: C5_5  and  C6_6 
REMARK    3  A    between atoms: C6_6  and  C7_7 
ROOT
HETATM    1  C5  UNL     1     -33.975  15.378  -3.138  1.00 20.00     0.034 C 
ENDROOT
BRANCH   1   2
HETATM    2  C2  UNL     1     -34.454  13.975  -3.479  1.00 20.00     0.145 A 
HETATM    3  C1  UNL     1     -34.410  13.458  -4.889  1.00 20.00     0.200 A 
HETATM    4  O8  UNL     1     -33.423  13.083  -3.916  1.00 20.00    -0.381 OA
ENDBRANCH   1   2
BRANCH   1   5
HETATM    5  C6  UNL     1     -34.837  16.011  -2.043  1.00 20.00     0.006 C 
BRANCH   5   6
HETATM    6  C7  UNL     1     -34.055  16.964  -1.120  1.00 20.00    -0.023 C 
HETATM    7  C3  UNL     1     -34.875  17.254   0.139  1.00 20.00     0.009 C 
HETATM    8  C4  UNL     1     -33.690  18.279  -1.812  1.00 20.00     0.009 C 
ENDBRANCH   5   6
ENDBRANCH   1   5
TORSDOF 3
ENDMDL
MODEL 7
REMARK VINA RESULT:      -3.7     11.500     12.124
REMARK  3 active torsions:
REMARK  status: ('A' for Active; 'I' for Inactive)
REMARK    1  A    between atoms: C2_2  and  C5_5 
REMARK    2  A    between atoms: C5_5  and  C6_6 
REMARK    3  A    between atoms: C6_6  and  C7_7 
ROOT
HETATM    1  C5  UNL     1     -33.568  14.477  -3.464  1.00 20.00     0.034 C 
ENDROOT
BRANCH   1   2
HETATM    2  C2  UNL     1     -34.903  13.975  -3.994  1.00 20.00     0.145 A 
HETATM    3  C1  UNL     1     -35.098  13.672  -5.453  1.00 20.00     0.200 A 
HETATM    4  O8  UNL     1     -34.881  12.631  -4.488  1.00 20.00    -0.381 OA
ENDBRANCH   1   2
BRANCH   1   5
HETATM    5  C6  UNL     1     -33.673  15.920  -2.968  1.00 20.00     0.006 C 
BRANCH   5   6
HETATM    6  C7  UNL     1     -34.922  16.184  -2.106  1.00 20.00    -0.023 C 
HETATM    7  C3  UNL     1     -35.836  17.189  -2.812  1.00 20.00     0.009 C 
HETATM    8  C4  UNL     1     -34.572  16.698  -0.710  1.00 20.00     0.009 C 
ENDBRANCH   5   6
ENDBRANCH   1   5
TORSDOF 3
ENDMDL
MODEL 8
REMARK VINA RESULT:      -3.7      1.944      4.759
REMARK  3 active torsions:
REMARK  status: ('A' for Active; 'I' for Inactive)
REMARK    1  A    between atoms: C2_2  and  C5_5 
REMARK    2  A    between atoms: C5_5  and  C6_6 
REMARK    3  A    between atoms: C6_6  and  C7_7 
ROOT
HETATM    1  C5  UNL     1     -32.401   6.379   3.159  1.00 20.00     0.034 C 
ENDROOT
BRANCH   1   2
HETATM    2  C2  UNL     1     -33.766   6.461   3.827  1.00 20.00     0.145 A 
HETATM    3  C1  UNL     1     -34.785   5.370   3.651  1.00 20.00     0.200 A 
HETATM    4  O8  UNL     1     -33.991   5.478   4.843  1.00 20.00    -0.381 OA
ENDBRANCH   1   2
BRANCH   1   5
HETATM    5  C6  UNL     1     -31.801   7.770   2.944  1.00 20.00     0.006 C 
BRANCH   5   6
HETATM    6  C7  UNL     1     -32.424   8.531   1.759  1.00 20.00    -0.023 C 
HETATM    7  C3  UNL     1     -31.480   8.481   0.556  1.00 20.00     0.009 C 
HETATM    8  C4  UNL     1     -32.745   9.987   2.102  1.00 20.00     0.009 C 
ENDBRANCH   5   6
ENDBRANCH   1   5
TORSDOF 3
ENDMDL
MODEL 9
REMARK VINA RESULT:      -3.5     11.508     12.264
REMARK  3 active torsions:
REMARK  status: ('A' for Active; 'I' for Inactive)
REMARK    1  A    between atoms: C2_2  and  C5_5 
REMARK    2  A    between atoms: C5_5  and  C6_6 
REMARK    3  A    between atoms: C6_6  and  C7_7 
ROOT
HETATM    1  C5  UNL     1     -35.674  15.244  -3.694  1.00 20.00     0.034 C 
ENDROOT
BRANCH   1   2
HETATM    2  C2  UNL     1     -35.578  13.770  -4.060  1.00 20.00     0.145 A 
HETATM    3  C1  UNL     1     -34.544  13.273  -5.031  1.00 20.00     0.200 A 
HETATM    4  O8  UNL     1     -34.384  13.121  -3.612  1.00 20.00    -0.381 OA
ENDBRANCH   1   2
BRANCH   1   5
HETATM    5  C6  UNL     1     -35.030  15.523  -2.335  1.00 20.00     0.006 C 
BRANCH   5   6
HETATM    6  C7  UNL     1     -33.759  16.389  -2.423  1.00 20.00    -0.023 C 
HETATM    7  C3  UNL     1     -33.722  17.376  -1.254  1.00 20.00     0.009 C 
HETATM    8  C4  UNL     1     -33.662  17.152  -3.745  1.00 20.00     0.009 C 
ENDBRANCH   5   6
ENDBRANCH   1   5
TORSDOF 3
ENDMDL
