MODEL 1
REMARK VINA RESULT:      -4.3      0.000      0.000
REMARK  0 active torsions:
REMARK  status: ('A' for Active; 'I' for Inactive)
ROOT
HETATM    1  C1  UNL     1     -32.691   6.575   2.960  1.00 20.00     0.166 A 
HETATM    2  C2  UNL     1     -33.609   6.279   4.888  1.00 20.00     0.048 A 
HETATM    3  C3  UNL     1     -34.344   5.386   4.161  1.00 20.00     0.008 A 
HETATM    4  C4  UNL     1     -34.016   6.312   6.306  1.00 20.00     0.061 C 
HETATM    5  C5  UNL     1     -35.365   4.667   4.946  1.00 20.00     0.048 C 
HETATM    6  C6  UNL     1     -34.926   5.039   6.403  1.00 20.00     0.011 C 
HETATM    7  N7  UNL     1     -32.648   6.977   4.221  1.00 20.00    -0.257 NA
HETATM    8  S8  UNL     1     -33.873   5.363   2.557  1.00 20.00    -0.085 SA
ENDROOT
TORSDOF 0
ENDMDL
MODEL 2
REMARK VINA RESULT:      -4.0      2.018      3.519
REMARK  0 active torsions:
REMARK  status: ('A' for Active; 'I' for Inactive)
ROOT
HETATM    1  C1  UNL     1     -35.201   4.967   6.003  1.00 20.00     0.166 A 
HETATM    2  C2  UNL     1     -34.347   5.320   4.055  1.00 20.00     0.048 A 
HETATM    3  C3  UNL     1     -33.629   6.234   4.772  1.00 20.00     0.008 A 
HETATM    4  C4  UNL     1     -33.979   5.320   2.626  1.00 20.00     0.061 C 
HETATM    5  C5  UNL     1     -32.662   7.004   3.968  1.00 20.00     0.048 C 
HETATM    6  C6  UNL     1     -32.667   6.177   2.637  1.00 20.00     0.011 C 
HETATM    7  N7  UNL     1     -35.260   4.575   4.739  1.00 20.00    -0.257 NA
HETATM    8  S8  UNL     1     -34.060   6.224   6.387  1.00 20.00    -0.085 SA
ENDROOT
TORSDOF 0
ENDMDL
MODEL 3
REMARK VINA RESULT:      -3.8      1.344      1.966
REMARK  0 active torsions:
REMARK  status: ('A' for Active; 'I' for Inactive)
ROOT
HETATM    1  C1  UNL     1     -33.223   6.167   2.546  1.00 20.00     0.166 A 
HETATM    2  C2  UNL     1     -34.313   5.228   4.152  1.00 20.00     0.048 A 
HETATM    3  C3  UNL     1     -33.620   6.156   4.877  1.00 20.00     0.008 A 
HETATM    4  C4  UNL     1     -35.183   4.394   5.003  1.00 20.00     0.061 C 
HETATM    5  C5  UNL     1     -33.893   6.114   6.326  1.00 20.00     0.048 C 
HETATM    6  C6  UNL     1     -35.153   5.183   6.356  1.00 20.00     0.011 C 
HETATM    7  N7  UNL     1     -34.104   5.213   2.806  1.00 20.00    -0.257 NA
HETATM    8  S8  UNL     1     -32.636   7.090   3.900  1.00 20.00    -0.085 SA
ENDROOT
TORSDOF 0
ENDMDL
MODEL 4
REMARK VINA RESULT:      -3.7     12.034     13.713
REMARK  0 active torsions:
REMARK  status: ('A' for Active; 'I' for Inactive)
ROOT
HETATM    1  C1  UNL     1     -34.058  13.432  -3.645  1.00 20.00     0.166 A 
HETATM    2  C2  UNL     1     -34.738  14.071  -5.589  1.00 20.00     0.048 A 
HETATM    3  C3  UNL     1     -34.086  15.208  -5.205  1.00 20.00     0.008 A 
HETATM    4  C4  UNL     1     -35.337  14.199  -6.931  1.00 20.00     0.061 C 
HETATM    5  C5  UNL     1     -34.128  16.293  -6.205  1.00 20.00     0.048 C 
HETATM    6  C6  UNL     1     -34.665  15.514  -7.454  1.00 20.00     0.011 C 
HETATM    7  N7  UNL     1     -34.737  13.031  -4.709  1.00 20.00    -0.257 NA
HETATM    8  S8  UNL     1     -33.416  15.049  -3.682  1.00 20.00    -0.085 SA
ENDROOT
TORSDOF 0
ENDMDL
MODEL 5
REMARK VINA RESULT:      -3.7     12.110     12.729
REMARK  0 active torsions:
REMARK  status: ('A' for Active; 'I' for Inactive)
ROOT
HETATM    1  C1  UNL     1     -37.688  15.467  -3.522  1.00 20.00     0.166 A 
HETATM    2  C2  UNL     1     -35.940  14.281  -3.957  1.00 20.00     0.048 A 
HETATM    3  C3  UNL     1     -35.323  15.429  -3.547  1.00 20.00     0.008 A 
HETATM    4  C4  UNL     1     -34.972  13.235  -4.340  1.00 20.00     0.061 C 
HETATM    5  C5  UNL     1     -33.850  15.365  -3.580  1.00 20.00     0.048 C 
HETATM    6  C6  UNL     1     -33.631  13.827  -3.787  1.00 20.00     0.011 C 
HETATM    7  N7  UNL     1     -37.302  14.275  -3.952  1.00 20.00    -0.257 NA
HETATM    8  S8  UNL     1     -36.432  16.605  -3.120  1.00 20.00    -0.085 SA
ENDROOT
TORSDOF 0
ENDMDL
MODEL 6
REMARK VINA RESULT:      -3.7      1.512      2.946
REMARK  0 active torsions:
REMARK  status: ('A' for Active; 'I' for Inactive)
ROOT
HETATM    1  C1  UNL     1     -34.793   5.493   6.332  1.00 20.00     0.166 A 
HETATM    2  C2  UNL     1     -33.411   6.439   4.973  1.00 20.00     0.048 A 
HETATM    3  C3  UNL     1     -34.002   5.566   4.104  1.00 20.00     0.008 A 
HETATM    4  C4  UNL     1     -32.377   7.263   4.318  1.00 20.00     0.061 C 
HETATM    5  C5  UNL     1     -33.479   5.641   2.727  1.00 20.00     0.048 C 
HETATM    6  C6  UNL     1     -32.653   6.970   2.803  1.00 20.00     0.011 C 
HETATM    7  N7  UNL     1     -33.848   6.419   6.263  1.00 20.00    -0.257 NA
HETATM    8  S8  UNL     1     -35.168   4.638   4.863  1.00 20.00    -0.085 SA
ENDROOT
TORSDOF 0
ENDMDL
MODEL 7
REMARK VINA RESULT:      -3.6     12.396     13.307
REMARK  0 active torsions:
REMARK  status: ('A' for Active; 'I' for Inactive)
ROOT
HETATM    1  C1  UNL     1     -33.522  17.317  -5.024  1.00 20.00     0.166 A 
HETATM    2  C2  UNL     1     -33.775  15.268  -4.403  1.00 20.00     0.048 A 
HETATM    3  C3  UNL     1     -35.089  15.617  -4.530  1.00 20.00     0.008 A 
HETATM    4  C4  UNL     1     -33.610  13.867  -3.971  1.00 20.00     0.061 C 
HETATM    5  C5  UNL     1     -36.034  14.529  -4.211  1.00 20.00     0.048 C 
HETATM    6  C6  UNL     1     -35.059  13.304  -4.164  1.00 20.00     0.011 C 
HETATM    7  N7  UNL     1     -32.850  16.229  -4.682  1.00 20.00    -0.257 NA
HETATM    8  S8  UNL     1     -35.259  17.207  -5.016  1.00 20.00    -0.085 SA
ENDROOT
TORSDOF 0
ENDMDL
MODEL 8
REMARK VINA RESULT:      -3.6     12.466     13.628
REMARK  0 active torsions:
REMARK  status: ('A' for Active; 'I' for Inactive)
ROOT
HETATM    1  C1  UNL     1     -34.587  16.281  -7.146  1.00 20.00     0.166 A 
HETATM    2  C2  UNL     1     -33.934  15.509  -5.242  1.00 20.00     0.048 A 
HETATM    3  C3  UNL     1     -34.584  14.403  -5.710  1.00 20.00     0.008 A 
HETATM    4  C4  UNL     1     -33.355  15.288  -3.903  1.00 20.00     0.061 C 
HETATM    5  C5  UNL     1     -34.562  13.254  -4.785  1.00 20.00     0.048 C 
HETATM    6  C6  UNL     1     -33.484  13.734  -3.754  1.00 20.00     0.011 C 
HETATM    7  N7  UNL     1     -33.919  16.606  -6.049  1.00 20.00    -0.257 NA
HETATM    8  S8  UNL     1     -35.238  14.669  -7.225  1.00 20.00    -0.085 SA
ENDROOT
TORSDOF 0
ENDMDL
MODEL 9
REMARK VINA RESULT:      -3.5      9.801     10.487
REMARK  0 active torsions:
REMARK  status: ('A' for Active; 'I' for Inactive)
ROOT
HETATM    1  C1  UNL     1     -43.152   4.371  -3.241  1.00 20.00     0.166 A 
HETATM    2  C2  UNL     1     -41.641   4.756  -1.751  1.00 20.00     0.048 A 
HETATM    3  C3  UNL     1     -42.029   6.042  -2.000  1.00 20.00     0.008 A 
HETATM    4  C4  UNL     1     -40.574   4.683  -0.735  1.00 20.00     0.061 C 
HETATM    5  C5  UNL     1     -41.304   7.054  -1.209  1.00 20.00     0.048 C 
HETATM    6  C6  UNL     1     -40.590   6.139  -0.155  1.00 20.00     0.011 C 
HETATM    7  N7  UNL     1     -42.273   3.773  -2.452  1.00 20.00    -0.257 NA
HETATM    8  S8  UNL     1     -43.235   6.108  -3.156  1.00 20.00    -0.085 SA
ENDROOT
TORSDOF 0
ENDMDL
