MODEL 1
REMARK VINA RESULT:      -4.7      0.000      0.000
REMARK  3 active torsions:
REMARK  status: ('A' for Active; 'I' for Inactive)
REMARK    1  A    between atoms: C1_1  and  C6_6 
REMARK    2  A    between atoms: C1_1  and  O9_9 
REMARK    3  A    between atoms: C6_6  and  C7_7 
ROOT
HETATM    1  C2  UNL     1     -34.984   5.487   3.331  1.00 20.00     0.021 C 
HETATM    2  C6  UNL     1     -33.993   6.311   4.155  1.00 20.00     0.085 C 
ENDROOT
BRANCH   2   3
HETATM    3  C1  UNL     1     -32.655   6.367   3.430  1.00 20.00     0.262 C 
HETATM    4  O8  UNL     1     -32.077   5.393   2.964  1.00 20.00    -0.265 OA
BRANCH   3   5
HETATM    5  O9  UNL     1     -32.214   7.657   3.375  1.00 20.00    -0.326 OA
HETATM    6  C5  UNL     1     -32.081   8.208   2.062  1.00 20.00     0.213 C 
ENDBRANCH   3   5
ENDBRANCH   2   3
BRANCH   2   7
HETATM    7  C7  UNL     1     -33.864   5.800   5.610  1.00 20.00    -0.010 C 
HETATM    8  C3  UNL     1     -34.949   4.800   6.021  1.00 20.00     0.010 C 
HETATM    9  C4  UNL     1     -33.820   6.956   6.615  1.00 20.00     0.010 C 
ENDBRANCH   2   7
TORSDOF 3
ENDMDL
MODEL 2
REMARK VINA RESULT:      -4.1     11.292     12.048
REMARK  3 active torsions:
REMARK  status: ('A' for Active; 'I' for Inactive)
REMARK    1  A    between atoms: C1_1  and  C6_6 
REMARK    2  A    between atoms: C1_1  and  O9_9 
REMARK    3  A    between atoms: C6_6  and  C7_7 
ROOT
HETATM    1  C2  UNL     1     -32.585  14.720  -3.603  1.00 20.00     0.021 C 
HETATM    2  C6  UNL     1     -34.063  14.339  -3.510  1.00 20.00     0.085 C 
ENDROOT
BRANCH   2   3
HETATM    3  C1  UNL     1     -34.483  13.627  -4.789  1.00 20.00     0.262 C 
HETATM    4  O8  UNL     1     -34.904  12.479  -4.839  1.00 20.00    -0.265 OA
BRANCH   3   5
HETATM    5  O9  UNL     1     -34.325  14.464  -5.856  1.00 20.00    -0.326 OA
HETATM    6  C5  UNL     1     -35.326  14.363  -6.873  1.00 20.00     0.213 C 
ENDBRANCH   3   5
ENDBRANCH   2   3
BRANCH   2   7
HETATM    7  C7  UNL     1     -34.967  15.548  -3.174  1.00 20.00    -0.010 C 
HETATM    8  C3  UNL     1     -34.702  16.164  -1.797  1.00 20.00     0.010 C 
HETATM    9  C4  UNL     1     -36.453  15.200  -3.306  1.00 20.00     0.010 C 
ENDBRANCH   2   7
TORSDOF 3
ENDMDL
MODEL 3
REMARK VINA RESULT:      -4.1     11.436     12.227
REMARK  3 active torsions:
REMARK  status: ('A' for Active; 'I' for Inactive)
REMARK    1  A    between atoms: C1_1  and  C6_6 
REMARK    2  A    between atoms: C1_1  and  O9_9 
REMARK    3  A    between atoms: C6_6  and  C7_7 
ROOT
HETATM    1  C2  UNL     1     -36.761  14.829  -3.802  1.00 20.00     0.021 C 
HETATM    2  C6  UNL     1     -35.311  14.859  -4.288  1.00 20.00     0.085 C 
ENDROOT
BRANCH   2   3
HETATM    3  C1  UNL     1     -35.054  13.660  -5.189  1.00 20.00     0.262 C 
HETATM    4  O8  UNL     1     -34.728  12.549  -4.791  1.00 20.00    -0.265 OA
BRANCH   3   5
HETATM    5  O9  UNL     1     -35.252  14.012  -6.493  1.00 20.00    -0.326 OA
HETATM    6  C5  UNL     1     -34.415  15.065  -6.981  1.00 20.00     0.213 C 
ENDBRANCH   3   5
ENDBRANCH   2   3
BRANCH   2   7
HETATM    7  C7  UNL     1     -34.298  14.960  -3.122  1.00 20.00    -0.010 C 
HETATM    8  C3  UNL     1     -34.671  15.995  -2.057  1.00 20.00     0.010 C 
HETATM    9  C4  UNL     1     -32.877  15.228  -3.628  1.00 20.00     0.010 C 
ENDBRANCH   2   7
TORSDOF 3
ENDMDL
MODEL 4
REMARK VINA RESULT:      -4.1     11.361     12.121
REMARK  3 active torsions:
REMARK  status: ('A' for Active; 'I' for Inactive)
REMARK    1  A    between atoms: C1_1  and  C6_6 
REMARK    2  A    between atoms: C1_1  and  O9_9 
REMARK    3  A    between atoms: C6_6  and  C7_7 
ROOT
HETATM    1  C2  UNL     1     -33.127  15.890  -4.242  1.00 20.00     0.021 C 
HETATM    2  C6  UNL     1     -33.888  14.750  -3.562  1.00 20.00     0.085 C 
ENDROOT
BRANCH   2   3
HETATM    3  C1  UNL     1     -34.435  13.805  -4.622  1.00 20.00     0.262 C 
HETATM    4  O8  UNL     1     -34.948  12.718  -4.386  1.00 20.00    -0.265 OA
BRANCH   3   5
HETATM    5  O9  UNL     1     -34.273  14.357  -5.860  1.00 20.00    -0.326 OA
HETATM    6  C5  UNL     1     -35.420  14.304  -6.714  1.00 20.00     0.213 C 
ENDBRANCH   3   5
ENDBRANCH   2   3
BRANCH   2   7
HETATM    7  C7  UNL     1     -34.981  15.262  -2.594  1.00 20.00    -0.010 C 
HETATM    8  C3  UNL     1     -36.240  15.783  -3.291  1.00 20.00     0.010 C 
HETATM    9  C4  UNL     1     -34.437  16.332  -1.640  1.00 20.00     0.010 C 
ENDBRANCH   2   7
TORSDOF 3
ENDMDL
MODEL 5
REMARK VINA RESULT:      -3.9     11.236     12.162
REMARK  3 active torsions:
REMARK  status: ('A' for Active; 'I' for Inactive)
REMARK    1  A    between atoms: C1_1  and  C6_6 
REMARK    2  A    between atoms: C1_1  and  O9_9 
REMARK    3  A    between atoms: C6_6  and  C7_7 
ROOT
HETATM    1  C2  UNL     1     -32.629  14.666  -3.711  1.00 20.00     0.021 C 
HETATM    2  C6  UNL     1     -34.073  14.657  -3.205  1.00 20.00     0.085 C 
ENDROOT
BRANCH   2   3
HETATM    3  C1  UNL     1     -34.950  13.897  -4.191  1.00 20.00     0.262 C 
HETATM    4  O8  UNL     1     -35.041  12.677  -4.241  1.00 20.00    -0.265 OA
BRANCH   3   5
HETATM    5  O9  UNL     1     -35.614  14.779  -4.993  1.00 20.00    -0.326 OA
HETATM    6  C5  UNL     1     -35.317  14.687  -6.389  1.00 20.00     0.213 C 
ENDBRANCH   3   5
ENDBRANCH   2   3
BRANCH   2   7
HETATM    7  C7  UNL     1     -34.604  16.079  -2.905  1.00 20.00    -0.010 C 
HETATM    8  C3  UNL     1     -33.776  17.203  -3.536  1.00 20.00     0.010 C 
HETATM    9  C4  UNL     1     -34.745  16.325  -1.399  1.00 20.00     0.010 C 
ENDBRANCH   2   7
TORSDOF 3
ENDMDL
MODEL 6
REMARK VINA RESULT:      -3.8     11.675     12.376
REMARK  3 active torsions:
REMARK  status: ('A' for Active; 'I' for Inactive)
REMARK    1  A    between atoms: C1_1  and  C6_6 
REMARK    2  A    between atoms: C1_1  and  O9_9 
REMARK    3  A    between atoms: C6_6  and  C7_7 
ROOT
HETATM    1  C2  UNL     1     -34.674  13.208  -4.681  1.00 20.00     0.021 C 
HETATM    2  C6  UNL     1     -35.393  14.241  -3.811  1.00 20.00     0.085 C 
ENDROOT
BRANCH   2   3
HETATM    3  C1  UNL     1     -36.696  14.650  -4.485  1.00 20.00     0.262 C 
HETATM    4  O8  UNL     1     -36.768  15.284  -5.530  1.00 20.00    -0.265 OA
BRANCH   3   5
HETATM    5  O9  UNL     1     -37.755  14.196  -3.754  1.00 20.00    -0.326 OA
HETATM    6  C5  UNL     1     -38.795  15.150  -3.517  1.00 20.00     0.213 C 
ENDBRANCH   3   5
ENDBRANCH   2   3
BRANCH   2   7
HETATM    7  C7  UNL     1     -34.493  15.451  -3.463  1.00 20.00    -0.010 C 
HETATM    8  C3  UNL     1     -32.996  15.192  -3.652  1.00 20.00     0.010 C 
HETATM    9  C4  UNL     1     -34.755  15.961  -2.042  1.00 20.00     0.010 C 
ENDBRANCH   2   7
TORSDOF 3
ENDMDL
MODEL 7
REMARK VINA RESULT:      -3.7     11.547     13.144
REMARK  3 active torsions:
REMARK  status: ('A' for Active; 'I' for Inactive)
REMARK    1  A    between atoms: C1_1  and  C6_6 
REMARK    2  A    between atoms: C1_1  and  O9_9 
REMARK    3  A    between atoms: C6_6  and  C7_7 
ROOT
HETATM    1  C2  UNL     1     -33.684  15.391  -3.959  1.00 20.00     0.021 C 
HETATM    2  C6  UNL     1     -34.843  14.997  -4.876  1.00 20.00     0.085 C 
ENDROOT
BRANCH   2   3
HETATM    3  C1  UNL     1     -35.352  13.617  -4.483  1.00 20.00     0.262 C 
HETATM    4  O8  UNL     1     -34.774  12.567  -4.730  1.00 20.00    -0.265 OA
BRANCH   3   5
HETATM    5  O9  UNL     1     -36.536  13.736  -3.813  1.00 20.00    -0.326 OA
HETATM    6  C5  UNL     1     -37.309  14.898  -4.128  1.00 20.00     0.213 C 
ENDBRANCH   3   5
ENDBRANCH   2   3
BRANCH   2   7
HETATM    7  C7  UNL     1     -34.471  15.093  -6.374  1.00 20.00    -0.010 C 
HETATM    8  C3  UNL     1     -34.171  16.516  -6.855  1.00 20.00     0.010 C 
HETATM    9  C4  UNL     1     -35.546  14.463  -7.267  1.00 20.00     0.010 C 
ENDBRANCH   2   7
TORSDOF 3
ENDMDL
MODEL 8
REMARK VINA RESULT:      -3.6     11.552     12.604
REMARK  3 active torsions:
REMARK  status: ('A' for Active; 'I' for Inactive)
REMARK    1  A    between atoms: C1_1  and  C6_6 
REMARK    2  A    between atoms: C1_1  and  O9_9 
REMARK    3  A    between atoms: C6_6  and  C7_7 
ROOT
HETATM    1  C2  UNL     1     -34.474  14.931  -6.755  1.00 20.00     0.021 C 
HETATM    2  C6  UNL     1     -34.919  14.847  -5.293  1.00 20.00     0.085 C 
ENDROOT
BRANCH   2   3
HETATM    3  C1  UNL     1     -34.347  13.584  -4.663  1.00 20.00     0.262 C 
HETATM    4  O8  UNL     1     -34.817  12.463  -4.807  1.00 20.00    -0.265 OA
BRANCH   3   5
HETATM    5  O9  UNL     1     -33.238  13.896  -3.930  1.00 20.00    -0.326 OA
HETATM    6  C5  UNL     1     -33.114  15.270  -3.553  1.00 20.00     0.213 C 
ENDBRANCH   3   5
ENDBRANCH   2   3
BRANCH   2   7
HETATM    7  C7  UNL     1     -36.454  14.953  -5.134  1.00 20.00    -0.010 C 
HETATM    8  C3  UNL     1     -37.088  16.098  -5.929  1.00 20.00     0.010 C 
HETATM    9  C4  UNL     1     -36.865  15.056  -3.662  1.00 20.00     0.010 C 
ENDBRANCH   2   7
TORSDOF 3
ENDMDL
MODEL 9
REMARK VINA RESULT:      -3.5     11.232     12.855
REMARK  3 active torsions:
REMARK  status: ('A' for Active; 'I' for Inactive)
REMARK    1  A    between atoms: C1_1  and  C6_6 
REMARK    2  A    between atoms: C1_1  and  O9_9 
REMARK    3  A    between atoms: C6_6  and  C7_7 
ROOT
HETATM    1  C2  UNL     1     -36.784  15.084  -5.043  1.00 20.00     0.021 C 
HETATM    2  C6  UNL     1     -35.551  14.186  -5.151  1.00 20.00     0.085 C 
ENDROOT
BRANCH   2   3
HETATM    3  C1  UNL     1     -34.864  14.106  -3.794  1.00 20.00     0.262 C 
HETATM    4  O8  UNL     1     -34.006  13.284  -3.498  1.00 20.00    -0.265 OA
BRANCH   3   5
HETATM    5  O9  UNL     1     -35.344  15.087  -2.976  1.00 20.00    -0.326 OA
HETATM    6  C5  UNL     1     -34.354  15.913  -2.356  1.00 20.00     0.213 C 
ENDBRANCH   3   5
ENDBRANCH   2   3
BRANCH   2   7
HETATM    7  C7  UNL     1     -34.593  14.628  -6.282  1.00 20.00    -0.010 C 
HETATM    8  C3  UNL     1     -33.993  16.023  -6.084  1.00 20.00     0.010 C 
HETATM    9  C4  UNL     1     -35.264  14.545  -7.657  1.00 20.00     0.010 C 
ENDBRANCH   2   7
TORSDOF 3
ENDMDL
