MODEL 1
REMARK VINA RESULT:      -4.0      0.000      0.000
REMARK  2 active torsions:
REMARK  status: ('A' for Active; 'I' for Inactive)
REMARK    1  A    between atoms: C2_2  and  C5_5 
REMARK    2  A    between atoms: C5_5  and  C6_6 
ROOT
HETATM    1  C1  UNL     1     -32.465   7.241   2.954  1.00 20.00     0.206 A 
HETATM    2  C2  UNL     1     -33.372   6.141   3.451  1.00 20.00     0.079 A 
HETATM    3  C3  UNL     1     -34.163   5.340   2.470  1.00 20.00     0.048 C 
HETATM    4  O7  UNL     1     -31.954   5.956   3.340  1.00 20.00    -0.375 OA
ENDROOT
BRANCH   2   5
HETATM    5  C5  UNL     1     -33.874   6.176   4.886  1.00 20.00     0.039 C 
BRANCH   5   6
HETATM    6  C6  UNL     1     -35.096   5.280   5.073  1.00 20.00    -0.002 C 
HETATM    7  C4  UNL     1     -34.792   4.109   5.995  1.00 20.00     0.005 C 
ENDBRANCH   5   6
ENDBRANCH   2   5
TORSDOF 2
ENDMDL
MODEL 2
REMARK VINA RESULT:      -4.0      1.780      3.495
REMARK  2 active torsions:
REMARK  status: ('A' for Active; 'I' for Inactive)
REMARK    1  A    between atoms: C2_2  and  C5_5 
REMARK    2  A    between atoms: C5_5  and  C6_6 
ROOT
HETATM    1  C1  UNL     1     -34.415   4.233   5.804  1.00 20.00     0.206 A 
HETATM    2  C2  UNL     1     -34.502   5.402   4.852  1.00 20.00     0.079 A 
HETATM    3  C3  UNL     1     -35.577   5.429   3.815  1.00 20.00     0.048 C 
HETATM    4  O7  UNL     1     -34.992   5.488   6.196  1.00 20.00    -0.375 OA
ENDROOT
BRANCH   2   5
HETATM    5  C5  UNL     1     -33.267   6.251   4.595  1.00 20.00     0.039 C 
BRANCH   5   6
HETATM    6  C6  UNL     1     -32.843   6.194   3.129  1.00 20.00    -0.002 C 
HETATM    7  C4  UNL     1     -32.201   7.498   2.683  1.00 20.00     0.005 C 
ENDBRANCH   5   6
ENDBRANCH   2   5
TORSDOF 2
ENDMDL
MODEL 3
REMARK VINA RESULT:      -4.0      1.567      3.626
REMARK  2 active torsions:
REMARK  status: ('A' for Active; 'I' for Inactive)
REMARK    1  A    between atoms: C2_2  and  C5_5 
REMARK    2  A    between atoms: C5_5  and  C6_6 
ROOT
HETATM    1  C1  UNL     1     -35.264   4.438   5.864  1.00 20.00     0.206 A 
HETATM    2  C2  UNL     1     -34.357   5.562   5.424  1.00 20.00     0.079 A 
HETATM    3  C3  UNL     1     -33.930   6.595   6.416  1.00 20.00     0.048 C 
HETATM    4  O7  UNL     1     -33.850   4.250   5.701  1.00 20.00    -0.375 OA
ENDROOT
BRANCH   2   5
HETATM    5  C5  UNL     1     -34.297   5.944   3.953  1.00 20.00     0.039 C 
BRANCH   5   6
HETATM    6  C6  UNL     1     -32.880   5.816   3.399  1.00 20.00    -0.002 C 
HETATM    7  C4  UNL     1     -32.293   7.174   3.050  1.00 20.00     0.005 C 
ENDBRANCH   5   6
ENDBRANCH   2   5
TORSDOF 2
ENDMDL
MODEL 4
REMARK VINA RESULT:      -3.6     11.651     11.938
REMARK  2 active torsions:
REMARK  status: ('A' for Active; 'I' for Inactive)
REMARK    1  A    between atoms: C2_2  and  C5_5 
REMARK    2  A    between atoms: C5_5  and  C6_6 
ROOT
HETATM    1  C1  UNL     1     -34.685  13.591  -5.298  1.00 20.00     0.206 A 
HETATM    2  C2  UNL     1     -35.315  14.167  -4.053  1.00 20.00     0.079 A 
HETATM    3  C3  UNL     1     -36.781  14.460  -4.038  1.00 20.00     0.048 C 
HETATM    4  O7  UNL     1     -35.006  12.772  -4.163  1.00 20.00    -0.375 OA
ENDROOT
BRANCH   2   5
HETATM    5  C5  UNL     1     -34.447  14.910  -3.050  1.00 20.00     0.039 C 
BRANCH   5   6
HETATM    6  C6  UNL     1     -35.209  16.058  -2.392  1.00 20.00    -0.002 C 
HETATM    7  C4  UNL     1     -34.545  16.499  -1.097  1.00 20.00     0.005 C 
ENDBRANCH   5   6
ENDBRANCH   2   5
TORSDOF 2
ENDMDL
MODEL 5
REMARK VINA RESULT:      -3.3     11.794     12.550
REMARK  2 active torsions:
REMARK  status: ('A' for Active; 'I' for Inactive)
REMARK    1  A    between atoms: C2_2  and  C5_5 
REMARK    2  A    between atoms: C5_5  and  C6_6 
ROOT
HETATM    1  C1  UNL     1     -33.796  16.345  -5.075  1.00 20.00     0.206 A 
HETATM    2  C2  UNL     1     -33.690  15.726  -3.701  1.00 20.00     0.079 A 
HETATM    3  C3  UNL     1     -34.092  14.301  -3.502  1.00 20.00     0.048 C 
HETATM    4  O7  UNL     1     -32.542  15.890  -4.545  1.00 20.00    -0.375 OA
ENDROOT
BRANCH   2   5
HETATM    5  C5  UNL     1     -33.681  16.625  -2.475  1.00 20.00     0.039 C 
BRANCH   5   6
HETATM    6  C6  UNL     1     -34.785  16.240  -1.492  1.00 20.00    -0.002 C 
HETATM    7  C4  UNL     1     -34.707  17.064  -0.216  1.00 20.00     0.005 C 
ENDBRANCH   5   6
ENDBRANCH   2   5
TORSDOF 2
ENDMDL
MODEL 6
REMARK VINA RESULT:      -3.3     11.748     12.169
REMARK  2 active torsions:
REMARK  status: ('A' for Active; 'I' for Inactive)
REMARK    1  A    between atoms: C2_2  and  C5_5 
REMARK    2  A    between atoms: C5_5  and  C6_6 
ROOT
HETATM    1  C1  UNL     1     -35.020  13.615  -4.124  1.00 20.00     0.206 A 
HETATM    2  C2  UNL     1     -34.362  14.849  -3.555  1.00 20.00     0.079 A 
HETATM    3  C3  UNL     1     -32.880  15.008  -3.663  1.00 20.00     0.048 C 
HETATM    4  O7  UNL     1     -35.039  14.872  -4.818  1.00 20.00    -0.375 OA
ENDROOT
BRANCH   2   5
HETATM    5  C5  UNL     1     -35.069  15.641  -2.466  1.00 20.00     0.039 C 
BRANCH   5   6
HETATM    6  C6  UNL     1     -34.097  16.544  -1.710  1.00 20.00    -0.002 C 
HETATM    7  C4  UNL     1     -34.670  16.982  -0.372  1.00 20.00     0.005 C 
ENDBRANCH   5   6
ENDBRANCH   2   5
TORSDOF 2
ENDMDL
MODEL 7
REMARK VINA RESULT:      -3.3      1.468      1.791
REMARK  2 active torsions:
REMARK  status: ('A' for Active; 'I' for Inactive)
REMARK    1  A    between atoms: C2_2  and  C5_5 
REMARK    2  A    between atoms: C5_5  and  C6_6 
ROOT
HETATM    1  C1  UNL     1     -33.269   6.555   3.338  1.00 20.00     0.206 A 
HETATM    2  C2  UNL     1     -34.341   5.647   3.894  1.00 20.00     0.079 A 
HETATM    3  C3  UNL     1     -35.770   5.890   3.533  1.00 20.00     0.048 C 
HETATM    4  O7  UNL     1     -33.523   5.255   2.783  1.00 20.00    -0.375 OA
ENDROOT
BRANCH   2   5
HETATM    5  C5  UNL     1     -34.068   4.857   5.164  1.00 20.00     0.039 C 
BRANCH   5   6
HETATM    6  C6  UNL     1     -34.665   5.545   6.390  1.00 20.00    -0.002 C 
HETATM    7  C4  UNL     1     -33.919   6.826   6.728  1.00 20.00     0.005 C 
ENDBRANCH   5   6
ENDBRANCH   2   5
TORSDOF 2
ENDMDL
MODEL 8
REMARK VINA RESULT:      -3.3      1.759      2.712
REMARK  2 active torsions:
REMARK  status: ('A' for Active; 'I' for Inactive)
REMARK    1  A    between atoms: C2_2  and  C5_5 
REMARK    2  A    between atoms: C5_5  and  C6_6 
ROOT
HETATM    1  C1  UNL     1     -35.668   5.781   3.226  1.00 20.00     0.206 A 
HETATM    2  C2  UNL     1     -34.728   5.304   4.307  1.00 20.00     0.079 A 
HETATM    3  C3  UNL     1     -35.036   4.042   5.045  1.00 20.00     0.048 C 
HETATM    4  O7  UNL     1     -34.440   5.104   2.917  1.00 20.00    -0.375 OA
ENDROOT
BRANCH   2   5
HETATM    5  C5  UNL     1     -33.802   6.300   4.987  1.00 20.00     0.039 C 
BRANCH   5   6
HETATM    6  C6  UNL     1     -34.067   6.373   6.490  1.00 20.00    -0.002 C 
HETATM    7  C4  UNL     1     -33.380   7.576   7.118  1.00 20.00     0.005 C 
ENDBRANCH   5   6
ENDBRANCH   2   5
TORSDOF 2
ENDMDL
MODEL 9
REMARK VINA RESULT:      -3.1     11.598     13.395
REMARK  2 active torsions:
REMARK  status: ('A' for Active; 'I' for Inactive)
REMARK    1  A    between atoms: C2_2  and  C5_5 
REMARK    2  A    between atoms: C5_5  and  C6_6 
ROOT
HETATM    1  C1  UNL     1     -35.756  13.666  -4.105  1.00 20.00     0.206 A 
HETATM    2  C2  UNL     1     -34.457  14.102  -4.740  1.00 20.00     0.079 A 
HETATM    3  C3  UNL     1     -33.305  14.486  -3.869  1.00 20.00     0.048 C 
HETATM    4  O7  UNL     1     -34.820  12.718  -4.640  1.00 20.00    -0.375 OA
ENDROOT
BRANCH   2   5
HETATM    5  C5  UNL     1     -34.462  14.635  -6.163  1.00 20.00     0.039 C 
BRANCH   5   6
HETATM    6  C6  UNL     1     -33.961  16.077  -6.223  1.00 20.00    -0.002 C 
HETATM    7  C4  UNL     1     -34.595  16.840  -7.374  1.00 20.00     0.005 C 
ENDBRANCH   5   6
ENDBRANCH   2   5
TORSDOF 2
ENDMDL
