MODEL 1
REMARK VINA RESULT:      -4.4      0.000      0.000
REMARK  2 active torsions:
REMARK  status: ('A' for Active; 'I' for Inactive)
REMARK    1  A    between atoms: C3_3  and  C10_10 
REMARK    2  A    between atoms: C7_7  and  C10_10 
ROOT
HETATM    1  C1  UNL     1     -36.061  17.523  -1.969  1.00 20.00    -0.024 C 
HETATM    2  C2  UNL     1     -35.023  17.190  -1.184  1.00 20.00    -0.087 C 
HETATM    3  C4  UNL     1     -36.131  17.212  -3.437  1.00 20.00     0.032 C 
HETATM    4  C5  UNL     1     -33.804  16.487  -1.726  1.00 20.00     0.034 C 
HETATM    5  C6  UNL     1     -33.735  16.463  -3.257  1.00 20.00     0.010 C 
HETATM    6  C7  UNL     1     -35.095  16.175  -3.906  1.00 20.00    -0.001 C 
HETATM    7  C8  UNL     1     -35.010  17.495   0.285  1.00 20.00     0.043 C 
ENDROOT
BRANCH   6   8
HETATM    8  C10 UNL     1     -35.565  14.743  -3.626  1.00 20.00     0.047 C 
HETATM    9  C9  UNL     1     -37.029  14.567  -4.003  1.00 20.00     0.017 C 
BRANCH   8  10
HETATM   10  C3  UNL     1     -34.669  13.777  -4.374  1.00 20.00     0.235 C 
HETATM   11  O11 UNL     1     -34.933  12.596  -4.576  1.00 20.00    -0.306 OA
ENDBRANCH   8  10
ENDBRANCH   6   8
TORSDOF 2
ENDMDL
MODEL 2
REMARK VINA RESULT:      -4.4      2.150      3.368
REMARK  2 active torsions:
REMARK  status: ('A' for Active; 'I' for Inactive)
REMARK    1  A    between atoms: C3_3  and  C10_10 
REMARK    2  A    between atoms: C7_7  and  C10_10 
ROOT
HETATM    1  C1  UNL     1     -33.685  14.823  -3.392  1.00 20.00    -0.024 C 
HETATM    2  C2  UNL     1     -34.584  15.590  -2.752  1.00 20.00    -0.087 C 
HETATM    3  C4  UNL     1     -34.041  13.854  -4.483  1.00 20.00     0.032 C 
HETATM    4  C5  UNL     1     -36.058  15.524  -3.063  1.00 20.00     0.034 C 
HETATM    5  C6  UNL     1     -36.451  14.324  -3.932  1.00 20.00     0.010 C 
HETATM    6  C7  UNL     1     -35.451  14.059  -5.065  1.00 20.00    -0.001 C 
HETATM    7  C8  UNL     1     -34.178  16.566  -1.687  1.00 20.00     0.043 C 
ENDROOT
BRANCH   6   8
HETATM    8  C10 UNL     1     -35.472  15.178  -6.112  1.00 20.00     0.047 C 
HETATM    9  C9  UNL     1     -34.395  14.958  -7.165  1.00 20.00     0.017 C 
BRANCH   8  10
HETATM   10  C3  UNL     1     -36.856  15.252  -6.725  1.00 20.00     0.235 C 
HETATM   11  O11 UNL     1     -37.157  14.795  -7.822  1.00 20.00    -0.306 OA
ENDBRANCH   8  10
ENDBRANCH   6   8
TORSDOF 2
ENDMDL
MODEL 3
REMARK VINA RESULT:      -4.3      1.729      2.207
REMARK  2 active torsions:
REMARK  status: ('A' for Active; 'I' for Inactive)
REMARK    1  A    between atoms: C3_3  and  C10_10 
REMARK    2  A    between atoms: C7_7  and  C10_10 
ROOT
HETATM    1  C1  UNL     1     -33.712  17.946  -4.479  1.00 20.00    -0.024 C 
HETATM    2  C2  UNL     1     -33.918  17.823  -3.158  1.00 20.00    -0.087 C 
HETATM    3  C4  UNL     1     -33.410  16.789  -5.388  1.00 20.00     0.032 C 
HETATM    4  C5  UNL     1     -33.837  16.491  -2.456  1.00 20.00     0.034 C 
HETATM    5  C6  UNL     1     -33.219  15.380  -3.312  1.00 20.00     0.010 C 
HETATM    6  C7  UNL     1     -33.706  15.413  -4.766  1.00 20.00    -0.001 C 
HETATM    7  C8  UNL     1     -34.246  19.005  -2.293  1.00 20.00     0.043 C 
ENDROOT
BRANCH   6   8
HETATM    8  C10 UNL     1     -35.191  15.053  -4.875  1.00 20.00     0.047 C 
HETATM    9  C9  UNL     1     -35.657  15.091  -6.324  1.00 20.00     0.017 C 
BRANCH   8  10
HETATM   10  C3  UNL     1     -35.415  13.693  -4.245  1.00 20.00     0.235 C 
HETATM   11  O11 UNL     1     -34.916  12.648  -4.649  1.00 20.00    -0.306 OA
ENDBRANCH   8  10
ENDBRANCH   6   8
TORSDOF 2
ENDMDL
MODEL 4
REMARK VINA RESULT:      -4.3      2.568      4.674
REMARK  2 active torsions:
REMARK  status: ('A' for Active; 'I' for Inactive)
REMARK    1  A    between atoms: C3_3  and  C10_10 
REMARK    2  A    between atoms: C7_7  and  C10_10 
ROOT
HETATM    1  C1  UNL     1     -34.587  13.924  -4.864  1.00 20.00    -0.024 C 
HETATM    2  C2  UNL     1     -34.730  14.731  -5.929  1.00 20.00    -0.087 C 
HETATM    3  C4  UNL     1     -33.753  14.268  -3.663  1.00 20.00     0.032 C 
HETATM    4  C5  UNL     1     -34.031  16.064  -6.023  1.00 20.00     0.034 C 
HETATM    5  C6  UNL     1     -32.943  16.265  -4.963  1.00 20.00     0.010 C 
HETATM    6  C7  UNL     1     -33.363  15.754  -3.578  1.00 20.00    -0.001 C 
HETATM    7  C8  UNL     1     -35.598  14.358  -7.095  1.00 20.00     0.043 C 
ENDROOT
BRANCH   6   8
HETATM    8  C10 UNL     1     -34.492  16.600  -2.981  1.00 20.00     0.047 C 
HETATM    9  C9  UNL     1     -34.755  16.212  -1.532  1.00 20.00     0.017 C 
BRANCH   8  10
HETATM   10  C3  UNL     1     -34.133  18.066  -3.117  1.00 20.00     0.235 C 
HETATM   11  O11 UNL     1     -33.408  18.681  -2.341  1.00 20.00    -0.306 OA
ENDBRANCH   8  10
ENDBRANCH   6   8
TORSDOF 2
ENDMDL
MODEL 5
REMARK VINA RESULT:      -4.3      2.289      4.369
REMARK  2 active torsions:
REMARK  status: ('A' for Active; 'I' for Inactive)
REMARK    1  A    between atoms: C3_3  and  C10_10 
REMARK    2  A    between atoms: C7_7  and  C10_10 
ROOT
HETATM    1  C1  UNL     1     -34.849  13.851  -5.364  1.00 20.00    -0.024 C 
HETATM    2  C2  UNL     1     -34.436  14.835  -6.180  1.00 20.00    -0.087 C 
HETATM    3  C4  UNL     1     -34.610  13.840  -3.881  1.00 20.00     0.032 C 
HETATM    4  C5  UNL     1     -33.660  16.023  -5.670  1.00 20.00     0.034 C 
HETATM    5  C6  UNL     1     -33.143  15.853  -4.237  1.00 20.00     0.010 C 
HETATM    6  C7  UNL     1     -34.175  15.201  -3.309  1.00 20.00    -0.001 C 
HETATM    7  C8  UNL     1     -34.724  14.818  -7.652  1.00 20.00     0.043 C 
ENDROOT
BRANCH   6   8
HETATM    8  C10 UNL     1     -35.376  16.119  -3.063  1.00 20.00     0.047 C 
HETATM    9  C9  UNL     1     -36.681  15.336  -3.120  1.00 20.00     0.017 C 
BRANCH   8  10
HETATM   10  C3  UNL     1     -35.196  16.820  -1.732  1.00 20.00     0.235 C 
HETATM   11  O11 UNL     1     -34.605  16.344  -0.768  1.00 20.00    -0.306 OA
ENDBRANCH   8  10
ENDBRANCH   6   8
TORSDOF 2
ENDMDL
MODEL 6
REMARK VINA RESULT:      -4.3      1.999      2.589
REMARK  2 active torsions:
REMARK  status: ('A' for Active; 'I' for Inactive)
REMARK    1  A    between atoms: C3_3  and  C10_10 
REMARK    2  A    between atoms: C7_7  and  C10_10 
ROOT
HETATM    1  C1  UNL     1     -34.266  16.854  -0.756  1.00 20.00    -0.024 C 
HETATM    2  C2  UNL     1     -33.572  17.996  -0.898  1.00 20.00    -0.087 C 
HETATM    3  C4  UNL     1     -35.038  16.203  -1.868  1.00 20.00     0.032 C 
HETATM    4  C5  UNL     1     -33.530  18.750  -2.203  1.00 20.00     0.034 C 
HETATM    5  C6  UNL     1     -34.564  18.268  -3.227  1.00 20.00     0.010 C 
HETATM    6  C7  UNL     1     -34.689  16.739  -3.268  1.00 20.00    -0.001 C 
HETATM    7  C8  UNL     1     -32.791  18.595   0.234  1.00 20.00     0.043 C 
ENDROOT
BRANCH   6   8
HETATM    8  C10 UNL     1     -33.421  16.082  -3.823  1.00 20.00     0.047 C 
HETATM    9  C9  UNL     1     -33.479  14.568  -3.667  1.00 20.00     0.017 C 
BRANCH   8  10
HETATM   10  C3  UNL     1     -33.247  16.494  -5.271  1.00 20.00     0.235 C 
HETATM   11  O11 UNL     1     -33.832  15.978  -6.217  1.00 20.00    -0.306 OA
ENDBRANCH   8  10
ENDBRANCH   6   8
TORSDOF 2
ENDMDL
MODEL 7
REMARK VINA RESULT:      -4.2      1.882      2.897
REMARK  2 active torsions:
REMARK  status: ('A' for Active; 'I' for Inactive)
REMARK    1  A    between atoms: C3_3  and  C10_10 
REMARK    2  A    between atoms: C7_7  and  C10_10 
ROOT
HETATM    1  C1  UNL     1     -33.367  16.200  -2.939  1.00 20.00    -0.024 C 
HETATM    2  C2  UNL     1     -34.531  16.022  -2.292  1.00 20.00    -0.087 C 
HETATM    3  C4  UNL     1     -32.999  15.482  -4.206  1.00 20.00     0.032 C 
HETATM    4  C5  UNL     1     -35.575  15.048  -2.776  1.00 20.00     0.034 C 
HETATM    5  C6  UNL     1     -35.071  14.095  -3.865  1.00 20.00     0.010 C 
HETATM    6  C7  UNL     1     -34.187  14.797  -4.904  1.00 20.00    -0.001 C 
HETATM    7  C8  UNL     1     -34.869  16.785  -1.044  1.00 20.00     0.043 C 
ENDROOT
BRANCH   6   8
HETATM    8  C10 UNL     1     -34.989  15.789  -5.753  1.00 20.00     0.047 C 
HETATM    9  C9  UNL     1     -34.063  16.725  -6.517  1.00 20.00     0.017 C 
BRANCH   8  10
HETATM   10  C3  UNL     1     -35.902  15.015  -6.682  1.00 20.00     0.235 C 
HETATM   11  O11 UNL     1     -35.517  14.245  -7.556  1.00 20.00    -0.306 OA
ENDBRANCH   8  10
ENDBRANCH   6   8
TORSDOF 2
ENDMDL
MODEL 8
REMARK VINA RESULT:      -4.1      2.134      4.362
REMARK  2 active torsions:
REMARK  status: ('A' for Active; 'I' for Inactive)
REMARK    1  A    between atoms: C3_3  and  C10_10 
REMARK    2  A    between atoms: C7_7  and  C10_10 
ROOT
HETATM    1  C1  UNL     1     -37.294  15.122  -5.262  1.00 20.00    -0.024 C 
HETATM    2  C2  UNL     1     -36.526  15.066  -6.363  1.00 20.00    -0.087 C 
HETATM    3  C4  UNL     1     -36.878  14.572  -3.927  1.00 20.00     0.032 C 
HETATM    4  C5  UNL     1     -35.169  14.410  -6.360  1.00 20.00     0.034 C 
HETATM    5  C6  UNL     1     -34.890  13.577  -5.105  1.00 20.00     0.010 C 
HETATM    6  C7  UNL     1     -35.375  14.260  -3.820  1.00 20.00    -0.001 C 
HETATM    7  C8  UNL     1     -36.970  15.657  -7.669  1.00 20.00     0.043 C 
ENDROOT
BRANCH   6   8
HETATM    8  C10 UNL     1     -34.560  15.518  -3.505  1.00 20.00     0.047 C 
HETATM    9  C9  UNL     1     -34.780  15.964  -2.066  1.00 20.00     0.017 C 
BRANCH   8  10
HETATM   10  C3  UNL     1     -33.098  15.242  -3.792  1.00 20.00     0.235 C 
HETATM   11  O11 UNL     1     -32.396  15.914  -4.541  1.00 20.00    -0.306 OA
ENDBRANCH   8  10
ENDBRANCH   6   8
TORSDOF 2
ENDMDL
MODEL 9
REMARK VINA RESULT:      -4.1      1.949      2.456
REMARK  2 active torsions:
REMARK  status: ('A' for Active; 'I' for Inactive)
REMARK    1  A    between atoms: C3_3  and  C10_10 
REMARK    2  A    between atoms: C7_7  and  C10_10 
ROOT
HETATM    1  C1  UNL     1     -33.546  17.641  -4.435  1.00 20.00    -0.024 C 
HETATM    2  C2  UNL     1     -33.764  17.600  -3.109  1.00 20.00    -0.087 C 
HETATM    3  C4  UNL     1     -33.670  16.448  -5.338  1.00 20.00     0.032 C 
HETATM    4  C5  UNL     1     -34.130  16.322  -2.398  1.00 20.00     0.034 C 
HETATM    5  C6  UNL     1     -33.939  15.064  -3.254  1.00 20.00     0.010 C 
HETATM    6  C7  UNL     1     -34.407  15.256  -4.702  1.00 20.00    -0.001 C 
HETATM    7  C8  UNL     1     -33.658  18.825  -2.250  1.00 20.00     0.043 C 
ENDROOT
BRANCH   6   8
HETATM    8  C10 UNL     1     -35.928  15.423  -4.789  1.00 20.00     0.047 C 
HETATM    9  C9  UNL     1     -36.377  15.573  -6.236  1.00 20.00     0.017 C 
BRANCH   8  10
HETATM   10  C3  UNL     1     -36.592  14.241  -4.111  1.00 20.00     0.235 C 
HETATM   11  O11 UNL     1     -37.765  14.211  -3.755  1.00 20.00    -0.306 OA
ENDBRANCH   8  10
ENDBRANCH   6   8
TORSDOF 2
ENDMDL
