MODEL 1
REMARK VINA RESULT:      -5.2      0.000      0.000
REMARK  1 active torsions:
REMARK  status: ('A' for Active; 'I' for Inactive)
REMARK    1  A    between atoms: C7_7  and  C10_10 
ROOT
HETATM    1  C1  UNL     1     -33.332  16.205  -3.718  1.00 20.00    -0.004 C 
HETATM    2  C2  UNL     1     -33.335  16.418  -5.154  1.00 20.00    -0.004 C 
HETATM    3  C3  UNL     1     -34.154  15.441  -2.975  1.00 20.00    -0.017 C 
HETATM    4  C4  UNL     1     -34.161  15.901  -6.082  1.00 20.00    -0.017 C 
HETATM    5  C5  UNL     1     -34.892  13.402  -4.186  1.00 20.00    -0.021 C 
HETATM    6  C6  UNL     1     -34.897  13.599  -5.511  1.00 20.00    -0.021 C 
HETATM    7  C8  UNL     1     -35.341  14.645  -3.459  1.00 20.00     0.042 C 
HETATM    8  C9  UNL     1     -35.347  14.999  -5.845  1.00 20.00     0.042 C 
HETATM    9  C10 UNL     1     -36.114  15.381  -4.566  1.00 20.00     0.077 C 
ENDROOT
BRANCH   9  10
HETATM   10  C7  UNL     1     -37.548  14.922  -4.618  1.00 20.00     0.129 C 
HETATM   11  C11 UNL     1     -38.338  15.302  -5.841  1.00 20.00     0.091 C 
HETATM   12  O12 UNL     1     -38.049  14.267  -3.705  1.00 20.00    -0.298 OA
ENDBRANCH   9  10
TORSDOF 1
ENDMDL
MODEL 2
REMARK VINA RESULT:      -5.1      1.997      3.809
REMARK  1 active torsions:
REMARK  status: ('A' for Active; 'I' for Inactive)
REMARK    1  A    between atoms: C7_7  and  C10_10 
ROOT
HETATM    1  C1  UNL     1     -35.110  13.457  -4.156  1.00 20.00    -0.004 C 
HETATM    2  C2  UNL     1     -33.670  13.538  -3.989  1.00 20.00    -0.004 C 
HETATM    3  C3  UNL     1     -36.038  14.412  -3.962  1.00 20.00    -0.017 C 
HETATM    4  C4  UNL     1     -32.923  14.589  -3.600  1.00 20.00    -0.017 C 
HETATM    5  C5  UNL     1     -35.191  16.677  -4.532  1.00 20.00    -0.021 C 
HETATM    6  C6  UNL     1     -33.863  16.753  -4.376  1.00 20.00    -0.021 C 
HETATM    7  C8  UNL     1     -35.808  15.816  -3.458  1.00 20.00     0.042 C 
HETATM    8  C9  UNL     1     -33.416  15.951  -3.180  1.00 20.00     0.042 C 
HETATM    9  C10 UNL     1     -34.722  15.866  -2.370  1.00 20.00     0.077 C 
ENDROOT
BRANCH   9  10
HETATM   10  C7  UNL     1     -34.907  17.067  -1.480  1.00 20.00     0.129 C 
HETATM   11  C11 UNL     1     -33.682  17.581  -0.773  1.00 20.00     0.091 C 
HETATM   12  O12 UNL     1     -36.005  17.602  -1.338  1.00 20.00    -0.298 OA
ENDBRANCH   9  10
TORSDOF 1
ENDMDL
MODEL 3
REMARK VINA RESULT:      -5.0      1.956      3.637
REMARK  1 active torsions:
REMARK  status: ('A' for Active; 'I' for Inactive)
REMARK    1  A    between atoms: C7_7  and  C10_10 
ROOT
HETATM    1  C1  UNL     1     -35.238  14.176  -6.013  1.00 20.00    -0.004 C 
HETATM    2  C2  UNL     1     -34.782  13.224  -5.016  1.00 20.00    -0.004 C 
HETATM    3  C3  UNL     1     -35.209  15.521  -5.973  1.00 20.00    -0.017 C 
HETATM    4  C4  UNL     1     -34.221  13.463  -3.816  1.00 20.00    -0.017 C 
HETATM    5  C5  UNL     1     -33.228  16.383  -4.746  1.00 20.00    -0.021 C 
HETATM    6  C6  UNL     1     -32.808  15.506  -3.825  1.00 20.00    -0.021 C 
HETATM    7  C8  UNL     1     -34.734  16.388  -4.832  1.00 20.00     0.042 C 
HETATM    8  C9  UNL     1     -33.976  14.807  -3.176  1.00 20.00     0.042 C 
HETATM    9  C10 UNL     1     -35.118  15.798  -3.464  1.00 20.00     0.077 C 
ENDROOT
BRANCH   9  10
HETATM   10  C7  UNL     1     -35.198  16.877  -2.416  1.00 20.00     0.129 C 
HETATM   11  C11 UNL     1     -34.684  16.530  -1.046  1.00 20.00     0.091 C 
HETATM   12  O12 UNL     1     -35.660  17.989  -2.669  1.00 20.00    -0.298 OA
ENDBRANCH   9  10
TORSDOF 1
ENDMDL
MODEL 4
REMARK VINA RESULT:      -5.0      1.137      1.848
REMARK  1 active torsions:
REMARK  status: ('A' for Active; 'I' for Inactive)
REMARK    1  A    between atoms: C7_7  and  C10_10 
ROOT
HETATM    1  C1  UNL     1     -33.020  14.059  -3.642  1.00 20.00    -0.004 C 
HETATM    2  C2  UNL     1     -32.895  15.506  -3.645  1.00 20.00    -0.004 C 
HETATM    3  C3  UNL     1     -34.076  13.301  -3.991  1.00 20.00    -0.017 C 
HETATM    4  C4  UNL     1     -33.806  16.431  -3.998  1.00 20.00    -0.017 C 
HETATM    5  C5  UNL     1     -35.391  14.316  -5.838  1.00 20.00    -0.021 C 
HETATM    6  C6  UNL     1     -35.278  15.650  -5.840  1.00 20.00    -0.021 C 
HETATM    7  C8  UNL     1     -35.438  13.784  -4.427  1.00 20.00     0.042 C 
HETATM    8  C9  UNL     1     -35.231  16.187  -4.432  1.00 20.00     0.042 C 
HETATM    9  C10 UNL     1     -35.882  15.033  -3.648  1.00 20.00     0.077 C 
ENDROOT
BRANCH   9  10
HETATM   10  C7  UNL     1     -37.383  15.150  -3.628  1.00 20.00     0.129 C 
HETATM   11  C11 UNL     1     -37.954  16.536  -3.502  1.00 20.00     0.091 C 
HETATM   12  O12 UNL     1     -38.108  14.159  -3.712  1.00 20.00    -0.298 OA
ENDBRANCH   9  10
TORSDOF 1
ENDMDL
MODEL 5
REMARK VINA RESULT:      -5.0      1.793      2.645
REMARK  1 active torsions:
REMARK  status: ('A' for Active; 'I' for Inactive)
REMARK    1  A    between atoms: C7_7  and  C10_10 
ROOT
HETATM    1  C1  UNL     1     -35.315  17.111  -2.038  1.00 20.00    -0.004 C 
HETATM    2  C2  UNL     1     -35.553  17.914  -3.225  1.00 20.00    -0.004 C 
HETATM    3  C3  UNL     1     -34.752  15.893  -1.942  1.00 20.00    -0.017 C 
HETATM    4  C4  UNL     1     -35.265  17.629  -4.508  1.00 20.00    -0.017 C 
HETATM    5  C5  UNL     1     -32.971  15.544  -3.638  1.00 20.00    -0.021 C 
HETATM    6  C6  UNL     1     -33.191  16.283  -4.733  1.00 20.00    -0.021 C 
HETATM    7  C8  UNL     1     -34.269  15.021  -3.075  1.00 20.00     0.042 C 
HETATM    8  C9  UNL     1     -34.664  16.354  -5.046  1.00 20.00     0.042 C 
HETATM    9  C10 UNL     1     -35.190  15.113  -4.303  1.00 20.00     0.077 C 
ENDROOT
BRANCH   9  10
HETATM   10  C7  UNL     1     -35.084  13.870  -5.149  1.00 20.00     0.129 C 
HETATM   11  C11 UNL     1     -35.195  14.054  -6.638  1.00 20.00     0.091 C 
HETATM   12  O12 UNL     1     -34.914  12.761  -4.646  1.00 20.00    -0.298 OA
ENDBRANCH   9  10
TORSDOF 1
ENDMDL
MODEL 6
REMARK VINA RESULT:      -4.9      3.001      4.681
REMARK  1 active torsions:
REMARK  status: ('A' for Active; 'I' for Inactive)
REMARK    1  A    between atoms: C7_7  and  C10_10 
ROOT
HETATM    1  C1  UNL     1     -33.570  18.925  -0.617  1.00 20.00    -0.004 C 
HETATM    2  C2  UNL     1     -34.212  17.830   0.089  1.00 20.00    -0.004 C 
HETATM    3  C3  UNL     1     -33.389  19.086  -1.940  1.00 20.00    -0.017 C 
HETATM    4  C4  UNL     1     -34.777  16.717  -0.415  1.00 20.00    -0.017 C 
HETATM    5  C5  UNL     1     -35.258  18.131  -3.269  1.00 20.00    -0.021 C 
HETATM    6  C6  UNL     1     -35.849  17.119  -2.620  1.00 20.00    -0.021 C 
HETATM    7  C8  UNL     1     -33.768  18.119  -3.036  1.00 20.00     0.042 C 
HETATM    8  C9  UNL     1     -34.833  16.300  -1.864  1.00 20.00     0.042 C 
HETATM    9  C10 UNL     1     -33.539  16.657  -2.616  1.00 20.00     0.077 C 
ENDROOT
BRANCH   9  10
HETATM   10  C7  UNL     1     -33.332  15.778  -3.822  1.00 20.00     0.129 C 
HETATM   11  C11 UNL     1     -33.740  14.336  -3.685  1.00 20.00     0.091 C 
HETATM   12  O12 UNL     1     -32.855  16.217  -4.867  1.00 20.00    -0.298 OA
ENDBRANCH   9  10
TORSDOF 1
ENDMDL
MODEL 7
REMARK VINA RESULT:      -4.8      2.317      3.530
REMARK  1 active torsions:
REMARK  status: ('A' for Active; 'I' for Inactive)
REMARK    1  A    between atoms: C7_7  and  C10_10 
ROOT
HETATM    1  C1  UNL     1     -33.690  13.420  -3.963  1.00 20.00    -0.004 C 
HETATM    2  C2  UNL     1     -35.125  13.366  -4.181  1.00 20.00    -0.004 C 
HETATM    3  C3  UNL     1     -32.919  14.485  -3.675  1.00 20.00    -0.017 C 
HETATM    4  C4  UNL     1     -36.022  14.369  -4.148  1.00 20.00    -0.017 C 
HETATM    5  C5  UNL     1     -34.107  16.156  -2.273  1.00 20.00    -0.021 C 
HETATM    6  C6  UNL     1     -35.430  16.108  -2.476  1.00 20.00    -0.021 C 
HETATM    7  C8  UNL     1     -33.359  15.924  -3.562  1.00 20.00     0.042 C 
HETATM    8  C9  UNL     1     -35.742  15.835  -3.926  1.00 20.00     0.042 C 
HETATM    9  C10 UNL     1     -34.433  16.280  -4.604  1.00 20.00     0.077 C 
ENDROOT
BRANCH   9  10
HETATM   10  C7  UNL     1     -34.431  17.758  -4.896  1.00 20.00     0.129 C 
HETATM   11  C11 UNL     1     -35.732  18.360  -5.353  1.00 20.00     0.091 C 
HETATM   12  O12 UNL     1     -33.415  18.439  -4.767  1.00 20.00    -0.298 OA
ENDBRANCH   9  10
TORSDOF 1
ENDMDL
MODEL 8
REMARK VINA RESULT:      -4.8      1.943      2.507
REMARK  1 active torsions:
REMARK  status: ('A' for Active; 'I' for Inactive)
REMARK    1  A    between atoms: C7_7  and  C10_10 
ROOT
HETATM    1  C1  UNL     1     -35.247  16.062  -2.354  1.00 20.00    -0.004 C 
HETATM    2  C2  UNL     1     -33.822  16.153  -2.621  1.00 20.00    -0.004 C 
HETATM    3  C3  UNL     1     -36.203  15.443  -3.071  1.00 20.00    -0.017 C 
HETATM    4  C4  UNL     1     -33.122  15.640  -3.649  1.00 20.00    -0.017 C 
HETATM    5  C5  UNL     1     -35.361  13.388  -4.184  1.00 20.00    -0.021 C 
HETATM    6  C6  UNL     1     -34.047  13.472  -4.432  1.00 20.00    -0.021 C 
HETATM    7  C8  UNL     1     -36.031  14.724  -4.386  1.00 20.00     0.042 C 
HETATM    8  C9  UNL     1     -33.666  14.875  -4.830  1.00 20.00     0.042 C 
HETATM    9  C10 UNL     1     -35.020  15.434  -5.302  1.00 20.00     0.077 C 
ENDROOT
BRANCH   9  10
HETATM   10  C7  UNL     1     -35.284  15.109  -6.749  1.00 20.00     0.129 C 
HETATM   11  C11 UNL     1     -36.725  15.067  -7.182  1.00 20.00     0.091 C 
HETATM   12  O12 UNL     1     -34.367  14.889  -7.539  1.00 20.00    -0.298 OA
ENDBRANCH   9  10
TORSDOF 1
ENDMDL
MODEL 9
REMARK VINA RESULT:      -4.8      1.504      2.300
REMARK  1 active torsions:
REMARK  status: ('A' for Active; 'I' for Inactive)
REMARK    1  A    between atoms: C7_7  and  C10_10 
ROOT
HETATM    1  C1  UNL     1     -33.621  13.740  -3.830  1.00 20.00    -0.004 C 
HETATM    2  C2  UNL     1     -32.957  15.028  -3.734  1.00 20.00    -0.004 C 
HETATM    3  C3  UNL     1     -34.676  13.388  -4.588  1.00 20.00    -0.017 C 
HETATM    4  C4  UNL     1     -33.240  16.173  -4.381  1.00 20.00    -0.017 C 
HETATM    5  C5  UNL     1     -34.711  14.584  -6.765  1.00 20.00    -0.021 C 
HETATM    6  C6  UNL     1     -34.100  15.773  -6.676  1.00 20.00    -0.021 C 
HETATM    7  C8  UNL     1     -35.478  14.281  -5.503  1.00 20.00     0.042 C 
HETATM    8  C9  UNL     1     -34.377  16.420  -5.343  1.00 20.00     0.042 C 
HETATM    9  C10 UNL     1     -35.662  15.690  -4.914  1.00 20.00     0.077 C 
ENDROOT
BRANCH   9  10
HETATM   10  C7  UNL     1     -36.893  16.351  -5.476  1.00 20.00     0.129 C 
HETATM   11  C11 UNL     1     -38.095  15.472  -5.691  1.00 20.00     0.091 C 
HETATM   12  O12 UNL     1     -36.916  17.552  -5.744  1.00 20.00    -0.298 OA
ENDBRANCH   9  10
TORSDOF 1
ENDMDL
