MODEL 1
REMARK VINA RESULT:      -5.0      0.000      0.000
REMARK  3 active torsions:
REMARK  status: ('A' for Active; 'I' for Inactive)
REMARK    1  A    between atoms: C4_4  and  C6_6 
REMARK    2  A    between atoms: C6_6  and  C8_8 
REMARK    3  A    between atoms: C7_7  and  C8_8 
ROOT
HETATM    1  C1  UNL     1     -34.422   6.017   6.478  1.00 20.00     0.011 C 
HETATM    2  C2  UNL     1     -33.351   6.452   5.488  1.00 20.00     0.016 C 
HETATM    3  C3  UNL     1     -35.005   4.722   5.940  1.00 20.00     0.074 C 
HETATM    4  C4  UNL     1     -34.004   6.424   4.109  1.00 20.00     0.047 C 
HETATM    5  S9  UNL     1     -35.077   4.951   4.142  1.00 20.00    -0.164 SA
ENDROOT
BRANCH   4   6
HETATM    6  C6  UNL     1     -32.991   6.351   2.980  1.00 20.00     0.015 C 
BRANCH   6   7
HETATM    7  C8  UNL     1     -32.020   7.531   3.022  1.00 20.00     0.001 C 
BRANCH   7   8
HETATM    8  C7  UNL     1     -31.911   8.209   1.657  1.00 20.00    -0.005 C 
HETATM    9  C5  UNL     1     -32.542   9.593   1.670  1.00 20.00     0.005 C 
ENDBRANCH   7   8
ENDBRANCH   6   7
ENDBRANCH   4   6
TORSDOF 3
ENDMDL
MODEL 2
REMARK VINA RESULT:      -4.5      1.176      1.509
REMARK  3 active torsions:
REMARK  status: ('A' for Active; 'I' for Inactive)
REMARK    1  A    between atoms: C4_4  and  C6_6 
REMARK    2  A    between atoms: C6_6  and  C8_8 
REMARK    3  A    between atoms: C7_7  and  C8_8 
ROOT
HETATM    1  C1  UNL     1     -35.029   4.297   5.258  1.00 20.00     0.011 C 
HETATM    2  C2  UNL     1     -34.844   5.079   3.966  1.00 20.00     0.016 C 
HETATM    3  C3  UNL     1     -34.928   5.306   6.389  1.00 20.00     0.074 C 
HETATM    4  C4  UNL     1     -33.572   5.904   4.141  1.00 20.00     0.047 C 
HETATM    5  S9  UNL     1     -33.622   6.456   5.878  1.00 20.00    -0.164 SA
ENDROOT
BRANCH   4   6
HETATM    6  C6  UNL     1     -33.498   7.080   3.184  1.00 20.00     0.015 C 
BRANCH   6   7
HETATM    7  C8  UNL     1     -32.051   7.500   2.922  1.00 20.00     0.001 C 
BRANCH   7   8
HETATM    8  C7  UNL     1     -31.923   8.260   1.603  1.00 20.00    -0.005 C 
HETATM    9  C5  UNL     1     -32.536   9.648   1.698  1.00 20.00     0.005 C 
ENDBRANCH   7   8
ENDBRANCH   6   7
ENDBRANCH   4   6
TORSDOF 3
ENDMDL
MODEL 3
REMARK VINA RESULT:      -4.0     11.036     11.871
REMARK  3 active torsions:
REMARK  status: ('A' for Active; 'I' for Inactive)
REMARK    1  A    between atoms: C4_4  and  C6_6 
REMARK    2  A    between atoms: C6_6  and  C8_8 
REMARK    3  A    between atoms: C7_7  and  C8_8 
ROOT
HETATM    1  C1  UNL     1     -34.560  13.165  -4.819  1.00 20.00     0.011 C 
HETATM    2  C2  UNL     1     -33.824  13.870  -3.690  1.00 20.00     0.016 C 
HETATM    3  C3  UNL     1     -34.985  14.246  -5.797  1.00 20.00     0.074 C 
HETATM    4  C4  UNL     1     -34.734  15.004  -3.226  1.00 20.00     0.047 C 
HETATM    5  S9  UNL     1     -35.475  15.651  -4.760  1.00 20.00    -0.164 SA
ENDROOT
BRANCH   4   6
HETATM    6  C6  UNL     1     -33.985  16.086  -2.468  1.00 20.00     0.015 C 
BRANCH   6   7
HETATM    7  C8  UNL     1     -34.673  16.422  -1.145  1.00 20.00     0.001 C 
BRANCH   7   8
HETATM    8  C7  UNL     1     -33.961  17.564  -0.422  1.00 20.00    -0.005 C 
HETATM    9  C5  UNL     1     -34.674  17.938   0.868  1.00 20.00     0.005 C 
ENDBRANCH   7   8
ENDBRANCH   6   7
ENDBRANCH   4   6
TORSDOF 3
ENDMDL
MODEL 4
REMARK VINA RESULT:      -4.0     11.255     12.201
REMARK  3 active torsions:
REMARK  status: ('A' for Active; 'I' for Inactive)
REMARK    1  A    between atoms: C4_4  and  C6_6 
REMARK    2  A    between atoms: C6_6  and  C8_8 
REMARK    3  A    between atoms: C7_7  and  C8_8 
ROOT
HETATM    1  C1  UNL     1     -34.662  14.560  -6.152  1.00 20.00     0.011 C 
HETATM    2  C2  UNL     1     -34.617  15.825  -5.307  1.00 20.00     0.016 C 
HETATM    3  C3  UNL     1     -34.777  13.398  -5.181  1.00 20.00     0.074 C 
HETATM    4  C4  UNL     1     -33.534  15.600  -4.255  1.00 20.00     0.047 C 
HETATM    5  S9  UNL     1     -33.715  13.849  -3.781  1.00 20.00    -0.164 SA
ENDROOT
BRANCH   4   6
HETATM    6  C6  UNL     1     -33.680  16.521  -3.056  1.00 20.00     0.015 C 
BRANCH   6   7
HETATM    7  C8  UNL     1     -34.711  15.987  -2.062  1.00 20.00     0.001 C 
BRANCH   7   8
HETATM    8  C7  UNL     1     -34.628  16.724  -0.726  1.00 20.00    -0.005 C 
HETATM    9  C5  UNL     1     -33.526  17.771  -0.734  1.00 20.00     0.005 C 
ENDBRANCH   7   8
ENDBRANCH   6   7
ENDBRANCH   4   6
TORSDOF 3
ENDMDL
MODEL 5
REMARK VINA RESULT:      -3.8     11.146     11.984
REMARK  3 active torsions:
REMARK  status: ('A' for Active; 'I' for Inactive)
REMARK    1  A    between atoms: C4_4  and  C6_6 
REMARK    2  A    between atoms: C6_6  and  C8_8 
REMARK    3  A    between atoms: C7_7  and  C8_8 
ROOT
HETATM    1  C1  UNL     1     -34.681  17.454   0.077  1.00 20.00     0.011 C 
HETATM    2  C2  UNL     1     -34.734  16.430  -1.047  1.00 20.00     0.016 C 
HETATM    3  C3  UNL     1     -34.706  18.821  -0.585  1.00 20.00     0.074 C 
HETATM    4  C4  UNL     1     -33.637  16.820  -2.035  1.00 20.00     0.047 C 
HETATM    5  S9  UNL     1     -33.683  18.642  -2.072  1.00 20.00    -0.164 SA
ENDROOT
BRANCH   4   6
HETATM    6  C6  UNL     1     -33.854  16.227  -3.416  1.00 20.00     0.015 C 
BRANCH   6   7
HETATM    7  C8  UNL     1     -32.831  15.134  -3.724  1.00 20.00     0.001 C 
BRANCH   7   8
HETATM    8  C7  UNL     1     -33.477  13.750  -3.717  1.00 20.00    -0.005 C 
HETATM    9  C5  UNL     1     -34.973  13.831  -3.980  1.00 20.00     0.005 C 
ENDBRANCH   7   8
ENDBRANCH   6   7
ENDBRANCH   4   6
TORSDOF 3
ENDMDL
MODEL 6
REMARK VINA RESULT:      -3.8     11.004     12.156
REMARK  3 active torsions:
REMARK  status: ('A' for Active; 'I' for Inactive)
REMARK    1  A    between atoms: C4_4  and  C6_6 
REMARK    2  A    between atoms: C6_6  and  C8_8 
REMARK    3  A    between atoms: C7_7  and  C8_8 
ROOT
HETATM    1  C1  UNL     1     -35.014  15.918  -2.257  1.00 20.00     0.011 C 
HETATM    2  C2  UNL     1     -35.542  14.990  -3.341  1.00 20.00     0.016 C 
HETATM    3  C3  UNL     1     -33.679  16.445  -2.756  1.00 20.00     0.074 C 
HETATM    4  C4  UNL     1     -34.410  14.018  -3.664  1.00 20.00     0.047 C 
HETATM    5  S9  UNL     1     -32.900  15.036  -3.591  1.00 20.00    -0.164 SA
ENDROOT
BRANCH   4   6
HETATM    6  C6  UNL     1     -34.573  13.357  -5.021  1.00 20.00     0.015 C 
BRANCH   6   7
HETATM    7  C8  UNL     1     -35.389  14.229  -5.975  1.00 20.00     0.001 C 
BRANCH   7   8
HETATM    8  C7  UNL     1     -34.504  14.849  -7.056  1.00 20.00    -0.005 C 
HETATM    9  C5  UNL     1     -34.306  16.339  -6.828  1.00 20.00     0.005 C 
ENDBRANCH   7   8
ENDBRANCH   6   7
ENDBRANCH   4   6
TORSDOF 3
ENDMDL
MODEL 7
REMARK VINA RESULT:      -3.8     11.070     12.184
REMARK  3 active torsions:
REMARK  status: ('A' for Active; 'I' for Inactive)
REMARK    1  A    between atoms: C4_4  and  C6_6 
REMARK    2  A    between atoms: C6_6  and  C8_8 
REMARK    3  A    between atoms: C7_7  and  C8_8 
ROOT
HETATM    1  C1  UNL     1     -33.691  17.889  -1.031  1.00 20.00     0.011 C 
HETATM    2  C2  UNL     1     -34.437  16.578  -1.227  1.00 20.00     0.016 C 
HETATM    3  C3  UNL     1     -33.916  18.705  -2.293  1.00 20.00     0.074 C 
HETATM    4  C4  UNL     1     -33.993  16.029  -2.580  1.00 20.00     0.047 C 
HETATM    5  S9  UNL     1     -33.857  17.500  -3.648  1.00 20.00    -0.164 SA
ENDROOT
BRANCH   4   6
HETATM    6  C6  UNL     1     -34.967  15.014  -3.151  1.00 20.00     0.015 C 
BRANCH   6   7
HETATM    7  C8  UNL     1     -34.249  13.743  -3.606  1.00 20.00     0.001 C 
BRANCH   7   8
HETATM    8  C7  UNL     1     -34.754  13.278  -4.971  1.00 20.00    -0.005 C 
HETATM    9  C5  UNL     1     -34.708  14.402  -5.995  1.00 20.00     0.005 C 
ENDBRANCH   7   8
ENDBRANCH   6   7
ENDBRANCH   4   6
TORSDOF 3
ENDMDL
MODEL 8
REMARK VINA RESULT:      -3.7     10.893     12.338
REMARK  3 active torsions:
REMARK  status: ('A' for Active; 'I' for Inactive)
REMARK    1  A    between atoms: C4_4  and  C6_6 
REMARK    2  A    between atoms: C6_6  and  C8_8 
REMARK    3  A    between atoms: C7_7  and  C8_8 
ROOT
HETATM    1  C1  UNL     1     -35.766  14.697  -6.779  1.00 20.00     0.011 C 
HETATM    2  C2  UNL     1     -34.581  14.582  -5.833  1.00 20.00     0.016 C 
HETATM    3  C3  UNL     1     -36.887  15.346  -5.987  1.00 20.00     0.074 C 
HETATM    4  C4  UNL     1     -35.106  13.913  -4.566  1.00 20.00     0.047 C 
HETATM    5  S9  UNL     1     -36.764  14.629  -4.325  1.00 20.00    -0.164 SA
ENDROOT
BRANCH   4   6
HETATM    6  C6  UNL     1     -34.213  14.154  -3.361  1.00 20.00     0.015 C 
BRANCH   6   7
HETATM    7  C8  UNL     1     -33.270  15.335  -3.589  1.00 20.00     0.001 C 
BRANCH   7   8
HETATM    8  C7  UNL     1     -33.760  16.587  -2.864  1.00 20.00    -0.005 C 
HETATM    9  C5  UNL     1     -34.585  16.233  -1.636  1.00 20.00     0.005 C 
ENDBRANCH   7   8
ENDBRANCH   6   7
ENDBRANCH   4   6
TORSDOF 3
ENDMDL
MODEL 9
REMARK VINA RESULT:      -3.6     11.403     13.011
REMARK  3 active torsions:
REMARK  status: ('A' for Active; 'I' for Inactive)
REMARK    1  A    between atoms: C4_4  and  C6_6 
REMARK    2  A    between atoms: C6_6  and  C8_8 
REMARK    3  A    between atoms: C7_7  and  C8_8 
ROOT
HETATM    1  C1  UNL     1     -34.380  16.869  -6.627  1.00 20.00     0.011 C 
HETATM    2  C2  UNL     1     -33.579  16.619  -5.358  1.00 20.00     0.016 C 
HETATM    3  C3  UNL     1     -35.831  16.581  -6.283  1.00 20.00     0.074 C 
HETATM    4  C4  UNL     1     -33.985  15.235  -4.858  1.00 20.00     0.047 C 
HETATM    5  S9  UNL     1     -35.776  15.141  -5.181  1.00 20.00    -0.164 SA
ENDROOT
BRANCH   4   6
HETATM    6  C6  UNL     1     -33.671  15.026  -3.387  1.00 20.00     0.015 C 
BRANCH   6   7
HETATM    7  C8  UNL     1     -34.673  15.755  -2.492  1.00 20.00     0.001 C 
BRANCH   7   8
HETATM    8  C7  UNL     1     -33.980  16.795  -1.614  1.00 20.00    -0.005 C 
HETATM    9  C5  UNL     1     -34.703  16.977  -0.288  1.00 20.00     0.005 C 
ENDBRANCH   7   8
ENDBRANCH   6   7
ENDBRANCH   4   6
TORSDOF 3
ENDMDL
