MODEL 1
REMARK VINA RESULT:      -3.8      0.000      0.000
REMARK  2 active torsions:
REMARK  status: ('A' for Active; 'I' for Inactive)
REMARK    1  A    between atoms: C1_1  and  C8_8 
REMARK    2  A    between atoms: C9_9  and  N10_10 
ROOT
HETATM    1  C1  UNL     1     -33.749  16.635  -2.416  1.00 20.00     0.092 C 
HETATM    2  N10 UNL     1     -34.604  15.850  -2.979  1.00 20.00    -0.295 NA
ENDROOT
BRANCH   1   3
HETATM    3  C8  UNL     1     -34.152  17.659  -1.362  1.00 20.00    -0.018 C 
HETATM    4  C2  UNL     1     -35.147  18.627  -2.012  1.00 20.00     0.020 C 
HETATM    5  C3  UNL     1     -34.834  16.901  -0.216  1.00 20.00     0.020 C 
HETATM    6  C4  UNL     1     -32.947  18.438  -0.824  1.00 20.00     0.020 C 
ENDBRANCH   1   3
BRANCH   2   7
HETATM    7  C9  UNL     1     -33.995  14.955  -3.959  1.00 20.00     0.042 C 
HETATM    8  C5  UNL     1     -34.131  15.590  -5.342  1.00 20.00     0.039 C 
HETATM    9  C6  UNL     1     -32.522  14.787  -3.587  1.00 20.00     0.039 C 
HETATM   10  C7  UNL     1     -34.721  13.612  -3.903  1.00 20.00     0.039 C 
ENDBRANCH   2   7
TORSDOF 2
ENDMDL
MODEL 2
REMARK VINA RESULT:      -3.8      0.047      1.384
REMARK  2 active torsions:
REMARK  status: ('A' for Active; 'I' for Inactive)
REMARK    1  A    between atoms: C1_1  and  C8_8 
REMARK    2  A    between atoms: C9_9  and  N10_10 
ROOT
HETATM    1  C1  UNL     1     -33.751  16.676  -2.419  1.00 20.00     0.092 C 
HETATM    2  N10 UNL     1     -34.586  15.825  -2.908  1.00 20.00    -0.295 NA
ENDROOT
BRANCH   1   3
HETATM    3  C8  UNL     1     -34.147  17.686  -1.349  1.00 20.00    -0.018 C 
HETATM    4  C2  UNL     1     -35.130  18.675  -1.986  1.00 20.00     0.020 C 
HETATM    5  C3  UNL     1     -34.840  16.916  -0.218  1.00 20.00     0.020 C 
HETATM    6  C4  UNL     1     -32.936  18.445  -0.794  1.00 20.00     0.020 C 
ENDBRANCH   1   3
BRANCH   2   7
HETATM    7  C9  UNL     1     -33.989  14.959  -3.920  1.00 20.00     0.042 C 
HETATM    8  C5  UNL     1     -32.514  14.755  -3.572  1.00 20.00     0.039 C 
HETATM    9  C6  UNL     1     -34.736  13.626  -3.896  1.00 20.00     0.039 C 
HETATM   10  C7  UNL     1     -34.137  15.634  -5.283  1.00 20.00     0.039 C 
ENDBRANCH   2   7
TORSDOF 2
ENDMDL
MODEL 3
REMARK VINA RESULT:      -3.8      0.029      1.376
REMARK  2 active torsions:
REMARK  status: ('A' for Active; 'I' for Inactive)
REMARK    1  A    between atoms: C1_1  and  C8_8 
REMARK    2  A    between atoms: C9_9  and  N10_10 
ROOT
HETATM    1  C1  UNL     1     -33.746  16.610  -2.394  1.00 20.00     0.092 C 
HETATM    2  N10 UNL     1     -34.609  15.891  -3.027  1.00 20.00    -0.295 NA
ENDROOT
BRANCH   1   3
HETATM    3  C8  UNL     1     -34.154  17.651  -1.359  1.00 20.00    -0.018 C 
HETATM    4  C2  UNL     1     -35.150  18.606  -2.027  1.00 20.00     0.020 C 
HETATM    5  C3  UNL     1     -34.836  16.911  -0.202  1.00 20.00     0.020 C 
HETATM    6  C4  UNL     1     -32.952  18.442  -0.831  1.00 20.00     0.020 C 
ENDBRANCH   1   3
BRANCH   2   7
HETATM    7  C9  UNL     1     -33.993  14.964  -3.972  1.00 20.00     0.042 C 
HETATM    8  C5  UNL     1     -34.738  13.631  -3.897  1.00 20.00     0.039 C 
HETATM    9  C6  UNL     1     -34.117  15.570  -5.370  1.00 20.00     0.039 C 
HETATM   10  C7  UNL     1     -32.524  14.788  -3.589  1.00 20.00     0.039 C 
ENDBRANCH   2   7
TORSDOF 2
ENDMDL
MODEL 4
REMARK VINA RESULT:      -3.7      0.077      1.930
REMARK  2 active torsions:
REMARK  status: ('A' for Active; 'I' for Inactive)
REMARK    1  A    between atoms: C1_1  and  C8_8 
REMARK    2  A    between atoms: C9_9  and  N10_10 
ROOT
HETATM    1  C1  UNL     1     -33.797  16.607  -2.393  1.00 20.00     0.092 C 
HETATM    2  N10 UNL     1     -34.640  15.865  -3.026  1.00 20.00    -0.295 NA
ENDROOT
BRANCH   1   3
HETATM    3  C8  UNL     1     -34.232  17.629  -1.349  1.00 20.00    -0.018 C 
HETATM    4  C2  UNL     1     -32.988  18.418  -0.926  1.00 20.00     0.020 C 
HETATM    5  C3  UNL     1     -35.245  18.568  -2.014  1.00 20.00     0.020 C 
HETATM    6  C4  UNL     1     -34.867  16.966  -0.122  1.00 20.00     0.020 C 
ENDBRANCH   1   3
BRANCH   2   7
HETATM    7  C9  UNL     1     -34.000  14.963  -3.979  1.00 20.00     0.042 C 
HETATM    8  C5  UNL     1     -32.528  14.818  -3.593  1.00 20.00     0.039 C 
HETATM    9  C6  UNL     1     -34.713  13.613  -3.898  1.00 20.00     0.039 C 
HETATM   10  C7  UNL     1     -34.138  15.561  -5.378  1.00 20.00     0.039 C 
ENDBRANCH   2   7
TORSDOF 2
ENDMDL
MODEL 5
REMARK VINA RESULT:      -3.7      0.128      1.376
REMARK  2 active torsions:
REMARK  status: ('A' for Active; 'I' for Inactive)
REMARK    1  A    between atoms: C1_1  and  C8_8 
REMARK    2  A    between atoms: C9_9  and  N10_10 
ROOT
HETATM    1  C1  UNL     1     -33.817  16.720  -2.410  1.00 20.00     0.092 C 
HETATM    2  N10 UNL     1     -34.581  15.750  -2.783  1.00 20.00    -0.295 NA
ENDROOT
BRANCH   1   3
HETATM    3  C8  UNL     1     -34.210  17.689  -1.302  1.00 20.00    -0.018 C 
HETATM    4  C2  UNL     1     -32.938  18.411  -0.844  1.00 20.00     0.020 C 
HETATM    5  C3  UNL     1     -35.198  18.699  -1.899  1.00 20.00     0.020 C 
HETATM    6  C4  UNL     1     -34.858  16.973  -0.111  1.00 20.00     0.020 C 
ENDBRANCH   1   3
BRANCH   2   7
HETATM    7  C9  UNL     1     -34.002  14.953  -3.861  1.00 20.00     0.042 C 
HETATM    8  C5  UNL     1     -34.191  15.708  -5.176  1.00 20.00     0.039 C 
HETATM    9  C6  UNL     1     -32.516  14.764  -3.557  1.00 20.00     0.039 C 
HETATM   10  C7  UNL     1     -34.720  13.604  -3.902  1.00 20.00     0.039 C 
ENDBRANCH   2   7
TORSDOF 2
ENDMDL
MODEL 6
REMARK VINA RESULT:      -3.7      0.059      1.381
REMARK  2 active torsions:
REMARK  status: ('A' for Active; 'I' for Inactive)
REMARK    1  A    between atoms: C1_1  and  C8_8 
REMARK    2  A    between atoms: C9_9  and  N10_10 
ROOT
HETATM    1  C1  UNL     1     -33.785  16.648  -2.404  1.00 20.00     0.092 C 
HETATM    2  N10 UNL     1     -34.629  15.880  -3.004  1.00 20.00    -0.295 NA
ENDROOT
BRANCH   1   3
HETATM    3  C8  UNL     1     -34.213  17.675  -1.363  1.00 20.00    -0.018 C 
HETATM    4  C2  UNL     1     -34.843  16.913  -0.191  1.00 20.00     0.020 C 
HETATM    5  C3  UNL     1     -32.952  18.409  -0.890  1.00 20.00     0.020 C 
HETATM    6  C4  UNL     1     -35.220  18.684  -1.926  1.00 20.00     0.020 C 
ENDBRANCH   1   3
BRANCH   2   7
HETATM    7  C9  UNL     1     -33.997  14.978  -3.962  1.00 20.00     0.042 C 
HETATM    8  C5  UNL     1     -34.135  15.583  -5.359  1.00 20.00     0.039 C 
HETATM    9  C6  UNL     1     -32.523  14.845  -3.578  1.00 20.00     0.039 C 
HETATM   10  C7  UNL     1     -34.697  13.622  -3.885  1.00 20.00     0.039 C 
ENDBRANCH   2   7
TORSDOF 2
ENDMDL
MODEL 7
REMARK VINA RESULT:      -3.7      1.109      4.413
REMARK  2 active torsions:
REMARK  status: ('A' for Active; 'I' for Inactive)
REMARK    1  A    between atoms: C1_1  and  C8_8 
REMARK    2  A    between atoms: C9_9  and  N10_10 
ROOT
HETATM    1  C1  UNL     1     -34.685  15.908  -3.500  1.00 20.00     0.092 C 
HETATM    2  N10 UNL     1     -34.791  15.876  -2.215  1.00 20.00    -0.295 NA
ENDROOT
BRANCH   1   3
HETATM    3  C8  UNL     1     -34.566  14.643  -4.341  1.00 20.00    -0.018 C 
HETATM    4  C2  UNL     1     -33.399  13.822  -3.779  1.00 20.00     0.020 C 
HETATM    5  C3  UNL     1     -35.876  13.860  -4.189  1.00 20.00     0.020 C 
HETATM    6  C4  UNL     1     -34.316  14.954  -5.821  1.00 20.00     0.020 C 
ENDBRANCH   1   3
BRANCH   2   7
HETATM    7  C9  UNL     1     -34.890  17.206  -1.620  1.00 20.00     0.042 C 
HETATM    8  C5  UNL     1     -34.764  17.066  -0.103  1.00 20.00     0.039 C 
HETATM    9  C6  UNL     1     -33.748  18.055  -2.178  1.00 20.00     0.039 C 
HETATM   10  C7  UNL     1     -36.243  17.806  -2.001  1.00 20.00     0.039 C 
ENDBRANCH   2   7
TORSDOF 2
ENDMDL
MODEL 8
REMARK VINA RESULT:      -3.7      1.064      4.409
REMARK  2 active torsions:
REMARK  status: ('A' for Active; 'I' for Inactive)
REMARK    1  A    between atoms: C1_1  and  C8_8 
REMARK    2  A    between atoms: C9_9  and  N10_10 
ROOT
HETATM    1  C1  UNL     1     -34.729  15.843  -3.469  1.00 20.00     0.092 C 
HETATM    2  N10 UNL     1     -34.543  15.878  -2.193  1.00 20.00    -0.295 NA
ENDROOT
BRANCH   1   3
HETATM    3  C8  UNL     1     -34.517  14.578  -4.290  1.00 20.00    -0.018 C 
HETATM    4  C2  UNL     1     -34.276  15.003  -5.743  1.00 20.00     0.020 C 
HETATM    5  C3  UNL     1     -33.273  13.870  -3.740  1.00 20.00     0.020 C 
HETATM    6  C4  UNL     1     -35.724  13.635  -4.220  1.00 20.00     0.020 C 
ENDBRANCH   1   3
BRANCH   2   7
HETATM    7  C9  UNL     1     -34.802  17.194  -1.616  1.00 20.00     0.042 C 
HETATM    8  C5  UNL     1     -33.714  18.154  -2.093  1.00 20.00     0.039 C 
HETATM    9  C6  UNL     1     -36.176  17.655  -2.102  1.00 20.00     0.039 C 
HETATM   10  C7  UNL     1     -34.785  17.065  -0.093  1.00 20.00     0.039 C 
ENDBRANCH   2   7
TORSDOF 2
ENDMDL
MODEL 9
REMARK VINA RESULT:      -3.7      1.138      4.402
REMARK  2 active torsions:
REMARK  status: ('A' for Active; 'I' for Inactive)
REMARK    1  A    between atoms: C1_1  and  C8_8 
REMARK    2  A    between atoms: C9_9  and  N10_10 
ROOT
HETATM    1  C1  UNL     1     -34.575  15.903  -3.487  1.00 20.00     0.092 C 
HETATM    2  N10 UNL     1     -35.093  15.934  -2.307  1.00 20.00    -0.295 NA
ENDROOT
BRANCH   1   3
HETATM    3  C8  UNL     1     -34.565  14.641  -4.341  1.00 20.00    -0.018 C 
HETATM    4  C2  UNL     1     -33.442  13.737  -3.819  1.00 20.00     0.020 C 
HETATM    5  C3  UNL     1     -35.921  13.948  -4.160  1.00 20.00     0.020 C 
HETATM    6  C4  UNL     1     -34.335  14.950  -5.825  1.00 20.00     0.020 C 
ENDBRANCH   1   3
BRANCH   2   7
HETATM    7  C9  UNL     1     -34.986  17.246  -1.674  1.00 20.00     0.042 C 
HETATM    8  C5  UNL     1     -36.296  18.000  -1.902  1.00 20.00     0.039 C 
HETATM    9  C6  UNL     1     -34.745  17.026  -0.181  1.00 20.00     0.039 C 
HETATM   10  C7  UNL     1     -33.812  17.993  -2.305  1.00 20.00     0.039 C 
ENDBRANCH   2   7
TORSDOF 2
ENDMDL
