MODEL 1
REMARK VINA RESULT:      -4.8      0.000      0.000
REMARK  0 active torsions:
REMARK  status: ('A' for Active; 'I' for Inactive)
ROOT
HETATM    1  C1  UNL     1     -36.605  14.802  -3.580  1.00 20.00     0.085 C 
HETATM    2  C2  UNL     1     -34.932  15.836  -2.236  1.00 20.00     0.085 C 
HETATM    3  C3  UNL     1     -34.557  15.691  -4.763  1.00 20.00     0.030 A 
HETATM    4  C4  UNL     1     -35.223  15.197  -3.490  1.00 20.00     0.148 A 
HETATM    5  C5  UNL     1     -34.147  14.348  -4.183  1.00 20.00    -0.007 A 
HETATM    6  C6  UNL     1     -33.639  16.869  -4.794  1.00 20.00     0.014 C 
HETATM    7  C7  UNL     1     -34.555  13.118  -4.967  1.00 20.00     0.018 C 
HETATM    8  C8  UNL     1     -32.788  14.186  -3.539  1.00 20.00     0.018 C 
HETATM    9  N9  UNL     1     -37.718  14.483  -3.654  1.00 20.00    -0.195 NA
HETATM   10  N10 UNL     1     -34.696  16.352  -1.224  1.00 20.00    -0.195 NA
ENDROOT
TORSDOF 0
ENDMDL
MODEL 2
REMARK VINA RESULT:      -4.7      1.596      2.655
REMARK  0 active torsions:
REMARK  status: ('A' for Active; 'I' for Inactive)
ROOT
HETATM    1  C1  UNL     1     -36.750  14.717  -3.731  1.00 20.00     0.085 C 
HETATM    2  C2  UNL     1     -34.452  14.105  -3.605  1.00 20.00     0.085 C 
HETATM    3  C3  UNL     1     -35.158  16.405  -2.732  1.00 20.00     0.030 A 
HETATM    4  C4  UNL     1     -35.396  15.189  -3.612  1.00 20.00     0.148 A 
HETATM    5  C5  UNL     1     -35.007  16.536  -4.238  1.00 20.00    -0.007 A 
HETATM    6  C6  UNL     1     -34.001  16.514  -1.794  1.00 20.00     0.014 C 
HETATM    7  C7  UNL     1     -36.058  17.358  -4.955  1.00 20.00     0.018 C 
HETATM    8  C8  UNL     1     -33.633  16.714  -4.848  1.00 20.00     0.018 C 
HETATM    9  N9  UNL     1     -37.843  14.337  -3.827  1.00 20.00    -0.195 NA
HETATM   10  N10 UNL     1     -33.688  13.231  -3.599  1.00 20.00    -0.195 NA
ENDROOT
TORSDOF 0
ENDMDL
MODEL 3
REMARK VINA RESULT:      -4.7      2.028      3.191
REMARK  0 active torsions:
REMARK  status: ('A' for Active; 'I' for Inactive)
ROOT
HETATM    1  C1  UNL     1     -34.818  13.808  -4.210  1.00 20.00     0.085 C 
HETATM    2  C2  UNL     1     -33.728  15.909  -4.475  1.00 20.00     0.085 C 
HETATM    3  C3  UNL     1     -35.140  15.517  -2.377  1.00 20.00     0.030 A 
HETATM    4  C4  UNL     1     -34.788  15.193  -3.820  1.00 20.00     0.148 A 
HETATM    5  C5  UNL     1     -36.102  15.914  -3.484  1.00 20.00    -0.007 A 
HETATM    6  C6  UNL     1     -34.390  16.520  -1.564  1.00 20.00     0.014 C 
HETATM    7  C7  UNL     1     -37.410  15.152  -3.550  1.00 20.00     0.018 C 
HETATM    8  C8  UNL     1     -36.275  17.372  -3.849  1.00 20.00     0.018 C 
HETATM    9  N9  UNL     1     -34.843  12.691  -4.525  1.00 20.00    -0.195 NA
HETATM   10  N10 UNL     1     -32.872  16.489  -5.003  1.00 20.00    -0.195 NA
ENDROOT
TORSDOF 0
ENDMDL
MODEL 4
REMARK VINA RESULT:      -4.6      1.946      3.405
REMARK  0 active torsions:
REMARK  status: ('A' for Active; 'I' for Inactive)
ROOT
HETATM    1  C1  UNL     1     -34.054  13.777  -4.149  1.00 20.00     0.085 C 
HETATM    2  C2  UNL     1     -36.358  14.365  -4.277  1.00 20.00     0.085 C 
HETATM    3  C3  UNL     1     -34.872  14.782  -6.319  1.00 20.00     0.030 A 
HETATM    4  C4  UNL     1     -35.045  14.574  -4.823  1.00 20.00     0.148 A 
HETATM    5  C5  UNL     1     -34.658  15.954  -5.376  1.00 20.00    -0.007 A 
HETATM    6  C6  UNL     1     -36.010  14.721  -7.283  1.00 20.00     0.014 C 
HETATM    7  C7  UNL     1     -33.235  16.449  -5.222  1.00 20.00     0.018 C 
HETATM    8  C8  UNL     1     -35.661  17.087  -5.339  1.00 20.00     0.018 C 
HETATM    9  N9  UNL     1     -33.253  13.135  -3.607  1.00 20.00    -0.195 NA
HETATM   10  N10 UNL     1     -37.419  14.198  -3.837  1.00 20.00    -0.195 NA
ENDROOT
TORSDOF 0
ENDMDL
MODEL 5
REMARK VINA RESULT:      -4.6      1.722      3.080
REMARK  0 active torsions:
REMARK  status: ('A' for Active; 'I' for Inactive)
ROOT
HETATM    1  C1  UNL     1     -36.853  14.500  -4.004  1.00 20.00     0.085 C 
HETATM    2  C2  UNL     1     -35.227  14.593  -5.741  1.00 20.00     0.085 C 
HETATM    3  C3  UNL     1     -34.442  14.113  -3.353  1.00 20.00     0.030 A 
HETATM    4  C4  UNL     1     -35.462  14.682  -4.327  1.00 20.00     0.148 A 
HETATM    5  C5  UNL     1     -34.602  15.620  -3.467  1.00 20.00    -0.007 A 
HETATM    6  C6  UNL     1     -33.208  13.399  -3.796  1.00 20.00     0.014 C 
HETATM    7  C7  UNL     1     -35.224  16.326  -2.280  1.00 20.00     0.018 C 
HETATM    8  C8  UNL     1     -33.515  16.449  -4.115  1.00 20.00     0.018 C 
HETATM    9  N9  UNL     1     -37.974  14.354  -3.742  1.00 20.00    -0.195 NA
HETATM   10  N10 UNL     1     -35.035  14.522  -6.884  1.00 20.00    -0.195 NA
ENDROOT
TORSDOF 0
ENDMDL
MODEL 6
REMARK VINA RESULT:      -4.6      0.481      3.130
REMARK  0 active torsions:
REMARK  status: ('A' for Active; 'I' for Inactive)
ROOT
HETATM    1  C1  UNL     1     -34.922  15.865  -2.226  1.00 20.00     0.085 C 
HETATM    2  C2  UNL     1     -36.582  14.823  -3.579  1.00 20.00     0.085 C 
HETATM    3  C3  UNL     1     -34.117  14.413  -4.131  1.00 20.00     0.030 A 
HETATM    4  C4  UNL     1     -35.214  15.253  -3.496  1.00 20.00     0.148 A 
HETATM    5  C5  UNL     1     -34.489  15.746  -4.757  1.00 20.00    -0.007 A 
HETATM    6  C6  UNL     1     -34.382  13.106  -4.802  1.00 20.00     0.014 C 
HETATM    7  C7  UNL     1     -33.466  16.857  -4.645  1.00 20.00     0.018 C 
HETATM    8  C8  UNL     1     -35.223  15.781  -6.080  1.00 20.00     0.018 C 
HETATM    9  N9  UNL     1     -34.687  16.360  -1.203  1.00 20.00    -0.195 NA
HETATM   10  N10 UNL     1     -37.687  14.475  -3.648  1.00 20.00    -0.195 NA
ENDROOT
TORSDOF 0
ENDMDL
MODEL 7
REMARK VINA RESULT:      -4.5      1.839      3.009
REMARK  0 active torsions:
REMARK  status: ('A' for Active; 'I' for Inactive)
ROOT
HETATM    1  C1  UNL     1     -35.062  13.553  -4.581  1.00 20.00     0.085 C 
HETATM    2  C2  UNL     1     -37.110  14.573  -3.919  1.00 20.00     0.085 C 
HETATM    3  C3  UNL     1     -35.276  16.047  -4.925  1.00 20.00     0.030 A 
HETATM    4  C4  UNL     1     -35.719  14.780  -4.212  1.00 20.00     0.148 A 
HETATM    5  C5  UNL     1     -34.932  15.862  -3.457  1.00 20.00    -0.007 A 
HETATM    6  C6  UNL     1     -36.236  17.087  -5.402  1.00 20.00     0.014 C 
HETATM    7  C7  UNL     1     -33.471  15.631  -3.128  1.00 20.00     0.018 C 
HETATM    8  C8  UNL     1     -35.625  16.700  -2.406  1.00 20.00     0.018 C 
HETATM    9  N9  UNL     1     -34.532  12.565  -4.878  1.00 20.00    -0.195 NA
HETATM   10  N10 UNL     1     -38.234  14.407  -3.682  1.00 20.00    -0.195 NA
ENDROOT
TORSDOF 0
ENDMDL
MODEL 8
REMARK VINA RESULT:      -4.4      1.912      2.390
REMARK  0 active torsions:
REMARK  status: ('A' for Active; 'I' for Inactive)
ROOT
HETATM    1  C1  UNL     1     -36.879  14.754  -4.291  1.00 20.00     0.085 C 
HETATM    2  C2  UNL     1     -36.005  16.753  -5.248  1.00 20.00     0.085 C 
HETATM    3  C3  UNL     1     -34.955  14.515  -5.911  1.00 20.00     0.030 A 
HETATM    4  C4  UNL     1     -35.753  15.372  -4.941  1.00 20.00     0.148 A 
HETATM    5  C5  UNL     1     -34.330  14.916  -4.585  1.00 20.00    -0.007 A 
HETATM    6  C6  UNL     1     -34.455  15.025  -7.222  1.00 20.00     0.014 C 
HETATM    7  C7  UNL     1     -34.133  13.810  -3.568  1.00 20.00     0.018 C 
HETATM    8  C8  UNL     1     -33.203  15.924  -4.553  1.00 20.00     0.018 C 
HETATM    9  N9  UNL     1     -37.787  14.256  -3.767  1.00 20.00    -0.195 NA
HETATM   10  N10 UNL     1     -36.207  17.868  -5.496  1.00 20.00    -0.195 NA
ENDROOT
TORSDOF 0
ENDMDL
MODEL 9
REMARK VINA RESULT:      -4.4      1.711      2.911
REMARK  0 active torsions:
REMARK  status: ('A' for Active; 'I' for Inactive)
ROOT
HETATM    1  C1  UNL     1     -33.781  13.832  -3.696  1.00 20.00     0.085 C 
HETATM    2  C2  UNL     1     -34.766  15.633  -2.488  1.00 20.00     0.085 C 
HETATM    3  C3  UNL     1     -36.139  14.492  -4.322  1.00 20.00     0.030 A 
HETATM    4  C4  UNL     1     -34.802  14.847  -3.690  1.00 20.00     0.148 A 
HETATM    5  C5  UNL     1     -35.232  15.495  -5.015  1.00 20.00    -0.007 A 
HETATM    6  C6  UNL     1     -37.449  14.874  -3.717  1.00 20.00     0.014 C 
HETATM    7  C7  UNL     1     -34.589  15.046  -6.310  1.00 20.00     0.018 C 
HETATM    8  C8  UNL     1     -35.610  16.960  -5.047  1.00 20.00     0.018 C 
HETATM    9  N9  UNL     1     -32.958  13.014  -3.702  1.00 20.00    -0.195 NA
HETATM   10  N10 UNL     1     -34.738  16.269  -1.518  1.00 20.00    -0.195 NA
ENDROOT
TORSDOF 0
ENDMDL
