MODEL 1
REMARK VINA RESULT:      -4.3      0.000      0.000
REMARK  2 active torsions:
REMARK  status: ('A' for Active; 'I' for Inactive)
REMARK    1  A    between atoms: C3_3  and  C8_8 
REMARK    2  A    between atoms: C4_4  and  O9_9 
ROOT
HETATM    1  C1  UNL     1     -32.616   6.907   4.376  1.00 20.00     0.037 C 
HETATM    2  C2  UNL     1     -33.382   5.859   2.682  1.00 20.00     0.037 C 
HETATM    3  C3  UNL     1     -33.256   5.510   4.184  1.00 20.00    -0.002 C 
HETATM    4  C4  UNL     1     -32.222   6.863   2.882  1.00 20.00     0.118 C 
ENDROOT
BRANCH   3   5
HETATM    5  C8  UNL     1     -34.548   5.248   4.930  1.00 20.00    -0.048 C 
HETATM    6  C5  UNL     1     -34.661   3.749   5.247  1.00 20.00     0.015 C 
HETATM    7  C6  UNL     1     -35.737   5.678   4.060  1.00 20.00     0.015 C 
HETATM    8  C7  UNL     1     -34.555   6.050   6.239  1.00 20.00     0.015 C 
ENDBRANCH   3   5
BRANCH   4   9
HETATM    9  O9  UNL     1     -32.330   8.107   2.169  1.00 20.00    -0.396 OA
HETATM   10  H25 UNL     1     -31.729   8.720   2.613  1.00 20.00     0.210 HD
ENDBRANCH   4   9
TORSDOF 2
ENDMDL
MODEL 2
REMARK VINA RESULT:      -4.3      2.298      3.786
REMARK  2 active torsions:
REMARK  status: ('A' for Active; 'I' for Inactive)
REMARK    1  A    between atoms: C3_3  and  C8_8 
REMARK    2  A    between atoms: C4_4  and  O9_9 
ROOT
HETATM    1  C1  UNL     1     -34.077   5.902   5.265  1.00 20.00     0.037 C 
HETATM    2  C2  UNL     1     -34.671   5.356   3.290  1.00 20.00     0.037 C 
HETATM    3  C3  UNL     1     -33.975   6.602   3.888  1.00 20.00    -0.002 C 
HETATM    4  C4  UNL     1     -35.262   5.089   4.695  1.00 20.00     0.118 C 
ENDROOT
BRANCH   3   5
HETATM    5  C8  UNL     1     -32.578   6.905   3.383  1.00 20.00    -0.048 C 
HETATM    6  C5  UNL     1     -32.663   7.866   2.189  1.00 20.00     0.015 C 
HETATM    7  C6  UNL     1     -31.899   5.600   2.943  1.00 20.00     0.015 C 
HETATM    8  C7  UNL     1     -31.758   7.555   4.506  1.00 20.00     0.015 C 
ENDBRANCH   3   5
BRANCH   4   9
HETATM    9  O9  UNL     1     -35.330   3.712   5.102  1.00 20.00    -0.396 OA
HETATM   10  H25 UNL     1     -34.425   3.375   5.048  1.00 20.00     0.210 HD
ENDBRANCH   4   9
TORSDOF 2
ENDMDL
MODEL 3
REMARK VINA RESULT:      -4.0     11.564     12.954
REMARK  2 active torsions:
REMARK  status: ('A' for Active; 'I' for Inactive)
REMARK    1  A    between atoms: C3_3  and  C8_8 
REMARK    2  A    between atoms: C4_4  and  O9_9 
ROOT
HETATM    1  C1  UNL     1     -35.302  14.887  -4.992  1.00 20.00     0.037 C 
HETATM    2  C2  UNL     1     -33.713  14.377  -3.663  1.00 20.00     0.037 C 
HETATM    3  C3  UNL     1     -34.061  15.651  -4.469  1.00 20.00    -0.002 C 
HETATM    4  C4  UNL     1     -34.545  13.574  -4.692  1.00 20.00     0.118 C 
ENDROOT
BRANCH   3   5
HETATM    5  C8  UNL     1     -34.327  16.909  -3.668  1.00 20.00    -0.048 C 
HETATM    6  C5  UNL     1     -33.822  16.716  -2.230  1.00 20.00     0.015 C 
HETATM    7  C6  UNL     1     -35.835  17.193  -3.647  1.00 20.00     0.015 C 
HETATM    8  C7  UNL     1     -33.592  18.092  -4.314  1.00 20.00     0.015 C 
ENDBRANCH   3   5
BRANCH   4   9
HETATM    9  O9  UNL     1     -35.339  12.499  -4.163  1.00 20.00    -0.396 OA
HETATM   10  H25 UNL     1     -36.247  12.830  -4.137  1.00 20.00     0.210 HD
ENDBRANCH   4   9
TORSDOF 2
ENDMDL
MODEL 4
REMARK VINA RESULT:      -4.0     11.541     12.927
REMARK  2 active torsions:
REMARK  status: ('A' for Active; 'I' for Inactive)
REMARK    1  A    between atoms: C3_3  and  C8_8 
REMARK    2  A    between atoms: C4_4  and  O9_9 
ROOT
HETATM    1  C1  UNL     1     -35.294  14.908  -4.957  1.00 20.00     0.037 C 
HETATM    2  C2  UNL     1     -33.714  14.376  -3.625  1.00 20.00     0.037 C 
HETATM    3  C3  UNL     1     -34.060  15.664  -4.409  1.00 20.00    -0.002 C 
HETATM    4  C4  UNL     1     -34.536  13.591  -4.676  1.00 20.00     0.118 C 
ENDROOT
BRANCH   3   5
HETATM    5  C8  UNL     1     -34.334  16.906  -3.585  1.00 20.00    -0.048 C 
HETATM    6  C5  UNL     1     -35.845  17.183  -3.565  1.00 20.00     0.015 C 
HETATM    7  C6  UNL     1     -33.602  18.104  -4.207  1.00 20.00     0.015 C 
HETATM    8  C7  UNL     1     -33.835  16.688  -2.150  1.00 20.00     0.015 C 
ENDBRANCH   3   5
BRANCH   4   9
HETATM    9  O9  UNL     1     -35.332  12.504  -4.175  1.00 20.00    -0.396 OA
HETATM   10  H25 UNL     1     -34.704  11.828  -3.885  1.00 20.00     0.210 HD
ENDBRANCH   4   9
TORSDOF 2
ENDMDL
MODEL 5
REMARK VINA RESULT:      -3.9     11.561     12.986
REMARK  2 active torsions:
REMARK  status: ('A' for Active; 'I' for Inactive)
REMARK    1  A    between atoms: C3_3  and  C8_8 
REMARK    2  A    between atoms: C4_4  and  O9_9 
ROOT
HETATM    1  C1  UNL     1     -35.314  14.904  -4.957  1.00 20.00     0.037 C 
HETATM    2  C2  UNL     1     -33.710  14.384  -3.651  1.00 20.00     0.037 C 
HETATM    3  C3  UNL     1     -34.075  15.668  -4.432  1.00 20.00    -0.002 C 
HETATM    4  C4  UNL     1     -34.544  13.592  -4.687  1.00 20.00     0.118 C 
ENDROOT
BRANCH   3   5
HETATM    5  C8  UNL     1     -34.344  16.910  -3.606  1.00 20.00    -0.048 C 
HETATM    6  C5  UNL     1     -33.615  18.108  -4.232  1.00 20.00     0.015 C 
HETATM    7  C6  UNL     1     -33.834  16.692  -2.175  1.00 20.00     0.015 C 
HETATM    8  C7  UNL     1     -35.853  17.188  -3.576  1.00 20.00     0.015 C 
ENDBRANCH   3   5
BRANCH   4   9
HETATM    9  O9  UNL     1     -35.325  12.501  -4.170  1.00 20.00    -0.396 OA
HETATM   10  H25 UNL     1     -35.633  12.008  -4.942  1.00 20.00     0.210 HD
ENDBRANCH   4   9
TORSDOF 2
ENDMDL
MODEL 6
REMARK VINA RESULT:      -3.9     11.589     12.783
REMARK  2 active torsions:
REMARK  status: ('A' for Active; 'I' for Inactive)
REMARK    1  A    between atoms: C3_3  and  C8_8 
REMARK    2  A    between atoms: C4_4  and  O9_9 
ROOT
HETATM    1  C1  UNL     1     -36.507  16.272  -3.645  1.00 20.00     0.037 C 
HETATM    2  C2  UNL     1     -36.321  14.188  -4.063  1.00 20.00     0.037 C 
HETATM    3  C3  UNL     1     -35.454  15.425  -4.399  1.00 20.00    -0.002 C 
HETATM    4  C4  UNL     1     -37.528  15.148  -3.931  1.00 20.00     0.118 C 
ENDROOT
BRANCH   3   5
HETATM    5  C8  UNL     1     -34.046  15.438  -3.841  1.00 20.00    -0.048 C 
HETATM    6  C5  UNL     1     -33.143  16.285  -4.749  1.00 20.00     0.015 C 
HETATM    7  C6  UNL     1     -33.507  14.002  -3.780  1.00 20.00     0.015 C 
HETATM    8  C7  UNL     1     -34.061  16.040  -2.429  1.00 20.00     0.015 C 
ENDBRANCH   3   5
BRANCH   4   9
HETATM    9  O9  UNL     1     -38.455  14.858  -2.872  1.00 20.00    -0.396 OA
HETATM   10  H25 UNL     1     -39.269  14.566  -3.305  1.00 20.00     0.210 HD
ENDBRANCH   4   9
TORSDOF 2
ENDMDL
MODEL 7
REMARK VINA RESULT:      -3.9     11.848     12.496
REMARK  2 active torsions:
REMARK  status: ('A' for Active; 'I' for Inactive)
REMARK    1  A    between atoms: C3_3  and  C8_8 
REMARK    2  A    between atoms: C4_4  and  O9_9 
ROOT
HETATM    1  C1  UNL     1     -33.259  15.463  -3.497  1.00 20.00     0.037 C 
HETATM    2  C2  UNL     1     -35.325  14.934  -3.523  1.00 20.00     0.037 C 
HETATM    3  C3  UNL     1     -34.393  15.538  -2.446  1.00 20.00    -0.002 C 
HETATM    4  C4  UNL     1     -34.063  14.344  -4.196  1.00 20.00     0.118 C 
ENDROOT
BRANCH   3   5
HETATM    5  C8  UNL     1     -34.753  16.918  -1.934  1.00 20.00    -0.048 C 
HETATM    6  C5  UNL     1     -36.169  17.284  -2.403  1.00 20.00     0.015 C 
HETATM    7  C6  UNL     1     -33.751  17.944  -2.481  1.00 20.00     0.015 C 
HETATM    8  C7  UNL     1     -34.705  16.923  -0.400  1.00 20.00     0.015 C 
ENDBRANCH   3   5
BRANCH   4   9
HETATM    9  O9  UNL     1     -34.044  14.362  -5.633  1.00 20.00    -0.396 OA
HETATM   10  H25 UNL     1     -33.776  13.474  -5.905  1.00 20.00     0.210 HD
ENDBRANCH   4   9
TORSDOF 2
ENDMDL
MODEL 8
REMARK VINA RESULT:      -3.8      8.806     10.301
REMARK  2 active torsions:
REMARK  status: ('A' for Active; 'I' for Inactive)
REMARK    1  A    between atoms: C3_3  and  C8_8 
REMARK    2  A    between atoms: C4_4  and  O9_9 
ROOT
HETATM    1  C1  UNL     1     -42.550   6.176  -2.906  1.00 20.00     0.037 C 
HETATM    2  C2  UNL     1     -42.106   7.730  -1.513  1.00 20.00     0.037 C 
HETATM    3  C3  UNL     1     -42.601   6.272  -1.362  1.00 20.00    -0.002 C 
HETATM    4  C4  UNL     1     -42.693   7.715  -2.945  1.00 20.00     0.118 C 
ENDROOT
BRANCH   3   5
HETATM    5  C8  UNL     1     -41.699   5.326  -0.593  1.00 20.00    -0.048 C 
HETATM    6  C5  UNL     1     -42.513   4.619   0.500  1.00 20.00     0.015 C 
HETATM    7  C6  UNL     1     -40.557   6.122   0.053  1.00 20.00     0.015 C 
HETATM    8  C7  UNL     1     -41.116   4.281  -1.554  1.00 20.00     0.015 C 
ENDBRANCH   3   5
BRANCH   4   9
HETATM    9  O9  UNL     1     -41.922   8.390  -3.953  1.00 20.00    -0.396 OA
HETATM   10  H25 UNL     1     -42.048   9.335  -3.792  1.00 20.00     0.210 HD
ENDBRANCH   4   9
TORSDOF 2
ENDMDL
MODEL 9
REMARK VINA RESULT:      -3.8      8.930     10.438
REMARK  2 active torsions:
REMARK  status: ('A' for Active; 'I' for Inactive)
REMARK    1  A    between atoms: C3_3  and  C8_8 
REMARK    2  A    between atoms: C4_4  and  O9_9 
ROOT
HETATM    1  C1  UNL     1     -43.017   4.614  -2.244  1.00 20.00     0.037 C 
HETATM    2  C2  UNL     1     -41.004   4.114  -1.745  1.00 20.00     0.037 C 
HETATM    3  C3  UNL     1     -41.758   5.454  -1.922  1.00 20.00    -0.002 C 
HETATM    4  C4  UNL     1     -42.071   3.465  -2.660  1.00 20.00     0.118 C 
ENDROOT
BRANCH   3   5
HETATM    5  C8  UNL     1     -41.834   6.354  -0.706  1.00 20.00    -0.048 C 
HETATM    6  C5  UNL     1     -40.557   6.193   0.131  1.00 20.00     0.015 C 
HETATM    7  C6  UNL     1     -43.054   5.965   0.142  1.00 20.00     0.015 C 
HETATM    8  C7  UNL     1     -41.970   7.814  -1.158  1.00 20.00     0.015 C 
ENDBRANCH   3   5
BRANCH   4   9
HETATM    9  O9  UNL     1     -42.496   2.140  -2.296  1.00 20.00    -0.396 OA
HETATM   10  H25 UNL     1     -43.040   1.827  -3.031  1.00 20.00     0.210 HD
ENDBRANCH   4   9
TORSDOF 2
ENDMDL
