MODEL 1
REMARK VINA RESULT:      -5.0      0.000      0.000
REMARK  1 active torsions:
REMARK  status: ('A' for Active; 'I' for Inactive)
REMARK    1  A    between atoms: C3_3  and  C4_4 
ROOT
HETATM    1  C1  UNL     1     -34.504  16.015  -4.554  1.00 20.00    -0.018 A 
HETATM    2  C2  UNL     1     -33.781  16.948  -3.912  1.00 20.00    -0.024 A 
HETATM    3  C4  UNL     1     -35.130  15.083  -3.545  1.00 20.00     0.082 A 
HETATM    4  C5  UNL     1     -33.773  16.797  -2.447  1.00 20.00     0.022 A 
HETATM    5  C6  UNL     1     -34.654  15.581  -2.189  1.00 20.00     0.017 A 
HETATM    6  C7  UNL     1     -35.019  16.933  -1.596  1.00 20.00    -0.035 A 
HETATM    7  C9  UNL     1     -34.809  17.101  -0.110  1.00 20.00     0.016 C 
HETATM    8  C10 UNL     1     -36.220  17.688  -2.107  1.00 20.00     0.016 C 
ENDROOT
BRANCH   3   9
HETATM    9  C3  UNL     1     -34.632  13.710  -3.859  1.00 20.00     0.131 C 
HETATM   10  C8  UNL     1     -33.155  13.475  -3.709  1.00 20.00     0.091 C 
HETATM   11  O11 UNL     1     -35.396  12.814  -4.219  1.00 20.00    -0.298 OA
ENDBRANCH   3   9
TORSDOF 1
ENDMDL
MODEL 2
REMARK VINA RESULT:      -4.7      2.743      3.453
REMARK  1 active torsions:
REMARK  status: ('A' for Active; 'I' for Inactive)
REMARK    1  A    between atoms: C3_3  and  C4_4 
ROOT
HETATM    1  C1  UNL     1     -35.432  14.256  -6.578  1.00 20.00    -0.018 A 
HETATM    2  C2  UNL     1     -34.763  15.018  -7.460  1.00 20.00    -0.024 A 
HETATM    3  C4  UNL     1     -35.152  14.745  -5.178  1.00 20.00     0.082 A 
HETATM    4  C5  UNL     1     -33.943  16.072  -6.839  1.00 20.00     0.022 A 
HETATM    5  C6  UNL     1     -34.187  15.908  -5.344  1.00 20.00     0.017 A 
HETATM    6  C7  UNL     1     -34.534  17.215  -6.040  1.00 20.00    -0.035 A 
HETATM    7  C9  UNL     1     -33.626  18.391  -5.767  1.00 20.00     0.016 C 
HETATM    8  C10 UNL     1     -35.975  17.619  -6.226  1.00 20.00     0.016 C 
ENDROOT
BRANCH   3   9
HETATM    9  C3  UNL     1     -34.546  13.599  -4.434  1.00 20.00     0.131 C 
HETATM   10  C8  UNL     1     -33.257  13.870  -3.709  1.00 20.00     0.091 C 
HETATM   11  O11 UNL     1     -35.078  12.489  -4.415  1.00 20.00    -0.298 OA
ENDBRANCH   3   9
TORSDOF 1
ENDMDL
MODEL 3
REMARK VINA RESULT:      -4.7     11.100     12.414
REMARK  1 active torsions:
REMARK  status: ('A' for Active; 'I' for Inactive)
REMARK    1  A    between atoms: C3_3  and  C4_4 
ROOT
HETATM    1  C1  UNL     1     -33.471   5.640   2.506  1.00 20.00    -0.018 A 
HETATM    2  C2  UNL     1     -34.771   5.579   2.841  1.00 20.00    -0.024 A 
HETATM    3  C4  UNL     1     -32.655   5.995   3.725  1.00 20.00     0.082 A 
HETATM    4  C5  UNL     1     -35.040   5.894   4.255  1.00 20.00     0.022 A 
HETATM    5  C6  UNL     1     -33.664   6.167   4.849  1.00 20.00     0.017 A 
HETATM    6  C7  UNL     1     -34.530   5.045   5.401  1.00 20.00    -0.035 A 
HETATM    7  C9  UNL     1     -35.164   5.279   6.752  1.00 20.00     0.016 C 
HETATM    8  C10 UNL     1     -34.142   3.605   5.178  1.00 20.00     0.016 C 
ENDROOT
BRANCH   3   9
HETATM    9  C3  UNL     1     -31.932   7.263   3.405  1.00 20.00     0.131 C 
HETATM   10  C8  UNL     1     -32.224   7.891   2.070  1.00 20.00     0.091 C 
HETATM   11  O11 UNL     1     -31.138   7.771   4.197  1.00 20.00    -0.298 OA
ENDBRANCH   3   9
TORSDOF 1
ENDMDL
MODEL 4
REMARK VINA RESULT:      -4.7      1.952      3.119
REMARK  1 active torsions:
REMARK  status: ('A' for Active; 'I' for Inactive)
REMARK    1  A    between atoms: C3_3  and  C4_4 
ROOT
HETATM    1  C1  UNL     1     -35.467  14.020  -5.170  1.00 20.00    -0.018 A 
HETATM    2  C2  UNL     1     -34.542  13.682  -4.256  1.00 20.00    -0.024 A 
HETATM    3  C4  UNL     1     -36.201  15.255  -4.708  1.00 20.00     0.082 A 
HETATM    4  C5  UNL     1     -34.515  14.564  -3.077  1.00 20.00     0.022 A 
HETATM    5  C6  UNL     1     -35.594  15.602  -3.358  1.00 20.00     0.017 A 
HETATM    6  C7  UNL     1     -34.150  16.032  -3.152  1.00 20.00    -0.035 A 
HETATM    7  C9  UNL     1     -33.826  16.718  -1.846  1.00 20.00     0.016 C 
HETATM    8  C10 UNL     1     -33.344  16.566  -4.310  1.00 20.00     0.016 C 
ENDROOT
BRANCH   3   9
HETATM    9  C3  UNL     1     -37.646  14.887  -4.611  1.00 20.00     0.131 C 
HETATM   10  C8  UNL     1     -38.554  15.420  -5.685  1.00 20.00     0.091 C 
HETATM   11  O11 UNL     1     -38.071  14.181  -3.697  1.00 20.00    -0.298 OA
ENDBRANCH   3   9
TORSDOF 1
ENDMDL
MODEL 5
REMARK VINA RESULT:      -4.7      1.524      2.129
REMARK  1 active torsions:
REMARK  status: ('A' for Active; 'I' for Inactive)
REMARK    1  A    between atoms: C3_3  and  C4_4 
ROOT
HETATM    1  C1  UNL     1     -35.853  16.227  -2.786  1.00 20.00    -0.018 A 
HETATM    2  C2  UNL     1     -35.767  17.563  -2.668  1.00 20.00    -0.024 A 
HETATM    3  C4  UNL     1     -34.573  15.597  -2.293  1.00 20.00     0.082 A 
HETATM    4  C5  UNL     1     -34.479  18.036  -2.132  1.00 20.00     0.022 A 
HETATM    5  C6  UNL     1     -33.685  16.760  -1.879  1.00 20.00     0.017 A 
HETATM    6  C7  UNL     1     -33.997  17.710  -0.734  1.00 20.00    -0.035 A 
HETATM    7  C9  UNL     1     -32.847  18.535  -0.204  1.00 20.00     0.016 C 
HETATM    8  C10 UNL     1     -34.974  17.309   0.343  1.00 20.00     0.016 C 
ENDROOT
BRANCH   3   9
HETATM    9  C3  UNL     1     -34.006  14.821  -3.437  1.00 20.00     0.131 C 
HETATM   10  C8  UNL     1     -34.856  13.710  -3.989  1.00 20.00     0.091 C 
HETATM   11  O11 UNL     1     -32.898  15.080  -3.906  1.00 20.00    -0.298 OA
ENDBRANCH   3   9
TORSDOF 1
ENDMDL
MODEL 6
REMARK VINA RESULT:      -4.7      1.309      2.100
REMARK  1 active torsions:
REMARK  status: ('A' for Active; 'I' for Inactive)
REMARK    1  A    between atoms: C3_3  and  C4_4 
ROOT
HETATM    1  C1  UNL     1     -36.476  14.772  -3.478  1.00 20.00    -0.018 A 
HETATM    2  C2  UNL     1     -36.777  16.081  -3.430  1.00 20.00    -0.024 A 
HETATM    3  C4  UNL     1     -34.980  14.605  -3.588  1.00 20.00     0.082 A 
HETATM    4  C5  UNL     1     -35.606  16.969  -3.522  1.00 20.00     0.022 A 
HETATM    5  C6  UNL     1     -34.419  16.018  -3.625  1.00 20.00     0.017 A 
HETATM    6  C7  UNL     1     -34.513  17.007  -2.473  1.00 20.00    -0.035 A 
HETATM    7  C9  UNL     1     -33.574  18.189  -2.515  1.00 20.00     0.016 C 
HETATM    8  C10 UNL     1     -34.776  16.518  -1.071  1.00 20.00     0.016 C 
ENDROOT
BRANCH   3   9
HETATM    9  C3  UNL     1     -34.723  13.853  -4.853  1.00 20.00     0.131 C 
HETATM   10  C8  UNL     1     -34.476  14.673  -6.090  1.00 20.00     0.091 C 
HETATM   11  O11 UNL     1     -34.709  12.623  -4.881  1.00 20.00    -0.298 OA
ENDBRANCH   3   9
TORSDOF 1
ENDMDL
MODEL 7
REMARK VINA RESULT:      -4.6     10.871     12.195
REMARK  1 active torsions:
REMARK  status: ('A' for Active; 'I' for Inactive)
REMARK    1  A    between atoms: C3_3  and  C4_4 
ROOT
HETATM    1  C1  UNL     1     -34.688   5.399   3.248  1.00 20.00    -0.018 A 
HETATM    2  C2  UNL     1     -33.587   5.204   2.503  1.00 20.00    -0.024 A 
HETATM    3  C4  UNL     1     -34.341   6.252   4.444  1.00 20.00     0.082 A 
HETATM    4  C5  UNL     1     -32.373   5.831   3.053  1.00 20.00     0.022 A 
HETATM    5  C6  UNL     1     -32.849   6.524   4.324  1.00 20.00     0.017 A 
HETATM    6  C7  UNL     1     -32.214   7.330   3.202  1.00 20.00    -0.035 A 
HETATM    7  C9  UNL     1     -30.813   7.842   3.444  1.00 20.00     0.016 C 
HETATM    8  C10 UNL     1     -33.049   8.278   2.379  1.00 20.00     0.016 C 
ENDROOT
BRANCH   3   9
HETATM    9  C3  UNL     1     -34.682   5.451   5.658  1.00 20.00     0.131 C 
HETATM   10  C8  UNL     1     -35.058   4.012   5.436  1.00 20.00     0.091 C 
HETATM   11  O11 UNL     1     -34.653   5.944   6.785  1.00 20.00    -0.298 OA
ENDBRANCH   3   9
TORSDOF 1
ENDMDL
MODEL 8
REMARK VINA RESULT:      -4.5      1.891      3.967
REMARK  1 active torsions:
REMARK  status: ('A' for Active; 'I' for Inactive)
REMARK    1  A    between atoms: C3_3  and  C4_4 
ROOT
HETATM    1  C1  UNL     1     -33.668  17.479  -2.905  1.00 20.00    -0.018 A 
HETATM    2  C2  UNL     1     -33.967  17.084  -4.154  1.00 20.00    -0.024 A 
HETATM    3  C4  UNL     1     -34.245  16.496  -1.916  1.00 20.00     0.082 A 
HETATM    4  C5  UNL     1     -34.774  15.854  -4.216  1.00 20.00     0.022 A 
HETATM    5  C6  UNL     1     -34.964  15.454  -2.758  1.00 20.00     0.017 A 
HETATM    6  C7  UNL     1     -34.272  14.511  -3.729  1.00 20.00    -0.035 A 
HETATM    7  C9  UNL     1     -35.053  13.295  -4.168  1.00 20.00     0.016 C 
HETATM    8  C10 UNL     1     -32.793  14.242  -3.604  1.00 20.00     0.016 C 
ENDROOT
BRANCH   3   9
HETATM    9  C3  UNL     1     -35.177  17.265  -1.037  1.00 20.00     0.131 C 
HETATM   10  C8  UNL     1     -34.793  17.388   0.412  1.00 20.00     0.091 C 
HETATM   11  O11 UNL     1     -36.206  17.776  -1.478  1.00 20.00    -0.298 OA
ENDBRANCH   3   9
TORSDOF 1
ENDMDL
MODEL 9
REMARK VINA RESULT:      -4.5      2.023      4.050
REMARK  1 active torsions:
REMARK  status: ('A' for Active; 'I' for Inactive)
REMARK    1  A    between atoms: C3_3  and  C4_4 
ROOT
HETATM    1  C1  UNL     1     -33.390  15.672  -3.000  1.00 20.00    -0.018 A 
HETATM    2  C2  UNL     1     -33.057  15.833  -4.292  1.00 20.00    -0.024 A 
HETATM    3  C4  UNL     1     -34.890  15.565  -2.878  1.00 20.00     0.082 A 
HETATM    4  C5  UNL     1     -34.211  15.889  -5.205  1.00 20.00     0.022 A 
HETATM    5  C6  UNL     1     -35.421  15.713  -4.296  1.00 20.00     0.017 A 
HETATM    6  C7  UNL     1     -35.153  14.721  -5.418  1.00 20.00    -0.035 A 
HETATM    7  C9  UNL     1     -36.064  14.796  -6.620  1.00 20.00     0.016 C 
HETATM    8  C10 UNL     1     -34.717  13.313  -5.100  1.00 20.00     0.016 C 
ENDROOT
BRANCH   3   9
HETATM    9  C3  UNL     1     -35.330  16.678  -1.983  1.00 20.00     0.131 C 
HETATM   10  C8  UNL     1     -34.630  16.797  -0.658  1.00 20.00     0.091 C 
HETATM   11  O11 UNL     1     -36.220  17.460  -2.316  1.00 20.00    -0.298 OA
ENDBRANCH   3   9
TORSDOF 1
ENDMDL
