MODEL 1
REMARK VINA RESULT:      -4.3      0.000      0.000
REMARK  5 active torsions:
REMARK  status: ('A' for Active; 'I' for Inactive)
REMARK    1  A    between atoms: C1_1  and  C9_9 
REMARK    2  A    between atoms: C1_1  and  O11_11 
REMARK    3  A    between atoms: C6_6  and  C7_7 
REMARK    4  A    between atoms: C7_7  and  C9_9 
REMARK    5  A    between atoms: C8_8  and  O11_11 
ROOT
HETATM    1  C4  UNL     1     -32.383  14.249  -3.431  1.00 20.00     0.025 C 
HETATM    2  C5  UNL     1     -33.173  16.167  -4.813  1.00 20.00     0.025 C 
HETATM    3  C9  UNL     1     -33.634  14.945  -3.997  1.00 20.00     0.041 C 
ENDROOT
BRANCH   3   4
HETATM    4  C1  UNL     1     -34.356  13.955  -4.922  1.00 20.00     0.266 C 
HETATM    5  O10 UNL     1     -34.830  12.886  -4.556  1.00 20.00    -0.264 OA
BRANCH   4   6
HETATM    6  O11 UNL     1     -34.402  14.437  -6.199  1.00 20.00    -0.321 OA
BRANCH   6   7
HETATM    7  C8  UNL     1     -35.680  14.382  -6.839  1.00 20.00     0.174 C 
HETATM    8  C3  UNL     1     -36.572  15.456  -6.253  1.00 20.00     0.034 C 
ENDBRANCH   6   7
ENDBRANCH   4   6
ENDBRANCH   3   4
BRANCH   3   9
HETATM    9  C7  UNL     1     -34.552  15.379  -2.826  1.00 20.00     0.018 C 
BRANCH   9  10
HETATM   10  C6  UNL     1     -34.075  16.617  -2.058  1.00 20.00    -0.003 C 
HETATM   11  C2  UNL     1     -34.677  16.664  -0.661  1.00 20.00     0.005 C 
ENDBRANCH   9  10
ENDBRANCH   3   9
TORSDOF 5
ENDMDL
MODEL 2
REMARK VINA RESULT:      -4.1      1.536      2.224
REMARK  5 active torsions:
REMARK  status: ('A' for Active; 'I' for Inactive)
REMARK    1  A    between atoms: C1_1  and  C9_9 
REMARK    2  A    between atoms: C1_1  and  O11_11 
REMARK    3  A    between atoms: C6_6  and  C7_7 
REMARK    4  A    between atoms: C7_7  and  C9_9 
REMARK    5  A    between atoms: C8_8  and  O11_11 
ROOT
HETATM    1  C4  UNL     1     -35.933  15.063  -3.759  1.00 20.00     0.025 C 
HETATM    2  C5  UNL     1     -33.835  13.719  -3.762  1.00 20.00     0.025 C 
HETATM    3  C9  UNL     1     -34.397  15.151  -3.715  1.00 20.00     0.041 C 
ENDROOT
BRANCH   3   4
HETATM    4  C1  UNL     1     -33.926  15.927  -4.952  1.00 20.00     0.266 C 
HETATM    5  O10 UNL     1     -32.829  16.463  -5.057  1.00 20.00    -0.264 OA
BRANCH   4   6
HETATM    6  O11 UNL     1     -34.894  15.929  -5.916  1.00 20.00    -0.321 OA
BRANCH   6   7
HETATM    7  C8  UNL     1     -34.490  15.455  -7.204  1.00 20.00     0.174 C 
HETATM    8  C3  UNL     1     -35.483  14.417  -7.683  1.00 20.00     0.034 C 
ENDBRANCH   6   7
ENDBRANCH   4   6
ENDBRANCH   3   4
BRANCH   3   9
HETATM    9  C7  UNL     1     -33.963  15.870  -2.412  1.00 20.00     0.018 C 
BRANCH   9  10
HETATM   10  C6  UNL     1     -35.073  16.667  -1.717  1.00 20.00    -0.003 C 
HETATM   11  C2  UNL     1     -34.699  16.991  -0.277  1.00 20.00     0.005 C 
ENDBRANCH   9  10
ENDBRANCH   3   9
TORSDOF 5
ENDMDL
MODEL 3
REMARK VINA RESULT:      -4.1      1.668      1.921
REMARK  5 active torsions:
REMARK  status: ('A' for Active; 'I' for Inactive)
REMARK    1  A    between atoms: C1_1  and  C9_9 
REMARK    2  A    between atoms: C1_1  and  O11_11 
REMARK    3  A    between atoms: C6_6  and  C7_7 
REMARK    4  A    between atoms: C7_7  and  C9_9 
REMARK    5  A    between atoms: C8_8  and  O11_11 
ROOT
HETATM    1  C4  UNL     1     -32.892  14.570  -3.678  1.00 20.00     0.025 C 
HETATM    2  C5  UNL     1     -34.138  15.428  -5.659  1.00 20.00     0.025 C 
HETATM    3  C9  UNL     1     -34.257  15.094  -4.161  1.00 20.00     0.041 C 
ENDROOT
BRANCH   3   4
HETATM    4  C1  UNL     1     -35.295  13.980  -3.965  1.00 20.00     0.266 C 
HETATM    5  O10 UNL     1     -35.113  12.806  -4.263  1.00 20.00    -0.264 OA
BRANCH   4   6
HETATM    6  O11 UNL     1     -36.437  14.481  -3.408  1.00 20.00    -0.321 OA
BRANCH   6   7
HETATM    7  C8  UNL     1     -37.558  14.599  -4.290  1.00 20.00     0.174 C 
HETATM    8  C3  UNL     1     -38.735  15.161  -3.521  1.00 20.00     0.034 C 
ENDBRANCH   6   7
ENDBRANCH   4   6
ENDBRANCH   3   4
BRANCH   3   9
HETATM    9  C7  UNL     1     -34.638  16.355  -3.344  1.00 20.00     0.018 C 
BRANCH   9  10
HETATM   10  C6  UNL     1     -33.800  16.581  -2.080  1.00 20.00    -0.003 C 
HETATM   11  C2  UNL     1     -34.677  16.612  -0.836  1.00 20.00     0.005 C 
ENDBRANCH   9  10
ENDBRANCH   3   9
TORSDOF 5
ENDMDL
MODEL 4
REMARK VINA RESULT:      -4.1      1.447      2.432
REMARK  5 active torsions:
REMARK  status: ('A' for Active; 'I' for Inactive)
REMARK    1  A    between atoms: C1_1  and  C9_9 
REMARK    2  A    between atoms: C1_1  and  O11_11 
REMARK    3  A    between atoms: C6_6  and  C7_7 
REMARK    4  A    between atoms: C7_7  and  C9_9 
REMARK    5  A    between atoms: C8_8  and  O11_11 
ROOT
HETATM    1  C4  UNL     1     -33.714  17.372  -4.271  1.00 20.00     0.025 C 
HETATM    2  C5  UNL     1     -35.747  16.375  -3.230  1.00 20.00     0.025 C 
HETATM    3  C9  UNL     1     -34.209  16.407  -3.178  1.00 20.00     0.041 C 
ENDROOT
BRANCH   3   4
HETATM    4  C1  UNL     1     -33.656  15.009  -3.487  1.00 20.00     0.266 C 
HETATM    5  O10 UNL     1     -32.464  14.742  -3.581  1.00 20.00    -0.264 OA
BRANCH   4   6
HETATM    6  O11 UNL     1     -34.675  14.112  -3.634  1.00 20.00    -0.321 OA
BRANCH   6   7
HETATM    7  C8  UNL     1     -34.591  13.258  -4.779  1.00 20.00     0.174 C 
HETATM    8  C3  UNL     1     -34.979  14.046  -6.013  1.00 20.00     0.034 C 
ENDBRANCH   6   7
ENDBRANCH   4   6
ENDBRANCH   3   4
BRANCH   3   9
HETATM    9  C7  UNL     1     -33.714  16.904  -1.796  1.00 20.00     0.018 C 
BRANCH   9  10
HETATM   10  C6  UNL     1     -34.685  16.652  -0.636  1.00 20.00    -0.003 C 
HETATM   11  C2  UNL     1     -34.578  17.743   0.419  1.00 20.00     0.005 C 
ENDBRANCH   9  10
ENDBRANCH   3   9
TORSDOF 5
ENDMDL
MODEL 5
REMARK VINA RESULT:      -4.0      1.742      2.863
REMARK  5 active torsions:
REMARK  status: ('A' for Active; 'I' for Inactive)
REMARK    1  A    between atoms: C1_1  and  C9_9 
REMARK    2  A    between atoms: C1_1  and  O11_11 
REMARK    3  A    between atoms: C6_6  and  C7_7 
REMARK    4  A    between atoms: C7_7  and  C9_9 
REMARK    5  A    between atoms: C8_8  and  O11_11 
ROOT
HETATM    1  C4  UNL     1     -35.677  14.958  -3.744  1.00 20.00     0.025 C 
HETATM    2  C5  UNL     1     -33.529  13.696  -3.810  1.00 20.00     0.025 C 
HETATM    3  C9  UNL     1     -34.148  15.105  -3.841  1.00 20.00     0.041 C 
ENDROOT
BRANCH   3   4
HETATM    4  C1  UNL     1     -33.816  15.782  -5.179  1.00 20.00     0.266 C 
HETATM    5  O10 UNL     1     -34.188  15.373  -6.272  1.00 20.00    -0.264 OA
BRANCH   4   6
HETATM    6  O11 UNL     1     -33.058  16.900  -4.976  1.00 20.00    -0.321 OA
BRANCH   6   7
HETATM    7  C8  UNL     1     -33.559  18.104  -5.565  1.00 20.00     0.174 C 
HETATM    8  C3  UNL     1     -33.574  19.198  -4.517  1.00 20.00     0.034 C 
ENDBRANCH   6   7
ENDBRANCH   4   6
ENDBRANCH   3   4
BRANCH   3   9
HETATM    9  C7  UNL     1     -33.639  15.957  -2.650  1.00 20.00     0.018 C 
BRANCH   9  10
HETATM   10  C6  UNL     1     -34.696  16.269  -1.584  1.00 20.00    -0.003 C 
HETATM   11  C2  UNL     1     -34.197  17.323  -0.606  1.00 20.00     0.005 C 
ENDBRANCH   9  10
ENDBRANCH   3   9
TORSDOF 5
ENDMDL
MODEL 6
REMARK VINA RESULT:      -4.0      1.961      3.924
REMARK  5 active torsions:
REMARK  status: ('A' for Active; 'I' for Inactive)
REMARK    1  A    between atoms: C1_1  and  C9_9 
REMARK    2  A    between atoms: C1_1  and  O11_11 
REMARK    3  A    between atoms: C6_6  and  C7_7 
REMARK    4  A    between atoms: C7_7  and  C9_9 
REMARK    5  A    between atoms: C8_8  and  O11_11 
ROOT
HETATM    1  C4  UNL     1     -34.462  14.818  -6.504  1.00 20.00     0.025 C 
HETATM    2  C5  UNL     1     -34.553  13.548  -4.362  1.00 20.00     0.025 C 
HETATM    3  C9  UNL     1     -34.670  14.951  -4.984  1.00 20.00     0.041 C 
ENDROOT
BRANCH   3   4
HETATM    4  C1  UNL     1     -33.561  15.853  -4.426  1.00 20.00     0.266 C 
HETATM    5  O10 UNL     1     -32.917  16.652  -5.095  1.00 20.00    -0.264 OA
BRANCH   4   6
HETATM    6  O11 UNL     1     -33.403  15.645  -3.085  1.00 20.00    -0.321 OA
BRANCH   6   7
HETATM    7  C8  UNL     1     -33.636  16.782  -2.248  1.00 20.00     0.174 C 
HETATM    8  C3  UNL     1     -34.677  16.426  -1.209  1.00 20.00     0.034 C 
ENDBRANCH   6   7
ENDBRANCH   4   6
ENDBRANCH   3   4
BRANCH   3   9
HETATM    9  C7  UNL     1     -36.069  15.560  -4.711  1.00 20.00     0.018 C 
BRANCH   9  10
HETATM   10  C6  UNL     1     -36.905  14.811  -3.667  1.00 20.00    -0.003 C 
HETATM   11  C2  UNL     1     -38.375  14.777  -4.060  1.00 20.00     0.005 C 
ENDBRANCH   9  10
ENDBRANCH   3   9
TORSDOF 5
ENDMDL
MODEL 7
REMARK VINA RESULT:      -3.9      1.047      2.200
REMARK  5 active torsions:
REMARK  status: ('A' for Active; 'I' for Inactive)
REMARK    1  A    between atoms: C1_1  and  C9_9 
REMARK    2  A    between atoms: C1_1  and  O11_11 
REMARK    3  A    between atoms: C6_6  and  C7_7 
REMARK    4  A    between atoms: C7_7  and  C9_9 
REMARK    5  A    between atoms: C8_8  and  O11_11 
ROOT
HETATM    1  C4  UNL     1     -34.763  15.177  -3.028  1.00 20.00     0.025 C 
HETATM    2  C5  UNL     1     -32.636  13.915  -3.336  1.00 20.00     0.025 C 
HETATM    3  C9  UNL     1     -33.720  14.729  -4.067  1.00 20.00     0.041 C 
ENDROOT
BRANCH   3   4
HETATM    4  C1  UNL     1     -34.423  13.835  -5.098  1.00 20.00     0.266 C 
HETATM    5  O10 UNL     1     -34.864  12.718  -4.859  1.00 20.00    -0.264 OA
BRANCH   4   6
HETATM    6  O11 UNL     1     -34.493  14.464  -6.309  1.00 20.00    -0.321 OA
BRANCH   6   7
HETATM    7  C8  UNL     1     -35.794  14.531  -6.900  1.00 20.00     0.174 C 
HETATM    8  C3  UNL     1     -36.512  15.756  -6.376  1.00 20.00     0.034 C 
ENDBRANCH   6   7
ENDBRANCH   4   6
ENDBRANCH   3   4
BRANCH   3   9
HETATM    9  C7  UNL     1     -33.105  15.979  -4.746  1.00 20.00     0.018 C 
BRANCH   9  10
HETATM   10  C6  UNL     1     -33.729  17.314  -4.321  1.00 20.00    -0.003 C 
HETATM   11  C2  UNL     1     -33.645  18.342  -5.441  1.00 20.00     0.005 C 
ENDBRANCH   9  10
ENDBRANCH   3   9
TORSDOF 5
ENDMDL
MODEL 8
REMARK VINA RESULT:      -3.8      1.800      4.336
REMARK  5 active torsions:
REMARK  status: ('A' for Active; 'I' for Inactive)
REMARK    1  A    between atoms: C1_1  and  C9_9 
REMARK    2  A    between atoms: C1_1  and  O11_11 
REMARK    3  A    between atoms: C6_6  and  C7_7 
REMARK    4  A    between atoms: C7_7  and  C9_9 
REMARK    5  A    between atoms: C8_8  and  O11_11 
ROOT
HETATM    1  C4  UNL     1     -33.892  13.650  -3.737  1.00 20.00     0.025 C 
HETATM    2  C5  UNL     1     -36.066  14.836  -4.015  1.00 20.00     0.025 C 
HETATM    3  C9  UNL     1     -34.623  14.739  -4.542  1.00 20.00     0.041 C 
ENDROOT
BRANCH   3   4
HETATM    4  C1  UNL     1     -33.901  16.074  -4.308  1.00 20.00     0.266 C 
HETATM    5  O10 UNL     1     -32.856  16.401  -4.857  1.00 20.00    -0.264 OA
BRANCH   4   6
HETATM    6  O11 UNL     1     -34.591  16.841  -3.413  1.00 20.00    -0.321 OA
BRANCH   6   7
HETATM    7  C8  UNL     1     -33.885  17.187  -2.217  1.00 20.00     0.174 C 
HETATM    8  C3  UNL     1     -34.577  16.548  -1.032  1.00 20.00     0.034 C 
ENDBRANCH   6   7
ENDBRANCH   4   6
ENDBRANCH   3   4
BRANCH   3   9
HETATM    9  C7  UNL     1     -34.610  14.360  -6.045  1.00 20.00     0.018 C 
BRANCH   9  10
HETATM   10  C6  UNL     1     -35.687  15.047  -6.893  1.00 20.00    -0.003 C 
HETATM   11  C2  UNL     1     -35.071  16.051  -7.856  1.00 20.00     0.005 C 
ENDBRANCH   9  10
ENDBRANCH   3   9
TORSDOF 5
ENDMDL
MODEL 9
REMARK VINA RESULT:      -3.8      1.937      3.849
REMARK  5 active torsions:
REMARK  status: ('A' for Active; 'I' for Inactive)
REMARK    1  A    between atoms: C1_1  and  C9_9 
REMARK    2  A    between atoms: C1_1  and  O11_11 
REMARK    3  A    between atoms: C6_6  and  C7_7 
REMARK    4  A    between atoms: C7_7  and  C9_9 
REMARK    5  A    between atoms: C8_8  and  O11_11 
ROOT
HETATM    1  C4  UNL     1     -32.981  14.489  -3.613  1.00 20.00     0.025 C 
HETATM    2  C5  UNL     1     -34.913  13.276  -4.616  1.00 20.00     0.025 C 
HETATM    3  C9  UNL     1     -34.394  14.664  -4.198  1.00 20.00     0.041 C 
ENDROOT
BRANCH   3   4
HETATM    4  C1  UNL     1     -35.300  15.241  -3.101  1.00 20.00     0.266 C 
HETATM    5  O10 UNL     1     -36.513  15.374  -3.204  1.00 20.00    -0.264 OA
BRANCH   4   6
HETATM    6  O11 UNL     1     -34.564  15.573  -1.999  1.00 20.00    -0.321 OA
BRANCH   6   7
HETATM    7  C8  UNL     1     -34.892  16.825  -1.389  1.00 20.00     0.174 C 
HETATM    8  C3  UNL     1     -33.616  17.600  -1.134  1.00 20.00     0.034 C 
ENDBRANCH   6   7
ENDBRANCH   4   6
ENDBRANCH   3   4
BRANCH   3   9
HETATM    9  C7  UNL     1     -34.328  15.617  -5.419  1.00 20.00     0.018 C 
BRANCH   9  10
HETATM   10  C6  UNL     1     -33.270  16.722  -5.316  1.00 20.00    -0.003 C 
HETATM   11  C2  UNL     1     -33.900  18.054  -4.934  1.00 20.00     0.005 C 
ENDBRANCH   9  10
ENDBRANCH   3   9
TORSDOF 5
ENDMDL
