MODEL 1
REMARK VINA RESULT:      -4.1      0.000      0.000
REMARK  1 active torsions:
REMARK  status: ('A' for Active; 'I' for Inactive)
REMARK    1  A    between atoms: C3_3  and  C8_8 
ROOT
HETATM    1  C1  UNL     1     -35.577  15.187  -3.994  1.00 20.00     0.017 C 
HETATM    2  C2  UNL     1     -34.942  15.813  -5.225  1.00 20.00     0.092 C 
HETATM    3  C3  UNL     1     -33.691  15.899  -2.957  1.00 20.00     0.173 C 
HETATM    4  C4  UNL     1     -36.925  14.534  -4.125  1.00 20.00     0.066 C 
HETATM    5  C5  UNL     1     -34.553  14.757  -6.246  1.00 20.00     0.028 C 
HETATM    6  N9  UNL     1     -34.976  15.189  -2.844  1.00 20.00    -0.282 NA
HETATM    7  S10 UNL     1     -33.471  16.646  -4.590  1.00 20.00    -0.131 SA
ENDROOT
BRANCH   3   8
HETATM    8  C8  UNL     1     -33.634  16.973  -1.880  1.00 20.00     0.012 C 
HETATM    9  C6  UNL     1     -33.879  18.357  -2.481  1.00 20.00     0.012 C 
HETATM   10  C7  UNL     1     -34.651  16.686  -0.775  1.00 20.00     0.012 C 
ENDBRANCH   3   8
TORSDOF 1
ENDMDL
MODEL 2
REMARK VINA RESULT:      -4.0      1.609      1.986
REMARK  1 active torsions:
REMARK  status: ('A' for Active; 'I' for Inactive)
REMARK    1  A    between atoms: C3_3  and  C8_8 
ROOT
HETATM    1  C1  UNL     1     -34.244  14.902  -3.444  1.00 20.00     0.017 C 
HETATM    2  C2  UNL     1     -35.731  15.210  -3.504  1.00 20.00     0.092 C 
HETATM    3  C3  UNL     1     -34.088  17.005  -2.611  1.00 20.00     0.173 C 
HETATM    4  C4  UNL     1     -33.762  13.554  -3.904  1.00 20.00     0.066 C 
HETATM    5  C5  UNL     1     -36.221  15.303  -4.940  1.00 20.00     0.028 C 
HETATM    6  N9  UNL     1     -33.385  15.779  -3.024  1.00 20.00    -0.282 NA
HETATM    7  S10 UNL     1     -35.886  16.810  -2.682  1.00 20.00    -0.131 SA
ENDROOT
BRANCH   3   8
HETATM    8  C8  UNL     1     -33.657  17.357  -1.195  1.00 20.00     0.012 C 
HETATM    9  C6  UNL     1     -33.234  18.824  -1.107  1.00 20.00     0.012 C 
HETATM   10  C7  UNL     1     -34.779  17.066  -0.199  1.00 20.00     0.012 C 
ENDBRANCH   3   8
TORSDOF 1
ENDMDL
MODEL 3
REMARK VINA RESULT:      -4.0      1.272      3.741
REMARK  1 active torsions:
REMARK  status: ('A' for Active; 'I' for Inactive)
REMARK    1  A    between atoms: C3_3  and  C8_8 
ROOT
HETATM    1  C1  UNL     1     -34.541  16.590  -1.829  1.00 20.00     0.017 C 
HETATM    2  C2  UNL     1     -33.686  17.401  -2.789  1.00 20.00     0.092 C 
HETATM    3  C3  UNL     1     -34.932  15.299  -3.651  1.00 20.00     0.173 C 
HETATM    4  C4  UNL     1     -34.639  17.029  -0.395  1.00 20.00     0.066 C 
HETATM    5  C5  UNL     1     -34.286  18.774  -3.042  1.00 20.00     0.028 C 
HETATM    6  N9  UNL     1     -35.199  15.543  -2.225  1.00 20.00    -0.282 NA
HETATM    7  S10 UNL     1     -33.679  16.428  -4.309  1.00 20.00    -0.131 SA
ENDROOT
BRANCH   3   8
HETATM    8  C8  UNL     1     -34.475  13.857  -3.819  1.00 20.00     0.012 C 
HETATM    9  C6  UNL     1     -34.846  13.329  -5.205  1.00 20.00     0.012 C 
HETATM   10  C7  UNL     1     -32.968  13.736  -3.589  1.00 20.00     0.012 C 
ENDBRANCH   3   8
TORSDOF 1
ENDMDL
MODEL 4
REMARK VINA RESULT:      -3.9      1.837      2.867
REMARK  1 active torsions:
REMARK  status: ('A' for Active; 'I' for Inactive)
REMARK    1  A    between atoms: C3_3  and  C8_8 
ROOT
HETATM    1  C1  UNL     1     -34.712  16.218  -6.219  1.00 20.00     0.017 C 
HETATM    2  C2  UNL     1     -34.655  14.835  -6.846  1.00 20.00     0.092 C 
HETATM    3  C3  UNL     1     -35.154  15.070  -4.314  1.00 20.00     0.173 C 
HETATM    4  C4  UNL     1     -34.473  17.421  -7.088  1.00 20.00     0.066 C 
HETATM    5  C5  UNL     1     -35.808  14.615  -7.811  1.00 20.00     0.028 C 
HETATM    6  N9  UNL     1     -34.980  16.382  -4.959  1.00 20.00    -0.282 NA
HETATM    7  S10 UNL     1     -34.784  13.705  -5.444  1.00 20.00    -0.131 SA
ENDROOT
BRANCH   3   8
HETATM    8  C8  UNL     1     -34.240  15.003  -3.099  1.00 20.00     0.012 C 
HETATM    9  C6  UNL     1     -32.784  14.819  -3.525  1.00 20.00     0.012 C 
HETATM   10  C7  UNL     1     -34.388  16.259  -2.240  1.00 20.00     0.012 C 
ENDBRANCH   3   8
TORSDOF 1
ENDMDL
MODEL 5
REMARK VINA RESULT:      -3.8      1.941      2.516
REMARK  1 active torsions:
REMARK  status: ('A' for Active; 'I' for Inactive)
REMARK    1  A    between atoms: C3_3  and  C8_8 
ROOT
HETATM    1  C1  UNL     1     -33.739  17.790  -4.793  1.00 20.00     0.017 C 
HETATM    2  C2  UNL     1     -33.228  16.395  -5.111  1.00 20.00     0.092 C 
HETATM    3  C3  UNL     1     -34.339  16.858  -2.816  1.00 20.00     0.173 C 
HETATM    4  C4  UNL     1     -33.582  18.873  -5.824  1.00 20.00     0.066 C 
HETATM    5  C5  UNL     1     -34.046  15.741  -6.212  1.00 20.00     0.028 C 
HETATM    6  N9  UNL     1     -34.321  18.060  -3.665  1.00 20.00    -0.282 NA
HETATM    7  S10 UNL     1     -33.420  15.489  -3.561  1.00 20.00    -0.131 SA
ENDROOT
BRANCH   3   8
HETATM    8  C8  UNL     1     -33.740  17.212  -1.462  1.00 20.00     0.012 C 
HETATM    9  C6  UNL     1     -33.324  18.682  -1.421  1.00 20.00     0.012 C 
HETATM   10  C7  UNL     1     -34.728  16.907  -0.336  1.00 20.00     0.012 C 
ENDBRANCH   3   8
TORSDOF 1
ENDMDL
MODEL 6
REMARK VINA RESULT:      -3.8      1.142      1.189
REMARK  1 active torsions:
REMARK  status: ('A' for Active; 'I' for Inactive)
REMARK    1  A    between atoms: C3_3  and  C8_8 
ROOT
HETATM    1  C1  UNL     1     -35.611  15.818  -4.475  1.00 20.00     0.017 C 
HETATM    2  C2  UNL     1     -34.411  15.083  -5.048  1.00 20.00     0.092 C 
HETATM    3  C3  UNL     1     -34.486  15.631  -2.516  1.00 20.00     0.173 C 
HETATM    4  C4  UNL     1     -36.729  16.214  -5.399  1.00 20.00     0.066 C 
HETATM    5  C5  UNL     1     -34.786  13.686  -5.515  1.00 20.00     0.028 C 
HETATM    6  N9  UNL     1     -35.699  16.093  -3.210  1.00 20.00    -0.282 NA
HETATM    7  S10 UNL     1     -33.247  14.994  -3.671  1.00 20.00    -0.131 SA
ENDROOT
BRANCH   3   8
HETATM    8  C8  UNL     1     -33.910  16.794  -1.721  1.00 20.00     0.012 C 
HETATM    9  C6  UNL     1     -33.963  18.087  -2.536  1.00 20.00     0.012 C 
HETATM   10  C7  UNL     1     -34.654  16.968  -0.398  1.00 20.00     0.012 C 
ENDBRANCH   3   8
TORSDOF 1
ENDMDL
MODEL 7
REMARK VINA RESULT:      -3.8      2.026      2.979
REMARK  1 active torsions:
REMARK  status: ('A' for Active; 'I' for Inactive)
REMARK    1  A    between atoms: C3_3  and  C8_8 
ROOT
HETATM    1  C1  UNL     1     -37.797  14.970  -4.263  1.00 20.00     0.017 C 
HETATM    2  C2  UNL     1     -37.328  15.972  -5.304  1.00 20.00     0.092 C 
HETATM    3  C3  UNL     1     -35.671  14.197  -4.400  1.00 20.00     0.173 C 
HETATM    4  C4  UNL     1     -39.219  15.037  -3.778  1.00 20.00     0.066 C 
HETATM    5  C5  UNL     1     -38.006  15.739  -6.644  1.00 20.00     0.028 C 
HETATM    6  N9  UNL     1     -37.006  14.051  -3.800  1.00 20.00    -0.282 NA
HETATM    7  S10 UNL     1     -35.552  15.676  -5.437  1.00 20.00    -0.131 SA
ENDROOT
BRANCH   3   8
HETATM    8  C8  UNL     1     -34.640  14.260  -3.282  1.00 20.00     0.012 C 
HETATM    9  C6  UNL     1     -33.273  13.787  -3.777  1.00 20.00     0.012 C 
HETATM   10  C7  UNL     1     -34.541  15.677  -2.717  1.00 20.00     0.012 C 
ENDBRANCH   3   8
TORSDOF 1
ENDMDL
MODEL 8
REMARK VINA RESULT:      -3.7      1.895      3.879
REMARK  1 active torsions:
REMARK  status: ('A' for Active; 'I' for Inactive)
REMARK    1  A    between atoms: C3_3  and  C8_8 
ROOT
HETATM    1  C1  UNL     1     -33.793  17.540  -4.190  1.00 20.00     0.017 C 
HETATM    2  C2  UNL     1     -34.361  18.124  -2.907  1.00 20.00     0.092 C 
HETATM    3  C3  UNL     1     -33.754  15.606  -3.008  1.00 20.00     0.173 C 
HETATM    4  C4  UNL     1     -33.600  18.443  -5.376  1.00 20.00     0.066 C 
HETATM    5  C5  UNL     1     -33.388  19.096  -2.261  1.00 20.00     0.028 C 
HETATM    6  N9  UNL     1     -33.456  16.290  -4.277  1.00 20.00    -0.282 NA
HETATM    7  S10 UNL     1     -34.618  16.689  -1.842  1.00 20.00    -0.131 SA
ENDROOT
BRANCH   3   8
HETATM    8  C8  UNL     1     -34.603  14.379  -3.306  1.00 20.00     0.012 C 
HETATM    9  C6  UNL     1     -36.034  14.782  -3.660  1.00 20.00     0.012 C 
HETATM   10  C7  UNL     1     -33.987  13.556  -4.438  1.00 20.00     0.012 C 
ENDBRANCH   3   8
TORSDOF 1
ENDMDL
MODEL 9
REMARK VINA RESULT:      -3.7      1.788      3.857
REMARK  1 active torsions:
REMARK  status: ('A' for Active; 'I' for Inactive)
REMARK    1  A    between atoms: C3_3  and  C8_8 
ROOT
HETATM    1  C1  UNL     1     -35.729  16.829  -3.411  1.00 20.00     0.017 C 
HETATM    2  C2  UNL     1     -34.977  15.847  -2.528  1.00 20.00     0.092 C 
HETATM    3  C3  UNL     1     -33.911  16.644  -4.751  1.00 20.00     0.173 C 
HETATM    4  C4  UNL     1     -37.083  17.312  -2.970  1.00 20.00     0.066 C 
HETATM    5  C5  UNL     1     -34.542  16.494  -1.224  1.00 20.00     0.028 C 
HETATM    6  N9  UNL     1     -35.222  17.270  -4.521  1.00 20.00    -0.282 NA
HETATM    7  S10 UNL     1     -33.536  15.381  -3.510  1.00 20.00    -0.131 SA
ENDROOT
BRANCH   3   8
HETATM    8  C8  UNL     1     -33.905  16.027  -6.142  1.00 20.00     0.012 C 
HETATM    9  C6  UNL     1     -34.563  14.647  -6.125  1.00 20.00     0.012 C 
HETATM   10  C7  UNL     1     -34.612  16.941  -7.144  1.00 20.00     0.012 C 
ENDBRANCH   3   8
TORSDOF 1
ENDMDL
