MODEL 1
REMARK VINA RESULT:      -4.8      0.000      0.000
REMARK  1 active torsions:
REMARK  status: ('A' for Active; 'I' for Inactive)
REMARK    1  A    between atoms: C5_5  and  N10_10 
ROOT
HETATM    1  C1  UNL     1     -34.389  15.743  -6.599  1.00 20.00    -0.026 C 
HETATM    2  C2  UNL     1     -33.338  13.880  -3.719  1.00 20.00    -0.026 C 
HETATM    3  C3  UNL     1     -34.217  16.448  -5.467  1.00 20.00    -0.005 C 
HETATM    4  C4  UNL     1     -34.128  13.229  -4.591  1.00 20.00    -0.005 C 
HETATM    5  C6  UNL     1     -35.074  14.397  -6.621  1.00 20.00     0.056 C 
HETATM    6  C7  UNL     1     -33.596  15.308  -3.299  1.00 20.00     0.056 C 
HETATM    7  C8  UNL     1     -34.720  15.970  -4.119  1.00 20.00     0.113 C 
HETATM    8  C9  UNL     1     -35.361  13.857  -5.207  1.00 20.00     0.113 C 
HETATM    9  N10 UNL     1     -35.771  14.976  -4.355  1.00 20.00    -0.343 N 
ENDROOT
BRANCH   9  10
HETATM   10  C5  UNL     1     -37.037  15.082  -3.811  1.00 20.00     0.352 C 
HETATM   11  O11 UNL     1     -37.895  14.208  -3.752  1.00 20.00    -0.283 OA
ENDBRANCH   9  10
TORSDOF 1
ENDMDL
MODEL 2
REMARK VINA RESULT:      -4.8      0.061      2.832
REMARK  1 active torsions:
REMARK  status: ('A' for Active; 'I' for Inactive)
REMARK    1  A    between atoms: C5_5  and  N10_10 
ROOT
HETATM    1  C1  UNL     1     -33.306  13.938  -3.708  1.00 20.00    -0.026 C 
HETATM    2  C2  UNL     1     -34.352  15.720  -6.640  1.00 20.00    -0.026 C 
HETATM    3  C3  UNL     1     -34.081  13.259  -4.570  1.00 20.00    -0.005 C 
HETATM    4  C4  UNL     1     -34.197  16.454  -5.525  1.00 20.00    -0.005 C 
HETATM    5  C6  UNL     1     -33.582  15.373  -3.325  1.00 20.00     0.056 C 
HETATM    6  C7  UNL     1     -35.022  14.367  -6.637  1.00 20.00     0.056 C 
HETATM    7  C8  UNL     1     -35.316  13.858  -5.212  1.00 20.00     0.113 C 
HETATM    8  C9  UNL     1     -34.705  16.004  -4.170  1.00 20.00     0.113 C 
HETATM    9  N10 UNL     1     -35.745  14.995  -4.391  1.00 20.00    -0.343 N 
ENDROOT
BRANCH   9  10
HETATM   10  C5  UNL     1     -37.023  15.110  -3.879  1.00 20.00     0.352 C 
HETATM   11  O11 UNL     1     -37.851  14.216  -3.742  1.00 20.00    -0.283 OA
ENDBRANCH   9  10
TORSDOF 1
ENDMDL
MODEL 3
REMARK VINA RESULT:      -4.6      2.157      3.337
REMARK  1 active torsions:
REMARK  status: ('A' for Active; 'I' for Inactive)
REMARK    1  A    between atoms: C5_5  and  N10_10 
ROOT
HETATM    1  C1  UNL     1     -34.714  13.363  -4.116  1.00 20.00    -0.026 C 
HETATM    2  C2  UNL     1     -34.315  16.698  -5.374  1.00 20.00    -0.026 C 
HETATM    3  C3  UNL     1     -35.814  14.136  -4.108  1.00 20.00    -0.005 C 
HETATM    4  C4  UNL     1     -33.247  16.166  -4.755  1.00 20.00    -0.005 C 
HETATM    5  C6  UNL     1     -33.358  13.877  -3.694  1.00 20.00     0.056 C 
HETATM    6  C7  UNL     1     -35.720  16.552  -4.840  1.00 20.00     0.056 C 
HETATM    7  C8  UNL     1     -35.799  15.579  -3.647  1.00 20.00     0.113 C 
HETATM    8  C9  UNL     1     -33.351  15.398  -3.454  1.00 20.00     0.113 C 
HETATM    9  N10 UNL     1     -34.612  15.774  -2.808  1.00 20.00    -0.343 N 
ENDROOT
BRANCH   9  10
HETATM   10  C5  UNL     1     -34.678  16.278  -1.523  1.00 20.00     0.352 C 
HETATM   11  O11 UNL     1     -33.856  16.995  -0.964  1.00 20.00    -0.283 OA
ENDBRANCH   9  10
TORSDOF 1
ENDMDL
MODEL 4
REMARK VINA RESULT:      -4.6      2.152      2.658
REMARK  1 active torsions:
REMARK  status: ('A' for Active; 'I' for Inactive)
REMARK    1  A    between atoms: C5_5  and  N10_10 
ROOT
HETATM    1  C1  UNL     1     -34.272  16.701  -5.401  1.00 20.00    -0.026 C 
HETATM    2  C2  UNL     1     -34.753  13.375  -4.146  1.00 20.00    -0.026 C 
HETATM    3  C3  UNL     1     -33.218  16.141  -4.784  1.00 20.00    -0.005 C 
HETATM    4  C4  UNL     1     -35.834  14.175  -4.137  1.00 20.00    -0.005 C 
HETATM    5  C6  UNL     1     -35.680  16.589  -4.866  1.00 20.00     0.056 C 
HETATM    6  C7  UNL     1     -33.385  13.854  -3.724  1.00 20.00     0.056 C 
HETATM    7  C8  UNL     1     -33.341  15.375  -3.482  1.00 20.00     0.113 C 
HETATM    8  C9  UNL     1     -35.784  15.617  -3.675  1.00 20.00     0.113 C 
HETATM    9  N10 UNL     1     -34.593  15.780  -2.836  1.00 20.00    -0.343 N 
ENDROOT
BRANCH   9  10
HETATM   10  C5  UNL     1     -34.646  16.264  -1.543  1.00 20.00     0.352 C 
HETATM   11  O11 UNL     1     -33.846  17.016  -0.998  1.00 20.00    -0.283 OA
ENDBRANCH   9  10
TORSDOF 1
ENDMDL
MODEL 5
REMARK VINA RESULT:      -4.6      1.669      2.735
REMARK  1 active torsions:
REMARK  status: ('A' for Active; 'I' for Inactive)
REMARK    1  A    between atoms: C5_5  and  N10_10 
ROOT
HETATM    1  C1  UNL     1     -34.618  17.257  -5.539  1.00 20.00    -0.026 C 
HETATM    2  C2  UNL     1     -34.898  16.239  -2.111  1.00 20.00    -0.026 C 
HETATM    3  C3  UNL     1     -35.763  16.642  -5.194  1.00 20.00    -0.005 C 
HETATM    4  C4  UNL     1     -33.661  16.213  -2.638  1.00 20.00    -0.005 C 
HETATM    5  C6  UNL     1     -33.265  16.778  -5.068  1.00 20.00     0.056 C 
HETATM    6  C7  UNL     1     -36.111  15.741  -2.859  1.00 20.00     0.056 C 
HETATM    7  C8  UNL     1     -35.798  15.398  -4.329  1.00 20.00     0.113 C 
HETATM    8  C9  UNL     1     -33.369  15.657  -4.016  1.00 20.00     0.113 C 
HETATM    9  N10 UNL     1     -34.475  14.769  -4.388  1.00 20.00    -0.343 N 
ENDROOT
BRANCH   9  10
HETATM   10  C5  UNL     1     -34.288  13.450  -4.754  1.00 20.00     0.352 C 
HETATM   11  O11 UNL     1     -35.028  12.502  -4.516  1.00 20.00    -0.283 OA
ENDBRANCH   9  10
TORSDOF 1
ENDMDL
MODEL 6
REMARK VINA RESULT:      -4.6      1.668      3.205
REMARK  1 active torsions:
REMARK  status: ('A' for Active; 'I' for Inactive)
REMARK    1  A    between atoms: C5_5  and  N10_10 
ROOT
HETATM    1  C1  UNL     1     -34.872  16.166  -2.136  1.00 20.00    -0.026 C 
HETATM    2  C2  UNL     1     -34.602  17.376  -5.502  1.00 20.00    -0.026 C 
HETATM    3  C3  UNL     1     -33.651  16.100  -2.694  1.00 20.00    -0.005 C 
HETATM    4  C4  UNL     1     -35.775  16.811  -5.168  1.00 20.00    -0.005 C 
HETATM    5  C6  UNL     1     -36.129  15.789  -2.884  1.00 20.00     0.056 C 
HETATM    6  C7  UNL     1     -33.272  16.790  -5.095  1.00 20.00     0.056 C 
HETATM    7  C8  UNL     1     -33.422  15.613  -4.111  1.00 20.00     0.113 C 
HETATM    8  C9  UNL     1     -35.868  15.521  -4.379  1.00 20.00     0.113 C 
HETATM    9  N10 UNL     1     -34.588  14.819  -4.510  1.00 20.00    -0.343 N 
ENDROOT
BRANCH   9  10
HETATM   10  C5  UNL     1     -34.486  13.523  -4.979  1.00 20.00     0.352 C 
HETATM   11  O11 UNL     1     -34.997  12.517  -4.500  1.00 20.00    -0.283 OA
ENDBRANCH   9  10
TORSDOF 1
ENDMDL
MODEL 7
REMARK VINA RESULT:      -4.5      2.004      3.320
REMARK  1 active torsions:
REMARK  status: ('A' for Active; 'I' for Inactive)
REMARK    1  A    between atoms: C5_5  and  N10_10 
ROOT
HETATM    1  C1  UNL     1     -35.145  16.116  -2.220  1.00 20.00    -0.026 C 
HETATM    2  C2  UNL     1     -33.583  13.335  -3.862  1.00 20.00    -0.026 C 
HETATM    3  C3  UNL     1     -35.919  15.416  -3.067  1.00 20.00    -0.005 C 
HETATM    4  C4  UNL     1     -32.789  14.385  -3.589  1.00 20.00    -0.005 C 
HETATM    5  C6  UNL     1     -33.718  16.489  -2.545  1.00 20.00     0.056 C 
HETATM    6  C7  UNL     1     -34.980  13.495  -4.413  1.00 20.00     0.056 C 
HETATM    7  C8  UNL     1     -35.442  14.965  -4.433  1.00 20.00     0.113 C 
HETATM    8  C9  UNL     1     -33.211  15.818  -3.836  1.00 20.00     0.113 C 
HETATM    9  N10 UNL     1     -34.303  15.805  -4.814  1.00 20.00    -0.343 N 
ENDROOT
BRANCH   9  10
HETATM   10  C5  UNL     1     -34.259  16.516  -5.998  1.00 20.00     0.352 C 
HETATM   11  O11 UNL     1     -34.239  16.062  -7.136  1.00 20.00    -0.283 OA
ENDBRANCH   9  10
TORSDOF 1
ENDMDL
MODEL 8
REMARK VINA RESULT:      -4.5      2.175      3.182
REMARK  1 active torsions:
REMARK  status: ('A' for Active; 'I' for Inactive)
REMARK    1  A    between atoms: C5_5  and  N10_10 
ROOT
HETATM    1  C1  UNL     1     -33.764  13.359  -4.008  1.00 20.00    -0.026 C 
HETATM    2  C2  UNL     1     -35.169  16.102  -2.173  1.00 20.00    -0.026 C 
HETATM    3  C3  UNL     1     -32.902  14.313  -3.615  1.00 20.00    -0.005 C 
HETATM    4  C4  UNL     1     -35.962  15.543  -3.104  1.00 20.00    -0.005 C 
HETATM    5  C6  UNL     1     -35.121  13.678  -4.587  1.00 20.00     0.056 C 
HETATM    6  C7  UNL     1     -33.706  16.386  -2.416  1.00 20.00     0.056 C 
HETATM    7  C8  UNL     1     -33.203  15.793  -3.746  1.00 20.00     0.113 C 
HETATM    8  C9  UNL     1     -35.468  15.176  -4.488  1.00 20.00     0.113 C 
HETATM    9  N10 UNL     1     -34.254  15.954  -4.755  1.00 20.00    -0.343 N 
ENDROOT
BRANCH   9  10
HETATM   10  C5  UNL     1     -34.116  16.776  -5.856  1.00 20.00     0.352 C 
HETATM   11  O11 UNL     1     -33.550  17.862  -5.906  1.00 20.00    -0.283 OA
ENDBRANCH   9  10
TORSDOF 1
ENDMDL
MODEL 9
REMARK VINA RESULT:      -4.3      1.744      2.922
REMARK  1 active torsions:
REMARK  status: ('A' for Active; 'I' for Inactive)
REMARK    1  A    between atoms: C5_5  and  N10_10 
ROOT
HETATM    1  C1  UNL     1     -32.917  14.970  -3.631  1.00 20.00    -0.026 C 
HETATM    2  C2  UNL     1     -36.466  15.462  -3.813  1.00 20.00    -0.026 C 
HETATM    3  C3  UNL     1     -33.328  16.138  -4.154  1.00 20.00    -0.005 C 
HETATM    4  C4  UNL     1     -36.034  14.197  -3.955  1.00 20.00    -0.005 C 
HETATM    5  C6  UNL     1     -33.568  13.652  -3.978  1.00 20.00     0.056 C 
HETATM    6  C7  UNL     1     -35.784  16.633  -4.481  1.00 20.00     0.056 C 
HETATM    7  C8  UNL     1     -34.458  16.235  -5.158  1.00 20.00     0.113 C 
HETATM    8  C9  UNL     1     -34.846  13.827  -4.819  1.00 20.00     0.113 C 
HETATM    9  N10 UNL     1     -34.629  14.916  -5.776  1.00 20.00    -0.343 N 
ENDROOT
BRANCH   9  10
HETATM   10  C5  UNL     1     -34.597  14.719  -7.143  1.00 20.00     0.352 C 
HETATM   11  O11 UNL     1     -35.491  14.269  -7.850  1.00 20.00    -0.283 OA
ENDBRANCH   9  10
TORSDOF 1
ENDMDL
