MODEL 1
REMARK VINA RESULT:      -4.5      0.000      0.000
REMARK  3 active torsions:
REMARK  status: ('A' for Active; 'I' for Inactive)
REMARK    1  A    between atoms: C1_1  and  C3_3 
REMARK    2  A    between atoms: C2_2  and  C7_7 
REMARK    3  A    between atoms: C3_3  and  O9_9 
ROOT
HETATM    1  C1  UNL     1     -34.049   6.194   3.000  1.00 20.00     0.078 C 
HETATM    2  C2  UNL     1     -34.772   5.758   4.040  1.00 20.00    -0.017 C 
ENDROOT
BRANCH   1   3
HETATM    3  C3  UNL     1     -32.575   6.253   3.099  1.00 20.00     0.282 C 
HETATM    4  O8  UNL     1     -31.824   5.291   3.060  1.00 20.00    -0.260 OA
BRANCH   3   5
HETATM    5  O9  UNL     1     -32.224   7.559   3.240  1.00 20.00    -0.323 OA
HETATM    6  C6  UNL     1     -32.057   8.287   2.020  1.00 20.00     0.213 C 
ENDBRANCH   3   5
ENDBRANCH   1   3
BRANCH   2   7
HETATM    7  C7  UNL     1     -34.160   5.310   5.344  1.00 20.00    -0.000 C 
HETATM    8  C4  UNL     1     -34.124   6.472   6.337  1.00 20.00     0.013 C 
HETATM    9  C5  UNL     1     -34.947   4.133   5.921  1.00 20.00     0.013 C 
ENDBRANCH   2   7
TORSDOF 3
ENDMDL
MODEL 2
REMARK VINA RESULT:      -4.0      1.436      1.986
REMARK  3 active torsions:
REMARK  status: ('A' for Active; 'I' for Inactive)
REMARK    1  A    between atoms: C1_1  and  C3_3 
REMARK    2  A    between atoms: C2_2  and  C7_7 
REMARK    3  A    between atoms: C3_3  and  O9_9 
ROOT
HETATM    1  C1  UNL     1     -32.158   6.063   2.916  1.00 20.00     0.078 C 
HETATM    2  C2  UNL     1     -33.268   5.464   3.368  1.00 20.00    -0.017 C 
ENDROOT
BRANCH   1   3
HETATM    3  C3  UNL     1     -31.924   7.495   3.200  1.00 20.00     0.282 C 
HETATM    4  O8  UNL     1     -31.273   7.934   4.135  1.00 20.00    -0.260 OA
BRANCH   3   5
HETATM    5  O9  UNL     1     -32.564   8.215   2.239  1.00 20.00    -0.323 OA
HETATM    6  C6  UNL     1     -31.749   8.635   1.140  1.00 20.00     0.213 C 
ENDBRANCH   3   5
ENDBRANCH   1   3
BRANCH   2   7
HETATM    7  C7  UNL     1     -34.325   6.177   4.172  1.00 20.00    -0.000 C 
HETATM    8  C4  UNL     1     -35.712   5.643   3.813  1.00 20.00     0.013 C 
HETATM    9  C5  UNL     1     -34.055   6.011   5.667  1.00 20.00     0.013 C 
ENDBRANCH   2   7
TORSDOF 3
ENDMDL
MODEL 3
REMARK VINA RESULT:      -4.0     11.328     12.242
REMARK  3 active torsions:
REMARK  status: ('A' for Active; 'I' for Inactive)
REMARK    1  A    between atoms: C1_1  and  C3_3 
REMARK    2  A    between atoms: C2_2  and  C7_7 
REMARK    3  A    between atoms: C3_3  and  O9_9 
ROOT
HETATM    1  C1  UNL     1     -33.173  14.044  -3.912  1.00 20.00     0.078 C 
HETATM    2  C2  UNL     1     -33.260  15.139  -3.144  1.00 20.00    -0.017 C 
ENDROOT
BRANCH   1   3
HETATM    3  C3  UNL     1     -34.362  13.563  -4.647  1.00 20.00     0.282 C 
HETATM    4  O8  UNL     1     -35.160  12.734  -4.238  1.00 20.00    -0.260 OA
BRANCH   3   5
HETATM    5  O9  UNL     1     -34.395  14.207  -5.845  1.00 20.00    -0.323 OA
HETATM    6  C6  UNL     1     -35.696  14.585  -6.305  1.00 20.00     0.213 C 
ENDBRANCH   3   5
ENDBRANCH   1   3
BRANCH   2   7
HETATM    7  C7  UNL     1     -34.530  15.934  -2.976  1.00 20.00    -0.000 C 
HETATM    8  C4  UNL     1     -34.734  16.300  -1.506  1.00 20.00     0.013 C 
HETATM    9  C5  UNL     1     -34.486  17.192  -3.843  1.00 20.00     0.013 C 
ENDBRANCH   2   7
TORSDOF 3
ENDMDL
MODEL 4
REMARK VINA RESULT:      -3.9     11.455     12.275
REMARK  3 active torsions:
REMARK  status: ('A' for Active; 'I' for Inactive)
REMARK    1  A    between atoms: C1_1  and  C3_3 
REMARK    2  A    between atoms: C2_2  and  C7_7 
REMARK    3  A    between atoms: C3_3  and  O9_9 
ROOT
HETATM    1  C1  UNL     1     -36.155  14.628  -4.224  1.00 20.00     0.078 C 
HETATM    2  C2  UNL     1     -35.874  15.599  -3.345  1.00 20.00    -0.017 C 
ENDROOT
BRANCH   1   3
HETATM    3  C3  UNL     1     -35.096  13.689  -4.651  1.00 20.00     0.282 C 
HETATM    4  O8  UNL     1     -34.799  12.650  -4.082  1.00 20.00    -0.260 OA
BRANCH   3   5
HETATM    5  O9  UNL     1     -34.525  14.197  -5.776  1.00 20.00    -0.323 OA
HETATM    6  C6  UNL     1     -35.410  14.383  -6.885  1.00 20.00     0.213 C 
ENDBRANCH   3   5
ENDBRANCH   1   3
BRANCH   2   7
HETATM    7  C7  UNL     1     -34.505  15.802  -2.745  1.00 20.00    -0.000 C 
HETATM    8  C4  UNL     1     -33.693  16.774  -3.601  1.00 20.00     0.013 C 
HETATM    9  C5  UNL     1     -34.627  16.319  -1.312  1.00 20.00     0.013 C 
ENDBRANCH   2   7
TORSDOF 3
ENDMDL
MODEL 5
REMARK VINA RESULT:      -3.8     11.602     12.543
REMARK  3 active torsions:
REMARK  status: ('A' for Active; 'I' for Inactive)
REMARK    1  A    between atoms: C1_1  and  C3_3 
REMARK    2  A    between atoms: C2_2  and  C7_7 
REMARK    3  A    between atoms: C3_3  and  O9_9 
ROOT
HETATM    1  C1  UNL     1     -35.208  13.898  -3.951  1.00 20.00     0.078 C 
HETATM    2  C2  UNL     1     -34.404  14.657  -3.194  1.00 20.00    -0.017 C 
ENDROOT
BRANCH   1   3
HETATM    3  C3  UNL     1     -36.442  14.474  -4.525  1.00 20.00     0.282 C 
HETATM    4  O8  UNL     1     -36.506  15.135  -5.550  1.00 20.00    -0.260 OA
BRANCH   3   5
HETATM    5  O9  UNL     1     -37.474  14.135  -3.706  1.00 20.00    -0.323 OA
HETATM    6  C6  UNL     1     -38.712  14.805  -3.966  1.00 20.00     0.213 C 
ENDBRANCH   3   5
ENDBRANCH   1   3
BRANCH   2   7
HETATM    7  C7  UNL     1     -34.687  16.104  -2.881  1.00 20.00    -0.000 C 
HETATM    8  C4  UNL     1     -34.603  16.344  -1.373  1.00 20.00     0.013 C 
HETATM    9  C5  UNL     1     -33.704  17.009  -3.624  1.00 20.00     0.013 C 
ENDBRANCH   2   7
TORSDOF 3
ENDMDL
MODEL 6
REMARK VINA RESULT:      -3.7      9.443     10.433
REMARK  3 active torsions:
REMARK  status: ('A' for Active; 'I' for Inactive)
REMARK    1  A    between atoms: C1_1  and  C3_3 
REMARK    2  A    between atoms: C2_2  and  C7_7 
REMARK    3  A    between atoms: C3_3  and  O9_9 
ROOT
HETATM    1  C1  UNL     1     -40.602   6.060  -0.333  1.00 20.00     0.078 C 
HETATM    2  C2  UNL     1     -41.156   7.182  -0.811  1.00 20.00    -0.017 C 
ENDROOT
BRANCH   1   3
HETATM    3  C3  UNL     1     -41.302   4.767  -0.487  1.00 20.00     0.282 C 
HETATM    4  O8  UNL     1     -42.154   4.328   0.271  1.00 20.00    -0.260 OA
BRANCH   3   5
HETATM    5  O9  UNL     1     -40.823   4.171  -1.612  1.00 20.00    -0.323 OA
HETATM    6  C6  UNL     1     -41.810   3.580  -2.463  1.00 20.00     0.213 C 
ENDBRANCH   3   5
ENDBRANCH   1   3
BRANCH   2   7
HETATM    7  C7  UNL     1     -42.488   7.211  -1.517  1.00 20.00    -0.000 C 
HETATM    8  C4  UNL     1     -43.417   8.227  -0.852  1.00 20.00     0.013 C 
HETATM    9  C5  UNL     1     -42.296   7.546  -2.996  1.00 20.00     0.013 C 
ENDBRANCH   2   7
TORSDOF 3
ENDMDL
MODEL 7
REMARK VINA RESULT:      -3.7     11.298     13.091
REMARK  3 active torsions:
REMARK  status: ('A' for Active; 'I' for Inactive)
REMARK    1  A    between atoms: C1_1  and  C3_3 
REMARK    2  A    between atoms: C2_2  and  C7_7 
REMARK    3  A    between atoms: C3_3  and  O9_9 
ROOT
HETATM    1  C1  UNL     1     -36.266  14.522  -4.484  1.00 20.00     0.078 C 
HETATM    2  C2  UNL     1     -36.245  15.207  -5.635  1.00 20.00    -0.017 C 
ENDROOT
BRANCH   1   3
HETATM    3  C3  UNL     1     -35.129  13.647  -4.125  1.00 20.00     0.282 C 
HETATM    4  O8  UNL     1     -34.935  12.523  -4.561  1.00 20.00    -0.260 OA
BRANCH   3   5
HETATM    5  O9  UNL     1     -34.357  14.321  -3.231  1.00 20.00    -0.323 OA
HETATM    6  C6  UNL     1     -33.023  14.606  -3.661  1.00 20.00     0.213 C 
ENDBRANCH   3   5
ENDBRANCH   1   3
BRANCH   2   7
HETATM    7  C7  UNL     1     -35.102  15.141  -6.617  1.00 20.00    -0.000 C 
HETATM    8  C4  UNL     1     -35.559  14.476  -7.915  1.00 20.00     0.013 C 
HETATM    9  C5  UNL     1     -34.559  16.543  -6.892  1.00 20.00     0.013 C 
ENDBRANCH   2   7
TORSDOF 3
ENDMDL
MODEL 8
REMARK VINA RESULT:      -3.7     11.634     13.167
REMARK  3 active torsions:
REMARK  status: ('A' for Active; 'I' for Inactive)
REMARK    1  A    between atoms: C1_1  and  C3_3 
REMARK    2  A    between atoms: C2_2  and  C7_7 
REMARK    3  A    between atoms: C3_3  and  O9_9 
ROOT
HETATM    1  C1  UNL     1     -35.298  13.522  -4.281  1.00 20.00     0.078 C 
HETATM    2  C2  UNL     1     -34.761  13.782  -5.480  1.00 20.00    -0.017 C 
ENDROOT
BRANCH   1   3
HETATM    3  C3  UNL     1     -36.371  14.390  -3.750  1.00 20.00     0.282 C 
HETATM    4  O8  UNL     1     -37.569  14.203  -3.894  1.00 20.00    -0.260 OA
BRANCH   3   5
HETATM    5  O9  UNL     1     -35.779  15.417  -3.084  1.00 20.00    -0.323 OA
HETATM    6  C6  UNL     1     -36.398  16.696  -3.248  1.00 20.00     0.213 C 
ENDBRANCH   3   5
ENDBRANCH   1   3
BRANCH   2   7
HETATM    7  C7  UNL     1     -35.193  14.936  -6.349  1.00 20.00    -0.000 C 
HETATM    8  C4  UNL     1     -34.102  16.007  -6.384  1.00 20.00     0.013 C 
HETATM    9  C5  UNL     1     -35.511  14.446  -7.761  1.00 20.00     0.013 C 
ENDBRANCH   2   7
TORSDOF 3
ENDMDL
MODEL 9
REMARK VINA RESULT:      -3.6      1.895      4.101
REMARK  3 active torsions:
REMARK  status: ('A' for Active; 'I' for Inactive)
REMARK    1  A    between atoms: C1_1  and  C3_3 
REMARK    2  A    between atoms: C2_2  and  C7_7 
REMARK    3  A    between atoms: C3_3  and  O9_9 
ROOT
HETATM    1  C1  UNL     1     -34.806   6.242   4.628  1.00 20.00     0.078 C 
HETATM    2  C2  UNL     1     -34.104   6.534   3.525  1.00 20.00    -0.017 C 
ENDROOT
BRANCH   1   3
HETATM    3  C3  UNL     1     -34.108   6.058   5.919  1.00 20.00     0.282 C 
HETATM    4  O8  UNL     1     -33.687   6.956   6.631  1.00 20.00    -0.260 OA
BRANCH   3   5
HETATM    5  O9  UNL     1     -34.026   4.720   6.155  1.00 20.00    -0.323 OA
HETATM    6  C6  UNL     1     -35.082   3.931   5.600  1.00 20.00     0.213 C 
ENDBRANCH   3   5
ENDBRANCH   1   3
BRANCH   2   7
HETATM    7  C7  UNL     1     -32.604   6.690   3.514  1.00 20.00    -0.000 C 
HETATM    8  C4  UNL     1     -31.941   5.393   3.051  1.00 20.00     0.013 C 
HETATM    9  C5  UNL     1     -32.200   7.854   2.609  1.00 20.00     0.013 C 
ENDBRANCH   2   7
TORSDOF 3
ENDMDL
