MODEL 1
REMARK VINA RESULT:      -4.8      0.000      0.000
REMARK  1 active torsions:
REMARK  status: ('A' for Active; 'I' for Inactive)
REMARK    1  A    between atoms: C5_5  and  C10_10 
ROOT
HETATM    1  C1  UNL     1     -33.337   6.938   5.256  1.00 20.00    -0.018 C 
HETATM    2  C2  UNL     1     -33.720   5.981   6.114  1.00 20.00    -0.025 C 
HETATM    3  C3  UNL     1     -34.170   5.558   3.354  1.00 20.00     0.135 C 
HETATM    4  C4  UNL     1     -35.137   4.917   4.325  1.00 20.00     0.087 C 
HETATM    5  C5  UNL     1     -33.577   6.903   3.772  1.00 20.00     0.081 C 
HETATM    6  C6  UNL     1     -34.481   4.750   5.699  1.00 20.00     0.010 C 
HETATM    7  C7  UNL     1     -35.539   4.388   6.740  1.00 20.00     0.014 C 
HETATM    8  O11 UNL     1     -33.958   5.054   2.251  1.00 20.00    -0.297 OA
ENDROOT
BRANCH   5   9
HETATM    9  C10 UNL     1     -32.281   7.180   3.015  1.00 20.00    -0.008 C 
HETATM   10  C8  UNL     1     -32.488   8.280   1.973  1.00 20.00     0.010 C 
HETATM   11  C9  UNL     1     -31.162   7.565   3.982  1.00 20.00     0.010 C 
ENDBRANCH   5   9
TORSDOF 1
ENDMDL
MODEL 2
REMARK VINA RESULT:      -4.8     11.767     12.607
REMARK  1 active torsions:
REMARK  status: ('A' for Active; 'I' for Inactive)
REMARK    1  A    between atoms: C5_5  and  C10_10 
ROOT
HETATM    1  C1  UNL     1     -33.884  15.824  -4.187  1.00 20.00    -0.018 C 
HETATM    2  C2  UNL     1     -33.526  16.069  -2.917  1.00 20.00    -0.025 C 
HETATM    3  C3  UNL     1     -36.233  15.441  -3.444  1.00 20.00     0.135 C 
HETATM    4  C4  UNL     1     -35.943  16.348  -2.269  1.00 20.00     0.087 C 
HETATM    5  C5  UNL     1     -35.292  15.557  -4.643  1.00 20.00     0.081 C 
HETATM    6  C6  UNL     1     -34.507  16.142  -1.778  1.00 20.00     0.010 C 
HETATM    7  C7  UNL     1     -34.126  17.256  -0.804  1.00 20.00     0.014 C 
HETATM    8  O11 UNL     1     -37.232  14.721  -3.454  1.00 20.00    -0.297 OA
ENDROOT
BRANCH   5   9
HETATM    9  C10 UNL     1     -35.345  14.292  -5.496  1.00 20.00    -0.008 C 
HETATM   10  C8  UNL     1     -34.873  14.582  -6.921  1.00 20.00     0.010 C 
HETATM   11  C9  UNL     1     -34.503  13.182  -4.870  1.00 20.00     0.010 C 
ENDBRANCH   5   9
TORSDOF 1
ENDMDL
MODEL 3
REMARK VINA RESULT:      -4.7     11.373     13.174
REMARK  1 active torsions:
REMARK  status: ('A' for Active; 'I' for Inactive)
REMARK    1  A    between atoms: C5_5  and  C10_10 
ROOT
HETATM    1  C1  UNL     1     -35.423  16.278  -5.234  1.00 20.00    -0.018 C 
HETATM    2  C2  UNL     1     -34.608  16.720  -4.265  1.00 20.00    -0.025 C 
HETATM    3  C3  UNL     1     -34.993  13.929  -4.517  1.00 20.00     0.135 C 
HETATM    4  C4  UNL     1     -34.700  14.471  -3.136  1.00 20.00     0.087 C 
HETATM    5  C5  UNL     1     -35.797  14.837  -5.448  1.00 20.00     0.081 C 
HETATM    6  C6  UNL     1     -33.981  15.820  -3.235  1.00 20.00     0.010 C 
HETATM    7  C7  UNL     1     -33.957  16.497  -1.865  1.00 20.00     0.014 C 
HETATM    8  O11 UNL     1     -34.676  12.780  -4.825  1.00 20.00    -0.297 OA
ENDROOT
BRANCH   5   9
HETATM    9  C10 UNL     1     -35.581  14.441  -6.907  1.00 20.00    -0.008 C 
HETATM   10  C8  UNL     1     -36.769  14.877  -7.766  1.00 20.00     0.010 C 
HETATM   11  C9  UNL     1     -34.284  15.044  -7.445  1.00 20.00     0.010 C 
ENDBRANCH   5   9
TORSDOF 1
ENDMDL
MODEL 4
REMARK VINA RESULT:      -4.3     12.025     13.213
REMARK  1 active torsions:
REMARK  status: ('A' for Active; 'I' for Inactive)
REMARK    1  A    between atoms: C5_5  and  C10_10 
ROOT
HETATM    1  C1  UNL     1     -33.812  16.307  -3.989  1.00 20.00    -0.018 C 
HETATM    2  C2  UNL     1     -33.939  16.307  -5.325  1.00 20.00    -0.025 C 
HETATM    3  C3  UNL     1     -35.838  14.866  -3.803  1.00 20.00     0.135 C 
HETATM    4  C4  UNL     1     -35.528  14.358  -5.193  1.00 20.00     0.087 C 
HETATM    5  C5  UNL     1     -34.686  15.526  -3.046  1.00 20.00     0.081 C 
HETATM    6  C6  UNL     1     -34.966  15.488  -6.060  1.00 20.00     0.010 C 
HETATM    7  C7  UNL     1     -34.380  14.913  -7.349  1.00 20.00     0.014 C 
HETATM    8  O11 UNL     1     -36.938  14.665  -3.288  1.00 20.00    -0.297 OA
ENDROOT
BRANCH   5   9
HETATM    9  C10 UNL     1     -35.216  16.433  -1.938  1.00 20.00    -0.008 C 
HETATM   10  C8  UNL     1     -34.086  16.855  -0.999  1.00 20.00     0.010 C 
HETATM   11  C9  UNL     1     -35.908  17.660  -2.528  1.00 20.00     0.010 C 
ENDBRANCH   5   9
TORSDOF 1
ENDMDL
MODEL 5
REMARK VINA RESULT:      -4.2     12.004     13.355
REMARK  1 active torsions:
REMARK  status: ('A' for Active; 'I' for Inactive)
REMARK    1  A    between atoms: C5_5  and  C10_10 
ROOT
HETATM    1  C1  UNL     1     -36.012  15.541  -4.030  1.00 20.00    -0.018 C 
HETATM    2  C2  UNL     1     -35.974  16.218  -2.873  1.00 20.00    -0.025 C 
HETATM    3  C3  UNL     1     -33.578  15.969  -4.354  1.00 20.00     0.135 C 
HETATM    4  C4  UNL     1     -33.460  16.076  -2.851  1.00 20.00     0.087 C 
HETATM    5  C5  UNL     1     -34.814  15.249  -4.891  1.00 20.00     0.081 C 
HETATM    6  C6  UNL     1     -34.704  16.751  -2.266  1.00 20.00     0.010 C 
HETATM    7  C7  UNL     1     -34.718  16.588  -0.746  1.00 20.00     0.014 C 
HETATM    8  O11 UNL     1     -32.671  16.363  -5.088  1.00 20.00    -0.297 OA
ENDROOT
BRANCH   5   9
HETATM    9  C10 UNL     1     -35.088  15.650  -6.339  1.00 20.00    -0.008 C 
HETATM   10  C8  UNL     1     -35.477  14.430  -7.173  1.00 20.00     0.010 C 
HETATM   11  C9  UNL     1     -36.182  16.714  -6.406  1.00 20.00     0.010 C 
ENDBRANCH   5   9
TORSDOF 1
ENDMDL
MODEL 6
REMARK VINA RESULT:      -4.2     12.221     13.293
REMARK  1 active torsions:
REMARK  status: ('A' for Active; 'I' for Inactive)
REMARK    1  A    between atoms: C5_5  and  C10_10 
ROOT
HETATM    1  C1  UNL     1     -34.425  16.262  -1.549  1.00 20.00    -0.018 C 
HETATM    2  C2  UNL     1     -34.798  16.864  -0.409  1.00 20.00    -0.025 C 
HETATM    3  C3  UNL     1     -33.533  18.430  -2.395  1.00 20.00     0.135 C 
HETATM    4  C4  UNL     1     -33.336  18.840  -0.953  1.00 20.00     0.087 C 
HETATM    5  C5  UNL     1     -33.672  16.932  -2.664  1.00 20.00     0.081 C 
HETATM    6  C6  UNL     1     -34.475  18.297  -0.085  1.00 20.00     0.010 C 
HETATM    7  C7  UNL     1     -34.121  18.453   1.393  1.00 20.00     0.014 C 
HETATM    8  O11 UNL     1     -33.486  19.263  -3.300  1.00 20.00    -0.297 OA
ENDROOT
BRANCH   5   9
HETATM    9  C10 UNL     1     -34.367  16.685  -4.001  1.00 20.00    -0.008 C 
HETATM   10  C8  UNL     1     -33.354  16.269  -5.068  1.00 20.00     0.010 C 
HETATM   11  C9  UNL     1     -35.456  15.623  -3.856  1.00 20.00     0.010 C 
ENDBRANCH   5   9
TORSDOF 1
ENDMDL
MODEL 7
REMARK VINA RESULT:      -4.2      9.877     11.097
REMARK  1 active torsions:
REMARK  status: ('A' for Active; 'I' for Inactive)
REMARK    1  A    between atoms: C5_5  and  C10_10 
ROOT
HETATM    1  C1  UNL     1     -41.506   4.628  -1.183  1.00 20.00    -0.018 C 
HETATM    2  C2  UNL     1     -41.161   3.541  -1.889  1.00 20.00    -0.025 C 
HETATM    3  C3  UNL     1     -43.037   5.327  -3.022  1.00 20.00     0.135 C 
HETATM    4  C4  UNL     1     -43.147   3.868  -3.401  1.00 20.00     0.087 C 
HETATM    5  C5  UNL     1     -42.547   5.628  -1.606  1.00 20.00     0.081 C 
HETATM    6  C6  UNL     1     -41.803   3.162  -3.196  1.00 20.00     0.010 C 
HETATM    7  C7  UNL     1     -41.992   1.648  -3.290  1.00 20.00     0.014 C 
HETATM    8  O11 UNL     1     -43.417   6.210  -3.792  1.00 20.00    -0.297 OA
ENDROOT
BRANCH   5   9
HETATM    9  C10 UNL     1     -41.990   7.047  -1.517  1.00 20.00    -0.008 C 
HETATM   10  C8  UNL     1     -43.039   8.004  -0.951  1.00 20.00     0.010 C 
HETATM   11  C9  UNL     1     -40.723   7.078  -0.663  1.00 20.00     0.010 C 
ENDBRANCH   5   9
TORSDOF 1
ENDMDL
MODEL 8
REMARK VINA RESULT:      -4.1     11.438     13.593
REMARK  1 active torsions:
REMARK  status: ('A' for Active; 'I' for Inactive)
REMARK    1  A    between atoms: C5_5  and  C10_10 
ROOT
HETATM    1  C1  UNL     1     -35.643  15.207  -6.293  1.00 20.00    -0.018 C 
HETATM    2  C2  UNL     1     -34.660  14.418  -5.836  1.00 20.00    -0.025 C 
HETATM    3  C3  UNL     1     -37.014  14.652  -4.286  1.00 20.00     0.135 C 
HETATM    4  C4  UNL     1     -35.718  14.390  -3.552  1.00 20.00     0.087 C 
HETATM    5  C5  UNL     1     -36.919  15.502  -5.553  1.00 20.00     0.081 C 
HETATM    6  C6  UNL     1     -34.695  13.745  -4.490  1.00 20.00     0.010 C 
HETATM    7  C7  UNL     1     -33.312  13.759  -3.840  1.00 20.00     0.014 C 
HETATM    8  O11 UNL     1     -38.090  14.273  -3.823  1.00 20.00    -0.297 OA
ENDROOT
BRANCH   5   9
HETATM    9  C10 UNL     1     -38.127  15.263  -6.456  1.00 20.00    -0.008 C 
HETATM   10  C8  UNL     1     -39.098  16.441  -6.381  1.00 20.00     0.010 C 
HETATM   11  C9  UNL     1     -37.684  15.027  -7.899  1.00 20.00     0.010 C 
ENDBRANCH   5   9
TORSDOF 1
ENDMDL
MODEL 9
REMARK VINA RESULT:      -4.1     11.866     13.320
REMARK  1 active torsions:
REMARK  status: ('A' for Active; 'I' for Inactive)
REMARK    1  A    between atoms: C5_5  and  C10_10 
ROOT
HETATM    1  C1  UNL     1     -35.388  17.145  -3.868  1.00 20.00    -0.018 C 
HETATM    2  C2  UNL     1     -36.144  16.334  -4.623  1.00 20.00    -0.025 C 
HETATM    3  C3  UNL     1     -33.460  15.589  -4.139  1.00 20.00     0.135 C 
HETATM    4  C4  UNL     1     -34.083  15.144  -5.443  1.00 20.00     0.087 C 
HETATM    5  C5  UNL     1     -33.926  16.935  -3.586  1.00 20.00     0.081 C 
HETATM    6  C6  UNL     1     -35.609  15.113  -5.320  1.00 20.00     0.010 C 
HETATM    7  C7  UNL     1     -36.239  14.958  -6.704  1.00 20.00     0.014 C 
HETATM    8  O11 UNL     1     -32.558  14.934  -3.615  1.00 20.00    -0.297 OA
ENDROOT
BRANCH   5   9
HETATM    9  C10 UNL     1     -33.653  17.027  -2.086  1.00 20.00    -0.008 C 
HETATM   10  C8  UNL     1     -33.491  18.484  -1.655  1.00 20.00     0.010 C 
HETATM   11  C9  UNL     1     -34.773  16.356  -1.292  1.00 20.00     0.010 C 
ENDBRANCH   5   9
TORSDOF 1
ENDMDL
