MODEL 1
REMARK VINA RESULT:      -3.9      0.000      0.000
REMARK  1 active torsions:
REMARK  status: ('A' for Active; 'I' for Inactive)
REMARK    1  A    between atoms: C3_3  and  C8_8 
ROOT
HETATM    1  C1  UNL     1     -34.357  14.493  -4.375  1.00 20.00     0.017 C 
HETATM    2  C2  UNL     1     -34.268  15.684  -5.314  1.00 20.00     0.092 C 
HETATM    3  C3  UNL     1     -33.920  16.034  -2.770  1.00 20.00     0.173 C 
HETATM    4  C4  UNL     1     -34.647  13.135  -4.950  1.00 20.00     0.066 C 
HETATM    5  C5  UNL     1     -35.623  16.017  -5.917  1.00 20.00     0.028 C 
HETATM    6  N9  UNL     1     -34.216  14.628  -3.091  1.00 20.00    -0.282 NA
HETATM    7  S10 UNL     1     -33.697  17.035  -4.261  1.00 20.00    -0.131 SA
ENDROOT
BRANCH   3   8
HETATM    8  C8  UNL     1     -35.061  16.590  -1.928  1.00 20.00     0.012 C 
HETATM    9  C6  UNL     1     -34.593  16.869  -0.500  1.00 20.00     0.012 C 
HETATM   10  C7  UNL     1     -35.630  17.859  -2.560  1.00 20.00     0.012 C 
ENDBRANCH   3   8
TORSDOF 1
ENDMDL
MODEL 2
REMARK VINA RESULT:      -3.9      1.825      2.469
REMARK  1 active torsions:
REMARK  status: ('A' for Active; 'I' for Inactive)
REMARK    1  A    between atoms: C3_3  and  C8_8 
ROOT
HETATM    1  C1  UNL     1     -34.892  15.444  -5.664  1.00 20.00     0.017 C 
HETATM    2  C2  UNL     1     -35.741  14.446  -4.895  1.00 20.00     0.092 C 
HETATM    3  C3  UNL     1     -35.237  16.764  -3.853  1.00 20.00     0.173 C 
HETATM    4  C4  UNL     1     -34.363  15.058  -7.017  1.00 20.00     0.066 C 
HETATM    5  C5  UNL     1     -34.920  13.250  -4.445  1.00 20.00     0.028 C 
HETATM    6  N9  UNL     1     -34.593  16.606  -5.167  1.00 20.00    -0.282 NA
HETATM    7  S10 UNL     1     -36.335  15.378  -3.467  1.00 20.00    -0.131 SA
ENDROOT
BRANCH   3   8
HETATM    8  C8  UNL     1     -34.152  16.888  -2.792  1.00 20.00     0.012 C 
HETATM    9  C6  UNL     1     -33.715  18.343  -2.631  1.00 20.00     0.012 C 
HETATM   10  C7  UNL     1     -34.636  16.325  -1.456  1.00 20.00     0.012 C 
ENDBRANCH   3   8
TORSDOF 1
ENDMDL
MODEL 3
REMARK VINA RESULT:      -3.9      1.927      2.679
REMARK  1 active torsions:
REMARK  status: ('A' for Active; 'I' for Inactive)
REMARK    1  A    between atoms: C3_3  and  C8_8 
ROOT
HETATM    1  C1  UNL     1     -36.484  15.257  -5.532  1.00 20.00     0.017 C 
HETATM    2  C2  UNL     1     -35.447  14.258  -6.018  1.00 20.00     0.092 C 
HETATM    3  C3  UNL     1     -35.474  14.958  -3.523  1.00 20.00     0.173 C 
HETATM    4  C4  UNL     1     -37.472  15.817  -6.516  1.00 20.00     0.066 C 
HETATM    5  C5  UNL     1     -34.440  14.913  -6.949  1.00 20.00     0.028 C 
HETATM    6  N9  UNL     1     -36.515  15.655  -4.296  1.00 20.00    -0.282 NA
HETATM    7  S10 UNL     1     -34.636  13.691  -4.508  1.00 20.00    -0.131 SA
ENDROOT
BRANCH   3   8
HETATM    8  C8  UNL     1     -34.469  15.987  -3.023  1.00 20.00     0.012 C 
HETATM    9  C6  UNL     1     -34.617  16.201  -1.518  1.00 20.00     0.012 C 
HETATM   10  C7  UNL     1     -33.042  15.558  -3.364  1.00 20.00     0.012 C 
ENDBRANCH   3   8
TORSDOF 1
ENDMDL
MODEL 4
REMARK VINA RESULT:      -3.9      1.825      3.502
REMARK  1 active torsions:
REMARK  status: ('A' for Active; 'I' for Inactive)
REMARK    1  A    between atoms: C3_3  and  C8_8 
ROOT
HETATM    1  C1  UNL     1     -34.362  15.947  -2.469  1.00 20.00     0.017 C 
HETATM    2  C2  UNL     1     -35.156  14.793  -3.058  1.00 20.00     0.092 C 
HETATM    3  C3  UNL     1     -33.117  15.733  -4.353  1.00 20.00     0.173 C 
HETATM    4  C4  UNL     1     -34.783  16.518  -1.144  1.00 20.00     0.066 C 
HETATM    5  C5  UNL     1     -36.550  15.233  -3.473  1.00 20.00     0.028 C 
HETATM    6  N9  UNL     1     -33.351  16.465  -3.098  1.00 20.00    -0.282 NA
HETATM    7  S10 UNL     1     -34.198  14.287  -4.501  1.00 20.00    -0.131 SA
ENDROOT
BRANCH   3   8
HETATM    8  C8  UNL     1     -33.346  16.683  -5.520  1.00 20.00     0.012 C 
HETATM    9  C6  UNL     1     -34.434  16.147  -6.449  1.00 20.00     0.012 C 
HETATM   10  C7  UNL     1     -33.712  18.079  -5.018  1.00 20.00     0.012 C 
ENDBRANCH   3   8
TORSDOF 1
ENDMDL
MODEL 5
REMARK VINA RESULT:      -3.8      1.558      3.701
REMARK  1 active torsions:
REMARK  status: ('A' for Active; 'I' for Inactive)
REMARK    1  A    between atoms: C3_3  and  C8_8 
ROOT
HETATM    1  C1  UNL     1     -34.515  16.595  -2.598  1.00 20.00     0.017 C 
HETATM    2  C2  UNL     1     -34.877  17.409  -3.829  1.00 20.00     0.092 C 
HETATM    3  C3  UNL     1     -35.655  14.943  -3.653  1.00 20.00     0.173 C 
HETATM    4  C4  UNL     1     -33.709  17.245  -1.508  1.00 20.00     0.066 C 
HETATM    5  C5  UNL     1     -33.648  17.728  -4.664  1.00 20.00     0.028 C 
HETATM    6  N9  UNL     1     -34.862  15.349  -2.482  1.00 20.00    -0.282 NA
HETATM    7  S10 UNL     1     -36.005  16.342  -4.749  1.00 20.00    -0.131 SA
ENDROOT
BRANCH   3   8
HETATM    8  C8  UNL     1     -34.892  13.862  -4.407  1.00 20.00     0.012 C 
HETATM    9  C6  UNL     1     -34.778  14.214  -5.889  1.00 20.00     0.012 C 
HETATM   10  C7  UNL     1     -33.506  13.655  -3.798  1.00 20.00     0.012 C 
ENDBRANCH   3   8
TORSDOF 1
ENDMDL
MODEL 6
REMARK VINA RESULT:      -3.8      1.624      2.301
REMARK  1 active torsions:
REMARK  status: ('A' for Active; 'I' for Inactive)
REMARK    1  A    between atoms: C3_3  and  C8_8 
ROOT
HETATM    1  C1  UNL     1     -34.689  14.903  -6.525  1.00 20.00     0.017 C 
HETATM    2  C2  UNL     1     -34.151  16.313  -6.348  1.00 20.00     0.092 C 
HETATM    3  C3  UNL     1     -33.943  14.611  -4.404  1.00 20.00     0.173 C 
HETATM    4  C4  UNL     1     -35.334  14.530  -7.831  1.00 20.00     0.066 C 
HETATM    5  C5  UNL     1     -35.275  17.334  -6.305  1.00 20.00     0.028 C 
HETATM    6  N9  UNL     1     -34.630  14.028  -5.567  1.00 20.00    -0.282 NA
HETATM    7  S10 UNL     1     -33.285  16.259  -4.764  1.00 20.00    -0.131 SA
ENDROOT
BRANCH   3   8
HETATM    8  C8  UNL     1     -34.925  14.678  -3.242  1.00 20.00     0.012 C 
HETATM    9  C6  UNL     1     -34.621  15.878  -2.346  1.00 20.00     0.012 C 
HETATM   10  C7  UNL     1     -36.363  14.744  -3.753  1.00 20.00     0.012 C 
ENDBRANCH   3   8
TORSDOF 1
ENDMDL
MODEL 7
REMARK VINA RESULT:      -3.8      1.611      4.243
REMARK  1 active torsions:
REMARK  status: ('A' for Active; 'I' for Inactive)
REMARK    1  A    between atoms: C3_3  and  C8_8 
ROOT
HETATM    1  C1  UNL     1     -34.418  17.418  -3.887  1.00 20.00     0.017 C 
HETATM    2  C2  UNL     1     -33.731  16.601  -2.807  1.00 20.00     0.092 C 
HETATM    3  C3  UNL     1     -33.981  15.614  -5.190  1.00 20.00     0.173 C 
HETATM    4  C4  UNL     1     -34.939  18.785  -3.543  1.00 20.00     0.066 C 
HETATM    5  C5  UNL     1     -34.712  16.166  -1.731  1.00 20.00     0.028 C 
HETATM    6  N9  UNL     1     -34.589  16.951  -5.087  1.00 20.00    -0.282 NA
HETATM    7  S10 UNL     1     -33.081  15.164  -3.686  1.00 20.00    -0.131 SA
ENDROOT
BRANCH   3   8
HETATM    8  C8  UNL     1     -35.082  14.600  -5.469  1.00 20.00     0.012 C 
HETATM    9  C6  UNL     1     -35.257  14.390  -6.972  1.00 20.00     0.012 C 
HETATM   10  C7  UNL     1     -34.781  13.271  -4.776  1.00 20.00     0.012 C 
ENDBRANCH   3   8
TORSDOF 1
ENDMDL
MODEL 8
REMARK VINA RESULT:      -3.8      2.039      2.828
REMARK  1 active torsions:
REMARK  status: ('A' for Active; 'I' for Inactive)
REMARK    1  A    between atoms: C3_3  and  C8_8 
ROOT
HETATM    1  C1  UNL     1     -36.366  15.265  -5.594  1.00 20.00     0.017 C 
HETATM    2  C2  UNL     1     -35.392  14.323  -6.282  1.00 20.00     0.092 C 
HETATM    3  C3  UNL     1     -35.419  14.466  -3.695  1.00 20.00     0.173 C 
HETATM    4  C4  UNL     1     -37.294  16.094  -6.438  1.00 20.00     0.066 C 
HETATM    5  C5  UNL     1     -34.324  15.091  -7.044  1.00 20.00     0.028 C 
HETATM    6  N9  UNL     1     -36.394  15.387  -4.302  1.00 20.00    -0.282 NA
HETATM    7  S10 UNL     1     -34.651  13.386  -4.929  1.00 20.00    -0.131 SA
ENDROOT
BRANCH   3   8
HETATM    8  C8  UNL     1     -34.354  15.288  -2.979  1.00 20.00     0.012 C 
HETATM    9  C6  UNL     1     -32.990  15.098  -3.640  1.00 20.00     0.012 C 
HETATM   10  C7  UNL     1     -34.737  16.767  -2.959  1.00 20.00     0.012 C 
ENDBRANCH   3   8
TORSDOF 1
ENDMDL
MODEL 9
REMARK VINA RESULT:      -3.8      1.623      4.087
REMARK  1 active torsions:
REMARK  status: ('A' for Active; 'I' for Inactive)
REMARK    1  A    between atoms: C3_3  and  C8_8 
ROOT
HETATM    1  C1  UNL     1     -34.577  17.508  -1.021  1.00 20.00     0.017 C 
HETATM    2  C2  UNL     1     -34.718  18.543  -2.125  1.00 20.00     0.092 C 
HETATM    3  C3  UNL     1     -34.890  16.023  -2.706  1.00 20.00     0.173 C 
HETATM    4  C4  UNL     1     -34.339  17.976   0.387  1.00 20.00     0.066 C 
HETATM    5  C5  UNL     1     -33.405  19.262  -2.382  1.00 20.00     0.028 C 
HETATM    6  N9  UNL     1     -34.629  16.235  -1.273  1.00 20.00    -0.282 NA
HETATM    7  S10 UNL     1     -35.205  17.581  -3.573  1.00 20.00    -0.131 SA
ENDROOT
BRANCH   3   8
HETATM    8  C8  UNL     1     -33.690  15.312  -3.319  1.00 20.00     0.012 C 
HETATM    9  C6  UNL     1     -34.048  13.876  -3.698  1.00 20.00     0.012 C 
HETATM   10  C7  UNL     1     -33.175  16.075  -4.539  1.00 20.00     0.012 C 
ENDBRANCH   3   8
TORSDOF 1
ENDMDL
