MODEL 1
REMARK VINA RESULT:      -4.8      0.000      0.000
REMARK  2 active torsions:
REMARK  status: ('A' for Active; 'I' for Inactive)
REMARK    1  A    between atoms: C3_3  and  C10_10 
REMARK    2  A    between atoms: C7_7  and  C10_10 
ROOT
HETATM    1  C1  UNL     1     -33.742  18.259  -2.688  1.00 20.00    -0.024 C 
HETATM    2  C2  UNL     1     -34.132  17.976  -1.433  1.00 20.00    -0.087 C 
HETATM    3  C4  UNL     1     -33.653  17.235  -3.782  1.00 20.00     0.032 C 
HETATM    4  C5  UNL     1     -34.550  16.587  -1.022  1.00 20.00     0.034 C 
HETATM    5  C6  UNL     1     -34.791  15.640  -2.203  1.00 20.00     0.010 C 
HETATM    6  C7  UNL     1     -33.696  15.789  -3.264  1.00 20.00    -0.001 C 
HETATM    7  C8  UNL     1     -34.173  19.023  -0.360  1.00 20.00     0.043 C 
ENDROOT
BRANCH   6   8
HETATM    8  C10 UNL     1     -33.907  14.808  -4.415  1.00 20.00     0.047 C 
HETATM    9  C9  UNL     1     -34.209  15.546  -5.712  1.00 20.00     0.017 C 
BRANCH   8  10
HETATM   10  C3  UNL     1     -35.014  13.843  -4.042  1.00 20.00     0.235 C 
HETATM   11  O11 UNL     1     -35.037  12.656  -4.351  1.00 20.00    -0.306 OA
ENDBRANCH   8  10
ENDBRANCH   6   8
TORSDOF 2
ENDMDL
MODEL 2
REMARK VINA RESULT:      -4.5      0.884      1.754
REMARK  2 active torsions:
REMARK  status: ('A' for Active; 'I' for Inactive)
REMARK    1  A    between atoms: C3_3  and  C10_10 
REMARK    2  A    between atoms: C7_7  and  C10_10 
ROOT
HETATM    1  C1  UNL     1     -34.509  16.312  -1.522  1.00 20.00    -0.024 C 
HETATM    2  C2  UNL     1     -34.079  17.573  -1.703  1.00 20.00    -0.087 C 
HETATM    3  C4  UNL     1     -34.707  15.331  -2.641  1.00 20.00     0.032 C 
HETATM    4  C5  UNL     1     -33.721  18.104  -3.069  1.00 20.00     0.034 C 
HETATM    5  C6  UNL     1     -33.589  17.017  -4.139  1.00 20.00     0.010 C 
HETATM    6  C7  UNL     1     -34.722  15.991  -4.029  1.00 20.00    -0.001 C 
HETATM    7  C8  UNL     1     -33.928  18.532  -0.561  1.00 20.00     0.043 C 
ENDROOT
BRANCH   6   8
HETATM    8  C10 UNL     1     -34.621  14.938  -5.130  1.00 20.00     0.047 C 
HETATM    9  C9  UNL     1     -35.911  14.870  -5.938  1.00 20.00     0.017 C 
BRANCH   8  10
HETATM   10  C3  UNL     1     -34.275  13.602  -4.504  1.00 20.00     0.235 C 
HETATM   11  O11 UNL     1     -34.807  12.536  -4.798  1.00 20.00    -0.306 OA
ENDBRANCH   8  10
ENDBRANCH   6   8
TORSDOF 2
ENDMDL
MODEL 3
REMARK VINA RESULT:      -4.3      2.566      4.805
REMARK  2 active torsions:
REMARK  status: ('A' for Active; 'I' for Inactive)
REMARK    1  A    between atoms: C3_3  and  C10_10 
REMARK    2  A    between atoms: C7_7  and  C10_10 
ROOT
HETATM    1  C1  UNL     1     -35.892  14.914  -3.462  1.00 20.00    -0.024 C 
HETATM    2  C2  UNL     1     -34.755  14.362  -3.921  1.00 20.00    -0.087 C 
HETATM    3  C4  UNL     1     -35.929  16.030  -2.459  1.00 20.00     0.032 C 
HETATM    4  C5  UNL     1     -33.398  14.851  -3.482  1.00 20.00     0.034 C 
HETATM    5  C6  UNL     1     -33.434  16.194  -2.746  1.00 20.00     0.010 C 
HETATM    6  C7  UNL     1     -34.588  16.243  -1.739  1.00 20.00    -0.001 C 
HETATM    7  C8  UNL     1     -34.763  13.223  -4.897  1.00 20.00     0.043 C 
ENDROOT
BRANCH   6   8
HETATM    8  C10 UNL     1     -34.590  17.560  -0.968  1.00 20.00     0.047 C 
HETATM    9  C9  UNL     1     -33.203  18.189  -0.960  1.00 20.00     0.017 C 
BRANCH   8  10
HETATM   10  C3  UNL     1     -35.104  17.308   0.436  1.00 20.00     0.235 C 
HETATM   11  O11 UNL     1     -36.073  17.871   0.934  1.00 20.00    -0.306 OA
ENDBRANCH   8  10
ENDBRANCH   6   8
TORSDOF 2
ENDMDL
MODEL 4
REMARK VINA RESULT:      -4.3      1.668      2.120
REMARK  2 active torsions:
REMARK  status: ('A' for Active; 'I' for Inactive)
REMARK    1  A    between atoms: C3_3  and  C10_10 
REMARK    2  A    between atoms: C7_7  and  C10_10 
ROOT
HETATM    1  C1  UNL     1     -35.228  17.496  -1.134  1.00 20.00    -0.024 C 
HETATM    2  C2  UNL     1     -36.264  18.016  -1.815  1.00 20.00    -0.087 C 
HETATM    3  C4  UNL     1     -34.470  16.277  -1.574  1.00 20.00     0.032 C 
HETATM    4  C5  UNL     1     -36.738  17.424  -3.119  1.00 20.00     0.034 C 
HETATM    5  C6  UNL     1     -35.760  16.415  -3.731  1.00 20.00     0.010 C 
HETATM    6  C7  UNL     1     -35.197  15.472  -2.663  1.00 20.00    -0.001 C 
HETATM    7  C8  UNL     1     -37.017  19.215  -1.322  1.00 20.00     0.043 C 
ENDROOT
BRANCH   6   8
HETATM    8  C10 UNL     1     -34.265  14.433  -3.281  1.00 20.00     0.047 C 
HETATM    9  C9  UNL     1     -32.960  15.074  -3.735  1.00 20.00     0.017 C 
BRANCH   8  10
HETATM   10  C3  UNL     1     -34.984  13.745  -4.424  1.00 20.00     0.235 C 
HETATM   11  O11 UNL     1     -34.888  12.551  -4.689  1.00 20.00    -0.306 OA
ENDBRANCH   8  10
ENDBRANCH   6   8
TORSDOF 2
ENDMDL
MODEL 5
REMARK VINA RESULT:      -4.3      1.735      2.452
REMARK  2 active torsions:
REMARK  status: ('A' for Active; 'I' for Inactive)
REMARK    1  A    between atoms: C3_3  and  C10_10 
REMARK    2  A    between atoms: C7_7  and  C10_10 
ROOT
HETATM    1  C1  UNL     1     -33.687  17.137  -3.327  1.00 20.00    -0.024 C 
HETATM    2  C2  UNL     1     -34.420  16.370  -2.503  1.00 20.00    -0.087 C 
HETATM    3  C4  UNL     1     -33.567  16.895  -4.803  1.00 20.00     0.032 C 
HETATM    4  C5  UNL     1     -35.226  15.200  -3.009  1.00 20.00     0.034 C 
HETATM    5  C6  UNL     1     -35.380  15.170  -4.533  1.00 20.00     0.010 C 
HETATM    6  C7  UNL     1     -34.056  15.502  -5.230  1.00 20.00    -0.001 C 
HETATM    7  C8  UNL     1     -34.485  16.626  -1.027  1.00 20.00     0.043 C 
ENDROOT
BRANCH   6   8
HETATM    8  C10 UNL     1     -34.197  15.419  -6.748  1.00 20.00     0.047 C 
HETATM    9  C9  UNL     1     -34.598  16.768  -7.332  1.00 20.00     0.017 C 
BRANCH   8  10
HETATM   10  C3  UNL     1     -35.198  14.334  -7.091  1.00 20.00     0.235 C 
HETATM   11  O11 UNL     1     -36.102  14.455  -7.912  1.00 20.00    -0.306 OA
ENDBRANCH   8  10
ENDBRANCH   6   8
TORSDOF 2
ENDMDL
MODEL 6
REMARK VINA RESULT:      -4.3      1.664      2.705
REMARK  2 active torsions:
REMARK  status: ('A' for Active; 'I' for Inactive)
REMARK    1  A    between atoms: C3_3  and  C10_10 
REMARK    2  A    between atoms: C7_7  and  C10_10 
ROOT
HETATM    1  C1  UNL     1     -34.922  15.215  -2.802  1.00 20.00    -0.024 C 
HETATM    2  C2  UNL     1     -34.475  16.361  -2.260  1.00 20.00    -0.087 C 
HETATM    3  C4  UNL     1     -34.862  14.910  -4.271  1.00 20.00     0.032 C 
HETATM    4  C5  UNL     1     -33.834  17.441  -3.095  1.00 20.00     0.034 C 
HETATM    5  C6  UNL     1     -33.461  16.988  -4.510  1.00 20.00     0.010 C 
HETATM    6  C7  UNL     1     -34.581  16.149  -5.136  1.00 20.00    -0.001 C 
HETATM    7  C8  UNL     1     -34.586  16.640  -0.791  1.00 20.00     0.043 C 
ENDROOT
BRANCH   6   8
HETATM    8  C10 UNL     1     -34.232  15.743  -6.566  1.00 20.00     0.047 C 
HETATM    9  C9  UNL     1     -34.621  16.838  -7.551  1.00 20.00     0.017 C 
BRANCH   8  10
HETATM   10  C3  UNL     1     -34.913  14.428  -6.884  1.00 20.00     0.235 C 
HETATM   11  O11 UNL     1     -35.626  14.232  -7.863  1.00 20.00    -0.306 OA
ENDBRANCH   8  10
ENDBRANCH   6   8
TORSDOF 2
ENDMDL
MODEL 7
REMARK VINA RESULT:      -4.2     12.256     14.456
REMARK  2 active torsions:
REMARK  status: ('A' for Active; 'I' for Inactive)
REMARK    1  A    between atoms: C3_3  and  C10_10 
REMARK    2  A    between atoms: C7_7  and  C10_10 
ROOT
HETATM    1  C1  UNL     1     -41.018   5.245  -1.320  1.00 20.00    -0.024 C 
HETATM    2  C2  UNL     1     -41.913   6.215  -1.574  1.00 20.00    -0.087 C 
HETATM    3  C4  UNL     1     -41.107   3.860  -1.892  1.00 20.00     0.032 C 
HETATM    4  C5  UNL     1     -43.084   5.996  -2.500  1.00 20.00     0.034 C 
HETATM    5  C6  UNL     1     -42.977   4.720  -3.341  1.00 20.00     0.010 C 
HETATM    6  C7  UNL     1     -42.483   3.540  -2.496  1.00 20.00    -0.001 C 
HETATM    7  C8  UNL     1     -41.807   7.575  -0.954  1.00 20.00     0.043 C 
ENDROOT
BRANCH   6   8
HETATM    8  C10 UNL     1     -42.429   2.257  -3.321  1.00 20.00     0.047 C 
HETATM    9  C9  UNL     1     -40.998   1.934  -3.731  1.00 20.00     0.017 C 
BRANCH   8  10
HETATM   10  C3  UNL     1     -43.341   2.405  -4.523  1.00 20.00     0.235 C 
HETATM   11  O11 UNL     1     -43.051   2.059  -5.663  1.00 20.00    -0.306 OA
ENDBRANCH   8  10
ENDBRANCH   6   8
TORSDOF 2
ENDMDL
MODEL 8
REMARK VINA RESULT:      -4.2      1.449      2.350
REMARK  2 active torsions:
REMARK  status: ('A' for Active; 'I' for Inactive)
REMARK    1  A    between atoms: C3_3  and  C10_10 
REMARK    2  A    between atoms: C7_7  and  C10_10 
ROOT
HETATM    1  C1  UNL     1     -34.495  16.199  -1.571  1.00 20.00    -0.024 C 
HETATM    2  C2  UNL     1     -33.957  17.413  -1.781  1.00 20.00    -0.087 C 
HETATM    3  C4  UNL     1     -34.900  15.266  -2.675  1.00 20.00     0.032 C 
HETATM    4  C5  UNL     1     -33.679  17.932  -3.170  1.00 20.00     0.034 C 
HETATM    5  C6  UNL     1     -33.764  16.858  -4.259  1.00 20.00     0.010 C 
HETATM    6  C7  UNL     1     -34.980  15.951  -4.049  1.00 20.00    -0.001 C 
HETATM    7  C8  UNL     1     -33.600  18.329  -0.650  1.00 20.00     0.043 C 
ENDROOT
BRANCH   6   8
HETATM    8  C10 UNL     1     -35.094  14.915  -5.165  1.00 20.00     0.047 C 
HETATM    9  C9  UNL     1     -34.584  13.557  -4.701  1.00 20.00     0.017 C 
BRANCH   8  10
HETATM   10  C3  UNL     1     -34.341  15.416  -6.381  1.00 20.00     0.235 C 
HETATM   11  O11 UNL     1     -34.287  14.830  -7.457  1.00 20.00    -0.306 OA
ENDBRANCH   8  10
ENDBRANCH   6   8
TORSDOF 2
ENDMDL
MODEL 9
REMARK VINA RESULT:      -4.1     10.961     12.261
REMARK  2 active torsions:
REMARK  status: ('A' for Active; 'I' for Inactive)
REMARK    1  A    between atoms: C3_3  and  C10_10 
REMARK    2  A    between atoms: C7_7  and  C10_10 
ROOT
HETATM    1  C1  UNL     1     -34.489   4.766   3.933  1.00 20.00    -0.024 C 
HETATM    2  C2  UNL     1     -34.610   5.095   5.231  1.00 20.00    -0.087 C 
HETATM    3  C4  UNL     1     -33.688   5.563   2.944  1.00 20.00     0.032 C 
HETATM    4  C5  UNL     1     -33.910   6.295   5.818  1.00 20.00     0.034 C 
HETATM    5  C6  UNL     1     -32.833   6.889   4.905  1.00 20.00     0.010 C 
HETATM    6  C7  UNL     1     -33.318   6.965   3.453  1.00 20.00    -0.001 C 
HETATM    7  C8  UNL     1     -35.449   4.291   6.178  1.00 20.00     0.043 C 
ENDROOT
BRANCH   6   8
HETATM    8  C10 UNL     1     -32.266   7.607   2.553  1.00 20.00     0.047 C 
HETATM    9  C9  UNL     1     -30.991   7.902   3.332  1.00 20.00     0.017 C 
BRANCH   8  10
HETATM   10  C3  UNL     1     -32.849   8.859   1.929  1.00 20.00     0.235 C 
HETATM   11  O11 UNL     1     -32.234   9.621   1.190  1.00 20.00    -0.306 OA
ENDBRANCH   8  10
ENDBRANCH   6   8
TORSDOF 2
ENDMDL
