MODEL 1
REMARK VINA RESULT:      -3.6      0.000      0.000
REMARK  0 active torsions:
REMARK  status: ('A' for Active; 'I' for Inactive)
ROOT
HETATM    1  C1  UNL     1     -33.805   6.331   5.507  1.00 20.00     0.048 C 
HETATM    2  C2  UNL     1     -34.805   5.285   5.951  1.00 20.00     0.169 C 
HETATM    3  C3  UNL     1     -34.813   5.359   3.620  1.00 20.00     0.187 C 
HETATM    4  C4  UNL     1     -33.468   5.849   4.117  1.00 20.00     0.108 C 
HETATM    5  O5  UNL     1     -35.520   4.878   4.775  1.00 20.00    -0.390 OA
HETATM    6 CL6  UNL     1     -32.778   7.115   3.099  1.00 20.00    -0.123 Cl
ENDROOT
TORSDOF 0
ENDMDL
MODEL 2
REMARK VINA RESULT:      -3.6      1.806      2.096
REMARK  0 active torsions:
REMARK  status: ('A' for Active; 'I' for Inactive)
ROOT
HETATM    1  C1  UNL     1     -34.967   4.965   6.019  1.00 20.00     0.048 C 
HETATM    2  C2  UNL     1     -35.194   4.242   4.709  1.00 20.00     0.169 C 
HETATM    3  C3  UNL     1     -34.163   6.282   4.247  1.00 20.00     0.187 C 
HETATM    4  C4  UNL     1     -33.813   5.871   5.663  1.00 20.00     0.108 C 
HETATM    5  O5  UNL     1     -34.869   5.173   3.666  1.00 20.00    -0.390 OA
HETATM    6 CL6  UNL     1     -33.654   7.245   6.759  1.00 20.00    -0.123 Cl
ENDROOT
TORSDOF 0
ENDMDL
MODEL 3
REMARK VINA RESULT:      -3.3      2.255      2.850
REMARK  0 active torsions:
REMARK  status: ('A' for Active; 'I' for Inactive)
ROOT
HETATM    1  C1  UNL     1     -35.141   5.276   4.016  1.00 20.00     0.048 C 
HETATM    2  C2  UNL     1     -34.394   5.330   2.700  1.00 20.00     0.169 C 
HETATM    3  C3  UNL     1     -33.095   6.393   4.320  1.00 20.00     0.187 C 
HETATM    4  C4  UNL     1     -34.008   5.396   5.006  1.00 20.00     0.108 C 
HETATM    5  O5  UNL     1     -33.261   6.187   2.907  1.00 20.00    -0.390 OA
HETATM    6 CL6  UNL     1     -34.542   5.937   6.599  1.00 20.00    -0.123 Cl
ENDROOT
TORSDOF 0
ENDMDL
MODEL 4
REMARK VINA RESULT:      -3.2      2.127      2.586
REMARK  0 active torsions:
REMARK  status: ('A' for Active; 'I' for Inactive)
ROOT
HETATM    1  C1  UNL     1     -32.946   6.363   4.392  1.00 20.00     0.048 C 
HETATM    2  C2  UNL     1     -33.066   6.220   2.889  1.00 20.00     0.169 C 
HETATM    3  C3  UNL     1     -34.884   5.139   3.872  1.00 20.00     0.187 C 
HETATM    4  C4  UNL     1     -34.386   6.211   4.821  1.00 20.00     0.108 C 
HETATM    5  O5  UNL     1     -34.146   5.305   2.650  1.00 20.00    -0.390 OA
HETATM    6 CL6  UNL     1     -34.552   5.759   6.519  1.00 20.00    -0.123 Cl
ENDROOT
TORSDOF 0
ENDMDL
MODEL 5
REMARK VINA RESULT:      -3.1      2.395      2.636
REMARK  0 active torsions:
REMARK  status: ('A' for Active; 'I' for Inactive)
ROOT
HETATM    1  C1  UNL     1     -34.407   5.583   6.498  1.00 20.00     0.048 C 
HETATM    2  C2  UNL     1     -33.709   6.923   6.386  1.00 20.00     0.169 C 
HETATM    3  C3  UNL     1     -33.657   5.896   4.292  1.00 20.00     0.187 C 
HETATM    4  C4  UNL     1     -34.840   5.353   5.070  1.00 20.00     0.108 C 
HETATM    5  O5  UNL     1     -33.108   6.963   5.083  1.00 20.00    -0.390 OA
HETATM    6 CL6  UNL     1     -35.174   3.656   4.719  1.00 20.00    -0.123 Cl
ENDROOT
TORSDOF 0
ENDMDL
MODEL 6
REMARK VINA RESULT:      -3.0     12.353     12.830
REMARK  0 active torsions:
REMARK  status: ('A' for Active; 'I' for Inactive)
ROOT
HETATM    1  C1  UNL     1     -34.540  14.444  -5.637  1.00 20.00     0.048 C 
HETATM    2  C2  UNL     1     -34.709  13.174  -4.830  1.00 20.00     0.169 C 
HETATM    3  C3  UNL     1     -33.175  14.542  -3.726  1.00 20.00     0.187 C 
HETATM    4  C4  UNL     1     -34.080  15.413  -4.575  1.00 20.00     0.108 C 
HETATM    5  O5  UNL     1     -33.713  13.211  -3.797  1.00 20.00    -0.390 OA
HETATM    6 CL6  UNL     1     -33.251  16.822  -5.242  1.00 20.00    -0.123 Cl
ENDROOT
TORSDOF 0
ENDMDL
MODEL 7
REMARK VINA RESULT:      -3.0     11.706     12.070
REMARK  0 active torsions:
REMARK  status: ('A' for Active; 'I' for Inactive)
ROOT
HETATM    1  C1  UNL     1     -34.234  14.000  -3.423  1.00 20.00     0.048 C 
HETATM    2  C2  UNL     1     -35.102  13.344  -4.476  1.00 20.00     0.169 C 
HETATM    3  C3  UNL     1     -36.375  14.969  -3.391  1.00 20.00     0.187 C 
HETATM    4  C4  UNL     1     -34.911  15.341  -3.274  1.00 20.00     0.108 C 
HETATM    5  O5  UNL     1     -36.436  13.835  -4.271  1.00 20.00    -0.390 OA
HETATM    6 CL6  UNL     1     -34.523  16.140  -1.749  1.00 20.00    -0.123 Cl
ENDROOT
TORSDOF 0
ENDMDL
MODEL 8
REMARK VINA RESULT:      -3.0     11.905     12.109
REMARK  0 active torsions:
REMARK  status: ('A' for Active; 'I' for Inactive)
ROOT
HETATM    1  C1  UNL     1     -34.424  15.054  -3.137  1.00 20.00     0.048 C 
HETATM    2  C2  UNL     1     -33.215  14.300  -3.649  1.00 20.00     0.169 C 
HETATM    3  C3  UNL     1     -35.131  13.215  -4.417  1.00 20.00     0.187 C 
HETATM    4  C4  UNL     1     -35.469  14.669  -4.156  1.00 20.00     0.108 C 
HETATM    5  O5  UNL     1     -33.709  13.092  -4.247  1.00 20.00    -0.390 OA
HETATM    6 CL6  UNL     1     -37.118  14.898  -3.571  1.00 20.00    -0.123 Cl
ENDROOT
TORSDOF 0
ENDMDL
MODEL 9
REMARK VINA RESULT:      -2.8      9.235      9.839
REMARK  0 active torsions:
REMARK  status: ('A' for Active; 'I' for Inactive)
ROOT
HETATM    1  C1  UNL     1     -40.636   4.702  -0.938  1.00 20.00     0.048 C 
HETATM    2  C2  UNL     1     -40.934   6.125  -0.514  1.00 20.00     0.169 C 
HETATM    3  C3  UNL     1     -42.136   5.678  -2.462  1.00 20.00     0.187 C 
HETATM    4  C4  UNL     1     -41.867   4.369  -1.746  1.00 20.00     0.108 C 
HETATM    5  O5  UNL     1     -41.687   6.721  -1.580  1.00 20.00    -0.390 OA
HETATM    6 CL6  UNL     1     -41.616   3.018  -2.854  1.00 20.00    -0.123 Cl
ENDROOT
TORSDOF 0
ENDMDL
