MODEL 1
REMARK VINA RESULT:      -4.1      0.000      0.000
REMARK  3 active torsions:
REMARK  status: ('A' for Active; 'I' for Inactive)
REMARK    1  A    between atoms: C2_2  and  C6_6 
REMARK    2  A    between atoms: C2_2  and  O9_9 
REMARK    3  A    between atoms: C5_5  and  C6_6 
ROOT
HETATM    1  C1  UNL     1     -37.017  14.555  -3.974  1.00 20.00     0.074 C 
HETATM    2  C6  UNL     1     -35.602  14.783  -4.322  1.00 20.00     0.192 C 
HETATM    3  N7  UNL     1     -38.131  14.379  -3.703  1.00 20.00    -0.196 NA
ENDROOT
BRANCH   2   4
HETATM    4  C2  UNL     1     -35.052  13.652  -5.177  1.00 20.00     0.276 C 
HETATM    5  O8  UNL     1     -34.577  12.610  -4.741  1.00 20.00    -0.264 OA
BRANCH   4   6
HETATM    6  O9  UNL     1     -35.158  13.985  -6.498  1.00 20.00    -0.325 OA
HETATM    7  C4  UNL     1     -34.403  15.130  -6.908  1.00 20.00     0.213 C 
ENDBRANCH   4   6
ENDBRANCH   2   4
BRANCH   2   8
HETATM    8  C5  UNL     1     -34.744  15.013  -3.069  1.00 20.00     0.025 C 
HETATM    9  C3  UNL     1     -33.385  15.650  -3.339  1.00 20.00     0.007 C 
ENDBRANCH   2   8
TORSDOF 3
ENDMDL
MODEL 2
REMARK VINA RESULT:      -3.9      2.431      2.876
REMARK  3 active torsions:
REMARK  status: ('A' for Active; 'I' for Inactive)
REMARK    1  A    between atoms: C2_2  and  C6_6 
REMARK    2  A    between atoms: C2_2  and  O9_9 
REMARK    3  A    between atoms: C5_5  and  C6_6 
ROOT
HETATM    1  C1  UNL     1     -33.512  15.689  -4.117  1.00 20.00     0.074 C 
HETATM    2  C6  UNL     1     -34.390  14.950  -3.191  1.00 20.00     0.192 C 
HETATM    3  N7  UNL     1     -32.818  16.268  -4.845  1.00 20.00    -0.196 NA
ENDROOT
BRANCH   2   4
HETATM    4  C2  UNL     1     -35.259  13.947  -3.932  1.00 20.00     0.276 C 
HETATM    5  O8  UNL     1     -34.906  12.821  -4.261  1.00 20.00    -0.264 OA
BRANCH   4   6
HETATM    6  O9  UNL     1     -36.482  14.502  -4.185  1.00 20.00    -0.325 OA
HETATM    7  C4  UNL     1     -36.694  14.942  -5.530  1.00 20.00     0.213 C 
ENDBRANCH   4   6
ENDBRANCH   2   4
BRANCH   2   8
HETATM    8  C5  UNL     1     -35.235  15.906  -2.335  1.00 20.00     0.025 C 
HETATM    9  C3  UNL     1     -34.492  16.521  -1.152  1.00 20.00     0.007 C 
ENDBRANCH   2   8
TORSDOF 3
ENDMDL
MODEL 3
REMARK VINA RESULT:      -3.9      1.812      2.082
REMARK  3 active torsions:
REMARK  status: ('A' for Active; 'I' for Inactive)
REMARK    1  A    between atoms: C2_2  and  C6_6 
REMARK    2  A    between atoms: C2_2  and  O9_9 
REMARK    3  A    between atoms: C5_5  and  C6_6 
ROOT
HETATM    1  C1  UNL     1     -36.265  14.844  -3.536  1.00 20.00     0.074 C 
HETATM    2  C6  UNL     1     -34.977  15.498  -3.238  1.00 20.00     0.192 C 
HETATM    3  N7  UNL     1     -37.278  14.331  -3.775  1.00 20.00    -0.196 NA
ENDROOT
BRANCH   2   4
HETATM    4  C2  UNL     1     -33.803  14.617  -3.634  1.00 20.00     0.276 C 
HETATM    5  O8  UNL     1     -33.761  13.401  -3.501  1.00 20.00    -0.264 OA
BRANCH   4   6
HETATM    6  O9  UNL     1     -32.803  15.395  -4.147  1.00 20.00    -0.325 OA
HETATM    7  C4  UNL     1     -33.216  16.389  -5.091  1.00 20.00     0.213 C 
ENDBRANCH   4   6
ENDBRANCH   2   4
BRANCH   2   8
HETATM    8  C5  UNL     1     -34.892  15.925  -1.765  1.00 20.00     0.025 C 
HETATM    9  C3  UNL     1     -33.931  17.079  -1.494  1.00 20.00     0.007 C 
ENDBRANCH   2   8
TORSDOF 3
ENDMDL
MODEL 4
REMARK VINA RESULT:      -3.8      2.757      3.721
REMARK  3 active torsions:
REMARK  status: ('A' for Active; 'I' for Inactive)
REMARK    1  A    between atoms: C2_2  and  C6_6 
REMARK    2  A    between atoms: C2_2  and  O9_9 
REMARK    3  A    between atoms: C5_5  and  C6_6 
ROOT
HETATM    1  C1  UNL     1     -34.488  13.684  -4.034  1.00 20.00     0.074 C 
HETATM    2  C6  UNL     1     -34.088  14.899  -3.300  1.00 20.00     0.192 C 
HETATM    3  N7  UNL     1     -34.803  12.726  -4.608  1.00 20.00    -0.196 NA
ENDROOT
BRANCH   2   4
HETATM    4  C2  UNL     1     -35.299  15.701  -2.852  1.00 20.00     0.276 C 
HETATM    5  O8  UNL     1     -36.465  15.391  -3.065  1.00 20.00    -0.264 OA
BRANCH   4   6
HETATM    6  O9  UNL     1     -34.884  16.823  -2.190  1.00 20.00    -0.325 OA
HETATM    7  C4  UNL     1     -34.630  16.655  -0.791  1.00 20.00     0.213 C 
ENDBRANCH   4   6
ENDBRANCH   2   4
BRANCH   2   8
HETATM    8  C5  UNL     1     -33.114  15.757  -4.122  1.00 20.00     0.025 C 
HETATM    9  C3  UNL     1     -33.654  16.207  -5.476  1.00 20.00     0.007 C 
ENDBRANCH   2   8
TORSDOF 3
ENDMDL
MODEL 5
REMARK VINA RESULT:      -3.8      2.613      3.337
REMARK  3 active torsions:
REMARK  status: ('A' for Active; 'I' for Inactive)
REMARK    1  A    between atoms: C2_2  and  C6_6 
REMARK    2  A    between atoms: C2_2  and  O9_9 
REMARK    3  A    between atoms: C5_5  and  C6_6 
ROOT
HETATM    1  C1  UNL     1     -35.116  13.565  -4.089  1.00 20.00     0.074 C 
HETATM    2  C6  UNL     1     -35.605  14.635  -3.200  1.00 20.00     0.192 C 
HETATM    3  N7  UNL     1     -34.734  12.720  -4.786  1.00 20.00    -0.196 NA
ENDROOT
BRANCH   2   4
HETATM    4  C2  UNL     1     -36.902  15.236  -3.717  1.00 20.00     0.276 C 
HETATM    5  O8  UNL     1     -37.041  16.397  -4.084  1.00 20.00    -0.264 OA
BRANCH   4   6
HETATM    6  O9  UNL     1     -37.885  14.287  -3.693  1.00 20.00    -0.325 OA
HETATM    7  C4  UNL     1     -39.120  14.663  -4.313  1.00 20.00     0.213 C 
ENDBRANCH   4   6
ENDBRANCH   2   4
BRANCH   2   8
HETATM    8  C5  UNL     1     -34.532  15.712  -2.974  1.00 20.00     0.025 C 
HETATM    9  C3  UNL     1     -34.506  16.294  -1.565  1.00 20.00     0.007 C 
ENDBRANCH   2   8
TORSDOF 3
ENDMDL
MODEL 6
REMARK VINA RESULT:      -3.8      2.463      2.906
REMARK  3 active torsions:
REMARK  status: ('A' for Active; 'I' for Inactive)
REMARK    1  A    between atoms: C2_2  and  C6_6 
REMARK    2  A    between atoms: C2_2  and  O9_9 
REMARK    3  A    between atoms: C5_5  and  C6_6 
ROOT
HETATM    1  C1  UNL     1     -34.679  13.842  -4.413  1.00 20.00     0.074 C 
HETATM    2  C6  UNL     1     -34.506  15.290  -4.191  1.00 20.00     0.192 C 
HETATM    3  N7  UNL     1     -34.818  12.703  -4.589  1.00 20.00    -0.196 NA
ENDROOT
BRANCH   2   4
HETATM    4  C2  UNL     1     -33.851  15.959  -5.388  1.00 20.00     0.276 C 
HETATM    5  O8  UNL     1     -33.976  15.597  -6.552  1.00 20.00    -0.264 OA
BRANCH   4   6
HETATM    6  O9  UNL     1     -33.093  17.015  -4.963  1.00 20.00    -0.325 OA
HETATM    7  C4  UNL     1     -33.533  18.305  -5.399  1.00 20.00     0.213 C 
ENDBRANCH   4   6
ENDBRANCH   2   4
BRANCH   2   8
HETATM    8  C5  UNL     1     -33.735  15.571  -2.893  1.00 20.00     0.025 C 
HETATM    9  C3  UNL     1     -34.565  16.224  -1.792  1.00 20.00     0.007 C 
ENDBRANCH   2   8
TORSDOF 3
ENDMDL
MODEL 7
REMARK VINA RESULT:      -3.7      2.608      3.318
REMARK  3 active torsions:
REMARK  status: ('A' for Active; 'I' for Inactive)
REMARK    1  A    between atoms: C2_2  and  C6_6 
REMARK    2  A    between atoms: C2_2  and  O9_9 
REMARK    3  A    between atoms: C5_5  and  C6_6 
ROOT
HETATM    1  C1  UNL     1     -33.764  16.724  -3.800  1.00 20.00     0.074 C 
HETATM    2  C6  UNL     1     -34.086  15.739  -2.751  1.00 20.00     0.192 C 
HETATM    3  N7  UNL     1     -33.506  17.497  -4.627  1.00 20.00    -0.196 NA
ENDROOT
BRANCH   2   4
HETATM    4  C2  UNL     1     -35.056  14.685  -3.260  1.00 20.00     0.276 C 
HETATM    5  O8  UNL     1     -36.266  14.841  -3.375  1.00 20.00    -0.264 OA
BRANCH   4   6
HETATM    6  O9  UNL     1     -34.372  13.539  -3.553  1.00 20.00    -0.325 OA
HETATM    7  C4  UNL     1     -34.498  13.073  -4.901  1.00 20.00     0.213 C 
ENDBRANCH   4   6
ENDBRANCH   2   4
BRANCH   2   8
HETATM    8  C5  UNL     1     -34.610  16.424  -1.480  1.00 20.00     0.025 C 
HETATM    9  C3  UNL     1     -33.686  17.496  -0.911  1.00 20.00     0.007 C 
ENDBRANCH   2   8
TORSDOF 3
ENDMDL
MODEL 8
REMARK VINA RESULT:      -3.7      1.439      2.737
REMARK  3 active torsions:
REMARK  status: ('A' for Active; 'I' for Inactive)
REMARK    1  A    between atoms: C2_2  and  C6_6 
REMARK    2  A    between atoms: C2_2  and  O9_9 
REMARK    3  A    between atoms: C5_5  and  C6_6 
ROOT
HETATM    1  C1  UNL     1     -36.704  14.266  -4.208  1.00 20.00     0.074 C 
HETATM    2  C6  UNL     1     -35.369  14.106  -4.813  1.00 20.00     0.192 C 
HETATM    3  N7  UNL     1     -37.755  14.387  -3.732  1.00 20.00    -0.196 NA
ENDROOT
BRANCH   2   4
HETATM    4  C2  UNL     1     -34.281  14.060  -3.752  1.00 20.00     0.276 C 
HETATM    5  O8  UNL     1     -33.323  13.297  -3.761  1.00 20.00    -0.264 OA
BRANCH   4   6
HETATM    6  O9  UNL     1     -34.547  14.990  -2.786  1.00 20.00    -0.325 OA
HETATM    7  C4  UNL     1     -33.640  16.096  -2.726  1.00 20.00     0.213 C 
ENDBRANCH   4   6
ENDBRANCH   2   4
BRANCH   2   8
HETATM    8  C5  UNL     1     -35.092  15.196  -5.860  1.00 20.00     0.025 C 
HETATM    9  C3  UNL     1     -34.809  14.669  -7.263  1.00 20.00     0.007 C 
ENDBRANCH   2   8
TORSDOF 3
ENDMDL
MODEL 9
REMARK VINA RESULT:      -3.7      2.410      3.525
REMARK  3 active torsions:
REMARK  status: ('A' for Active; 'I' for Inactive)
REMARK    1  A    between atoms: C2_2  and  C6_6 
REMARK    2  A    between atoms: C2_2  and  O9_9 
REMARK    3  A    between atoms: C5_5  and  C6_6 
ROOT
HETATM    1  C1  UNL     1     -33.886  15.659  -5.012  1.00 20.00     0.074 C 
HETATM    2  C6  UNL     1     -35.116  14.881  -5.250  1.00 20.00     0.192 C 
HETATM    3  N7  UNL     1     -32.921  16.274  -4.823  1.00 20.00    -0.196 NA
ENDROOT
BRANCH   2   4
HETATM    4  C2  UNL     1     -35.336  13.844  -4.161  1.00 20.00     0.276 C 
HETATM    5  O8  UNL     1     -34.452  13.174  -3.641  1.00 20.00    -0.264 OA
BRANCH   4   6
HETATM    6  O9  UNL     1     -36.668  13.767  -3.866  1.00 20.00    -0.325 OA
HETATM    7  C4  UNL     1     -37.332  15.021  -3.679  1.00 20.00     0.213 C 
ENDBRANCH   4   6
ENDBRANCH   2   4
BRANCH   2   8
HETATM    8  C5  UNL     1     -35.116  14.243  -6.647  1.00 20.00     0.025 C 
HETATM    9  C3  UNL     1     -34.847  15.218  -7.789  1.00 20.00     0.007 C 
ENDBRANCH   2   8
TORSDOF 3
ENDMDL
