MODEL 1
REMARK VINA RESULT:      -3.1      0.000      0.000
REMARK  2 active torsions:
REMARK  status: ('A' for Active; 'I' for Inactive)
REMARK    1  A    between atoms: C2_2  and  C4_4 
REMARK    2  A    between atoms: C4_4  and  S6_6 
ROOT
HETATM    1  C1  UNL     1     -32.460   7.203   2.861  1.00 20.00     0.201 A 
HETATM    2  C2  UNL     1     -33.160   6.377   3.903  1.00 20.00     0.154 A 
HETATM    3  O5  UNL     1     -32.000   5.891   3.220  1.00 20.00    -0.380 OA
ENDROOT
BRANCH   2   4
HETATM    4  C4  UNL     1     -34.414   5.644   3.588  1.00 20.00     0.107 C 
BRANCH   4   5
HETATM    5  S6  UNL     1     -35.048   4.747   5.045  1.00 20.00    -0.171 SA
HETATM    6  C3  UNL     1     -34.373   5.830   6.323  1.00 20.00     0.089 C 
ENDBRANCH   4   5
ENDBRANCH   2   4
TORSDOF 2
ENDMDL
MODEL 2
REMARK VINA RESULT:      -2.8     11.636     11.819
REMARK  2 active torsions:
REMARK  status: ('A' for Active; 'I' for Inactive)
REMARK    1  A    between atoms: C2_2  and  C4_4 
REMARK    2  A    between atoms: C4_4  and  S6_6 
ROOT
HETATM    1  C1  UNL     1     -34.697  13.536  -5.339  1.00 20.00     0.201 A 
HETATM    2  C2  UNL     1     -34.290  13.904  -3.939  1.00 20.00     0.154 A 
HETATM    3  O5  UNL     1     -35.052  12.722  -4.210  1.00 20.00    -0.380 OA
ENDROOT
BRANCH   2   4
HETATM    4  C4  UNL     1     -35.021  14.948  -3.176  1.00 20.00     0.107 C 
BRANCH   4   5
HETATM    5  S6  UNL     1     -33.905  16.287  -2.638  1.00 20.00    -0.171 SA
HETATM    6  C3  UNL     1     -34.613  16.565  -1.000  1.00 20.00     0.089 C 
ENDBRANCH   4   5
ENDBRANCH   2   4
TORSDOF 2
ENDMDL
MODEL 3
REMARK VINA RESULT:      -2.8      1.129      1.129
REMARK  2 active torsions:
REMARK  status: ('A' for Active; 'I' for Inactive)
REMARK    1  A    between atoms: C2_2  and  C4_4 
REMARK    2  A    between atoms: C4_4  and  S6_6 
ROOT
HETATM    1  C1  UNL     1     -32.312   7.347   2.728  1.00 20.00     0.201 A 
HETATM    2  C2  UNL     1     -32.703   6.644   3.999  1.00 20.00     0.154 A 
HETATM    3  O5  UNL     1     -32.120   5.934   2.900  1.00 20.00    -0.380 OA
ENDROOT
BRANCH   2   4
HETATM    4  C4  UNL     1     -34.119   6.293   4.278  1.00 20.00     0.107 C 
BRANCH   4   5
HETATM    5  S6  UNL     1     -34.350   5.776   6.012  1.00 20.00    -0.171 SA
HETATM    6  C3  UNL     1     -34.927   4.092   5.700  1.00 20.00     0.089 C 
ENDBRANCH   4   5
ENDBRANCH   2   4
TORSDOF 2
ENDMDL
MODEL 4
REMARK VINA RESULT:      -2.7     11.656     12.310
REMARK  2 active torsions:
REMARK  status: ('A' for Active; 'I' for Inactive)
REMARK    1  A    between atoms: C2_2  and  C4_4 
REMARK    2  A    between atoms: C4_4  and  S6_6 
ROOT
HETATM    1  C1  UNL     1     -34.711  13.486  -5.380  1.00 20.00     0.201 A 
HETATM    2  C2  UNL     1     -34.284  13.848  -3.984  1.00 20.00     0.154 A 
HETATM    3  O5  UNL     1     -35.077  12.685  -4.245  1.00 20.00    -0.380 OA
ENDROOT
BRANCH   2   4
HETATM    4  C4  UNL     1     -34.983  14.913  -3.219  1.00 20.00     0.107 C 
BRANCH   4   5
HETATM    5  S6  UNL     1     -33.845  16.262  -2.759  1.00 20.00    -0.171 SA
HETATM    6  C3  UNL     1     -33.519  16.897  -4.419  1.00 20.00     0.089 C 
ENDBRANCH   4   5
ENDBRANCH   2   4
TORSDOF 2
ENDMDL
MODEL 5
REMARK VINA RESULT:      -2.6      2.433      3.638
REMARK  2 active torsions:
REMARK  status: ('A' for Active; 'I' for Inactive)
REMARK    1  A    between atoms: C2_2  and  C4_4 
REMARK    2  A    between atoms: C4_4  and  S6_6 
ROOT
HETATM    1  C1  UNL     1     -35.090   4.611   5.638  1.00 20.00     0.201 A 
HETATM    2  C2  UNL     1     -33.861   5.418   5.324  1.00 20.00     0.154 A 
HETATM    3  O5  UNL     1     -34.738   5.779   6.397  1.00 20.00    -0.380 OA
ENDROOT
BRANCH   2   4
HETATM    4  C4  UNL     1     -33.844   6.379   4.191  1.00 20.00     0.107 C 
BRANCH   4   5
HETATM    5  S6  UNL     1     -32.345   6.181   3.169  1.00 20.00    -0.171 SA
HETATM    6  C3  UNL     1     -32.218   7.881   2.572  1.00 20.00     0.089 C 
ENDBRANCH   4   5
ENDBRANCH   2   4
TORSDOF 2
ENDMDL
MODEL 6
REMARK VINA RESULT:      -2.6     12.070     13.106
REMARK  2 active torsions:
REMARK  status: ('A' for Active; 'I' for Inactive)
REMARK    1  A    between atoms: C2_2  and  C4_4 
REMARK    2  A    between atoms: C4_4  and  S6_6 
ROOT
HETATM    1  C1  UNL     1     -34.227  13.596  -3.660  1.00 20.00     0.201 A 
HETATM    2  C2  UNL     1     -35.145  14.079  -4.747  1.00 20.00     0.154 A 
HETATM    3  O5  UNL     1     -34.999  12.685  -4.457  1.00 20.00    -0.380 OA
ENDROOT
BRANCH   2   4
HETATM    4  C4  UNL     1     -34.616  14.493  -6.072  1.00 20.00     0.107 C 
BRANCH   4   5
HETATM    5  S6  UNL     1     -34.824  16.285  -6.345  1.00 20.00    -0.171 SA
HETATM    6  C3  UNL     1     -33.477  16.861  -5.288  1.00 20.00     0.089 C 
ENDBRANCH   4   5
ENDBRANCH   2   4
TORSDOF 2
ENDMDL
MODEL 7
REMARK VINA RESULT:      -2.6     11.784     12.461
REMARK  2 active torsions:
REMARK  status: ('A' for Active; 'I' for Inactive)
REMARK    1  A    between atoms: C2_2  and  C4_4 
REMARK    2  A    between atoms: C4_4  and  S6_6 
ROOT
HETATM    1  C1  UNL     1     -34.129  13.650  -3.833  1.00 20.00     0.201 A 
HETATM    2  C2  UNL     1     -35.539  13.882  -4.299  1.00 20.00     0.154 A 
HETATM    3  O5  UNL     1     -34.874  12.633  -4.520  1.00 20.00    -0.380 OA
ENDROOT
BRANCH   2   4
HETATM    4  C4  UNL     1     -35.822  14.658  -5.534  1.00 20.00     0.107 C 
BRANCH   4   5
HETATM    5  S6  UNL     1     -37.303  15.705  -5.341  1.00 20.00    -0.171 SA
HETATM    6  C3  UNL     1     -38.061  14.821  -3.959  1.00 20.00     0.089 C 
ENDBRANCH   4   5
ENDBRANCH   2   4
TORSDOF 2
ENDMDL
MODEL 8
REMARK VINA RESULT:      -2.5     11.956     12.520
REMARK  2 active torsions:
REMARK  status: ('A' for Active; 'I' for Inactive)
REMARK    1  A    between atoms: C2_2  and  C4_4 
REMARK    2  A    between atoms: C4_4  and  S6_6 
ROOT
HETATM    1  C1  UNL     1     -38.045  15.169  -4.730  1.00 20.00     0.201 A 
HETATM    2  C2  UNL     1     -36.838  14.450  -4.196  1.00 20.00     0.154 A 
HETATM    3  O5  UNL     1     -38.135  14.261  -3.621  1.00 20.00    -0.380 OA
ENDROOT
BRANCH   2   4
HETATM    4  C4  UNL     1     -35.864  15.138  -3.310  1.00 20.00     0.107 C 
BRANCH   4   5
HETATM    5  S6  UNL     1     -34.167  14.520  -3.574  1.00 20.00    -0.171 SA
HETATM    6  C3  UNL     1     -34.547  13.257  -4.809  1.00 20.00     0.089 C 
ENDBRANCH   4   5
ENDBRANCH   2   4
TORSDOF 2
ENDMDL
MODEL 9
REMARK VINA RESULT:      -2.4     11.753     12.628
REMARK  2 active torsions:
REMARK  status: ('A' for Active; 'I' for Inactive)
REMARK    1  A    between atoms: C2_2  and  C4_4 
REMARK    2  A    between atoms: C4_4  and  S6_6 
ROOT
HETATM    1  C1  UNL     1     -32.995  14.553  -3.750  1.00 20.00     0.201 A 
HETATM    2  C2  UNL     1     -34.278  13.803  -3.976  1.00 20.00     0.154 A 
HETATM    3  O5  UNL     1     -33.073  13.126  -3.604  1.00 20.00    -0.380 OA
ENDROOT
BRANCH   2   4
HETATM    4  C4  UNL     1     -34.758  13.499  -5.349  1.00 20.00     0.107 C 
BRANCH   4   5
HETATM    5  S6  UNL     1     -35.871  14.803  -5.973  1.00 20.00    -0.171 SA
HETATM    6  C3  UNL     1     -35.589  14.554  -7.740  1.00 20.00     0.089 C 
ENDBRANCH   4   5
ENDBRANCH   2   4
TORSDOF 2
ENDMDL
