MODEL 1
REMARK VINA RESULT:      -4.8      0.000      0.000
REMARK  1 active torsions:
REMARK  status: ('A' for Active; 'I' for Inactive)
REMARK    1  A    between atoms: C5_5  and  O12_12 
ROOT
HETATM    1  C1  UNL     1     -34.863  13.297  -4.378  1.00 20.00     0.006 C 
HETATM    2  C2  UNL     1     -33.866  14.059  -3.495  1.00 20.00     0.012 C 
HETATM    3  C3  UNL     1     -35.994  15.134  -3.426  1.00 20.00     0.017 C 
HETATM    4  C4  UNL     1     -35.886  14.381  -4.760  1.00 20.00    -0.003 C 
HETATM    5  C5  UNL     1     -34.292  16.208  -4.739  1.00 20.00     0.137 C 
HETATM    6  C6  UNL     1     -34.498  15.467  -3.386  1.00 20.00    -0.017 C 
HETATM    7  C7  UNL     1     -35.268  15.461  -5.706  1.00 20.00    -0.017 C 
HETATM    8  C8  UNL     1     -34.051  16.232  -2.155  1.00 20.00     0.018 C 
HETATM    9  C9  UNL     1     -34.507  14.866  -6.901  1.00 20.00     0.018 C 
HETATM   10  C10 UNL     1     -36.388  16.358  -6.275  1.00 20.00     0.018 C 
ENDROOT
BRANCH   5  11
HETATM   11  O12 UNL     1     -34.610  17.586  -4.606  1.00 20.00    -0.389 OA
HETATM   12  C11 UNL     1     -33.566  18.413  -5.103  1.00 20.00     0.202 C 
ENDBRANCH   5  11
TORSDOF 1
ENDMDL
MODEL 2
REMARK VINA RESULT:      -4.5      1.693      3.484
REMARK  1 active torsions:
REMARK  status: ('A' for Active; 'I' for Inactive)
REMARK    1  A    between atoms: C5_5  and  O12_12 
ROOT
HETATM    1  C1  UNL     1     -32.613  14.988  -3.436  1.00 20.00     0.006 C 
HETATM    2  C2  UNL     1     -33.478  13.825  -3.941  1.00 20.00     0.012 C 
HETATM    3  C3  UNL     1     -33.876  15.765  -5.269  1.00 20.00     0.017 C 
HETATM    4  C4  UNL     1     -33.406  16.229  -3.882  1.00 20.00    -0.003 C 
HETATM    5  C5  UNL     1     -35.584  15.183  -3.684  1.00 20.00     0.137 C 
HETATM    6  C6  UNL     1     -34.611  14.540  -4.714  1.00 20.00    -0.017 C 
HETATM    7  C7  UNL     1     -34.753  16.374  -3.103  1.00 20.00    -0.017 C 
HETATM    8  C8  UNL     1     -35.267  13.664  -5.764  1.00 20.00     0.018 C 
HETATM    9  C9  UNL     1     -34.597  16.242  -1.580  1.00 20.00     0.018 C 
HETATM   10  C10 UNL     1     -35.370  17.760  -3.383  1.00 20.00     0.018 C 
ENDROOT
BRANCH   5  11
HETATM   11  O12 UNL     1     -36.775  15.616  -4.325  1.00 20.00    -0.389 OA
HETATM   12  C11 UNL     1     -37.932  15.075  -3.701  1.00 20.00     0.202 C 
ENDBRANCH   5  11
TORSDOF 1
ENDMDL
MODEL 3
REMARK VINA RESULT:      -4.5      1.388      3.035
REMARK  1 active torsions:
REMARK  status: ('A' for Active; 'I' for Inactive)
REMARK    1  A    between atoms: C5_5  and  O12_12 
ROOT
HETATM    1  C1  UNL     1     -34.016  16.439  -2.127  1.00 20.00     0.006 C 
HETATM    2  C2  UNL     1     -33.971  17.462  -3.270  1.00 20.00     0.012 C 
HETATM    3  C3  UNL     1     -36.022  16.249  -3.352  1.00 20.00     0.017 C 
HETATM    4  C4  UNL     1     -34.974  15.361  -2.665  1.00 20.00    -0.003 C 
HETATM    5  C5  UNL     1     -34.367  15.667  -4.992  1.00 20.00     0.137 C 
HETATM    6  C6  UNL     1     -34.996  16.902  -4.284  1.00 20.00    -0.017 C 
HETATM    7  C7  UNL     1     -34.357  14.579  -3.869  1.00 20.00    -0.017 C 
HETATM    8  C8  UNL     1     -35.563  17.960  -5.211  1.00 20.00     0.018 C 
HETATM    9  C9  UNL     1     -32.928  14.076  -3.607  1.00 20.00     0.018 C 
HETATM   10  C10 UNL     1     -35.226  13.345  -4.189  1.00 20.00     0.018 C 
ENDROOT
BRANCH   5  11
HETATM   11  O12 UNL     1     -35.151  15.282  -6.112  1.00 20.00    -0.389 OA
HETATM   12  C11 UNL     1     -34.356  15.141  -7.283  1.00 20.00     0.202 C 
ENDBRANCH   5  11
TORSDOF 1
ENDMDL
MODEL 4
REMARK VINA RESULT:      -4.5      1.408      2.667
REMARK  1 active torsions:
REMARK  status: ('A' for Active; 'I' for Inactive)
REMARK    1  A    between atoms: C5_5  and  O12_12 
ROOT
HETATM    1  C1  UNL     1     -33.966  15.004  -3.176  1.00 20.00     0.006 C 
HETATM    2  C2  UNL     1     -35.382  15.472  -2.815  1.00 20.00     0.012 C 
HETATM    3  C3  UNL     1     -35.497  13.709  -4.416  1.00 20.00     0.017 C 
HETATM    4  C4  UNL     1     -34.145  14.417  -4.588  1.00 20.00    -0.003 C 
HETATM    5  C5  UNL     1     -35.929  15.927  -5.231  1.00 20.00     0.137 C 
HETATM    6  C6  UNL     1     -36.228  14.997  -4.020  1.00 20.00    -0.017 C 
HETATM    7  C7  UNL     1     -34.476  15.521  -5.643  1.00 20.00    -0.017 C 
HETATM    8  C8  UNL     1     -37.697  14.817  -3.689  1.00 20.00     0.018 C 
HETATM    9  C9  UNL     1     -33.531  16.731  -5.581  1.00 20.00     0.018 C 
HETATM   10  C10 UNL     1     -34.374  14.930  -7.065  1.00 20.00     0.018 C 
ENDROOT
BRANCH   5  11
HETATM   11  O12 UNL     1     -36.869  15.706  -6.273  1.00 20.00    -0.389 OA
HETATM   12  C11 UNL     1     -37.444  16.925  -6.725  1.00 20.00     0.202 C 
ENDBRANCH   5  11
TORSDOF 1
ENDMDL
MODEL 5
REMARK VINA RESULT:      -4.5      1.710      3.160
REMARK  1 active torsions:
REMARK  status: ('A' for Active; 'I' for Inactive)
REMARK    1  A    between atoms: C5_5  and  O12_12 
ROOT
HETATM    1  C1  UNL     1     -33.340  16.750  -4.835  1.00 20.00     0.006 C 
HETATM    2  C2  UNL     1     -34.539  17.581  -4.358  1.00 20.00     0.012 C 
HETATM    3  C3  UNL     1     -34.082  15.846  -2.788  1.00 20.00     0.017 C 
HETATM    4  C4  UNL     1     -33.575  15.386  -4.163  1.00 20.00    -0.003 C 
HETATM    5  C5  UNL     1     -35.995  15.532  -4.206  1.00 20.00     0.137 C 
HETATM    6  C6  UNL     1     -35.261  16.626  -3.379  1.00 20.00    -0.017 C 
HETATM    7  C7  UNL     1     -34.823  14.651  -4.751  1.00 20.00    -0.017 C 
HETATM    8  C8  UNL     1     -36.119  17.350  -2.358  1.00 20.00     0.018 C 
HETATM    9  C9  UNL     1     -34.841  14.606  -6.288  1.00 20.00     0.018 C 
HETATM   10  C10 UNL     1     -34.854  13.192  -4.249  1.00 20.00     0.018 C 
ENDROOT
BRANCH   5  11
HETATM   11  O12 UNL     1     -36.886  14.796  -3.380  1.00 20.00    -0.389 OA
HETATM   12  C11 UNL     1     -38.201  14.775  -3.919  1.00 20.00     0.202 C 
ENDBRANCH   5  11
TORSDOF 1
ENDMDL
MODEL 6
REMARK VINA RESULT:      -4.4      1.012      3.047
REMARK  1 active torsions:
REMARK  status: ('A' for Active; 'I' for Inactive)
REMARK    1  A    between atoms: C5_5  and  O12_12 
ROOT
HETATM    1  C1  UNL     1     -36.333  14.045  -4.139  1.00 20.00     0.006 C 
HETATM    2  C2  UNL     1     -36.741  15.118  -5.158  1.00 20.00     0.012 C 
HETATM    3  C3  UNL     1     -34.637  14.177  -5.772  1.00 20.00     0.017 C 
HETATM    4  C4  UNL     1     -34.798  14.026  -4.252  1.00 20.00    -0.003 C 
HETATM    5  C5  UNL     1     -34.587  16.376  -4.807  1.00 20.00     0.137 C 
HETATM    6  C6  UNL     1     -35.395  15.509  -5.815  1.00 20.00    -0.017 C 
HETATM    7  C7  UNL     1     -34.155  15.344  -3.714  1.00 20.00    -0.017 C 
HETATM    8  C8  UNL     1     -35.554  16.105  -7.200  1.00 20.00     0.018 C 
HETATM    9  C9  UNL     1     -34.678  15.761  -2.330  1.00 20.00     0.018 C 
HETATM   10  C10 UNL     1     -32.627  15.167  -3.594  1.00 20.00     0.018 C 
ENDROOT
BRANCH   5  11
HETATM   11  O12 UNL     1     -33.474  16.981  -5.451  1.00 20.00    -0.389 OA
HETATM   12  C11 UNL     1     -33.475  18.392  -5.280  1.00 20.00     0.202 C 
ENDBRANCH   5  11
TORSDOF 1
ENDMDL
MODEL 7
REMARK VINA RESULT:      -4.4      1.353      3.253
REMARK  1 active torsions:
REMARK  status: ('A' for Active; 'I' for Inactive)
REMARK    1  A    between atoms: C5_5  and  O12_12 
ROOT
HETATM    1  C1  UNL     1     -33.327  14.187  -3.710  1.00 20.00     0.006 C 
HETATM    2  C2  UNL     1     -34.626  13.778  -4.418  1.00 20.00     0.012 C 
HETATM    3  C3  UNL     1     -33.724  15.731  -5.448  1.00 20.00     0.017 C 
HETATM    4  C4  UNL     1     -33.241  15.698  -3.990  1.00 20.00    -0.003 C 
HETATM    5  C5  UNL     1     -35.639  16.051  -4.034  1.00 20.00     0.137 C 
HETATM    6  C6  UNL     1     -35.074  15.085  -5.114  1.00 20.00    -0.017 C 
HETATM    7  C7  UNL     1     -34.362  16.495  -3.248  1.00 20.00    -0.017 C 
HETATM    8  C8  UNL     1     -35.978  14.850  -6.309  1.00 20.00     0.018 C 
HETATM    9  C9  UNL     1     -34.484  16.138  -1.758  1.00 20.00     0.018 C 
HETATM   10  C10 UNL     1     -34.071  18.008  -3.335  1.00 20.00     0.018 C 
ENDROOT
BRANCH   5  11
HETATM   11  O12 UNL     1     -36.306  17.147  -4.645  1.00 20.00    -0.389 OA
HETATM   12  C11 UNL     1     -37.605  17.338  -4.101  1.00 20.00     0.202 C 
ENDBRANCH   5  11
TORSDOF 1
ENDMDL
MODEL 8
REMARK VINA RESULT:      -4.4      1.286      3.209
REMARK  1 active torsions:
REMARK  status: ('A' for Active; 'I' for Inactive)
REMARK    1  A    between atoms: C5_5  and  O12_12 
ROOT
HETATM    1  C1  UNL     1     -35.340  15.982  -6.378  1.00 20.00     0.006 C 
HETATM    2  C2  UNL     1     -35.524  17.272  -5.568  1.00 20.00     0.012 C 
HETATM    3  C3  UNL     1     -33.286  16.481  -5.334  1.00 20.00     0.017 C 
HETATM    4  C4  UNL     1     -34.184  15.275  -5.648  1.00 20.00    -0.003 C 
HETATM    5  C5  UNL     1     -34.745  16.144  -3.455  1.00 20.00     0.137 C 
HETATM    6  C6  UNL     1     -34.376  17.203  -4.533  1.00 20.00    -0.017 C 
HETATM    7  C7  UNL     1     -34.603  14.789  -4.223  1.00 20.00    -0.017 C 
HETATM    8  C8  UNL     1     -33.972  18.562  -3.994  1.00 20.00     0.018 C 
HETATM    9  C9  UNL     1     -35.927  14.009  -4.206  1.00 20.00     0.018 C 
HETATM   10  C10 UNL     1     -33.514  13.858  -3.649  1.00 20.00     0.018 C 
ENDROOT
BRANCH   5  11
HETATM   11  O12 UNL     1     -33.861  16.233  -2.346  1.00 20.00    -0.389 OA
HETATM   12  C11 UNL     1     -34.565  16.475  -1.135  1.00 20.00     0.202 C 
ENDBRANCH   5  11
TORSDOF 1
ENDMDL
MODEL 9
REMARK VINA RESULT:      -4.3      1.481      3.100
REMARK  1 active torsions:
REMARK  status: ('A' for Active; 'I' for Inactive)
REMARK    1  A    between atoms: C5_5  and  O12_12 
ROOT
HETATM    1  C1  UNL     1     -34.531  16.538  -2.381  1.00 20.00     0.006 C 
HETATM    2  C2  UNL     1     -34.966  15.095  -2.668  1.00 20.00     0.012 C 
HETATM    3  C3  UNL     1     -32.919  15.562  -3.798  1.00 20.00     0.017 C 
HETATM    4  C4  UNL     1     -33.667  16.890  -3.605  1.00 20.00    -0.003 C 
HETATM    5  C5  UNL     1     -34.901  15.491  -5.154  1.00 20.00     0.137 C 
HETATM    6  C6  UNL     1     -34.209  14.752  -3.973  1.00 20.00    -0.017 C 
HETATM    7  C7  UNL     1     -34.518  16.988  -4.912  1.00 20.00    -0.017 C 
HETATM    8  C8  UNL     1     -34.001  13.263  -4.173  1.00 20.00     0.018 C 
HETATM    9  C9  UNL     1     -35.777  17.857  -4.761  1.00 20.00     0.018 C 
HETATM   10  C10 UNL     1     -33.668  17.605  -6.043  1.00 20.00     0.018 C 
ENDROOT
BRANCH   5  11
HETATM   11  O12 UNL     1     -34.418  15.003  -6.398  1.00 20.00    -0.389 OA
HETATM   12  C11 UNL     1     -35.480  14.581  -7.243  1.00 20.00     0.202 C 
ENDBRANCH   5  11
TORSDOF 1
ENDMDL
