MODEL 1
REMARK VINA RESULT:      -5.1      0.000      0.000
REMARK  0 active torsions:
REMARK  status: ('A' for Active; 'I' for Inactive)
ROOT
HETATM    1  C1  UNL     1     -34.044   5.086   2.717  1.00 20.00     0.014 A 
HETATM    2  C2  UNL     1     -33.227   6.002   2.051  1.00 20.00     0.024 A 
HETATM    3  C3  UNL     1     -35.097   4.313   4.791  1.00 20.00     0.031 A 
HETATM    4  C4  UNL     1     -32.872   7.199   4.118  1.00 20.00     0.039 A 
HETATM    5  C5  UNL     1     -35.287   4.508   6.150  1.00 20.00     0.119 A 
HETATM    6  C6  UNL     1     -34.284   5.214   4.095  1.00 20.00    -0.021 A 
HETATM    7  C7  UNL     1     -33.692   6.283   4.799  1.00 20.00     0.016 A 
HETATM    8  C8  UNL     1     -32.643   7.056   2.750  1.00 20.00     0.035 A 
HETATM    9  C9  UNL     1     -33.954   6.378   6.167  1.00 20.00     0.136 A 
HETATM   10  N10 UNL     1     -34.736   5.518   6.857  1.00 20.00    -0.248 NA
HETATM   11 CL11 UNL     1     -31.638   8.182   1.922  1.00 20.00    -0.084 Cl
HETATM   12 CL12 UNL     1     -33.315   7.618   7.185  1.00 20.00    -0.061 Cl
ENDROOT
TORSDOF 0
ENDMDL
MODEL 2
REMARK VINA RESULT:      -4.8     12.304     13.767
REMARK  0 active torsions:
REMARK  status: ('A' for Active; 'I' for Inactive)
ROOT
HETATM    1  C1  UNL     1     -33.796  18.107  -3.837  1.00 20.00     0.014 A 
HETATM    2  C2  UNL     1     -34.000  18.063  -2.456  1.00 20.00     0.024 A 
HETATM    3  C3  UNL     1     -33.823  16.980  -6.013  1.00 20.00     0.031 A 
HETATM    4  C4  UNL     1     -34.655  15.744  -2.620  1.00 20.00     0.039 A 
HETATM    5  C5  UNL     1     -34.065  15.814  -6.725  1.00 20.00     0.119 A 
HETATM    6  C6  UNL     1     -34.019  16.968  -4.628  1.00 20.00    -0.021 A 
HETATM    7  C7  UNL     1     -34.452  15.777  -4.010  1.00 20.00     0.016 A 
HETATM    8  C8  UNL     1     -34.428  16.885  -1.850  1.00 20.00     0.035 A 
HETATM    9  C9  UNL     1     -34.663  14.665  -4.829  1.00 20.00     0.136 A 
HETATM   10  N10 UNL     1     -34.480  14.656  -6.168  1.00 20.00    -0.248 NA
HETATM   11 CL11 UNL     1     -34.678  16.838  -0.147  1.00 20.00    -0.084 Cl
HETATM   12 CL12 UNL     1     -35.193  13.128  -4.247  1.00 20.00    -0.061 Cl
ENDROOT
TORSDOF 0
ENDMDL
MODEL 3
REMARK VINA RESULT:      -4.8     12.586     13.555
REMARK  0 active torsions:
REMARK  status: ('A' for Active; 'I' for Inactive)
ROOT
HETATM    1  C1  UNL     1     -34.780  14.382  -3.585  1.00 20.00     0.014 A 
HETATM    2  C2  UNL     1     -34.783  14.080  -4.948  1.00 20.00     0.024 A 
HETATM    3  C3  UNL     1     -34.434  16.005  -1.780  1.00 20.00     0.031 A 
HETATM    4  C4  UNL     1     -34.121  16.346  -5.458  1.00 20.00     0.039 A 
HETATM    5  C5  UNL     1     -34.094  17.300  -1.421  1.00 20.00     0.119 A 
HETATM    6  C6  UNL     1     -34.446  15.671  -3.139  1.00 20.00    -0.021 A 
HETATM    7  C7  UNL     1     -34.114  16.661  -4.088  1.00 20.00     0.016 A 
HETATM    8  C8  UNL     1     -34.454  15.060  -5.882  1.00 20.00     0.035 A 
HETATM    9  C9  UNL     1     -33.788  17.931  -3.608  1.00 20.00     0.136 A 
HETATM   10  N10 UNL     1     -33.771  18.273  -2.300  1.00 20.00    -0.248 NA
HETATM   11 CL11 UNL     1     -34.459  14.681  -7.561  1.00 20.00    -0.084 Cl
HETATM   12 CL12 UNL     1     -33.357  19.261  -4.621  1.00 20.00    -0.061 Cl
ENDROOT
TORSDOF 0
ENDMDL
MODEL 4
REMARK VINA RESULT:      -4.7     12.309     13.568
REMARK  0 active torsions:
REMARK  status: ('A' for Active; 'I' for Inactive)
ROOT
HETATM    1  C1  UNL     1     -34.384  15.407  -2.299  1.00 20.00     0.014 A 
HETATM    2  C2  UNL     1     -34.032  16.730  -2.025  1.00 20.00     0.024 A 
HETATM    3  C3  UNL     1     -34.902  13.653  -3.931  1.00 20.00     0.031 A 
HETATM    4  C4  UNL     1     -33.999  17.218  -4.389  1.00 20.00     0.039 A 
HETATM    5  C5  UNL     1     -35.046  13.301  -5.265  1.00 20.00     0.119 A 
HETATM    6  C6  UNL     1     -34.550  14.972  -3.624  1.00 20.00    -0.021 A 
HETATM    7  C7  UNL     1     -34.354  15.889  -4.677  1.00 20.00     0.016 A 
HETATM    8  C8  UNL     1     -33.840  17.633  -3.067  1.00 20.00     0.035 A 
HETATM    9  C9  UNL     1     -34.527  15.420  -5.981  1.00 20.00     0.136 A 
HETATM   10  N10 UNL     1     -34.867  14.151  -6.298  1.00 20.00    -0.248 NA
HETATM   11 CL11 UNL     1     -33.405  19.262  -2.722  1.00 20.00    -0.084 Cl
HETATM   12 CL12 UNL     1     -34.330  16.400  -7.390  1.00 20.00    -0.061 Cl
ENDROOT
TORSDOF 0
ENDMDL
MODEL 5
REMARK VINA RESULT:      -4.7     12.536     13.651
REMARK  0 active torsions:
REMARK  status: ('A' for Active; 'I' for Inactive)
ROOT
HETATM    1  C1  UNL     1     -33.251  15.744  -4.403  1.00 20.00     0.014 A 
HETATM    2  C2  UNL     1     -33.362  16.053  -3.046  1.00 20.00     0.024 A 
HETATM    3  C3  UNL     1     -34.316  15.133  -6.524  1.00 20.00     0.031 A 
HETATM    4  C4  UNL     1     -35.757  15.780  -3.171  1.00 20.00     0.039 A 
HETATM    5  C5  UNL     1     -35.491  14.852  -7.205  1.00 20.00     0.119 A 
HETATM    6  C6  UNL     1     -34.394  15.447  -5.162  1.00 20.00    -0.021 A 
HETATM    7  C7  UNL     1     -35.658  15.466  -4.538  1.00 20.00     0.016 A 
HETATM    8  C8  UNL     1     -34.612  16.071  -2.432  1.00 20.00     0.035 A 
HETATM    9  C9  UNL     1     -36.771  15.166  -5.325  1.00 20.00     0.136 A 
HETATM   10  N10 UNL     1     -36.717  14.861  -6.641  1.00 20.00    -0.248 NA
HETATM   11 CL11 UNL     1     -34.741  16.454  -0.759  1.00 20.00    -0.084 Cl
HETATM   12 CL12 UNL     1     -38.393  15.142  -4.731  1.00 20.00    -0.061 Cl
ENDROOT
TORSDOF 0
ENDMDL
MODEL 6
REMARK VINA RESULT:      -4.6     11.926     12.858
REMARK  0 active torsions:
REMARK  status: ('A' for Active; 'I' for Inactive)
ROOT
HETATM    1  C1  UNL     1     -33.670  16.318  -2.352  1.00 20.00     0.014 A 
HETATM    2  C2  UNL     1     -34.206  17.491  -1.816  1.00 20.00     0.024 A 
HETATM    3  C3  UNL     1     -33.989  14.208  -3.558  1.00 20.00     0.031 A 
HETATM    4  C4  UNL     1     -36.402  16.847  -2.585  1.00 20.00     0.039 A 
HETATM    5  C5  UNL     1     -34.869  13.346  -4.195  1.00 20.00     0.119 A 
HETATM    6  C6  UNL     1     -34.495  15.393  -3.011  1.00 20.00    -0.021 A 
HETATM    7  C7  UNL     1     -35.874  15.663  -3.127  1.00 20.00     0.016 A 
HETATM    8  C8  UNL     1     -35.568  17.754  -1.932  1.00 20.00     0.035 A 
HETATM    9  C9  UNL     1     -36.663  14.720  -3.790  1.00 20.00     0.136 A 
HETATM   10  N10 UNL     1     -36.193  13.571  -4.325  1.00 20.00    -0.248 NA
HETATM   11 CL11 UNL     1     -36.222  19.203  -1.270  1.00 20.00    -0.084 Cl
HETATM   12 CL12 UNL     1     -38.366  14.885  -4.025  1.00 20.00    -0.061 Cl
ENDROOT
TORSDOF 0
ENDMDL
MODEL 7
REMARK VINA RESULT:      -4.6     11.762     12.741
REMARK  0 active torsions:
REMARK  status: ('A' for Active; 'I' for Inactive)
ROOT
HETATM    1  C1  UNL     1     -36.358  17.446  -2.236  1.00 20.00     0.014 A 
HETATM    2  C2  UNL     1     -35.345  18.112  -1.544  1.00 20.00     0.024 A 
HETATM    3  C3  UNL     1     -37.089  15.545  -3.599  1.00 20.00     0.031 A 
HETATM    4  C4  UNL     1     -33.780  16.376  -2.151  1.00 20.00     0.039 A 
HETATM    5  C5  UNL     1     -36.750  14.355  -4.225  1.00 20.00     0.119 A 
HETATM    6  C6  UNL     1     -36.095  16.236  -2.897  1.00 20.00    -0.021 A 
HETATM    7  C7  UNL     1     -34.793  15.697  -2.851  1.00 20.00     0.016 A 
HETATM    8  C8  UNL     1     -34.059  17.578  -1.501  1.00 20.00     0.035 A 
HETATM    9  C9  UNL     1     -34.569  14.492  -3.520  1.00 20.00     0.136 A 
HETATM   10  N10 UNL     1     -35.515  13.810  -4.203  1.00 20.00    -0.248 NA
HETATM   11 CL11 UNL     1     -32.815  18.403  -0.645  1.00 20.00    -0.084 Cl
HETATM   12 CL12 UNL     1     -33.041  13.689  -3.571  1.00 20.00    -0.061 Cl
ENDROOT
TORSDOF 0
ENDMDL
MODEL 8
REMARK VINA RESULT:      -4.5     12.662     13.427
REMARK  0 active torsions:
REMARK  status: ('A' for Active; 'I' for Inactive)
ROOT
HETATM    1  C1  UNL     1     -31.011  19.263   2.688  1.00 20.00     0.014 A 
HETATM    2  C2  UNL     1     -31.249  19.185   4.062  1.00 20.00     0.024 A 
HETATM    3  C3  UNL     1     -31.819  19.023   0.387  1.00 20.00     0.031 A 
HETATM    4  C4  UNL     1     -33.523  18.493   3.635  1.00 20.00     0.039 A 
HETATM    5  C5  UNL     1     -32.873  18.704  -0.456  1.00 20.00     0.119 A 
HETATM    6  C6  UNL     1     -32.027  18.955   1.769  1.00 20.00    -0.021 A 
HETATM    7  C7  UNL     1     -33.294  18.567   2.250  1.00 20.00     0.016 A 
HETATM    8  C8  UNL     1     -32.502  18.802   4.534  1.00 20.00     0.035 A 
HETATM    9  C9  UNL     1     -34.279  18.269   1.307  1.00 20.00     0.136 A 
HETATM   10  N10 UNL     1     -34.099  18.329  -0.032  1.00 20.00    -0.248 NA
HETATM   11 CL11 UNL     1     -32.789  18.709   6.228  1.00 20.00    -0.084 Cl
HETATM   12 CL12 UNL     1     -35.885  17.778   1.713  1.00 20.00    -0.061 Cl
ENDROOT
TORSDOF 0
ENDMDL
MODEL 9
REMARK VINA RESULT:      -4.5     12.510     14.301
REMARK  0 active torsions:
REMARK  status: ('A' for Active; 'I' for Inactive)
ROOT
HETATM    1  C1  UNL     1     -34.786  14.119  -4.243  1.00 20.00     0.014 A 
HETATM    2  C2  UNL     1     -34.456  14.754  -3.044  1.00 20.00     0.024 A 
HETATM    3  C3  UNL     1     -35.091  14.221  -6.673  1.00 20.00     0.031 A 
HETATM    4  C4  UNL     1     -34.075  16.820  -4.234  1.00 20.00     0.039 A 
HETATM    5  C5  UNL     1     -35.047  14.989  -7.827  1.00 20.00     0.119 A 
HETATM    6  C6  UNL     1     -34.765  14.828  -5.455  1.00 20.00    -0.021 A 
HETATM    7  C7  UNL     1     -34.406  16.192  -5.447  1.00 20.00     0.016 A 
HETATM    8  C8  UNL     1     -34.101  16.101  -3.040  1.00 20.00     0.035 A 
HETATM    9  C9  UNL     1     -34.396  16.864  -6.671  1.00 20.00     0.136 A 
HETATM   10  N10 UNL     1     -34.707  16.296  -7.858  1.00 20.00    -0.248 NA
HETATM   11 CL11 UNL     1     -33.695  16.876  -1.558  1.00 20.00    -0.084 Cl
HETATM   12 CL12 UNL     1     -33.982  18.531  -6.851  1.00 20.00    -0.061 Cl
ENDROOT
TORSDOF 0
ENDMDL
