MODEL 1
REMARK VINA RESULT:      -3.6      0.000      0.000
REMARK  1 active torsions:
REMARK  status: ('A' for Active; 'I' for Inactive)
REMARK    1  A    between atoms: C3_3  and  C6_6 
ROOT
HETATM    1  C1  UNL     1     -33.619  16.613  -5.733  1.00 20.00     0.282 C 
HETATM    2  C2  UNL     1     -34.179  15.582  -6.699  1.00 20.00     0.106 C 
HETATM    3  C3  UNL     1     -33.950  14.853  -4.169  1.00 20.00     0.201 C 
HETATM    4  C4  UNL     1     -33.150  13.652  -3.661  1.00 20.00     0.061 C 
HETATM    5  N7  UNL     1     -33.009  15.890  -4.617  1.00 20.00     0.103 N 
HETATM    6  S8  UNL     1     -34.945  14.353  -5.621  1.00 20.00    -0.127 SA
HETATM    7  H21 UNL     1     -32.160  15.440  -4.964  1.00 20.00     0.318 HD
ENDROOT
BRANCH   3   8
HETATM    8  C6  UNL     1     -34.882  15.382  -3.073  1.00 20.00     0.048 C 
HETATM    9  C5  UNL     1     -34.148  16.238  -2.096  1.00 20.00     0.009 C 
ENDBRANCH   3   8
TORSDOF 1
ENDMDL
MODEL 2
REMARK VINA RESULT:      -3.6      1.042      1.076
REMARK  1 active torsions:
REMARK  status: ('A' for Active; 'I' for Inactive)
REMARK    1  A    between atoms: C3_3  and  C6_6 
ROOT
HETATM    1  C1  UNL     1     -33.672  17.004  -5.638  1.00 20.00     0.282 C 
HETATM    2  C2  UNL     1     -35.069  16.492  -5.949  1.00 20.00     0.106 C 
HETATM    3  C3  UNL     1     -33.808  15.369  -3.917  1.00 20.00     0.201 C 
HETATM    4  C4  UNL     1     -33.507  13.875  -3.776  1.00 20.00     0.061 C 
HETATM    5  N7  UNL     1     -32.944  15.925  -4.968  1.00 20.00     0.103 N 
HETATM    6  S8  UNL     1     -35.542  15.593  -4.457  1.00 20.00    -0.127 SA
HETATM    7  H21 UNL     1     -32.756  15.199  -5.661  1.00 20.00     0.318 HD
ENDROOT
BRANCH   3   8
HETATM    8  C6  UNL     1     -33.596  16.089  -2.581  1.00 20.00     0.048 C 
HETATM    9  C5  UNL     1     -34.867  16.195  -1.808  1.00 20.00     0.009 C 
ENDBRANCH   3   8
TORSDOF 1
ENDMDL
MODEL 3
REMARK VINA RESULT:      -3.4      1.986      2.565
REMARK  1 active torsions:
REMARK  status: ('A' for Active; 'I' for Inactive)
REMARK    1  A    between atoms: C3_3  and  C6_6 
ROOT
HETATM    1  C1  UNL     1     -36.265  14.294  -4.151  1.00 20.00     0.282 C 
HETATM    2  C2  UNL     1     -35.133  13.356  -4.538  1.00 20.00     0.106 C 
HETATM    3  C3  UNL     1     -34.454  15.664  -3.445  1.00 20.00     0.201 C 
HETATM    4  C4  UNL     1     -33.537  16.711  -4.080  1.00 20.00     0.061 C 
HETATM    5  N7  UNL     1     -35.734  15.659  -4.167  1.00 20.00     0.103 N 
HETATM    6  S8  UNL     1     -33.709  14.003  -3.638  1.00 20.00    -0.127 SA
HETATM    7  H21 UNL     1     -35.566  15.916  -5.141  1.00 20.00     0.318 HD
ENDROOT
BRANCH   3   8
HETATM    8  C6  UNL     1     -34.655  15.959  -1.954  1.00 20.00     0.048 C 
HETATM    9  C5  UNL     1     -33.814  17.106  -1.505  1.00 20.00     0.009 C 
ENDBRANCH   3   8
TORSDOF 1
ENDMDL
MODEL 4
REMARK VINA RESULT:      -3.4     12.891     13.557
REMARK  1 active torsions:
REMARK  status: ('A' for Active; 'I' for Inactive)
REMARK    1  A    between atoms: C3_3  and  C6_6 
ROOT
HETATM    1  C1  UNL     1     -41.565   3.802  -2.308  1.00 20.00     0.282 C 
HETATM    2  C2  UNL     1     -42.863   4.395  -2.832  1.00 20.00     0.106 C 
HETATM    3  C3  UNL     1     -42.097   5.136  -0.413  1.00 20.00     0.201 C 
HETATM    4  C4  UNL     1     -42.920   4.973   0.866  1.00 20.00     0.061 C 
HETATM    5  N7  UNL     1     -41.632   3.811  -0.846  1.00 20.00     0.103 N 
HETATM    6  S8  UNL     1     -43.164   5.803  -1.743  1.00 20.00    -0.127 SA
HETATM    7  H21 UNL     1     -42.317   3.110  -0.561  1.00 20.00     0.318 HD
ENDROOT
BRANCH   3   8
HETATM    8  C6  UNL     1     -40.922   6.092  -0.179  1.00 20.00     0.048 C 
HETATM    9  C5  UNL     1     -41.112   7.382  -0.904  1.00 20.00     0.009 C 
ENDBRANCH   3   8
TORSDOF 1
ENDMDL
MODEL 5
REMARK VINA RESULT:      -3.4      1.949      3.632
REMARK  1 active torsions:
REMARK  status: ('A' for Active; 'I' for Inactive)
REMARK    1  A    between atoms: C3_3  and  C6_6 
ROOT
HETATM    1  C1  UNL     1     -34.886  13.356  -4.546  1.00 20.00     0.282 C 
HETATM    2  C2  UNL     1     -36.090  14.163  -4.088  1.00 20.00     0.106 C 
HETATM    3  C3  UNL     1     -34.470  15.314  -5.830  1.00 20.00     0.201 C 
HETATM    4  C4  UNL     1     -33.748  16.647  -5.623  1.00 20.00     0.061 C 
HETATM    5  N7  UNL     1     -33.850  14.303  -4.962  1.00 20.00     0.103 N 
HETATM    6  S8  UNL     1     -36.218  15.481  -5.314  1.00 20.00    -0.127 SA
HETATM    7  H21 UNL     1     -33.493  14.761  -4.122  1.00 20.00     0.318 HD
ENDROOT
BRANCH   3   8
HETATM    8  C6  UNL     1     -34.414  14.895  -7.303  1.00 20.00     0.048 C 
HETATM    9  C5  UNL     1     -35.778  14.642  -7.852  1.00 20.00     0.009 C 
ENDBRANCH   3   8
TORSDOF 1
ENDMDL
MODEL 6
REMARK VINA RESULT:      -3.4      1.287      1.324
REMARK  1 active torsions:
REMARK  status: ('A' for Active; 'I' for Inactive)
REMARK    1  A    between atoms: C3_3  and  C6_6 
ROOT
HETATM    1  C1  UNL     1     -35.500  15.689  -6.065  1.00 20.00     0.282 C 
HETATM    2  C2  UNL     1     -35.207  14.240  -6.418  1.00 20.00     0.106 C 
HETATM    3  C3  UNL     1     -34.321  15.105  -4.084  1.00 20.00     0.201 C 
HETATM    4  C4  UNL     1     -32.862  15.081  -3.625  1.00 20.00     0.061 C 
HETATM    5  N7  UNL     1     -34.469  16.133  -5.125  1.00 20.00     0.103 N 
HETATM    6  S8  UNL     1     -34.749  13.494  -4.840  1.00 20.00    -0.127 SA
HETATM    7  H21 UNL     1     -33.591  16.212  -5.640  1.00 20.00     0.318 HD
ENDROOT
BRANCH   3   8
HETATM    8  C6  UNL     1     -35.254  15.373  -2.898  1.00 20.00     0.048 C 
HETATM    9  C5  UNL     1     -34.571  16.162  -1.832  1.00 20.00     0.009 C 
ENDBRANCH   3   8
TORSDOF 1
ENDMDL
MODEL 7
REMARK VINA RESULT:      -3.3      1.740      2.897
REMARK  1 active torsions:
REMARK  status: ('A' for Active; 'I' for Inactive)
REMARK    1  A    between atoms: C3_3  and  C6_6 
ROOT
HETATM    1  C1  UNL     1     -35.209  13.578  -4.261  1.00 20.00     0.282 C 
HETATM    2  C2  UNL     1     -36.475  14.420  -4.267  1.00 20.00     0.106 C 
HETATM    3  C3  UNL     1     -34.249  15.611  -3.484  1.00 20.00     0.201 C 
HETATM    4  C4  UNL     1     -34.038  16.296  -2.133  1.00 20.00     0.061 C 
HETATM    5  N7  UNL     1     -34.297  14.157  -3.273  1.00 20.00     0.103 N 
HETATM    6  S8  UNL     1     -35.866  16.117  -4.178  1.00 20.00    -0.127 SA
HETATM    7  H21 UNL     1     -34.683  13.969  -2.346  1.00 20.00     0.318 HD
ENDROOT
BRANCH   3   8
HETATM    8  C6  UNL     1     -33.134  15.996  -4.463  1.00 20.00     0.048 C 
HETATM    9  C5  UNL     1     -33.528  17.159  -5.310  1.00 20.00     0.009 C 
ENDBRANCH   3   8
TORSDOF 1
ENDMDL
MODEL 8
REMARK VINA RESULT:      -3.3      1.578      3.095
REMARK  1 active torsions:
REMARK  status: ('A' for Active; 'I' for Inactive)
REMARK    1  A    between atoms: C3_3  and  C6_6 
ROOT
HETATM    1  C1  UNL     1     -34.758  16.290  -1.677  1.00 20.00     0.282 C 
HETATM    2  C2  UNL     1     -35.932  16.812  -2.489  1.00 20.00     0.106 C 
HETATM    3  C3  UNL     1     -33.980  15.635  -3.827  1.00 20.00     0.201 C 
HETATM    4  C4  UNL     1     -33.171  16.272  -4.958  1.00 20.00     0.061 C 
HETATM    5  N7  UNL     1     -33.588  16.262  -2.556  1.00 20.00     0.103 N 
HETATM    6  S8  UNL     1     -35.760  15.980  -4.081  1.00 20.00    -0.127 SA
HETATM    7  H21 UNL     1     -33.311  17.229  -2.736  1.00 20.00     0.318 HD
ENDROOT
BRANCH   3   8
HETATM    8  C6  UNL     1     -33.757  14.119  -3.793  1.00 20.00     0.048 C 
HETATM    9  C5  UNL     1     -34.975  13.377  -4.232  1.00 20.00     0.009 C 
ENDBRANCH   3   8
TORSDOF 1
ENDMDL
MODEL 9
REMARK VINA RESULT:      -3.3      1.853      2.665
REMARK  1 active torsions:
REMARK  status: ('A' for Active; 'I' for Inactive)
REMARK    1  A    between atoms: C3_3  and  C6_6 
ROOT
HETATM    1  C1  UNL     1     -33.341  16.583  -4.756  1.00 20.00     0.282 C 
HETATM    2  C2  UNL     1     -34.664  17.331  -4.781  1.00 20.00     0.106 C 
HETATM    3  C3  UNL     1     -34.593  14.984  -5.993  1.00 20.00     0.201 C 
HETATM    4  C4  UNL     1     -34.934  14.734  -7.463  1.00 20.00     0.061 C 
HETATM    5  N7  UNL     1     -33.310  15.698  -5.922  1.00 20.00     0.103 N 
HETATM    6  S8  UNL     1     -35.866  16.068  -5.248  1.00 20.00    -0.127 SA
HETATM    7  H21 UNL     1     -33.210  16.282  -6.754  1.00 20.00     0.318 HD
ENDROOT
BRANCH   3   8
HETATM    8  C6  UNL     1     -34.538  13.661  -5.222  1.00 20.00     0.048 C 
HETATM    9  C5  UNL     1     -35.534  13.633  -4.111  1.00 20.00     0.009 C 
ENDBRANCH   3   8
TORSDOF 1
ENDMDL
