MODEL 1
REMARK VINA RESULT:      -4.7      0.000      0.000
REMARK  0 active torsions:
REMARK  status: ('A' for Active; 'I' for Inactive)
ROOT
HETATM    1  C1  UNL     1     -34.643   5.246   5.555  1.00 20.00     0.003 C 
HETATM    2  C2  UNL     1     -35.455   5.113   4.268  1.00 20.00     0.003 C 
HETATM    3  C3  UNL     1     -33.657   6.375   5.246  1.00 20.00     0.040 C 
HETATM    4  C4  UNL     1     -34.414   5.296   3.160  1.00 20.00     0.040 C 
HETATM    5  C5  UNL     1     -32.606   7.213   2.975  1.00 20.00     0.207 A 
HETATM    6  C6  UNL     1     -33.415   6.226   3.776  1.00 20.00     0.082 A 
HETATM    7  O7  UNL     1     -32.053   5.965   3.412  1.00 20.00    -0.375 OA
ENDROOT
TORSDOF 0
ENDMDL
MODEL 2
REMARK VINA RESULT:      -4.5      0.825      1.756
REMARK  0 active torsions:
REMARK  status: ('A' for Active; 'I' for Inactive)
ROOT
HETATM    1  C1  UNL     1     -35.513   5.006   4.498  1.00 20.00     0.003 C 
HETATM    2  C2  UNL     1     -34.730   5.202   5.795  1.00 20.00     0.003 C 
HETATM    3  C3  UNL     1     -34.450   5.160   3.407  1.00 20.00     0.040 C 
HETATM    4  C4  UNL     1     -33.753   6.332   5.464  1.00 20.00     0.040 C 
HETATM    5  C5  UNL     1     -32.183   6.510   3.347  1.00 20.00     0.207 A 
HETATM    6  C6  UNL     1     -33.488   6.142   4.002  1.00 20.00     0.082 A 
HETATM    7  O7  UNL     1     -33.334   7.360   3.261  1.00 20.00    -0.375 OA
ENDROOT
TORSDOF 0
ENDMDL
MODEL 3
REMARK VINA RESULT:      -4.2      1.830      2.444
REMARK  0 active torsions:
REMARK  status: ('A' for Active; 'I' for Inactive)
ROOT
HETATM    1  C1  UNL     1     -35.153   4.592   6.420  1.00 20.00     0.003 C 
HETATM    2  C2  UNL     1     -34.115   5.709   6.521  1.00 20.00     0.003 C 
HETATM    3  C3  UNL     1     -35.002   4.086   4.984  1.00 20.00     0.040 C 
HETATM    4  C4  UNL     1     -34.210   6.416   5.166  1.00 20.00     0.040 C 
HETATM    5  C5  UNL     1     -34.195   5.288   2.777  1.00 20.00     0.207 A 
HETATM    6  C6  UNL     1     -34.598   5.314   4.229  1.00 20.00     0.082 A 
HETATM    7  O7  UNL     1     -35.502   5.707   3.188  1.00 20.00    -0.375 OA
ENDROOT
TORSDOF 0
ENDMDL
MODEL 4
REMARK VINA RESULT:      -3.8      1.551      2.972
REMARK  0 active torsions:
REMARK  status: ('A' for Active; 'I' for Inactive)
ROOT
HETATM    1  C1  UNL     1     -34.310   5.407   2.657  1.00 20.00     0.003 C 
HETATM    2  C2  UNL     1     -33.268   6.438   3.090  1.00 20.00     0.003 C 
HETATM    3  C3  UNL     1     -35.211   5.266   3.885  1.00 20.00     0.040 C 
HETATM    4  C4  UNL     1     -32.972   6.067   4.545  1.00 20.00     0.040 C 
HETATM    5  C5  UNL     1     -34.734   5.602   6.459  1.00 20.00     0.207 A 
HETATM    6  C6  UNL     1     -34.273   5.502   5.028  1.00 20.00     0.082 A 
HETATM    7  O7  UNL     1     -34.144   4.403   5.940  1.00 20.00    -0.375 OA
ENDROOT
TORSDOF 0
ENDMDL
MODEL 5
REMARK VINA RESULT:      -3.7      1.688      2.448
REMARK  0 active torsions:
REMARK  status: ('A' for Active; 'I' for Inactive)
ROOT
HETATM    1  C1  UNL     1     -35.038   4.103   5.009  1.00 20.00     0.003 C 
HETATM    2  C2  UNL     1     -35.113   5.161   3.910  1.00 20.00     0.003 C 
HETATM    3  C3  UNL     1     -34.962   4.924   6.298  1.00 20.00     0.040 C 
HETATM    4  C4  UNL     1     -34.141   6.246   4.383  1.00 20.00     0.040 C 
HETATM    5  C5  UNL     1     -34.026   7.344   6.783  1.00 20.00     0.207 A 
HETATM    6  C6  UNL     1     -34.226   6.158   5.876  1.00 20.00     0.082 A 
HETATM    7  O7  UNL     1     -32.986   6.384   6.558  1.00 20.00    -0.375 OA
ENDROOT
TORSDOF 0
ENDMDL
MODEL 6
REMARK VINA RESULT:      -3.6     11.632     11.869
REMARK  0 active torsions:
REMARK  status: ('A' for Active; 'I' for Inactive)
ROOT
HETATM    1  C1  UNL     1     -34.470  15.746  -2.348  1.00 20.00     0.003 C 
HETATM    2  C2  UNL     1     -35.847  16.079  -2.918  1.00 20.00     0.003 C 
HETATM    3  C3  UNL     1     -33.801  14.939  -3.463  1.00 20.00     0.040 C 
HETATM    4  C4  UNL     1     -36.258  14.799  -3.649  1.00 20.00     0.040 C 
HETATM    5  C5  UNL     1     -34.807  13.409  -5.364  1.00 20.00     0.207 A 
HETATM    6  C6  UNL     1     -34.951  14.230  -4.109  1.00 20.00     0.082 A 
HETATM    7  O7  UNL     1     -34.876  12.798  -4.069  1.00 20.00    -0.375 OA
ENDROOT
TORSDOF 0
ENDMDL
MODEL 7
REMARK VINA RESULT:      -3.6      1.740      2.858
REMARK  0 active torsions:
REMARK  status: ('A' for Active; 'I' for Inactive)
ROOT
HETATM    1  C1  UNL     1     -32.876   7.141   4.036  1.00 20.00     0.003 C 
HETATM    2  C2  UNL     1     -32.516   6.101   2.977  1.00 20.00     0.003 C 
HETATM    3  C3  UNL     1     -33.698   6.350   5.056  1.00 20.00     0.040 C 
HETATM    4  C4  UNL     1     -33.790   5.262   2.843  1.00 20.00     0.040 C 
HETATM    5  C5  UNL     1     -35.212   4.203   4.801  1.00 20.00     0.207 A 
HETATM    6  C6  UNL     1     -34.386   5.319   4.216  1.00 20.00     0.082 A 
HETATM    7  O7  UNL     1     -35.818   5.376   4.242  1.00 20.00    -0.375 OA
ENDROOT
TORSDOF 0
ENDMDL
MODEL 8
REMARK VINA RESULT:      -3.6     11.246     12.213
REMARK  0 active torsions:
REMARK  status: ('A' for Active; 'I' for Inactive)
ROOT
HETATM    1  C1  UNL     1     -34.144  13.711  -3.564  1.00 20.00     0.003 C 
HETATM    2  C2  UNL     1     -34.126  15.184  -3.161  1.00 20.00     0.003 C 
HETATM    3  C3  UNL     1     -35.305  13.621  -4.557  1.00 20.00     0.040 C 
HETATM    4  C4  UNL     1     -35.608  15.548  -3.046  1.00 20.00     0.040 C 
HETATM    5  C5  UNL     1     -37.512  15.046  -4.807  1.00 20.00     0.207 A 
HETATM    6  C6  UNL     1     -36.260  14.662  -4.062  1.00 20.00     0.082 A 
HETATM    7  O7  UNL     1     -37.549  14.163  -3.679  1.00 20.00    -0.375 OA
ENDROOT
TORSDOF 0
ENDMDL
MODEL 9
REMARK VINA RESULT:      -3.5      9.115     10.058
REMARK  0 active torsions:
REMARK  status: ('A' for Active; 'I' for Inactive)
ROOT
HETATM    1  C1  UNL     1     -40.859   6.134  -0.322  1.00 20.00     0.003 C 
HETATM    2  C2  UNL     1     -41.344   6.880  -1.563  1.00 20.00     0.003 C 
HETATM    3  C3  UNL     1     -40.679   4.695  -0.812  1.00 20.00     0.040 C 
HETATM    4  C4  UNL     1     -42.306   5.892  -2.229  1.00 20.00     0.040 C 
HETATM    5  C5  UNL     1     -41.862   3.339  -2.742  1.00 20.00     0.207 A 
HETATM    6  C6  UNL     1     -41.735   4.557  -1.864  1.00 20.00     0.082 A 
HETATM    7  O7  UNL     1     -42.713   3.540  -1.607  1.00 20.00    -0.375 OA
ENDROOT
TORSDOF 0
ENDMDL
