MODEL 1
REMARK VINA RESULT:      -4.2      0.000      0.000
REMARK  0 active torsions:
REMARK  status: ('A' for Active; 'I' for Inactive)
ROOT
HETATM    1  C1  UNL     1     -34.929  14.329  -3.417  1.00 20.00     0.033 A 
HETATM    2  C2  UNL     1     -35.083  13.423  -4.454  1.00 20.00     0.117 A 
HETATM    3  C3  UNL     1     -34.410  14.933  -6.084  1.00 20.00     0.136 A 
HETATM    4  C4  UNL     1     -33.802  17.859  -3.643  1.00 20.00     0.070 A 
HETATM    5  C5  UNL     1     -34.485  15.622  -3.752  1.00 20.00     0.002 A 
HETATM    6  C6  UNL     1     -34.231  15.903  -5.097  1.00 20.00     0.034 A 
HETATM    7  C7  UNL     1     -34.231  16.768  -2.926  1.00 20.00     0.029 A 
HETATM    8  N8  UNL     1     -34.837  13.695  -5.751  1.00 20.00    -0.272 NA
HETATM    9  S9  UNL     1     -33.698  17.527  -5.312  1.00 20.00    -0.098 SA
HETATM   10 BR10 UNL     1     -34.460  16.773  -1.050  1.00 20.00    -0.050 Br
ENDROOT
TORSDOF 0
ENDMDL
MODEL 2
REMARK VINA RESULT:      -4.1      2.560      3.161
REMARK  0 active torsions:
REMARK  status: ('A' for Active; 'I' for Inactive)
ROOT
HETATM    1  C1  UNL     1     -33.270  15.614  -4.205  1.00 20.00     0.033 A 
HETATM    2  C2  UNL     1     -33.150  14.420  -3.512  1.00 20.00     0.117 A 
HETATM    3  C3  UNL     1     -34.451  13.228  -5.020  1.00 20.00     0.136 A 
HETATM    4  C4  UNL     1     -35.139  16.223  -7.356  1.00 20.00     0.070 A 
HETATM    5  C5  UNL     1     -34.038  15.598  -5.386  1.00 20.00     0.002 A 
HETATM    6  C6  UNL     1     -34.621  14.390  -5.776  1.00 20.00     0.034 A 
HETATM    7  C7  UNL     1     -34.349  16.648  -6.314  1.00 20.00     0.029 A 
HETATM    8  N8  UNL     1     -33.713  13.255  -3.888  1.00 20.00    -0.272 NA
HETATM    9  S9  UNL     1     -35.517  14.564  -7.237  1.00 20.00    -0.098 SA
HETATM   10 BR10 UNL     1     -33.736  18.425  -6.124  1.00 20.00    -0.050 Br
ENDROOT
TORSDOF 0
ENDMDL
MODEL 3
REMARK VINA RESULT:      -4.1      2.014      2.186
REMARK  0 active torsions:
REMARK  status: ('A' for Active; 'I' for Inactive)
ROOT
HETATM    1  C1  UNL     1     -33.610  14.607  -3.162  1.00 20.00     0.033 A 
HETATM    2  C2  UNL     1     -33.640  13.431  -3.895  1.00 20.00     0.117 A 
HETATM    3  C3  UNL     1     -35.870  13.675  -4.493  1.00 20.00     0.136 A 
HETATM    4  C4  UNL     1     -36.389  17.009  -2.618  1.00 20.00     0.070 A 
HETATM    5  C5  UNL     1     -34.799  15.358  -3.100  1.00 20.00     0.002 A 
HETATM    6  C6  UNL     1     -35.921  14.871  -3.775  1.00 20.00     0.034 A 
HETATM    7  C7  UNL     1     -35.090  16.597  -2.436  1.00 20.00     0.029 A 
HETATM    8  N8  UNL     1     -34.723  12.963  -4.546  1.00 20.00    -0.272 NA
HETATM    9  S9  UNL     1     -37.275  15.920  -3.585  1.00 20.00    -0.098 SA
HETATM   10 BR10 UNL     1     -33.820  17.560  -1.421  1.00 20.00    -0.050 Br
ENDROOT
TORSDOF 0
ENDMDL
MODEL 4
REMARK VINA RESULT:      -4.1      2.181      2.626
REMARK  0 active torsions:
REMARK  status: ('A' for Active; 'I' for Inactive)
ROOT
HETATM    1  C1  UNL     1     -34.609  14.813  -6.069  1.00 20.00     0.033 A 
HETATM    2  C2  UNL     1     -34.795  13.473  -5.772  1.00 20.00     0.117 A 
HETATM    3  C3  UNL     1     -34.423  13.762  -3.498  1.00 20.00     0.136 A 
HETATM    4  C4  UNL     1     -33.806  17.566  -3.710  1.00 20.00     0.070 A 
HETATM    5  C5  UNL     1     -34.310  15.676  -4.997  1.00 20.00     0.002 A 
HETATM    6  C6  UNL     1     -34.222  15.126  -3.715  1.00 20.00     0.034 A 
HETATM    7  C7  UNL     1     -34.066  17.090  -4.973  1.00 20.00     0.029 A 
HETATM    8  N8  UNL     1     -34.710  12.944  -4.535  1.00 20.00    -0.272 NA
HETATM    9  S9  UNL     1     -33.850  16.328  -2.538  1.00 20.00    -0.098 SA
HETATM   10 BR10 UNL     1     -34.102  18.181  -6.515  1.00 20.00    -0.050 Br
ENDROOT
TORSDOF 0
ENDMDL
MODEL 5
REMARK VINA RESULT:      -4.0      2.871      3.864
REMARK  0 active torsions:
REMARK  status: ('A' for Active; 'I' for Inactive)
ROOT
HETATM    1  C1  UNL     1     -34.501  16.242  -1.486  1.00 20.00     0.033 A 
HETATM    2  C2  UNL     1     -34.797  17.278  -0.615  1.00 20.00     0.117 A 
HETATM    3  C3  UNL     1     -34.380  18.933  -2.188  1.00 20.00     0.136 A 
HETATM    4  C4  UNL     1     -33.442  16.503  -5.036  1.00 20.00     0.070 A 
HETATM    5  C5  UNL     1     -34.118  16.592  -2.796  1.00 20.00     0.002 A 
HETATM    6  C6  UNL     1     -34.064  17.948  -3.126  1.00 20.00     0.034 A 
HETATM    7  C7  UNL     1     -33.755  15.770  -3.915  1.00 20.00     0.029 A 
HETATM    8  N8  UNL     1     -34.745  18.586  -0.934  1.00 20.00    -0.272 NA
HETATM    9  S9  UNL     1     -33.580  18.180  -4.763  1.00 20.00    -0.098 SA
HETATM   10 BR10 UNL     1     -33.712  13.882  -3.854  1.00 20.00    -0.050 Br
ENDROOT
TORSDOF 0
ENDMDL
MODEL 6
REMARK VINA RESULT:      -3.9      2.304      2.443
REMARK  0 active torsions:
REMARK  status: ('A' for Active; 'I' for Inactive)
ROOT
HETATM    1  C1  UNL     1     -35.987  14.113  -4.302  1.00 20.00     0.033 A 
HETATM    2  C2  UNL     1     -35.028  13.159  -4.605  1.00 20.00     0.117 A 
HETATM    3  C3  UNL     1     -33.338  14.264  -3.459  1.00 20.00     0.136 A 
HETATM    4  C4  UNL     1     -35.545  17.214  -2.309  1.00 20.00     0.070 A 
HETATM    5  C5  UNL     1     -35.578  15.213  -3.524  1.00 20.00     0.002 A 
HETATM    6  C6  UNL     1     -34.244  15.268  -3.112  1.00 20.00     0.034 A 
HETATM    7  C7  UNL     1     -36.315  16.349  -3.048  1.00 20.00     0.029 A 
HETATM    8  N8  UNL     1     -33.742  13.213  -4.208  1.00 20.00    -0.272 NA
HETATM    9  S9  UNL     1     -33.931  16.679  -2.174  1.00 20.00    -0.098 SA
HETATM   10 BR10 UNL     1     -38.151  16.624  -3.401  1.00 20.00    -0.050 Br
ENDROOT
TORSDOF 0
ENDMDL
MODEL 7
REMARK VINA RESULT:      -3.8      1.981      2.916
REMARK  0 active torsions:
REMARK  status: ('A' for Active; 'I' for Inactive)
ROOT
HETATM    1  C1  UNL     1     -34.319  17.146  -5.444  1.00 20.00     0.033 A 
HETATM    2  C2  UNL     1     -34.442  17.256  -6.820  1.00 20.00     0.117 A 
HETATM    3  C3  UNL     1     -34.669  14.968  -7.141  1.00 20.00     0.136 A 
HETATM    4  C4  UNL     1     -34.389  14.044  -3.405  1.00 20.00     0.070 A 
HETATM    5  C5  UNL     1     -34.377  15.852  -4.893  1.00 20.00     0.002 A 
HETATM    6  C6  UNL     1     -34.553  14.773  -5.764  1.00 20.00     0.034 A 
HETATM    7  C7  UNL     1     -34.285  15.409  -3.531  1.00 20.00     0.029 A 
HETATM    8  N8  UNL     1     -34.612  16.215  -7.659  1.00 20.00    -0.272 NA
HETATM    9  S9  UNL     1     -34.600  13.276  -4.912  1.00 20.00    -0.098 SA
HETATM   10 BR10 UNL     1     -34.046  16.579  -2.067  1.00 20.00    -0.050 Br
ENDROOT
TORSDOF 0
ENDMDL
MODEL 8
REMARK VINA RESULT:      -3.8      3.109      4.263
REMARK  0 active torsions:
REMARK  status: ('A' for Active; 'I' for Inactive)
ROOT
HETATM    1  C1  UNL     1     -34.180  17.219  -5.611  1.00 20.00     0.033 A 
HETATM    2  C2  UNL     1     -33.798  18.093  -4.606  1.00 20.00     0.117 A 
HETATM    3  C3  UNL     1     -33.735  16.441  -2.975  1.00 20.00     0.136 A 
HETATM    4  C4  UNL     1     -34.782  13.566  -5.327  1.00 20.00     0.070 A 
HETATM    5  C5  UNL     1     -34.348  15.866  -5.259  1.00 20.00     0.002 A 
HETATM    6  C6  UNL     1     -34.119  15.498  -3.930  1.00 20.00     0.034 A 
HETATM    7  C7  UNL     1     -34.730  14.732  -6.052  1.00 20.00     0.029 A 
HETATM    8  N8  UNL     1     -33.578  17.737  -3.325  1.00 20.00    -0.272 NA
HETATM    9  S9  UNL     1     -34.373  13.811  -3.690  1.00 20.00    -0.098 SA
HETATM   10 BR10 UNL     1     -35.120  14.834  -7.898  1.00 20.00    -0.050 Br
ENDROOT
TORSDOF 0
ENDMDL
MODEL 9
REMARK VINA RESULT:      -3.7      2.734      3.146
REMARK  0 active torsions:
REMARK  status: ('A' for Active; 'I' for Inactive)
ROOT
HETATM    1  C1  UNL     1     -34.965  13.960  -5.537  1.00 20.00     0.033 A 
HETATM    2  C2  UNL     1     -34.256  13.299  -4.548  1.00 20.00     0.117 A 
HETATM    3  C3  UNL     1     -33.085  15.196  -3.898  1.00 20.00     0.136 A 
HETATM    4  C4  UNL     1     -34.739  17.545  -6.475  1.00 20.00     0.070 A 
HETATM    5  C5  UNL     1     -34.706  15.333  -5.709  1.00 20.00     0.002 A 
HETATM    6  C6  UNL     1     -33.758  15.933  -4.875  1.00 20.00     0.034 A 
HETATM    7  C7  UNL     1     -35.263  16.283  -6.628  1.00 20.00     0.029 A 
HETATM    8  N8  UNL     1     -33.342  13.878  -3.744  1.00 20.00    -0.272 NA
HETATM    9  S9  UNL     1     -33.576  17.609  -5.230  1.00 20.00    -0.098 SA
HETATM   10 BR10 UNL     1     -36.578  15.845  -7.913  1.00 20.00    -0.050 Br
ENDROOT
TORSDOF 0
ENDMDL
