MODEL 1
REMARK VINA RESULT:      -5.4      0.000      0.000
REMARK  1 active torsions:
REMARK  status: ('A' for Active; 'I' for Inactive)
REMARK    1  A    between atoms: C2_2  and  C4_4 
ROOT
HETATM    1  C1  UNL     1     -35.221   4.799   5.212  1.00 20.00     0.236 A 
HETATM    2  C2  UNL     1     -33.606   6.078   4.556  1.00 20.00     0.199 A 
HETATM    3  C3  UNL     1     -33.812   6.286   5.904  1.00 20.00     0.245 A 
HETATM    4  N5  UNL     1     -34.490   5.149   4.132  1.00 20.00    -0.233 NA
HETATM    5  N6  UNL     1     -34.822   5.483   6.304  1.00 20.00    -0.212 NA
HETATM    6  F7  UNL     1     -33.138   7.131   6.683  1.00 20.00    -0.182 F 
ENDROOT
BRANCH   2   7
HETATM    7  C4  UNL     1     -32.640   6.688   3.634  1.00 20.00     0.439 C 
HETATM    8  F8  UNL     1     -31.632   7.395   4.248  1.00 20.00    -0.164 F 
HETATM    9  F9  UNL     1     -31.977   5.792   2.828  1.00 20.00    -0.164 F 
HETATM   10  F10 UNL     1     -33.206   7.584   2.759  1.00 20.00    -0.164 F 
ENDBRANCH   2   7
TORSDOF 1
ENDMDL
MODEL 2
REMARK VINA RESULT:      -5.4      0.032      1.190
REMARK  1 active torsions:
REMARK  status: ('A' for Active; 'I' for Inactive)
REMARK    1  A    between atoms: C2_2  and  C4_4 
ROOT
HETATM    1  C1  UNL     1     -35.233   4.833   5.226  1.00 20.00     0.236 A 
HETATM    2  C2  UNL     1     -33.608   6.094   4.560  1.00 20.00     0.199 A 
HETATM    3  C3  UNL     1     -33.817   6.319   5.905  1.00 20.00     0.245 A 
HETATM    4  N5  UNL     1     -34.496   5.165   4.145  1.00 20.00    -0.233 NA
HETATM    5  N6  UNL     1     -34.833   5.527   6.312  1.00 20.00    -0.212 NA
HETATM    6  F7  UNL     1     -33.139   7.169   6.676  1.00 20.00    -0.182 F 
ENDROOT
BRANCH   2   7
HETATM    7  C4  UNL     1     -32.635   6.686   3.634  1.00 20.00     0.439 C 
HETATM    8  F8  UNL     1     -33.171   7.584   2.740  1.00 20.00    -0.164 F 
HETATM    9  F9  UNL     1     -31.621   7.387   4.244  1.00 20.00    -0.164 F 
HETATM   10  F10 UNL     1     -31.990   5.762   2.849  1.00 20.00    -0.164 F 
ENDBRANCH   2   7
TORSDOF 1
ENDMDL
MODEL 3
REMARK VINA RESULT:      -5.3      1.634      2.153
REMARK  1 active torsions:
REMARK  status: ('A' for Active; 'I' for Inactive)
REMARK    1  A    between atoms: C2_2  and  C4_4 
ROOT
HETATM    1  C1  UNL     1     -34.357   6.137   6.660  1.00 20.00     0.236 A 
HETATM    2  C2  UNL     1     -33.883   5.801   4.577  1.00 20.00     0.199 A 
HETATM    3  C3  UNL     1     -34.741   4.806   4.999  1.00 20.00     0.245 A 
HETATM    4  N5  UNL     1     -33.648   6.627   5.620  1.00 20.00    -0.233 NA
HETATM    5  N6  UNL     1     -35.031   5.025   6.301  1.00 20.00    -0.212 NA
HETATM    6  F7  UNL     1     -35.206   3.801   4.260  1.00 20.00    -0.182 F 
ENDROOT
BRANCH   2   7
HETATM    7  C4  UNL     1     -33.266   6.034   3.266  1.00 20.00     0.439 C 
HETATM    8  F8  UNL     1     -33.227   7.354   2.879  1.00 20.00    -0.164 F 
HETATM    9  F9  UNL     1     -31.958   5.619   3.169  1.00 20.00    -0.164 F 
HETATM   10  F10 UNL     1     -33.907   5.392   2.235  1.00 20.00    -0.164 F 
ENDBRANCH   2   7
TORSDOF 1
ENDMDL
MODEL 4
REMARK VINA RESULT:      -5.1      2.399      3.325
REMARK  1 active torsions:
REMARK  status: ('A' for Active; 'I' for Inactive)
REMARK    1  A    between atoms: C2_2  and  C4_4 
ROOT
HETATM    1  C1  UNL     1     -32.538   6.555   2.948  1.00 20.00     0.236 A 
HETATM    2  C2  UNL     1     -34.036   5.734   4.273  1.00 20.00     0.199 A 
HETATM    3  C3  UNL     1     -33.251   6.615   4.988  1.00 20.00     0.245 A 
HETATM    4  N5  UNL     1     -33.583   5.703   3.000  1.00 20.00    -0.233 NA
HETATM    5  N6  UNL     1     -32.319   7.123   4.152  1.00 20.00    -0.212 NA
HETATM    6  F7  UNL     1     -33.382   6.917   6.279  1.00 20.00    -0.182 F 
ENDROOT
BRANCH   2   7
HETATM    7  C4  UNL     1     -35.180   4.918   4.695  1.00 20.00     0.439 C 
HETATM    8  F8  UNL     1     -35.025   3.567   4.489  1.00 20.00    -0.164 F 
HETATM    9  F9  UNL     1     -35.491   5.019   6.031  1.00 20.00    -0.164 F 
HETATM   10  F10 UNL     1     -36.349   5.233   4.046  1.00 20.00    -0.164 F 
ENDBRANCH   2   7
TORSDOF 1
ENDMDL
MODEL 5
REMARK VINA RESULT:      -5.0      2.347      3.828
REMARK  1 active torsions:
REMARK  status: ('A' for Active; 'I' for Inactive)
REMARK    1  A    between atoms: C2_2  and  C4_4 
ROOT
HETATM    1  C1  UNL     1     -32.119   7.239   3.764  1.00 20.00     0.236 A 
HETATM    2  C2  UNL     1     -33.694   5.912   4.422  1.00 20.00     0.199 A 
HETATM    3  C3  UNL     1     -33.561   5.792   3.054  1.00 20.00     0.245 A 
HETATM    4  N5  UNL     1     -32.791   6.817   4.856  1.00 20.00    -0.233 NA
HETATM    5  N6  UNL     1     -32.574   6.624   2.653  1.00 20.00    -0.212 NA
HETATM    6  F7  UNL     1     -34.275   4.997   2.259  1.00 20.00    -0.182 F 
ENDROOT
BRANCH   2   7
HETATM    7  C4  UNL     1     -34.609   5.239   5.352  1.00 20.00     0.439 C 
HETATM    8  F8  UNL     1     -34.173   4.011   5.795  1.00 20.00    -0.164 F 
HETATM    9  F9  UNL     1     -34.863   5.940   6.508  1.00 20.00    -0.164 F 
HETATM   10  F10 UNL     1     -35.851   4.992   4.820  1.00 20.00    -0.164 F 
ENDBRANCH   2   7
TORSDOF 1
ENDMDL
MODEL 6
REMARK VINA RESULT:      -4.9      2.558      3.650
REMARK  1 active torsions:
REMARK  status: ('A' for Active; 'I' for Inactive)
REMARK    1  A    between atoms: C2_2  and  C4_4 
ROOT
HETATM    1  C1  UNL     1     -33.007   6.149   3.018  1.00 20.00     0.236 A 
HETATM    2  C2  UNL     1     -34.075   5.775   4.860  1.00 20.00     0.199 A 
HETATM    3  C3  UNL     1     -34.887   5.423   3.801  1.00 20.00     0.245 A 
HETATM    4  N5  UNL     1     -32.904   6.227   4.362  1.00 20.00    -0.233 NA
HETATM    5  N6  UNL     1     -34.211   5.660   2.656  1.00 20.00    -0.212 NA
HETATM    6  F7  UNL     1     -36.124   4.934   3.885  1.00 20.00    -0.182 F 
ENDROOT
BRANCH   2   7
HETATM    7  C4  UNL     1     -34.318   5.719   6.307  1.00 20.00     0.439 C 
HETATM    8  F8  UNL     1     -35.596   5.351   6.658  1.00 20.00    -0.164 F 
HETATM    9  F9  UNL     1     -33.516   4.831   6.985  1.00 20.00    -0.164 F 
HETATM   10  F10 UNL     1     -34.117   6.919   6.944  1.00 20.00    -0.164 F 
ENDBRANCH   2   7
TORSDOF 1
ENDMDL
MODEL 7
REMARK VINA RESULT:      -4.8      1.806      3.334
REMARK  1 active torsions:
REMARK  status: ('A' for Active; 'I' for Inactive)
REMARK    1  A    between atoms: C2_2  and  C4_4 
ROOT
HETATM    1  C1  UNL     1     -34.350   5.318   2.663  1.00 20.00     0.236 A 
HETATM    2  C2  UNL     1     -34.171   5.593   4.800  1.00 20.00     0.199 A 
HETATM    3  C3  UNL     1     -33.197   6.345   4.177  1.00 20.00     0.245 A 
HETATM    4  N5  UNL     1     -34.886   4.955   3.848  1.00 20.00    -0.233 NA
HETATM    5  N6  UNL     1     -33.318   6.167   2.843  1.00 20.00    -0.212 NA
HETATM    6  F7  UNL     1     -32.291   7.115   4.778  1.00 20.00    -0.182 F 
ENDROOT
BRANCH   2   7
HETATM    7  C4  UNL     1     -34.481   5.427   6.226  1.00 20.00     0.439 C 
HETATM    8  F8  UNL     1     -35.725   4.900   6.482  1.00 20.00    -0.164 F 
HETATM    9  F9  UNL     1     -33.620   4.597   6.904  1.00 20.00    -0.164 F 
HETATM   10  F10 UNL     1     -34.453   6.604   6.934  1.00 20.00    -0.164 F 
ENDBRANCH   2   7
TORSDOF 1
ENDMDL
MODEL 8
REMARK VINA RESULT:      -4.7     11.494     12.057
REMARK  1 active torsions:
REMARK  status: ('A' for Active; 'I' for Inactive)
REMARK    1  A    between atoms: C2_2  and  C4_4 
ROOT
HETATM    1  C1  UNL     1     -35.216  13.285  -4.388  1.00 20.00     0.236 A 
HETATM    2  C2  UNL     1     -34.445  14.937  -3.226  1.00 20.00     0.199 A 
HETATM    3  C3  UNL     1     -33.382  14.178  -3.671  1.00 20.00     0.245 A 
HETATM    4  N5  UNL     1     -35.586  14.372  -3.678  1.00 20.00    -0.233 NA
HETATM    5  N6  UNL     1     -33.874  13.150  -4.396  1.00 20.00    -0.212 NA
HETATM    6  F7  UNL     1     -32.093  14.412  -3.432  1.00 20.00    -0.182 F 
ENDROOT
BRANCH   2   7
HETATM    7  C4  UNL     1     -34.470  16.155  -2.406  1.00 20.00     0.439 C 
HETATM    8  F8  UNL     1     -34.705  15.938  -1.068  1.00 20.00    -0.164 F 
HETATM    9  F9  UNL     1     -33.302  16.880  -2.427  1.00 20.00    -0.164 F 
HETATM   10  F10 UNL     1     -35.439  17.052  -2.785  1.00 20.00    -0.164 F 
ENDBRANCH   2   7
TORSDOF 1
ENDMDL
MODEL 9
REMARK VINA RESULT:      -4.6     11.494     12.084
REMARK  1 active torsions:
REMARK  status: ('A' for Active; 'I' for Inactive)
REMARK    1  A    between atoms: C2_2  and  C4_4 
ROOT
HETATM    1  C1  UNL     1     -35.214  13.285  -4.379  1.00 20.00     0.236 A 
HETATM    2  C2  UNL     1     -34.445  14.943  -3.225  1.00 20.00     0.199 A 
HETATM    3  C3  UNL     1     -33.381  14.184  -3.667  1.00 20.00     0.245 A 
HETATM    4  N5  UNL     1     -35.585  14.375  -3.673  1.00 20.00    -0.233 NA
HETATM    5  N6  UNL     1     -33.872  13.151  -4.387  1.00 20.00    -0.212 NA
HETATM    6  F7  UNL     1     -32.091  14.420  -3.430  1.00 20.00    -0.182 F 
ENDROOT
BRANCH   2   7
HETATM    7  C4  UNL     1     -34.470  16.165  -2.411  1.00 20.00     0.439 C 
HETATM    8  F8  UNL     1     -33.304  16.893  -2.436  1.00 20.00    -0.164 F 
HETATM    9  F9  UNL     1     -35.438  17.072  -2.775  1.00 20.00    -0.164 F 
HETATM   10  F10 UNL     1     -34.702  15.931  -1.077  1.00 20.00    -0.164 F 
ENDBRANCH   2   7
TORSDOF 1
ENDMDL
