MODEL 1
REMARK VINA RESULT:      -4.4      0.000      0.000
REMARK  2 active torsions:
REMARK  status: ('A' for Active; 'I' for Inactive)
REMARK    1  A    between atoms: C1_1  and  C3_3 
REMARK    2  A    between atoms: C2_2  and  C9_9 
ROOT
HETATM    1  C1  UNL     1     -34.260  14.835  -3.194  1.00 20.00    -0.071 C 
HETATM    2  C2  UNL     1     -34.495  15.850  -2.597  1.00 20.00    -0.095 C 
ENDROOT
BRANCH   1   3
HETATM    3  C3  UNL     1     -33.975  13.598  -3.921  1.00 20.00     0.229 A 
HETATM    4  C4  UNL     1     -34.526  13.382  -5.290  1.00 20.00     0.160 A 
HETATM    5  C5  UNL     1     -35.361  14.369  -6.027  1.00 20.00     0.043 C 
HETATM    6  O10 UNL     1     -35.151  12.822  -4.131  1.00 20.00    -0.363 OA
ENDBRANCH   1   3
BRANCH   2   7
HETATM    7  C9  UNL     1     -34.784  17.102  -1.863  1.00 20.00     0.013 C 
HETATM    8  C6  UNL     1     -33.754  18.171  -2.253  1.00 20.00     0.028 C 
HETATM    9  C7  UNL     1     -34.705  16.838  -0.354  1.00 20.00     0.028 C 
HETATM   10  C8  UNL     1     -36.194  17.591  -2.227  1.00 20.00     0.028 C 
ENDBRANCH   2   7
TORSDOF 2
ENDMDL
MODEL 2
REMARK VINA RESULT:      -4.4      0.005      1.373
REMARK  2 active torsions:
REMARK  status: ('A' for Active; 'I' for Inactive)
REMARK    1  A    between atoms: C1_1  and  C3_3 
REMARK    2  A    between atoms: C2_2  and  C9_9 
ROOT
HETATM    1  C1  UNL     1     -34.262  14.832  -3.196  1.00 20.00    -0.071 C 
HETATM    2  C2  UNL     1     -34.496  15.847  -2.600  1.00 20.00    -0.095 C 
ENDROOT
BRANCH   1   3
HETATM    3  C3  UNL     1     -33.978  13.594  -3.922  1.00 20.00     0.229 A 
HETATM    4  C4  UNL     1     -34.526  13.379  -5.292  1.00 20.00     0.160 A 
HETATM    5  C5  UNL     1     -35.357  14.368  -6.032  1.00 20.00     0.043 C 
HETATM    6  O10 UNL     1     -35.155  12.821  -4.135  1.00 20.00    -0.363 OA
ENDBRANCH   1   3
BRANCH   2   7
HETATM    7  C9  UNL     1     -34.786  17.100  -1.866  1.00 20.00     0.013 C 
HETATM    8  C6  UNL     1     -34.704  16.837  -0.356  1.00 20.00     0.028 C 
HETATM    9  C7  UNL     1     -36.194  17.589  -2.227  1.00 20.00     0.028 C 
HETATM   10  C8  UNL     1     -33.754  18.169  -2.257  1.00 20.00     0.028 C 
ENDBRANCH   2   7
TORSDOF 2
ENDMDL
MODEL 3
REMARK VINA RESULT:      -4.4      0.003      1.374
REMARK  2 active torsions:
REMARK  status: ('A' for Active; 'I' for Inactive)
REMARK    1  A    between atoms: C1_1  and  C3_3 
REMARK    2  A    between atoms: C2_2  and  C9_9 
ROOT
HETATM    1  C1  UNL     1     -34.262  14.834  -3.195  1.00 20.00    -0.071 C 
HETATM    2  C2  UNL     1     -34.497  15.850  -2.600  1.00 20.00    -0.095 C 
ENDROOT
BRANCH   1   3
HETATM    3  C3  UNL     1     -33.976  13.597  -3.920  1.00 20.00     0.229 A 
HETATM    4  C4  UNL     1     -34.524  13.380  -5.290  1.00 20.00     0.160 A 
HETATM    5  C5  UNL     1     -35.356  14.367  -6.030  1.00 20.00     0.043 C 
HETATM    6  O10 UNL     1     -35.152  12.821  -4.133  1.00 20.00    -0.363 OA
ENDBRANCH   1   3
BRANCH   2   7
HETATM    7  C9  UNL     1     -34.785  17.102  -1.865  1.00 20.00     0.013 C 
HETATM    8  C6  UNL     1     -36.195  17.591  -2.225  1.00 20.00     0.028 C 
HETATM    9  C7  UNL     1     -33.756  18.171  -2.254  1.00 20.00     0.028 C 
HETATM   10  C8  UNL     1     -34.704  16.836  -0.355  1.00 20.00     0.028 C 
ENDBRANCH   2   7
TORSDOF 2
ENDMDL
MODEL 4
REMARK VINA RESULT:      -4.0      2.433      4.851
REMARK  2 active torsions:
REMARK  status: ('A' for Active; 'I' for Inactive)
REMARK    1  A    between atoms: C1_1  and  C3_3 
REMARK    2  A    between atoms: C2_2  and  C9_9 
ROOT
HETATM    1  C1  UNL     1     -34.610  16.187  -1.647  1.00 20.00    -0.071 C 
HETATM    2  C2  UNL     1     -34.547  15.543  -2.658  1.00 20.00    -0.095 C 
ENDROOT
BRANCH   1   3
HETATM    3  C3  UNL     1     -34.686  16.973  -0.416  1.00 20.00     0.229 A 
HETATM    4  C4  UNL     1     -34.855  18.454  -0.474  1.00 20.00     0.160 A 
HETATM    5  C5  UNL     1     -34.982  19.238  -1.732  1.00 20.00     0.043 C 
HETATM    6  O10 UNL     1     -33.573  17.851  -0.276  1.00 20.00    -0.363 OA
ENDBRANCH   1   3
BRANCH   2   7
HETATM    7  C9  UNL     1     -34.471  14.748  -3.905  1.00 20.00     0.013 C 
HETATM    8  C6  UNL     1     -33.382  13.677  -3.761  1.00 20.00     0.028 C 
HETATM    9  C7  UNL     1     -34.129  15.674  -5.080  1.00 20.00     0.028 C 
HETATM   10  C8  UNL     1     -35.826  14.072  -4.160  1.00 20.00     0.028 C 
ENDBRANCH   2   7
TORSDOF 2
ENDMDL
MODEL 5
REMARK VINA RESULT:      -4.0      2.436      4.865
REMARK  2 active torsions:
REMARK  status: ('A' for Active; 'I' for Inactive)
REMARK    1  A    between atoms: C1_1  and  C3_3 
REMARK    2  A    between atoms: C2_2  and  C9_9 
ROOT
HETATM    1  C1  UNL     1     -34.612  16.187  -1.638  1.00 20.00    -0.071 C 
HETATM    2  C2  UNL     1     -34.555  15.548  -2.653  1.00 20.00    -0.095 C 
ENDROOT
BRANCH   1   3
HETATM    3  C3  UNL     1     -34.683  16.967  -0.403  1.00 20.00     0.229 A 
HETATM    4  C4  UNL     1     -34.885  18.444  -0.452  1.00 20.00     0.160 A 
HETATM    5  C5  UNL     1     -35.053  19.230  -1.704  1.00 20.00     0.043 C 
HETATM    6  O10 UNL     1     -33.587  17.868  -0.280  1.00 20.00    -0.363 OA
ENDBRANCH   1   3
BRANCH   2   7
HETATM    7  C9  UNL     1     -34.484  14.758  -3.903  1.00 20.00     0.013 C 
HETATM    8  C6  UNL     1     -35.843  14.092  -4.163  1.00 20.00     0.028 C 
HETATM    9  C7  UNL     1     -33.402  13.679  -3.764  1.00 20.00     0.028 C 
HETATM   10  C8  UNL     1     -34.136  15.688  -5.074  1.00 20.00     0.028 C 
ENDBRANCH   2   7
TORSDOF 2
ENDMDL
MODEL 6
REMARK VINA RESULT:      -4.0      2.436      4.856
REMARK  2 active torsions:
REMARK  status: ('A' for Active; 'I' for Inactive)
REMARK    1  A    between atoms: C1_1  and  C3_3 
REMARK    2  A    between atoms: C2_2  and  C9_9 
ROOT
HETATM    1  C1  UNL     1     -34.613  16.187  -1.641  1.00 20.00    -0.071 C 
HETATM    2  C2  UNL     1     -34.556  15.547  -2.655  1.00 20.00    -0.095 C 
ENDROOT
BRANCH   1   3
HETATM    3  C3  UNL     1     -34.683  16.967  -0.406  1.00 20.00     0.229 A 
HETATM    4  C4  UNL     1     -34.877  18.445  -0.455  1.00 20.00     0.160 A 
HETATM    5  C5  UNL     1     -35.037  19.232  -1.708  1.00 20.00     0.043 C 
HETATM    6  O10 UNL     1     -33.582  17.863  -0.279  1.00 20.00    -0.363 OA
ENDBRANCH   1   3
BRANCH   2   7
HETATM    7  C9  UNL     1     -34.485  14.756  -3.904  1.00 20.00     0.013 C 
HETATM    8  C6  UNL     1     -34.145  15.687  -5.077  1.00 20.00     0.028 C 
HETATM    9  C7  UNL     1     -35.838  14.082  -4.159  1.00 20.00     0.028 C 
HETATM   10  C8  UNL     1     -33.393  13.684  -3.767  1.00 20.00     0.028 C 
ENDBRANCH   2   7
TORSDOF 2
ENDMDL
MODEL 7
REMARK VINA RESULT:      -3.9      1.696      2.543
REMARK  2 active torsions:
REMARK  status: ('A' for Active; 'I' for Inactive)
REMARK    1  A    between atoms: C1_1  and  C3_3 
REMARK    2  A    between atoms: C2_2  and  C9_9 
ROOT
HETATM    1  C1  UNL     1     -34.486  15.975  -2.140  1.00 20.00    -0.071 C 
HETATM    2  C2  UNL     1     -34.484  16.857  -1.324  1.00 20.00    -0.095 C 
ENDROOT
BRANCH   1   3
HETATM    3  C3  UNL     1     -34.488  14.902  -3.133  1.00 20.00     0.229 A 
HETATM    4  C4  UNL     1     -33.890  15.120  -4.482  1.00 20.00     0.160 A 
HETATM    5  C5  UNL     1     -33.239  16.384  -4.921  1.00 20.00     0.043 C 
HETATM    6  O10 UNL     1     -35.299  15.222  -4.259  1.00 20.00    -0.363 OA
ENDBRANCH   1   3
BRANCH   2   7
HETATM    7  C9  UNL     1     -34.480  17.942  -0.318  1.00 20.00     0.013 C 
HETATM    8  C6  UNL     1     -35.126  17.437   0.979  1.00 20.00     0.028 C 
HETATM    9  C7  UNL     1     -35.276  19.139  -0.856  1.00 20.00     0.028 C 
HETATM   10  C8  UNL     1     -33.033  18.372  -0.037  1.00 20.00     0.028 C 
ENDBRANCH   2   7
TORSDOF 2
ENDMDL
MODEL 8
REMARK VINA RESULT:      -3.8     12.613     14.484
REMARK  2 active torsions:
REMARK  status: ('A' for Active; 'I' for Inactive)
REMARK    1  A    between atoms: C1_1  and  C3_3 
REMARK    2  A    between atoms: C2_2  and  C9_9 
ROOT
HETATM    1  C1  UNL     1     -41.540   4.129  -1.808  1.00 20.00    -0.071 C 
HETATM    2  C2  UNL     1     -41.952   3.252  -2.517  1.00 20.00    -0.095 C 
ENDROOT
BRANCH   1   3
HETATM    3  C3  UNL     1     -41.037   5.197  -0.945  1.00 20.00     0.229 A 
HETATM    4  C4  UNL     1     -41.884   6.388  -0.645  1.00 20.00     0.160 A 
HETATM    5  C5  UNL     1     -43.270   6.585  -1.151  1.00 20.00     0.043 C 
HETATM    6  O10 UNL     1     -40.872   6.421  -1.656  1.00 20.00    -0.363 OA
ENDBRANCH   1   3
BRANCH   2   7
HETATM    7  C9  UNL     1     -42.462   2.172  -3.392  1.00 20.00     0.013 C 
HETATM    8  C6  UNL     1     -43.215   1.140  -2.541  1.00 20.00     0.028 C 
HETATM    9  C7  UNL     1     -41.285   1.492  -4.102  1.00 20.00     0.028 C 
HETATM   10  C8  UNL     1     -43.416   2.770  -4.436  1.00 20.00     0.028 C 
ENDBRANCH   2   7
TORSDOF 2
ENDMDL
MODEL 9
REMARK VINA RESULT:      -3.7      1.226      1.553
REMARK  2 active torsions:
REMARK  status: ('A' for Active; 'I' for Inactive)
REMARK    1  A    between atoms: C1_1  and  C3_3 
REMARK    2  A    between atoms: C2_2  and  C9_9 
ROOT
HETATM    1  C1  UNL     1     -35.653  15.501  -3.029  1.00 20.00    -0.071 C 
HETATM    2  C2  UNL     1     -35.357  16.429  -2.327  1.00 20.00    -0.095 C 
ENDROOT
BRANCH   1   3
HETATM    3  C3  UNL     1     -36.013  14.371  -3.885  1.00 20.00     0.229 A 
HETATM    4  C4  UNL     1     -34.975  13.392  -4.321  1.00 20.00     0.160 A 
HETATM    5  C5  UNL     1     -33.542  13.453  -3.926  1.00 20.00     0.043 C 
HETATM    6  O10 UNL     1     -35.404  14.461  -5.169  1.00 20.00    -0.363 OA
ENDBRANCH   1   3
BRANCH   2   7
HETATM    7  C9  UNL     1     -34.993  17.574  -1.463  1.00 20.00     0.013 C 
HETATM    8  C6  UNL     1     -33.690  18.205  -1.974  1.00 20.00     0.028 C 
HETATM    9  C7  UNL     1     -34.795  17.083  -0.022  1.00 20.00     0.028 C 
HETATM   10  C8  UNL     1     -36.118  18.619  -1.500  1.00 20.00     0.028 C 
ENDBRANCH   2   7
TORSDOF 2
ENDMDL
