MODEL 1
REMARK VINA RESULT:      -4.4      0.000      0.000
REMARK  0 active torsions:
REMARK  status: ('A' for Active; 'I' for Inactive)
ROOT
HETATM    1  C1  UNL     1     -34.780  13.888  -4.604  1.00 20.00     0.139 C 
HETATM    2  C2  UNL     1     -35.225  14.863  -5.716  1.00 20.00     0.057 C 
HETATM    3  C3  UNL     1     -34.110  15.833  -5.207  1.00 20.00     0.007 C 
HETATM    4  C4  UNL     1     -33.950  14.993  -3.879  1.00 20.00     0.018 C 
HETATM    5  C5  UNL     1     -35.069  14.356  -7.136  1.00 20.00     0.018 C 
HETATM    6  C6  UNL     1     -34.508  17.298  -5.115  1.00 20.00     0.012 C 
HETATM    7  C7  UNL     1     -34.639  15.517  -2.622  1.00 20.00     0.023 C 
HETATM    8  C8  UNL     1     -32.505  14.586  -3.597  1.00 20.00     0.023 C 
HETATM    9  O9  UNL     1     -35.005  12.717  -4.378  1.00 20.00    -0.297 OA
ENDROOT
TORSDOF 0
ENDMDL
MODEL 2
REMARK VINA RESULT:      -4.1      1.831      2.498
REMARK  0 active torsions:
REMARK  status: ('A' for Active; 'I' for Inactive)
ROOT
HETATM    1  C1  UNL     1     -33.354  14.820  -3.512  1.00 20.00     0.139 C 
HETATM    2  C2  UNL     1     -34.618  13.977  -3.785  1.00 20.00     0.057 C 
HETATM    3  C3  UNL     1     -35.402  15.325  -3.894  1.00 20.00     0.007 C 
HETATM    4  C4  UNL     1     -34.193  16.109  -3.247  1.00 20.00     0.018 C 
HETATM    5  C5  UNL     1     -34.582  13.125  -5.038  1.00 20.00     0.018 C 
HETATM    6  C6  UNL     1     -36.757  15.353  -3.205  1.00 20.00     0.012 C 
HETATM    7  C7  UNL     1     -34.286  16.457  -1.765  1.00 20.00     0.023 C 
HETATM    8  C8  UNL     1     -33.745  17.311  -4.077  1.00 20.00     0.023 C 
HETATM    9  O9  UNL     1     -32.167  14.568  -3.495  1.00 20.00    -0.297 OA
ENDROOT
TORSDOF 0
ENDMDL
MODEL 3
REMARK VINA RESULT:      -4.1      1.355      2.468
REMARK  0 active torsions:
REMARK  status: ('A' for Active; 'I' for Inactive)
ROOT
HETATM    1  C1  UNL     1     -34.813  14.470  -4.699  1.00 20.00     0.139 C 
HETATM    2  C2  UNL     1     -35.747  14.726  -3.498  1.00 20.00     0.057 C 
HETATM    3  C3  UNL     1     -34.874  15.984  -3.184  1.00 20.00     0.007 C 
HETATM    4  C4  UNL     1     -33.747  15.478  -4.169  1.00 20.00     0.018 C 
HETATM    5  C5  UNL     1     -37.200  14.993  -3.840  1.00 20.00     0.018 C 
HETATM    6  C6  UNL     1     -34.536  16.198  -1.717  1.00 20.00     0.012 C 
HETATM    7  C7  UNL     1     -32.533  14.785  -3.558  1.00 20.00     0.023 C 
HETATM    8  C8  UNL     1     -33.334  16.529  -5.197  1.00 20.00     0.023 C 
HETATM    9  O9  UNL     1     -34.880  13.747  -5.672  1.00 20.00    -0.297 OA
ENDROOT
TORSDOF 0
ENDMDL
MODEL 4
REMARK VINA RESULT:      -4.1      1.657      3.218
REMARK  0 active torsions:
REMARK  status: ('A' for Active; 'I' for Inactive)
ROOT
HETATM    1  C1  UNL     1     -33.401  15.164  -3.686  1.00 20.00     0.139 C 
HETATM    2  C2  UNL     1     -34.171  16.378  -3.126  1.00 20.00     0.057 C 
HETATM    3  C3  UNL     1     -35.472  15.720  -3.692  1.00 20.00     0.007 C 
HETATM    4  C4  UNL     1     -34.614  14.715  -4.559  1.00 20.00     0.018 C 
HETATM    5  C5  UNL     1     -34.116  16.556  -1.622  1.00 20.00     0.018 C 
HETATM    6  C6  UNL     1     -36.435  16.667  -4.390  1.00 20.00     0.012 C 
HETATM    7  C7  UNL     1     -34.426  15.039  -6.039  1.00 20.00     0.023 C 
HETATM    8  C8  UNL     1     -35.011  13.255  -4.352  1.00 20.00     0.023 C 
HETATM    9  O9  UNL     1     -32.278  14.735  -3.519  1.00 20.00    -0.297 OA
ENDROOT
TORSDOF 0
ENDMDL
MODEL 5
REMARK VINA RESULT:      -4.0      1.518      3.358
REMARK  0 active torsions:
REMARK  status: ('A' for Active; 'I' for Inactive)
ROOT
HETATM    1  C1  UNL     1     -35.852  15.051  -3.476  1.00 20.00     0.139 C 
HETATM    2  C2  UNL     1     -34.698  15.340  -2.493  1.00 20.00     0.057 C 
HETATM    3  C3  UNL     1     -33.752  15.398  -3.736  1.00 20.00     0.007 C 
HETATM    4  C4  UNL     1     -34.865  14.737  -4.643  1.00 20.00     0.018 C 
HETATM    5  C5  UNL     1     -34.822  16.620  -1.691  1.00 20.00     0.018 C 
HETATM    6  C6  UNL     1     -32.413  14.697  -3.575  1.00 20.00     0.012 C 
HETATM    7  C7  UNL     1     -34.748  13.243  -4.931  1.00 20.00     0.023 C 
HETATM    8  C8  UNL     1     -35.150  15.531  -5.916  1.00 20.00     0.023 C 
HETATM    9  O9  UNL     1     -37.061  15.052  -3.372  1.00 20.00    -0.297 OA
ENDROOT
TORSDOF 0
ENDMDL
MODEL 6
REMARK VINA RESULT:      -4.0      1.707      3.547
REMARK  0 active torsions:
REMARK  status: ('A' for Active; 'I' for Inactive)
ROOT
HETATM    1  C1  UNL     1     -35.441  16.099  -3.968  1.00 20.00     0.139 C 
HETATM    2  C2  UNL     1     -34.782  15.435  -2.740  1.00 20.00     0.057 C 
HETATM    3  C3  UNL     1     -33.541  15.158  -3.650  1.00 20.00     0.007 C 
HETATM    4  C4  UNL     1     -34.385  15.494  -4.944  1.00 20.00     0.018 C 
HETATM    5  C5  UNL     1     -34.544  16.342  -1.550  1.00 20.00     0.018 C 
HETATM    6  C6  UNL     1     -32.919  13.778  -3.508  1.00 20.00     0.012 C 
HETATM    7  C7  UNL     1     -34.934  14.323  -5.754  1.00 20.00     0.023 C 
HETATM    8  C8  UNL     1     -33.716  16.532  -5.842  1.00 20.00     0.023 C 
HETATM    9  O9  UNL     1     -36.416  16.807  -4.114  1.00 20.00    -0.297 OA
ENDROOT
TORSDOF 0
ENDMDL
MODEL 7
REMARK VINA RESULT:      -4.0      1.677      2.951
REMARK  0 active torsions:
REMARK  status: ('A' for Active; 'I' for Inactive)
ROOT
HETATM    1  C1  UNL     1     -33.816  15.705  -3.868  1.00 20.00     0.139 C 
HETATM    2  C2  UNL     1     -33.460  16.340  -5.229  1.00 20.00     0.057 C 
HETATM    3  C3  UNL     1     -34.700  15.593  -5.818  1.00 20.00     0.007 C 
HETATM    4  C4  UNL     1     -34.796  14.685  -4.528  1.00 20.00     0.018 C 
HETATM    5  C5  UNL     1     -33.510  17.854  -5.281  1.00 20.00     0.018 C 
HETATM    6  C6  UNL     1     -34.486  14.935  -7.172  1.00 20.00     0.012 C 
HETATM    7  C7  UNL     1     -34.215  13.277  -4.608  1.00 20.00     0.023 C 
HETATM    8  C8  UNL     1     -36.189  14.681  -3.900  1.00 20.00     0.023 C 
HETATM    9  O9  UNL     1     -33.457  15.912  -2.728  1.00 20.00    -0.297 OA
ENDROOT
TORSDOF 0
ENDMDL
MODEL 8
REMARK VINA RESULT:      -4.0      0.760      2.993
REMARK  0 active torsions:
REMARK  status: ('A' for Active; 'I' for Inactive)
ROOT
HETATM    1  C1  UNL     1     -34.723  13.997  -4.906  1.00 20.00     0.139 C 
HETATM    2  C2  UNL     1     -33.860  15.079  -4.224  1.00 20.00     0.057 C 
HETATM    3  C3  UNL     1     -34.623  16.130  -5.094  1.00 20.00     0.007 C 
HETATM    4  C4  UNL     1     -35.198  14.984  -6.017  1.00 20.00     0.018 C 
HETATM    5  C5  UNL     1     -34.030  15.208  -2.724  1.00 20.00     0.018 C 
HETATM    6  C6  UNL     1     -33.762  17.219  -5.713  1.00 20.00     0.012 C 
HETATM    7  C7  UNL     1     -34.507  14.740  -7.356  1.00 20.00     0.023 C 
HETATM    8  C8  UNL     1     -36.716  15.044  -6.174  1.00 20.00     0.023 C 
HETATM    9  O9  UNL     1     -34.936  12.825  -4.672  1.00 20.00    -0.297 OA
ENDROOT
TORSDOF 0
ENDMDL
MODEL 9
REMARK VINA RESULT:      -3.9      1.675      2.259
REMARK  0 active torsions:
REMARK  status: ('A' for Active; 'I' for Inactive)
ROOT
HETATM    1  C1  UNL     1     -36.029  15.071  -3.642  1.00 20.00     0.139 C 
HETATM    2  C2  UNL     1     -35.058  14.668  -4.771  1.00 20.00     0.057 C 
HETATM    3  C3  UNL     1     -33.990  15.572  -4.073  1.00 20.00     0.007 C 
HETATM    4  C4  UNL     1     -35.107  16.241  -3.177  1.00 20.00     0.018 C 
HETATM    5  C5  UNL     1     -34.724  13.192  -4.857  1.00 20.00     0.018 C 
HETATM    6  C6  UNL     1     -33.164  16.447  -5.003  1.00 20.00     0.012 C 
HETATM    7  C7  UNL     1     -35.632  17.609  -3.603  1.00 20.00     0.023 C 
HETATM    8  C8  UNL     1     -34.779  16.207  -1.686  1.00 20.00     0.023 C 
HETATM    9  O9  UNL     1     -37.104  14.646  -3.271  1.00 20.00    -0.297 OA
ENDROOT
TORSDOF 0
ENDMDL
