MODEL 1
REMARK VINA RESULT:      -2.9      0.000      0.000
REMARK  2 active torsions:
REMARK  status: ('A' for Active; 'I' for Inactive)
REMARK    1  A    between atoms: C2_2  and  C4_4 
REMARK    2  A    between atoms: C4_4  and  S6_6 
ROOT
HETATM    1  C1  UNL     1     -32.317   7.609   2.518  1.00 20.00     0.201 A 
HETATM    2  C2  UNL     1     -32.664   6.426   3.378  1.00 20.00     0.154 A 
HETATM    3  O5  UNL     1     -31.543   7.264   3.678  1.00 20.00    -0.380 OA
ENDROOT
BRANCH   2   4
HETATM    4  C4  UNL     1     -33.769   6.492   4.369  1.00 20.00     0.107 C 
BRANCH   4   5
HETATM    5  S6  UNL     1     -34.982   5.157   4.108  1.00 20.00    -0.171 SA
HETATM    6  C3  UNL     1     -34.918   4.429   5.759  1.00 20.00     0.089 C 
ENDBRANCH   4   5
ENDBRANCH   2   4
TORSDOF 2
ENDMDL
MODEL 2
REMARK VINA RESULT:      -2.9      1.287      1.433
REMARK  2 active torsions:
REMARK  status: ('A' for Active; 'I' for Inactive)
REMARK    1  A    between atoms: C2_2  and  C4_4 
REMARK    2  A    between atoms: C4_4  and  S6_6 
ROOT
HETATM    1  C1  UNL     1     -32.086   6.243   3.320  1.00 20.00     0.201 A 
HETATM    2  C2  UNL     1     -33.433   6.421   3.962  1.00 20.00     0.154 A 
HETATM    3  O5  UNL     1     -33.023   7.225   2.852  1.00 20.00    -0.380 OA
ENDROOT
BRANCH   2   4
HETATM    4  C4  UNL     1     -34.554   5.490   3.672  1.00 20.00     0.107 C 
BRANCH   4   5
HETATM    5  S6  UNL     1     -35.087   4.597   5.170  1.00 20.00    -0.171 SA
HETATM    6  C3  UNL     1     -34.431   5.748   6.397  1.00 20.00     0.089 C 
ENDBRANCH   4   5
ENDBRANCH   2   4
TORSDOF 2
ENDMDL
MODEL 3
REMARK VINA RESULT:      -2.8     11.509     11.727
REMARK  2 active torsions:
REMARK  status: ('A' for Active; 'I' for Inactive)
REMARK    1  A    between atoms: C2_2  and  C4_4 
REMARK    2  A    between atoms: C4_4  and  S6_6 
ROOT
HETATM    1  C1  UNL     1     -34.889  13.639  -5.463  1.00 20.00     0.201 A 
HETATM    2  C2  UNL     1     -35.433  14.031  -4.118  1.00 20.00     0.154 A 
HETATM    3  O5  UNL     1     -34.980  12.699  -4.380  1.00 20.00    -0.380 OA
ENDROOT
BRANCH   2   4
HETATM    4  C4  UNL     1     -34.604  14.785  -3.141  1.00 20.00     0.107 C 
BRANCH   4   5
HETATM    5  S6  UNL     1     -35.403  16.350  -2.654  1.00 20.00    -0.171 SA
HETATM    6  C3  UNL     1     -34.605  16.553  -1.047  1.00 20.00     0.089 C 
ENDBRANCH   4   5
ENDBRANCH   2   4
TORSDOF 2
ENDMDL
MODEL 4
REMARK VINA RESULT:      -2.7      2.452      3.956
REMARK  2 active torsions:
REMARK  status: ('A' for Active; 'I' for Inactive)
REMARK    1  A    between atoms: C2_2  and  C4_4 
REMARK    2  A    between atoms: C4_4  and  S6_6 
ROOT
HETATM    1  C1  UNL     1     -34.676   5.291   6.039  1.00 20.00     0.201 A 
HETATM    2  C2  UNL     1     -34.096   5.234   4.653  1.00 20.00     0.154 A 
HETATM    3  O5  UNL     1     -35.486   4.986   4.892  1.00 20.00    -0.380 OA
ENDROOT
BRANCH   2   4
HETATM    4  C4  UNL     1     -33.812   6.474   3.886  1.00 20.00     0.107 C 
BRANCH   4   5
HETATM    5  S6  UNL     1     -32.114   6.472   3.220  1.00 20.00    -0.171 SA
HETATM    6  C3  UNL     1     -32.187   8.046   2.338  1.00 20.00     0.089 C 
ENDBRANCH   4   5
ENDBRANCH   2   4
TORSDOF 2
ENDMDL
MODEL 5
REMARK VINA RESULT:      -2.7     12.015     13.052
REMARK  2 active torsions:
REMARK  status: ('A' for Active; 'I' for Inactive)
REMARK    1  A    between atoms: C2_2  and  C4_4 
REMARK    2  A    between atoms: C4_4  and  S6_6 
ROOT
HETATM    1  C1  UNL     1     -35.508  13.620  -4.124  1.00 20.00     0.201 A 
HETATM    2  C2  UNL     1     -34.410  14.024  -5.069  1.00 20.00     0.154 A 
HETATM    3  O5  UNL     1     -34.738  12.648  -4.850  1.00 20.00    -0.380 OA
ENDROOT
BRANCH   2   4
HETATM    4  C4  UNL     1     -34.715  14.524  -6.434  1.00 20.00     0.107 C 
BRANCH   4   5
HETATM    5  S6  UNL     1     -34.336  16.300  -6.596  1.00 20.00    -0.171 SA
HETATM    6  C3  UNL     1     -33.282  16.468  -5.140  1.00 20.00     0.089 C 
ENDBRANCH   4   5
ENDBRANCH   2   4
TORSDOF 2
ENDMDL
MODEL 6
REMARK VINA RESULT:      -2.7     11.487     12.249
REMARK  2 active torsions:
REMARK  status: ('A' for Active; 'I' for Inactive)
REMARK    1  A    between atoms: C2_2  and  C4_4 
REMARK    2  A    between atoms: C4_4  and  S6_6 
ROOT
HETATM    1  C1  UNL     1     -35.123  13.690  -5.578  1.00 20.00     0.201 A 
HETATM    2  C2  UNL     1     -34.871  13.844  -4.104  1.00 20.00     0.154 A 
HETATM    3  O5  UNL     1     -34.766  12.572  -4.751  1.00 20.00    -0.380 OA
ENDROOT
BRANCH   2   4
HETATM    4  C4  UNL     1     -33.584  14.388  -3.596  1.00 20.00     0.107 C 
BRANCH   4   5
HETATM    5  S6  UNL     1     -33.763  16.113  -3.033  1.00 20.00    -0.171 SA
HETATM    6  C3  UNL     1     -33.464  16.928  -4.616  1.00 20.00     0.089 C 
ENDBRANCH   4   5
ENDBRANCH   2   4
TORSDOF 2
ENDMDL
MODEL 7
REMARK VINA RESULT:      -2.7      2.422      3.964
REMARK  2 active torsions:
REMARK  status: ('A' for Active; 'I' for Inactive)
REMARK    1  A    between atoms: C2_2  and  C4_4 
REMARK    2  A    between atoms: C4_4  and  S6_6 
ROOT
HETATM    1  C1  UNL     1     -34.783   3.946   5.555  1.00 20.00     0.201 A 
HETATM    2  C2  UNL     1     -34.895   5.316   4.949  1.00 20.00     0.154 A 
HETATM    3  O5  UNL     1     -35.311   5.059   6.294  1.00 20.00    -0.380 OA
ENDROOT
BRANCH   2   4
HETATM    4  C4  UNL     1     -33.709   6.203   4.828  1.00 20.00     0.107 C 
BRANCH   4   5
HETATM    5  S6  UNL     1     -33.018   6.168   3.140  1.00 20.00    -0.171 SA
HETATM    6  C3  UNL     1     -31.768   7.454   3.351  1.00 20.00     0.089 C 
ENDBRANCH   4   5
ENDBRANCH   2   4
TORSDOF 2
ENDMDL
MODEL 8
REMARK VINA RESULT:      -2.6     11.679     12.901
REMARK  2 active torsions:
REMARK  status: ('A' for Active; 'I' for Inactive)
REMARK    1  A    between atoms: C2_2  and  C4_4 
REMARK    2  A    between atoms: C4_4  and  S6_6 
ROOT
HETATM    1  C1  UNL     1     -34.087  13.658  -3.897  1.00 20.00     0.201 A 
HETATM    2  C2  UNL     1     -34.856  13.892  -5.167  1.00 20.00     0.154 A 
HETATM    3  O5  UNL     1     -35.003  12.682  -4.417  1.00 20.00    -0.380 OA
ENDROOT
BRANCH   2   4
HETATM    4  C4  UNL     1     -36.063  14.758  -5.187  1.00 20.00     0.107 C 
BRANCH   4   5
HETATM    5  S6  UNL     1     -36.530  15.213  -6.890  1.00 20.00    -0.171 SA
HETATM    6  C3  UNL     1     -34.988  14.750  -7.708  1.00 20.00     0.089 C 
ENDBRANCH   4   5
ENDBRANCH   2   4
TORSDOF 2
ENDMDL
MODEL 9
REMARK VINA RESULT:      -2.6     11.635     12.183
REMARK  2 active torsions:
REMARK  status: ('A' for Active; 'I' for Inactive)
REMARK    1  A    between atoms: C2_2  and  C4_4 
REMARK    2  A    between atoms: C4_4  and  S6_6 
ROOT
HETATM    1  C1  UNL     1     -37.522  15.203  -4.712  1.00 20.00     0.201 A 
HETATM    2  C2  UNL     1     -36.457  14.598  -3.841  1.00 20.00     0.154 A 
HETATM    3  O5  UNL     1     -37.817  14.160  -3.770  1.00 20.00    -0.380 OA
ENDROOT
BRANCH   2   4
HETATM    4  C4  UNL     1     -35.508  13.586  -4.375  1.00 20.00     0.107 C 
BRANCH   4   5
HETATM    5  S6  UNL     1     -33.806  13.898  -3.800  1.00 20.00    -0.171 SA
HETATM    6  C3  UNL     1     -34.023  15.615  -3.284  1.00 20.00     0.089 C 
ENDBRANCH   4   5
ENDBRANCH   2   4
TORSDOF 2
ENDMDL
