MODEL 1
REMARK VINA RESULT:      -4.4      0.000      0.000
REMARK  2 active torsions:
REMARK  status: ('A' for Active; 'I' for Inactive)
REMARK    1  A    between atoms: C3_3  and  C8_8 
REMARK       I    between atoms: C3_3  and  N10_10 
REMARK    2  A    between atoms: C9_9  and  N10_10 
ROOT
HETATM    1  C1  UNL     1     -34.277  15.547  -6.808  1.00 20.00     0.015 C 
HETATM    2  C2  UNL     1     -34.823  15.202  -5.795  1.00 20.00    -0.086 C 
HETATM    3  C6  UNL     1     -37.014  14.839  -4.740  1.00 20.00     0.052 C 
HETATM    4  C7  UNL     1     -35.072  13.349  -4.194  1.00 20.00     0.052 C 
HETATM    5  C9  UNL     1     -35.494  14.778  -4.550  1.00 20.00     0.088 C 
ENDROOT
BRANCH   5   6
HETATM    6  N10 UNL     1     -35.106  15.667  -3.480  1.00 20.00    -0.341 N 
HETATM    7  C3  UNL     1     -33.791  15.812  -3.064  1.00 20.00     0.222 C 
HETATM    8  O11 UNL     1     -32.833  15.214  -3.550  1.00 20.00    -0.273 OA
HETATM    9  H26 UNL     1     -35.827  16.209  -3.012  1.00 20.00     0.164 HD
BRANCH   7  10
HETATM   10  C8  UNL     1     -33.649  16.808  -1.915  1.00 20.00     0.070 C 
HETATM   11  C4  UNL     1     -33.738  18.238  -2.445  1.00 20.00     0.019 C 
HETATM   12  C5  UNL     1     -34.712  16.570  -0.845  1.00 20.00     0.019 C 
ENDBRANCH   7  10
ENDBRANCH   5   6
TORSDOF 2
ENDMDL
MODEL 2
REMARK VINA RESULT:      -4.3      1.551      2.096
REMARK  2 active torsions:
REMARK  status: ('A' for Active; 'I' for Inactive)
REMARK    1  A    between atoms: C3_3  and  C8_8 
REMARK       I    between atoms: C3_3  and  N10_10 
REMARK    2  A    between atoms: C9_9  and  N10_10 
ROOT
HETATM    1  C1  UNL     1     -34.786  13.276  -4.151  1.00 20.00     0.015 C 
HETATM    2  C2  UNL     1     -35.448  14.254  -3.930  1.00 20.00    -0.086 C 
HETATM    3  C6  UNL     1     -36.022  16.497  -4.757  1.00 20.00     0.052 C 
HETATM    4  C7  UNL     1     -37.747  15.077  -3.619  1.00 20.00     0.052 C 
HETATM    5  C9  UNL     1     -36.263  15.456  -3.659  1.00 20.00     0.088 C 
ENDROOT
BRANCH   5   6
HETATM    6  N10 UNL     1     -35.880  16.006  -2.380  1.00 20.00    -0.341 N 
HETATM    7  C3  UNL     1     -34.591  16.437  -2.104  1.00 20.00     0.222 C 
HETATM    8  O11 UNL     1     -33.654  16.398  -2.899  1.00 20.00    -0.273 OA
HETATM    9  H26 UNL     1     -36.585  16.082  -1.652  1.00 20.00     0.164 HD
BRANCH   7  10
HETATM   10  C8  UNL     1     -34.447  16.972  -0.681  1.00 20.00     0.070 C 
HETATM   11  C4  UNL     1     -33.237  17.900  -0.588  1.00 20.00     0.019 C 
HETATM   12  C5  UNL     1     -35.713  17.703  -0.237  1.00 20.00     0.019 C 
ENDBRANCH   7  10
ENDBRANCH   5   6
TORSDOF 2
ENDMDL
MODEL 3
REMARK VINA RESULT:      -4.3      0.603      2.057
REMARK  2 active torsions:
REMARK  status: ('A' for Active; 'I' for Inactive)
REMARK    1  A    between atoms: C3_3  and  C8_8 
REMARK       I    between atoms: C3_3  and  N10_10 
REMARK    2  A    between atoms: C9_9  and  N10_10 
ROOT
HETATM    1  C1  UNL     1     -38.399  14.687  -4.088  1.00 20.00     0.015 C 
HETATM    2  C2  UNL     1     -37.201  14.750  -4.144  1.00 20.00    -0.086 C 
HETATM    3  C6  UNL     1     -35.132  13.427  -4.037  1.00 20.00     0.052 C 
HETATM    4  C7  UNL     1     -35.302  15.407  -5.567  1.00 20.00     0.052 C 
HETATM    5  C9  UNL     1     -35.727  14.827  -4.214  1.00 20.00     0.088 C 
ENDROOT
BRANCH   5   6
HETATM    6  N10 UNL     1     -35.251  15.690  -3.158  1.00 20.00    -0.341 N 
HETATM    7  C3  UNL     1     -33.908  15.988  -2.980  1.00 20.00     0.222 C 
HETATM    8  O11 UNL     1     -32.997  15.559  -3.684  1.00 20.00    -0.273 OA
HETATM    9  H26 UNL     1     -35.928  16.098  -2.519  1.00 20.00     0.164 HD
BRANCH   7  10
HETATM   10  C8  UNL     1     -33.669  16.918  -1.793  1.00 20.00     0.070 C 
HETATM   11  C4  UNL     1     -33.724  18.376  -2.247  1.00 20.00     0.019 C 
HETATM   12  C5  UNL     1     -34.689  16.669  -0.684  1.00 20.00     0.019 C 
ENDBRANCH   7  10
ENDBRANCH   5   6
TORSDOF 2
ENDMDL
MODEL 4
REMARK VINA RESULT:      -4.2      1.651      3.590
REMARK  2 active torsions:
REMARK  status: ('A' for Active; 'I' for Inactive)
REMARK    1  A    between atoms: C3_3  and  C8_8 
REMARK       I    between atoms: C3_3  and  N10_10 
REMARK    2  A    between atoms: C9_9  and  N10_10 
ROOT
HETATM    1  C1  UNL     1     -34.637  16.309  -1.473  1.00 20.00     0.015 C 
HETATM    2  C2  UNL     1     -34.926  15.750  -2.497  1.00 20.00    -0.086 C 
HETATM    3  C6  UNL     1     -34.429  13.797  -3.905  1.00 20.00     0.052 C 
HETATM    4  C7  UNL     1     -36.767  14.688  -3.738  1.00 20.00     0.052 C 
HETATM    5  C9  UNL     1     -35.281  15.061  -3.754  1.00 20.00     0.088 C 
ENDROOT
BRANCH   5   6
HETATM    6  N10 UNL     1     -35.028  15.949  -4.865  1.00 20.00    -0.341 N 
HETATM    7  C3  UNL     1     -33.762  16.425  -5.172  1.00 20.00     0.222 C 
HETATM    8  O11 UNL     1     -32.739  16.149  -4.548  1.00 20.00    -0.273 OA
HETATM    9  H26 UNL     1     -35.810  16.237  -5.446  1.00 20.00     0.164 HD
BRANCH   7  10
HETATM   10  C8  UNL     1     -33.765  17.348  -6.389  1.00 20.00     0.070 C 
HETATM   11  C4  UNL     1     -35.000  17.084  -7.247  1.00 20.00     0.019 C 
HETATM   12  C5  UNL     1     -33.714  18.815  -5.967  1.00 20.00     0.019 C 
ENDBRANCH   7  10
ENDBRANCH   5   6
TORSDOF 2
ENDMDL
MODEL 5
REMARK VINA RESULT:      -4.1      2.137      5.070
REMARK  2 active torsions:
REMARK  status: ('A' for Active; 'I' for Inactive)
REMARK    1  A    between atoms: C3_3  and  C8_8 
REMARK       I    between atoms: C3_3  and  N10_10 
REMARK    2  A    between atoms: C9_9  and  N10_10 
ROOT
HETATM    1  C1  UNL     1     -32.170  18.856   0.227  1.00 20.00     0.015 C 
HETATM    2  C2  UNL     1     -33.280  18.408   0.115  1.00 20.00    -0.086 C 
HETATM    3  C6  UNL     1     -35.203  17.525   1.366  1.00 20.00     0.052 C 
HETATM    4  C7  UNL     1     -35.548  18.882  -0.715  1.00 20.00     0.052 C 
HETATM    5  C9  UNL     1     -34.643  17.858  -0.021  1.00 20.00     0.088 C 
ENDROOT
BRANCH   5   6
HETATM    6  N10 UNL     1     -34.589  16.656  -0.820  1.00 20.00    -0.341 N 
HETATM    7  C3  UNL     1     -34.153  16.649  -2.136  1.00 20.00     0.222 C 
HETATM    8  O11 UNL     1     -33.774  17.641  -2.754  1.00 20.00    -0.273 OA
HETATM    9  H26 UNL     1     -34.881  15.778  -0.399  1.00 20.00     0.164 HD
BRANCH   7  10
HETATM   10  C8  UNL     1     -34.194  15.254  -2.757  1.00 20.00     0.070 C 
HETATM   11  C4  UNL     1     -35.527  15.035  -3.470  1.00 20.00     0.019 C 
HETATM   12  C5  UNL     1     -33.032  15.048  -3.726  1.00 20.00     0.019 C 
ENDBRANCH   7  10
ENDBRANCH   5   6
TORSDOF 2
ENDMDL
MODEL 6
REMARK VINA RESULT:      -4.1      1.842      4.942
REMARK  2 active torsions:
REMARK  status: ('A' for Active; 'I' for Inactive)
REMARK    1  A    between atoms: C3_3  and  C8_8 
REMARK       I    between atoms: C3_3  and  N10_10 
REMARK    2  A    between atoms: C9_9  and  N10_10 
ROOT
HETATM    1  C1  UNL     1     -35.460  17.396   1.855  1.00 20.00     0.015 C 
HETATM    2  C2  UNL     1     -35.128  17.477   0.703  1.00 20.00    -0.086 C 
HETATM    3  C6  UNL     1     -35.620  18.586  -1.435  1.00 20.00     0.052 C 
HETATM    4  C7  UNL     1     -33.259  18.028  -0.800  1.00 20.00     0.052 C 
HETATM    5  C9  UNL     1     -34.721  17.578  -0.713  1.00 20.00     0.088 C 
ENDROOT
BRANCH   5   6
HETATM    6  N10 UNL     1     -34.855  16.281  -1.334  1.00 20.00    -0.341 N 
HETATM    7  C3  UNL     1     -34.401  16.013  -2.617  1.00 20.00     0.222 C 
HETATM    8  O11 UNL     1     -33.848  16.830  -3.350  1.00 20.00    -0.273 OA
HETATM    9  H26 UNL     1     -35.299  15.533  -0.809  1.00 20.00     0.164 HD
BRANCH   7  10
HETATM   10  C8  UNL     1     -34.666  14.569  -3.040  1.00 20.00     0.070 C 
HETATM   11  C4  UNL     1     -35.934  14.494  -3.888  1.00 20.00     0.019 C 
HETATM   12  C5  UNL     1     -33.478  13.994  -3.808  1.00 20.00     0.019 C 
ENDBRANCH   7  10
ENDBRANCH   5   6
TORSDOF 2
ENDMDL
MODEL 7
REMARK VINA RESULT:      -4.1      1.821      2.008
REMARK  2 active torsions:
REMARK  status: ('A' for Active; 'I' for Inactive)
REMARK    1  A    between atoms: C3_3  and  C8_8 
REMARK       I    between atoms: C3_3  and  N10_10 
REMARK    2  A    between atoms: C9_9  and  N10_10 
ROOT
HETATM    1  C1  UNL     1     -33.684  16.833  -5.482  1.00 20.00     0.015 C 
HETATM    2  C2  UNL     1     -34.003  16.034  -4.643  1.00 20.00    -0.086 C 
HETATM    3  C6  UNL     1     -35.881  14.712  -3.768  1.00 20.00     0.052 C 
HETATM    4  C7  UNL     1     -33.553  13.779  -3.764  1.00 20.00     0.052 C 
HETATM    5  C9  UNL     1     -34.395  15.051  -3.614  1.00 20.00     0.088 C 
ENDROOT
BRANCH   5   6
HETATM    6  N10 UNL     1     -34.164  15.620  -2.307  1.00 20.00    -0.341 N 
HETATM    7  C3  UNL     1     -34.897  16.689  -1.813  1.00 20.00     0.222 C 
HETATM    8  O11 UNL     1     -35.804  17.255  -2.419  1.00 20.00    -0.273 OA
HETATM    9  H26 UNL     1     -33.434  15.221  -1.724  1.00 20.00     0.164 HD
BRANCH   7  10
HETATM   10  C8  UNL     1     -34.454  17.103  -0.411  1.00 20.00     0.070 C 
HETATM   11  C4  UNL     1     -33.251  18.040  -0.495  1.00 20.00     0.019 C 
HETATM   12  C5  UNL     1     -35.596  17.769   0.353  1.00 20.00     0.019 C 
ENDBRANCH   7  10
ENDBRANCH   5   6
TORSDOF 2
ENDMDL
MODEL 8
REMARK VINA RESULT:      -4.1      0.789      1.919
REMARK  2 active torsions:
REMARK  status: ('A' for Active; 'I' for Inactive)
REMARK    1  A    between atoms: C3_3  and  C8_8 
REMARK       I    between atoms: C3_3  and  N10_10 
REMARK    2  A    between atoms: C9_9  and  N10_10 
ROOT
HETATM    1  C1  UNL     1     -35.105  13.135  -4.608  1.00 20.00     0.015 C 
HETATM    2  C2  UNL     1     -35.096  14.321  -4.800  1.00 20.00    -0.086 C 
HETATM    3  C6  UNL     1     -33.996  16.124  -6.058  1.00 20.00     0.052 C 
HETATM    4  C7  UNL     1     -36.452  16.229  -5.563  1.00 20.00     0.052 C 
HETATM    5  C9  UNL     1     -35.085  15.779  -5.038  1.00 20.00     0.088 C 
ENDROOT
BRANCH   5   6
HETATM    6  N10 UNL     1     -34.810  16.456  -3.792  1.00 20.00    -0.341 N 
HETATM    7  C3  UNL     1     -33.682  16.196  -3.028  1.00 20.00     0.222 C 
HETATM    8  O11 UNL     1     -32.812  15.378  -3.321  1.00 20.00    -0.273 OA
HETATM    9  H26 UNL     1     -35.470  17.154  -3.461  1.00 20.00     0.164 HD
BRANCH   7  10
HETATM   10  C8  UNL     1     -33.629  17.041  -1.758  1.00 20.00     0.070 C 
HETATM   11  C4  UNL     1     -33.753  18.523  -2.107  1.00 20.00     0.019 C 
HETATM   12  C5  UNL     1     -34.726  16.632  -0.778  1.00 20.00     0.019 C 
ENDBRANCH   7  10
ENDBRANCH   5   6
TORSDOF 2
ENDMDL
MODEL 9
REMARK VINA RESULT:      -4.1      1.962      4.270
REMARK  2 active torsions:
REMARK  status: ('A' for Active; 'I' for Inactive)
REMARK    1  A    between atoms: C3_3  and  C8_8 
REMARK       I    between atoms: C3_3  and  N10_10 
REMARK    2  A    between atoms: C9_9  and  N10_10 
ROOT
HETATM    1  C1  UNL     1     -34.805  16.265  -1.514  1.00 20.00     0.015 C 
HETATM    2  C2  UNL     1     -34.589  15.808  -2.604  1.00 20.00    -0.086 C 
HETATM    3  C6  UNL     1     -33.080  15.915  -4.542  1.00 20.00     0.052 C 
HETATM    4  C7  UNL     1     -34.100  13.735  -3.837  1.00 20.00     0.052 C 
HETATM    5  C9  UNL     1     -34.323  15.247  -3.944  1.00 20.00     0.088 C 
ENDROOT
BRANCH   5   6
HETATM    6  N10 UNL     1     -35.462  15.499  -4.795  1.00 20.00    -0.341 N 
HETATM    7  C3  UNL     1     -36.693  14.890  -4.602  1.00 20.00     0.222 C 
HETATM    8  O11 UNL     1     -36.944  14.087  -3.706  1.00 20.00    -0.273 OA
HETATM    9  H26 UNL     1     -35.358  16.151  -5.568  1.00 20.00     0.164 HD
BRANCH   7  10
HETATM   10  C8  UNL     1     -37.727  15.323  -5.638  1.00 20.00     0.070 C 
HETATM   11  C4  UNL     1     -38.223  16.734  -5.329  1.00 20.00     0.019 C 
HETATM   12  C5  UNL     1     -37.151  15.260  -7.051  1.00 20.00     0.019 C 
ENDBRANCH   7  10
ENDBRANCH   5   6
TORSDOF 2
ENDMDL
