MODEL 1
REMARK VINA RESULT:      -3.3      0.000      0.000
REMARK  0 active torsions:
REMARK  status: ('A' for Active; 'I' for Inactive)
ROOT
HETATM    1  C1  UNL     1     -35.188  15.435  -4.536  1.00 20.00     0.116 C 
HETATM    2  C2  UNL     1     -33.388  13.660  -3.820  1.00 20.00     0.344 C 
HETATM    3  C3  UNL     1     -33.897  15.987  -3.908  1.00 20.00     0.159 C 
HETATM    4  C4  UNL     1     -33.493  17.294  -4.609  1.00 20.00     0.049 C 
HETATM    5  C5  UNL     1     -34.060  16.274  -2.404  1.00 20.00     0.049 C 
HETATM    6  N6  UNL     1     -32.836  14.980  -4.135  1.00 20.00     0.102 N 
HETATM    7  S7  UNL     1     -35.145  13.651  -4.239  1.00 20.00    -0.137 SA
HETATM    8  H18 UNL     1     -32.076  15.164  -3.486  1.00 20.00     0.317 HD
ENDROOT
TORSDOF 0
ENDMDL
MODEL 2
REMARK VINA RESULT:      -3.2      1.918      2.635
REMARK  0 active torsions:
REMARK  status: ('A' for Active; 'I' for Inactive)
ROOT
HETATM    1  C1  UNL     1     -34.251  14.586  -3.269  1.00 20.00     0.116 C 
HETATM    2  C2  UNL     1     -36.773  14.565  -4.006  1.00 20.00     0.344 C 
HETATM    3  C3  UNL     1     -35.081  15.826  -2.898  1.00 20.00     0.159 C 
HETATM    4  C4  UNL     1     -34.660  16.340  -1.512  1.00 20.00     0.049 C 
HETATM    5  C5  UNL     1     -34.902  16.969  -3.914  1.00 20.00     0.049 C 
HETATM    6  N6  UNL     1     -36.497  15.401  -2.836  1.00 20.00     0.102 N 
HETATM    7  S7  UNL     1     -35.275  13.650  -4.432  1.00 20.00    -0.137 SA
HETATM    8  H18 UNL     1     -37.084  16.228  -2.897  1.00 20.00     0.317 HD
ENDROOT
TORSDOF 0
ENDMDL
MODEL 3
REMARK VINA RESULT:      -3.2     12.680     13.497
REMARK  0 active torsions:
REMARK  status: ('A' for Active; 'I' for Inactive)
ROOT
HETATM    1  C1  UNL     1     -42.528   5.822  -1.752  1.00 20.00     0.116 C 
HETATM    2  C2  UNL     1     -41.775   3.399  -2.437  1.00 20.00     0.344 C 
HETATM    3  C3  UNL     1     -41.641   5.071  -0.744  1.00 20.00     0.159 C 
HETATM    4  C4  UNL     1     -40.661   6.052  -0.079  1.00 20.00     0.049 C 
HETATM    5  C5  UNL     1     -42.468   4.389   0.361  1.00 20.00     0.049 C 
HETATM    6  N6  UNL     1     -40.864   4.070  -1.507  1.00 20.00     0.102 N 
HETATM    7  S7  UNL     1     -43.036   4.580  -2.965  1.00 20.00    -0.137 SA
HETATM    8  H18 UNL     1     -40.512   3.373  -0.857  1.00 20.00     0.317 HD
ENDROOT
TORSDOF 0
ENDMDL
MODEL 4
REMARK VINA RESULT:      -3.2      1.746      2.967
REMARK  0 active torsions:
REMARK  status: ('A' for Active; 'I' for Inactive)
ROOT
HETATM    1  C1  UNL     1     -35.068  15.695  -3.767  1.00 20.00     0.116 C 
HETATM    2  C2  UNL     1     -33.433  17.152  -5.220  1.00 20.00     0.344 C 
HETATM    3  C3  UNL     1     -34.040  14.928  -4.616  1.00 20.00     0.159 C 
HETATM    4  C4  UNL     1     -33.538  13.698  -3.842  1.00 20.00     0.049 C 
HETATM    5  C5  UNL     1     -34.636  14.449  -5.953  1.00 20.00     0.049 C 
HETATM    6  N6  UNL     1     -32.899  15.839  -4.850  1.00 20.00     0.102 N 
HETATM    7  S7  UNL     1     -34.999  17.405  -4.356  1.00 20.00    -0.137 SA
HETATM    8  H18 UNL     1     -32.363  15.487  -5.638  1.00 20.00     0.317 HD
ENDROOT
TORSDOF 0
ENDMDL
MODEL 5
REMARK VINA RESULT:      -3.1      1.624      2.063
REMARK  0 active torsions:
REMARK  status: ('A' for Active; 'I' for Inactive)
ROOT
HETATM    1  C1  UNL     1     -34.702  14.122  -5.380  1.00 20.00     0.116 C 
HETATM    2  C2  UNL     1     -32.965  15.239  -3.755  1.00 20.00     0.344 C 
HETATM    3  C3  UNL     1     -34.389  15.606  -5.631  1.00 20.00     0.159 C 
HETATM    4  C4  UNL     1     -34.360  15.885  -7.142  1.00 20.00     0.049 C 
HETATM    5  C5  UNL     1     -35.433  16.536  -4.986  1.00 20.00     0.049 C 
HETATM    6  N6  UNL     1     -33.043  15.869  -5.075  1.00 20.00     0.102 N 
HETATM    7  S7  UNL     1     -33.975  13.742  -3.767  1.00 20.00    -0.137 SA
HETATM    8  H18 UNL     1     -32.938  16.872  -4.950  1.00 20.00     0.317 HD
ENDROOT
TORSDOF 0
ENDMDL
MODEL 6
REMARK VINA RESULT:      -3.1      1.645      2.160
REMARK  0 active torsions:
REMARK  status: ('A' for Active; 'I' for Inactive)
ROOT
HETATM    1  C1  UNL     1     -35.778  15.667  -5.148  1.00 20.00     0.116 C 
HETATM    2  C2  UNL     1     -34.345  14.158  -3.544  1.00 20.00     0.344 C 
HETATM    3  C3  UNL     1     -34.355  15.326  -5.622  1.00 20.00     0.159 C 
HETATM    4  C4  UNL     1     -34.350  15.101  -7.142  1.00 20.00     0.049 C 
HETATM    5  C5  UNL     1     -33.350  16.447  -5.295  1.00 20.00     0.049 C 
HETATM    6  N6  UNL     1     -33.964  14.064  -4.955  1.00 20.00     0.102 N 
HETATM    7  S7  UNL     1     -35.845  15.157  -3.414  1.00 20.00    -0.137 SA
HETATM    8  H18 UNL     1     -32.952  13.977  -5.000  1.00 20.00     0.317 HD
ENDROOT
TORSDOF 0
ENDMDL
MODEL 7
REMARK VINA RESULT:      -3.1      1.621      2.197
REMARK  0 active torsions:
REMARK  status: ('A' for Active; 'I' for Inactive)
ROOT
HETATM    1  C1  UNL     1     -34.673  15.885  -4.778  1.00 20.00     0.116 C 
HETATM    2  C2  UNL     1     -34.730  13.262  -4.926  1.00 20.00     0.344 C 
HETATM    3  C3  UNL     1     -35.145  15.139  -3.518  1.00 20.00     0.159 C 
HETATM    4  C4  UNL     1     -34.624  15.855  -2.262  1.00 20.00     0.049 C 
HETATM    5  C5  UNL     1     -36.681  15.064  -3.431  1.00 20.00     0.049 C 
HETATM    6  N6  UNL     1     -34.559  13.782  -3.568  1.00 20.00     0.102 N 
HETATM    7  S7  UNL     1     -34.640  14.640  -6.091  1.00 20.00    -0.137 SA
HETATM    8  H18 UNL     1     -35.081  13.183  -2.935  1.00 20.00     0.317 HD
ENDROOT
TORSDOF 0
ENDMDL
MODEL 8
REMARK VINA RESULT:      -3.1      1.625      2.341
REMARK  0 active torsions:
REMARK  status: ('A' for Active; 'I' for Inactive)
ROOT
HETATM    1  C1  UNL     1     -35.665  15.454  -4.462  1.00 20.00     0.116 C 
HETATM    2  C2  UNL     1     -34.422  15.118  -6.753  1.00 20.00     0.344 C 
HETATM    3  C3  UNL     1     -34.182  15.056  -4.383  1.00 20.00     0.159 C 
HETATM    4  C4  UNL     1     -33.508  15.785  -3.209  1.00 20.00     0.049 C 
HETATM    5  C5  UNL     1     -33.998  13.540  -4.180  1.00 20.00     0.049 C 
HETATM    6  N6  UNL     1     -33.543  15.494  -5.643  1.00 20.00     0.102 N 
HETATM    7  S7  UNL     1     -36.136  15.213  -6.193  1.00 20.00    -0.137 SA
HETATM    8  H18 UNL     1     -32.668  14.989  -5.753  1.00 20.00     0.317 HD
ENDROOT
TORSDOF 0
ENDMDL
MODEL 9
REMARK VINA RESULT:      -3.0     11.623     12.168
REMARK  0 active torsions:
REMARK  status: ('A' for Active; 'I' for Inactive)
ROOT
HETATM    1  C1  UNL     1     -42.066   5.358  -2.299  1.00 20.00     0.116 C 
HETATM    2  C2  UNL     1     -40.642   6.242  -0.276  1.00 20.00     0.344 C 
HETATM    3  C3  UNL     1     -42.183   6.859  -1.985  1.00 20.00     0.159 C 
HETATM    4  C4  UNL     1     -42.292   7.658  -3.294  1.00 20.00     0.049 C 
HETATM    5  C5  UNL     1     -43.417   7.176  -1.120  1.00 20.00     0.049 C 
HETATM    6  N6  UNL     1     -40.941   7.258  -1.287  1.00 20.00     0.102 N 
HETATM    7  S7  UNL     1     -41.200   4.636  -0.883  1.00 20.00    -0.137 SA
HETATM    8  H18 UNL     1     -41.111   8.137  -0.807  1.00 20.00     0.317 HD
ENDROOT
TORSDOF 0
ENDMDL
