MODEL 1
REMARK VINA RESULT:      -5.3      0.000      0.000
REMARK  0 active torsions:
REMARK  status: ('A' for Active; 'I' for Inactive)
ROOT
HETATM    1  C1  UNL     1     -32.174   6.989   3.336  1.00 20.00     0.094 C 
HETATM    2  C2  UNL     1     -34.863   5.413   6.651  1.00 20.00     0.003 C 
HETATM    3  C3  UNL     1     -35.028   4.097   5.894  1.00 20.00     0.003 C 
HETATM    4  C4  UNL     1     -33.836   6.181   5.817  1.00 20.00     0.042 C 
HETATM    5  C5  UNL     1     -35.013   4.519   4.423  1.00 20.00     0.042 C 
HETATM    6  C6  UNL     1     -33.303   6.123   3.204  1.00 20.00     0.263 A 
HETATM    7  C7  UNL     1     -34.119   5.726   4.415  1.00 20.00     0.101 A 
HETATM    8  N8  UNL     1     -31.257   7.691   3.442  1.00 20.00    -0.194 NA
HETATM    9  O9  UNL     1     -34.544   6.767   3.524  1.00 20.00    -0.354 OA
ENDROOT
TORSDOF 0
ENDMDL
MODEL 2
REMARK VINA RESULT:      -4.4      1.520      2.181
REMARK  0 active torsions:
REMARK  status: ('A' for Active; 'I' for Inactive)
ROOT
HETATM    1  C1  UNL     1     -32.121   7.975   2.334  1.00 20.00     0.094 C 
HETATM    2  C2  UNL     1     -35.234   5.068   3.936  1.00 20.00     0.003 C 
HETATM    3  C3  UNL     1     -34.927   5.523   5.361  1.00 20.00     0.003 C 
HETATM    4  C4  UNL     1     -34.393   6.007   3.070  1.00 20.00     0.042 C 
HETATM    5  C5  UNL     1     -33.426   5.820   5.333  1.00 20.00     0.042 C 
HETATM    6  C6  UNL     1     -32.078   7.240   3.560  1.00 20.00     0.263 A 
HETATM    7  C7  UNL     1     -33.187   6.277   3.923  1.00 20.00     0.101 A 
HETATM    8  N8  UNL     1     -32.155   8.572   1.340  1.00 20.00    -0.194 NA
HETATM    9  O9  UNL     1     -31.947   5.826   3.361  1.00 20.00    -0.354 OA
ENDROOT
TORSDOF 0
ENDMDL
MODEL 3
REMARK VINA RESULT:      -4.2     12.063     12.958
REMARK  0 active torsions:
REMARK  status: ('A' for Active; 'I' for Inactive)
ROOT
HETATM    1  C1  UNL     1     -34.506  13.815  -4.515  1.00 20.00     0.094 C 
HETATM    2  C2  UNL     1     -34.326  17.055  -1.326  1.00 20.00     0.003 C 
HETATM    3  C3  UNL     1     -34.472  18.127  -2.403  1.00 20.00     0.003 C 
HETATM    4  C4  UNL     1     -34.491  15.745  -2.096  1.00 20.00     0.042 C 
HETATM    5  C5  UNL     1     -33.722  17.542  -3.602  1.00 20.00     0.042 C 
HETATM    6  C6  UNL     1     -33.921  15.115  -4.625  1.00 20.00     0.263 A 
HETATM    7  C7  UNL     1     -33.911  16.061  -3.445  1.00 20.00     0.101 A 
HETATM    8  N8  UNL     1     -34.980  12.761  -4.427  1.00 20.00    -0.194 NA
HETATM    9  O9  UNL     1     -32.762  15.280  -3.798  1.00 20.00    -0.354 OA
ENDROOT
TORSDOF 0
ENDMDL
MODEL 4
REMARK VINA RESULT:      -4.1     12.014     13.080
REMARK  0 active torsions:
REMARK  status: ('A' for Active; 'I' for Inactive)
ROOT
HETATM    1  C1  UNL     1     -37.602  14.866  -4.246  1.00 20.00     0.094 C 
HETATM    2  C2  UNL     1     -33.236  13.682  -3.752  1.00 20.00     0.003 C 
HETATM    3  C3  UNL     1     -32.841  15.155  -3.696  1.00 20.00     0.003 C 
HETATM    4  C4  UNL     1     -34.765  13.720  -3.784  1.00 20.00     0.042 C 
HETATM    5  C5  UNL     1     -33.829  15.833  -4.650  1.00 20.00     0.042 C 
HETATM    6  C6  UNL     1     -36.452  15.544  -4.756  1.00 20.00     0.263 A 
HETATM    7  C7  UNL     1     -35.063  14.987  -4.534  1.00 20.00     0.101 A 
HETATM    8  N8  UNL     1     -38.536  14.316  -3.831  1.00 20.00    -0.194 NA
HETATM    9  O9  UNL     1     -35.765  14.797  -5.770  1.00 20.00    -0.354 OA
ENDROOT
TORSDOF 0
ENDMDL
MODEL 5
REMARK VINA RESULT:      -4.1     12.153     12.753
REMARK  0 active torsions:
REMARK  status: ('A' for Active; 'I' for Inactive)
ROOT
HETATM    1  C1  UNL     1     -35.438  13.737  -4.226  1.00 20.00     0.094 C 
HETATM    2  C2  UNL     1     -33.796  17.073  -1.602  1.00 20.00     0.003 C 
HETATM    3  C3  UNL     1     -35.207  17.380  -1.107  1.00 20.00     0.003 C 
HETATM    4  C4  UNL     1     -33.982  15.823  -2.465  1.00 20.00     0.042 C 
HETATM    5  C5  UNL     1     -36.090  17.099  -2.326  1.00 20.00     0.042 C 
HETATM    6  C6  UNL     1     -36.064  14.981  -3.904  1.00 20.00     0.263 A 
HETATM    7  C7  UNL     1     -35.355  16.004  -3.044  1.00 20.00     0.101 A 
HETATM    8  N8  UNL     1     -34.930  12.727  -4.487  1.00 20.00    -0.194 NA
HETATM    9  O9  UNL     1     -35.390  16.111  -4.474  1.00 20.00    -0.354 OA
ENDROOT
TORSDOF 0
ENDMDL
MODEL 6
REMARK VINA RESULT:      -3.9     12.551     13.768
REMARK  0 active torsions:
REMARK  status: ('A' for Active; 'I' for Inactive)
ROOT
HETATM    1  C1  UNL     1     -33.604  17.949  -5.354  1.00 20.00     0.094 C 
HETATM    2  C2  UNL     1     -34.818  13.566  -5.516  1.00 20.00     0.003 C 
HETATM    3  C3  UNL     1     -35.317  13.650  -4.076  1.00 20.00     0.003 C 
HETATM    4  C4  UNL     1     -34.434  15.010  -5.848  1.00 20.00     0.042 C 
HETATM    5  C5  UNL     1     -34.349  14.631  -3.411  1.00 20.00     0.042 C 
HETATM    6  C6  UNL     1     -33.558  16.992  -4.293  1.00 20.00     0.263 A 
HETATM    7  C7  UNL     1     -33.963  15.554  -4.531  1.00 20.00     0.101 A 
HETATM    8  N8  UNL     1     -33.641  18.726  -6.214  1.00 20.00    -0.194 NA
HETATM    9  O9  UNL     1     -32.587  15.960  -4.511  1.00 20.00    -0.354 OA
ENDROOT
TORSDOF 0
ENDMDL
MODEL 7
REMARK VINA RESULT:      -3.9     10.096     10.703
REMARK  0 active torsions:
REMARK  status: ('A' for Active; 'I' for Inactive)
ROOT
HETATM    1  C1  UNL     1     -42.534   7.807  -3.819  1.00 20.00     0.094 C 
HETATM    2  C2  UNL     1     -40.670   5.991  -0.086  1.00 20.00     0.003 C 
HETATM    3  C3  UNL     1     -40.564   4.642  -0.793  1.00 20.00     0.003 C 
HETATM    4  C4  UNL     1     -41.172   6.933  -1.182  1.00 20.00     0.042 C 
HETATM    5  C5  UNL     1     -41.804   4.603  -1.689  1.00 20.00     0.042 C 
HETATM    6  C6  UNL     1     -42.697   6.477  -3.322  1.00 20.00     0.263 A 
HETATM    7  C7  UNL     1     -42.034   6.046  -2.033  1.00 20.00     0.101 A 
HETATM    8  N8  UNL     1     -42.401   8.886  -4.223  1.00 20.00    -0.194 NA
HETATM    9  O9  UNL     1     -43.416   6.426  -2.082  1.00 20.00    -0.354 OA
ENDROOT
TORSDOF 0
ENDMDL
MODEL 8
REMARK VINA RESULT:      -3.9     12.106     13.339
REMARK  0 active torsions:
REMARK  status: ('A' for Active; 'I' for Inactive)
ROOT
HETATM    1  C1  UNL     1     -34.005  16.165  -2.490  1.00 20.00     0.094 C 
HETATM    2  C2  UNL     1     -34.193  15.367  -6.966  1.00 20.00     0.003 C 
HETATM    3  C3  UNL     1     -35.295  14.336  -6.737  1.00 20.00     0.003 C 
HETATM    4  C4  UNL     1     -33.971  15.971  -5.578  1.00 20.00     0.042 C 
HETATM    5  C5  UNL     1     -34.928  13.704  -5.392  1.00 20.00     0.042 C 
HETATM    6  C6  UNL     1     -34.270  14.922  -3.143  1.00 20.00     0.263 A 
HETATM    7  C7  UNL     1     -34.253  14.822  -4.652  1.00 20.00     0.101 A 
HETATM    8  N8  UNL     1     -33.791  17.175  -1.959  1.00 20.00    -0.194 NA
HETATM    9  O9  UNL     1     -33.135  14.410  -3.855  1.00 20.00    -0.354 OA
ENDROOT
TORSDOF 0
ENDMDL
MODEL 9
REMARK VINA RESULT:      -3.9     12.112     12.557
REMARK  0 active torsions:
REMARK  status: ('A' for Active; 'I' for Inactive)
ROOT
HETATM    1  C1  UNL     1     -34.572  17.146  -0.702  1.00 20.00     0.094 C 
HETATM    2  C2  UNL     1     -35.209  14.148  -4.066  1.00 20.00     0.003 C 
HETATM    3  C3  UNL     1     -33.723  13.800  -4.039  1.00 20.00     0.003 C 
HETATM    4  C4  UNL     1     -35.376  15.103  -2.882  1.00 20.00     0.042 C 
HETATM    5  C5  UNL     1     -33.045  15.127  -3.690  1.00 20.00     0.042 C 
HETATM    6  C6  UNL     1     -33.671  16.821  -1.762  1.00 20.00     0.263 A 
HETATM    7  C7  UNL     1     -34.060  15.823  -2.830  1.00 20.00     0.101 A 
HETATM    8  N8  UNL     1     -35.304  17.409   0.159  1.00 20.00    -0.194 NA
HETATM    9  O9  UNL     1     -34.145  17.238  -3.049  1.00 20.00    -0.354 OA
ENDROOT
TORSDOF 0
ENDMDL
