MODEL 1
REMARK VINA RESULT:      -4.4      0.000      0.000
REMARK  1 active torsions:
REMARK  status: ('A' for Active; 'I' for Inactive)
REMARK    1  A    between atoms: C6_6  and  N7_7 
ROOT
HETATM    1  C1  UNL     1     -33.763  17.453  -3.704  1.00 20.00     0.000 C 
HETATM    2  C2  UNL     1     -33.303  16.642  -4.910  1.00 20.00     0.003 C 
HETATM    3  C3  UNL     1     -33.862  16.596  -2.445  1.00 20.00     0.003 C 
HETATM    4  C4  UNL     1     -34.188  15.415  -5.137  1.00 20.00     0.046 C 
HETATM    5  C5  UNL     1     -34.749  15.368  -2.665  1.00 20.00     0.046 C 
HETATM    6  C6  UNL     1     -34.323  14.537  -3.885  1.00 20.00     0.136 C 
HETATM    7 CL9  UNL     1     -32.774  13.694  -3.548  1.00 20.00    -0.098 Cl
ENDROOT
BRANCH   6   8
HETATM    8  N7  UNL     1     -35.352  13.480  -4.137  1.00 20.00    -0.037 NA
HETATM    9  O8  UNL     1     -34.905  12.576  -4.841  1.00 20.00    -0.099 OA
ENDBRANCH   6   8
TORSDOF 1
ENDMDL
MODEL 2
REMARK VINA RESULT:      -4.4      2.511      3.128
REMARK  1 active torsions:
REMARK  status: ('A' for Active; 'I' for Inactive)
REMARK    1  A    between atoms: C6_6  and  N7_7 
ROOT
HETATM    1  C1  UNL     1     -33.244  14.022  -3.655  1.00 20.00     0.000 C 
HETATM    2  C2  UNL     1     -33.605  15.453  -3.271  1.00 20.00     0.003 C 
HETATM    3  C3  UNL     1     -34.185  13.463  -4.718  1.00 20.00     0.003 C 
HETATM    4  C4  UNL     1     -35.068  15.570  -2.840  1.00 20.00     0.046 C 
HETATM    5  C5  UNL     1     -35.650  13.575  -4.291  1.00 20.00     0.046 C 
HETATM    6  C6  UNL     1     -36.044  15.002  -3.880  1.00 20.00     0.136 C 
HETATM    7 CL9  UNL     1     -36.102  16.068  -5.323  1.00 20.00    -0.098 Cl
ENDROOT
BRANCH   6   8
HETATM    8  N7  UNL     1     -37.421  14.979  -3.296  1.00 20.00    -0.037 NA
HETATM    9  O8  UNL     1     -38.118  14.113  -3.822  1.00 20.00    -0.099 OA
ENDBRANCH   6   8
TORSDOF 1
ENDMDL
MODEL 3
REMARK VINA RESULT:      -4.3      1.503      2.238
REMARK  1 active torsions:
REMARK  status: ('A' for Active; 'I' for Inactive)
REMARK    1  A    between atoms: C6_6  and  N7_7 
ROOT
HETATM    1  C1  UNL     1     -33.512  17.241  -5.191  1.00 20.00     0.000 C 
HETATM    2  C2  UNL     1     -33.649  17.082  -3.681  1.00 20.00     0.003 C 
HETATM    3  C3  UNL     1     -34.537  16.404  -5.948  1.00 20.00     0.003 C 
HETATM    4  C4  UNL     1     -33.589  15.611  -3.262  1.00 20.00     0.046 C 
HETATM    5  C5  UNL     1     -34.480  14.931  -5.535  1.00 20.00     0.046 C 
HETATM    6  C6  UNL     1     -34.598  14.734  -4.016  1.00 20.00     0.136 C 
HETATM    7 CL9  UNL     1     -36.269  15.102  -3.473  1.00 20.00    -0.098 Cl
ENDROOT
BRANCH   6   8
HETATM    8  N7  UNL     1     -34.337  13.297  -3.689  1.00 20.00    -0.037 NA
HETATM    9  O8  UNL     1     -34.930  12.546  -4.461  1.00 20.00    -0.099 OA
ENDBRANCH   6   8
TORSDOF 1
ENDMDL
MODEL 4
REMARK VINA RESULT:      -4.3      1.619      2.033
REMARK  1 active torsions:
REMARK  status: ('A' for Active; 'I' for Inactive)
REMARK    1  A    between atoms: C6_6  and  N7_7 
ROOT
HETATM    1  C1  UNL     1     -35.047  16.487  -2.032  1.00 20.00     0.000 C 
HETATM    2  C2  UNL     1     -36.081  16.053  -3.066  1.00 20.00     0.003 C 
HETATM    3  C3  UNL     1     -33.630  16.455  -2.595  1.00 20.00     0.003 C 
HETATM    4  C4  UNL     1     -35.745  14.683  -3.658  1.00 20.00     0.046 C 
HETATM    5  C5  UNL     1     -33.287  15.086  -3.186  1.00 20.00     0.046 C 
HETATM    6  C6  UNL     1     -34.319  14.609  -4.220  1.00 20.00     0.136 C 
HETATM    7 CL9  UNL     1     -34.190  15.590  -5.719  1.00 20.00    -0.098 Cl
ENDROOT
BRANCH   6   8
HETATM    8  N7  UNL     1     -34.014  13.193  -4.595  1.00 20.00    -0.037 NA
HETATM    9  O8  UNL     1     -35.022  12.491  -4.557  1.00 20.00    -0.099 OA
ENDBRANCH   6   8
TORSDOF 1
ENDMDL
MODEL 5
REMARK VINA RESULT:      -4.2     12.273     13.188
REMARK  1 active torsions:
REMARK  status: ('A' for Active; 'I' for Inactive)
REMARK    1  A    between atoms: C6_6  and  N7_7 
ROOT
HETATM    1  C1  UNL     1     -34.404   4.890   6.769  1.00 20.00     0.000 C 
HETATM    2  C2  UNL     1     -35.154   3.970   5.811  1.00 20.00     0.003 C 
HETATM    3  C3  UNL     1     -34.350   6.326   6.256  1.00 20.00     0.003 C 
HETATM    4  C4  UNL     1     -34.575   4.037   4.397  1.00 20.00     0.046 C 
HETATM    5  C5  UNL     1     -33.770   6.399   4.841  1.00 20.00     0.046 C 
HETATM    6  C6  UNL     1     -34.491   5.470   3.853  1.00 20.00     0.136 C 
HETATM    7 CL9  UNL     1     -36.135   6.098   3.502  1.00 20.00    -0.098 Cl
ENDROOT
BRANCH   6   8
HETATM    8  N7  UNL     1     -33.740   5.458   2.559  1.00 20.00    -0.037 NA
HETATM    9  O8  UNL     1     -32.609   5.922   2.691  1.00 20.00    -0.099 OA
ENDBRANCH   6   8
TORSDOF 1
ENDMDL
MODEL 6
REMARK VINA RESULT:      -4.1      1.879      1.946
REMARK  1 active torsions:
REMARK  status: ('A' for Active; 'I' for Inactive)
REMARK    1  A    between atoms: C6_6  and  N7_7 
ROOT
HETATM    1  C1  UNL     1     -33.414  16.634  -4.472  1.00 20.00     0.000 C 
HETATM    2  C2  UNL     1     -34.287  16.068  -5.586  1.00 20.00     0.003 C 
HETATM    3  C3  UNL     1     -33.431  15.750  -3.229  1.00 20.00     0.003 C 
HETATM    4  C4  UNL     1     -35.715  15.805  -5.106  1.00 20.00     0.046 C 
HETATM    5  C5  UNL     1     -34.858  15.486  -2.742  1.00 20.00     0.046 C 
HETATM    6  C6  UNL     1     -35.771  14.931  -3.846  1.00 20.00     0.136 C 
HETATM    7 CL9  UNL     1     -35.305  13.243  -4.241  1.00 20.00    -0.098 Cl
ENDROOT
BRANCH   6   8
HETATM    8  N7  UNL     1     -37.178  14.890  -3.340  1.00 20.00    -0.037 NA
HETATM    9  O8  UNL     1     -37.843  14.038  -3.927  1.00 20.00    -0.099 OA
ENDBRANCH   6   8
TORSDOF 1
ENDMDL
MODEL 7
REMARK VINA RESULT:      -4.1     11.761     12.746
REMARK  1 active torsions:
REMARK  status: ('A' for Active; 'I' for Inactive)
REMARK    1  A    between atoms: C6_6  and  N7_7 
ROOT
HETATM    1  C1  UNL     1     -35.154   4.682   5.940  1.00 20.00     0.000 C 
HETATM    2  C2  UNL     1     -33.917   5.472   6.354  1.00 20.00     0.003 C 
HETATM    3  C3  UNL     1     -35.102   4.268   4.473  1.00 20.00     0.003 C 
HETATM    4  C4  UNL     1     -33.687   6.678   5.441  1.00 20.00     0.046 C 
HETATM    5  C5  UNL     1     -34.874   5.471   3.555  1.00 20.00     0.046 C 
HETATM    6  C6  UNL     1     -33.645   6.301   3.954  1.00 20.00     0.136 C 
HETATM    7 CL9  UNL     1     -32.140   5.393   3.586  1.00 20.00    -0.098 Cl
ENDROOT
BRANCH   6   8
HETATM    8  N7  UNL     1     -33.614   7.552   3.133  1.00 20.00    -0.037 NA
HETATM    9  O8  UNL     1     -32.522   7.707   2.589  1.00 20.00    -0.099 OA
ENDBRANCH   6   8
TORSDOF 1
ENDMDL
MODEL 8
REMARK VINA RESULT:      -4.1      2.793      3.473
REMARK  1 active torsions:
REMARK  status: ('A' for Active; 'I' for Inactive)
REMARK    1  A    between atoms: C6_6  and  N7_7 
ROOT
HETATM    1  C1  UNL     1     -34.704  13.341  -4.502  1.00 20.00     0.000 C 
HETATM    2  C2  UNL     1     -35.846  14.308  -4.211  1.00 20.00     0.003 C 
HETATM    3  C3  UNL     1     -33.480  13.627  -3.636  1.00 20.00     0.003 C 
HETATM    4  C4  UNL     1     -35.397  15.765  -4.340  1.00 20.00     0.046 C 
HETATM    5  C5  UNL     1     -33.026  15.083  -3.763  1.00 20.00     0.046 C 
HETATM    6  C6  UNL     1     -34.158  16.085  -3.493  1.00 20.00     0.136 C 
HETATM    7 CL9  UNL     1     -34.581  16.086  -1.748  1.00 20.00    -0.098 Cl
ENDROOT
BRANCH   6   8
HETATM    8  N7  UNL     1     -33.679  17.463  -3.829  1.00 20.00    -0.037 NA
HETATM    9  O8  UNL     1     -33.141  17.495  -4.934  1.00 20.00    -0.099 OA
ENDBRANCH   6   8
TORSDOF 1
ENDMDL
MODEL 9
REMARK VINA RESULT:      -4.1      1.427      1.555
REMARK  1 active torsions:
REMARK  status: ('A' for Active; 'I' for Inactive)
REMARK    1  A    between atoms: C6_6  and  N7_7 
ROOT
HETATM    1  C1  UNL     1     -35.807  16.846  -5.349  1.00 20.00     0.000 C 
HETATM    2  C2  UNL     1     -34.663  16.185  -6.111  1.00 20.00     0.003 C 
HETATM    3  C3  UNL     1     -35.615  16.751  -3.839  1.00 20.00     0.003 C 
HETATM    4  C4  UNL     1     -34.450  14.738  -5.665  1.00 20.00     0.046 C 
HETATM    5  C5  UNL     1     -35.404  15.304  -3.386  1.00 20.00     0.046 C 
HETATM    6  C6  UNL     1     -34.270  14.601  -4.147  1.00 20.00     0.136 C 
HETATM    7 CL9  UNL     1     -32.682  15.274  -3.648  1.00 20.00    -0.098 Cl
ENDROOT
BRANCH   6   8
HETATM    8  N7  UNL     1     -34.265  13.150  -3.783  1.00 20.00    -0.037 NA
HETATM    9  O8  UNL     1     -35.088  12.518  -4.443  1.00 20.00    -0.099 OA
ENDBRANCH   6   8
TORSDOF 1
ENDMDL
