MODEL 1
REMARK VINA RESULT:      -4.3      0.000      0.000
REMARK  2 active torsions:
REMARK  status: ('A' for Active; 'I' for Inactive)
REMARK    1  A    between atoms: C1_1  and  C6_6 
REMARK    2  A    between atoms: C1_1  and  O9_9 
ROOT
HETATM    1  C2  UNL     1     -33.777   4.164   5.603  1.00 20.00     0.024 C 
HETATM    2  C3  UNL     1     -34.349   6.152   6.067  1.00 20.00     0.024 C 
HETATM    3  C4  UNL     1     -35.585   4.956   4.828  1.00 20.00     0.024 C 
HETATM    4  C5  UNL     1     -35.051   4.768   6.290  1.00 20.00    -0.011 C 
HETATM    5  C6  UNL     1     -34.097   5.409   4.720  1.00 20.00     0.049 C 
ENDROOT
BRANCH   5   6
HETATM    6  C1  UNL     1     -33.366   5.898   3.522  1.00 20.00     0.267 C 
HETATM    7  O8  UNL     1     -33.594   5.522   2.380  1.00 20.00    -0.264 OA
BRANCH   6   8
HETATM    8  O9  UNL     1     -32.424   6.807   3.904  1.00 20.00    -0.326 OA
HETATM    9  C7  UNL     1     -31.925   7.649   2.859  1.00 20.00     0.213 C 
ENDBRANCH   6   8
ENDBRANCH   5   6
TORSDOF 2
ENDMDL
MODEL 2
REMARK VINA RESULT:      -4.3      0.073      1.224
REMARK  2 active torsions:
REMARK  status: ('A' for Active; 'I' for Inactive)
REMARK    1  A    between atoms: C1_1  and  C6_6 
REMARK    2  A    between atoms: C1_1  and  O9_9 
ROOT
HETATM    1  C2  UNL     1     -35.599   4.919   4.868  1.00 20.00     0.024 C 
HETATM    2  C3  UNL     1     -33.784   4.143   5.642  1.00 20.00     0.024 C 
HETATM    3  C4  UNL     1     -34.389   6.116   6.132  1.00 20.00     0.024 C 
HETATM    4  C5  UNL     1     -35.071   4.718   6.330  1.00 20.00    -0.011 C 
HETATM    5  C6  UNL     1     -34.117   5.396   4.775  1.00 20.00     0.049 C 
ENDROOT
BRANCH   5   6
HETATM    6  C1  UNL     1     -33.391   5.911   3.586  1.00 20.00     0.267 C 
HETATM    7  O8  UNL     1     -33.618   5.555   2.438  1.00 20.00    -0.264 OA
BRANCH   6   8
HETATM    8  O9  UNL     1     -32.456   6.821   3.983  1.00 20.00    -0.326 OA
HETATM    9  C7  UNL     1     -31.873   7.600   2.933  1.00 20.00     0.213 C 
ENDBRANCH   6   8
ENDBRANCH   5   6
TORSDOF 2
ENDMDL
MODEL 3
REMARK VINA RESULT:      -3.9     11.888     12.704
REMARK  2 active torsions:
REMARK  status: ('A' for Active; 'I' for Inactive)
REMARK    1  A    between atoms: C1_1  and  C6_6 
REMARK    2  A    between atoms: C1_1  and  O9_9 
ROOT
HETATM    1  C2  UNL     1     -32.961  14.718  -3.549  1.00 20.00     0.024 C 
HETATM    2  C3  UNL     1     -34.231  16.055  -4.595  1.00 20.00     0.024 C 
HETATM    3  C4  UNL     1     -34.568  15.663  -2.539  1.00 20.00     0.024 C 
HETATM    4  C5  UNL     1     -33.332  16.225  -3.322  1.00 20.00    -0.011 C 
HETATM    5  C6  UNL     1     -34.501  14.744  -3.797  1.00 20.00     0.049 C 
ENDROOT
BRANCH   5   6
HETATM    6  C1  UNL     1     -35.391  13.611  -4.161  1.00 20.00     0.267 C 
HETATM    7  O8  UNL     1     -35.012  12.599  -4.735  1.00 20.00    -0.264 OA
BRANCH   6   8
HETATM    8  O9  UNL     1     -36.665  13.886  -3.759  1.00 20.00    -0.326 OA
HETATM    9  C7  UNL     1     -37.429  14.699  -4.656  1.00 20.00     0.213 C 
ENDBRANCH   6   8
ENDBRANCH   5   6
TORSDOF 2
ENDMDL
MODEL 4
REMARK VINA RESULT:      -3.9     12.086     13.068
REMARK  2 active torsions:
REMARK  status: ('A' for Active; 'I' for Inactive)
REMARK    1  A    between atoms: C1_1  and  C6_6 
REMARK    2  A    between atoms: C1_1  and  O9_9 
ROOT
HETATM    1  C2  UNL     1     -33.762  16.212  -4.556  1.00 20.00     0.024 C 
HETATM    2  C3  UNL     1     -34.655  15.371  -2.827  1.00 20.00     0.024 C 
HETATM    3  C4  UNL     1     -32.800  14.624  -3.531  1.00 20.00     0.024 C 
HETATM    4  C5  UNL     1     -33.265  16.051  -3.078  1.00 20.00    -0.011 C 
HETATM    5  C6  UNL     1     -34.206  14.762  -4.190  1.00 20.00     0.049 C 
ENDROOT
BRANCH   5   6
HETATM    6  C1  UNL     1     -34.927  13.780  -5.042  1.00 20.00     0.267 C 
HETATM    7  O8  UNL     1     -34.801  12.567  -4.944  1.00 20.00    -0.264 OA
BRANCH   6   8
HETATM    8  O9  UNL     1     -35.727  14.444  -5.924  1.00 20.00    -0.326 OA
HETATM    9  C7  UNL     1     -35.335  14.349  -7.298  1.00 20.00     0.213 C 
ENDBRANCH   6   8
ENDBRANCH   5   6
TORSDOF 2
ENDMDL
MODEL 5
REMARK VINA RESULT:      -3.8     12.081     13.315
REMARK  2 active torsions:
REMARK  status: ('A' for Active; 'I' for Inactive)
REMARK    1  A    between atoms: C1_1  and  C6_6 
REMARK    2  A    between atoms: C1_1  and  O9_9 
ROOT
HETATM    1  C2  UNL     1     -34.450  14.374  -5.611  1.00 20.00     0.024 C 
HETATM    2  C3  UNL     1     -33.547  13.604  -3.854  1.00 20.00     0.024 C 
HETATM    3  C4  UNL     1     -35.501  14.422  -3.770  1.00 20.00     0.024 C 
HETATM    4  C5  UNL     1     -34.878  13.250  -4.604  1.00 20.00    -0.011 C 
HETATM    5  C6  UNL     1     -34.127  15.004  -4.222  1.00 20.00     0.049 C 
ENDROOT
BRANCH   5   6
HETATM    6  C1  UNL     1     -33.552  16.343  -3.932  1.00 20.00     0.267 C 
HETATM    7  O8  UNL     1     -33.604  16.888  -2.838  1.00 20.00    -0.264 OA
BRANCH   6   8
HETATM    8  O9  UNL     1     -32.976  16.845  -5.061  1.00 20.00    -0.326 OA
HETATM    9  C7  UNL     1     -33.605  18.010  -5.605  1.00 20.00     0.213 C 
ENDBRANCH   6   8
ENDBRANCH   5   6
TORSDOF 2
ENDMDL
MODEL 6
REMARK VINA RESULT:      -3.8     12.094     13.351
REMARK  2 active torsions:
REMARK  status: ('A' for Active; 'I' for Inactive)
REMARK    1  A    between atoms: C1_1  and  C6_6 
REMARK    2  A    between atoms: C1_1  and  O9_9 
ROOT
HETATM    1  C2  UNL     1     -35.525  14.438  -3.775  1.00 20.00     0.024 C 
HETATM    2  C3  UNL     1     -34.477  14.385  -5.618  1.00 20.00     0.024 C 
HETATM    3  C4  UNL     1     -33.574  13.612  -3.862  1.00 20.00     0.024 C 
HETATM    4  C5  UNL     1     -34.907  13.263  -4.610  1.00 20.00    -0.011 C 
HETATM    5  C6  UNL     1     -34.149  15.014  -4.230  1.00 20.00     0.049 C 
ENDROOT
BRANCH   5   6
HETATM    6  C1  UNL     1     -33.572  16.352  -3.940  1.00 20.00     0.267 C 
HETATM    7  O8  UNL     1     -33.636  16.904  -2.849  1.00 20.00    -0.264 OA
BRANCH   6   8
HETATM    8  O9  UNL     1     -32.979  16.846  -5.064  1.00 20.00    -0.326 OA
HETATM    9  C7  UNL     1     -33.581  18.026  -5.607  1.00 20.00     0.213 C 
ENDBRANCH   6   8
ENDBRANCH   5   6
TORSDOF 2
ENDMDL
MODEL 7
REMARK VINA RESULT:      -3.8     12.197     13.063
REMARK  2 active torsions:
REMARK  status: ('A' for Active; 'I' for Inactive)
REMARK    1  A    between atoms: C1_1  and  C6_6 
REMARK    2  A    between atoms: C1_1  and  O9_9 
ROOT
HETATM    1  C2  UNL     1     -34.581  14.240  -5.669  1.00 20.00     0.024 C 
HETATM    2  C3  UNL     1     -33.643  13.699  -3.846  1.00 20.00     0.024 C 
HETATM    3  C4  UNL     1     -35.644  14.400  -3.841  1.00 20.00     0.024 C 
HETATM    4  C5  UNL     1     -34.945  13.194  -4.559  1.00 20.00    -0.011 C 
HETATM    5  C6  UNL     1     -34.304  15.019  -4.347  1.00 20.00     0.049 C 
ENDROOT
BRANCH   5   6
HETATM    6  C1  UNL     1     -33.814  16.412  -4.187  1.00 20.00     0.267 C 
HETATM    7  O8  UNL     1     -32.959  16.923  -4.899  1.00 20.00    -0.264 OA
BRANCH   6   8
HETATM    8  O9  UNL     1     -34.459  17.005  -3.142  1.00 20.00    -0.326 OA
HETATM    9  C7  UNL     1     -33.791  16.916  -1.879  1.00 20.00     0.213 C 
ENDBRANCH   6   8
ENDBRANCH   5   6
TORSDOF 2
ENDMDL
MODEL 8
REMARK VINA RESULT:      -3.7      9.454     10.702
REMARK  2 active torsions:
REMARK  status: ('A' for Active; 'I' for Inactive)
REMARK    1  A    between atoms: C1_1  and  C6_6 
REMARK    2  A    between atoms: C1_1  and  O9_9 
ROOT
HETATM    1  C2  UNL     1     -41.297   6.661  -1.590  1.00 20.00     0.024 C 
HETATM    2  C3  UNL     1     -42.390   5.613  -0.107  1.00 20.00     0.024 C 
HETATM    3  C4  UNL     1     -40.586   4.799  -0.867  1.00 20.00     0.024 C 
HETATM    4  C5  UNL     1     -40.919   6.155  -0.155  1.00 20.00    -0.011 C 
HETATM    5  C6  UNL     1     -41.922   5.233  -1.544  1.00 20.00     0.049 C 
ENDROOT
BRANCH   5   6
HETATM    6  C1  UNL     1     -42.689   4.532  -2.606  1.00 20.00     0.267 C 
HETATM    7  O8  UNL     1     -43.236   5.098  -3.543  1.00 20.00    -0.264 OA
BRANCH   6   8
HETATM    8  O9  UNL     1     -42.680   3.190  -2.363  1.00 20.00    -0.326 OA
HETATM    9  C7  UNL     1     -41.920   2.405  -3.288  1.00 20.00     0.213 C 
ENDBRANCH   6   8
ENDBRANCH   5   6
TORSDOF 2
ENDMDL
MODEL 9
REMARK VINA RESULT:      -3.7     12.053     13.899
REMARK  2 active torsions:
REMARK  status: ('A' for Active; 'I' for Inactive)
REMARK    1  A    between atoms: C1_1  and  C6_6 
REMARK    2  A    between atoms: C1_1  and  O9_9 
ROOT
HETATM    1  C2  UNL     1     -36.144  15.622  -6.041  1.00 20.00     0.024 C 
HETATM    2  C3  UNL     1     -34.131  15.867  -6.660  1.00 20.00     0.024 C 
HETATM    3  C4  UNL     1     -35.313  14.313  -7.487  1.00 20.00     0.024 C 
HETATM    4  C5  UNL     1     -35.488  15.870  -7.444  1.00 20.00    -0.011 C 
HETATM    5  C6  UNL     1     -34.907  14.673  -6.025  1.00 20.00     0.049 C 
ENDROOT
BRANCH   5   6
HETATM    6  C1  UNL     1     -34.464  13.760  -4.939  1.00 20.00     0.267 C 
HETATM    7  O8  UNL     1     -34.836  12.600  -4.826  1.00 20.00    -0.264 OA
BRANCH   6   8
HETATM    8  O9  UNL     1     -33.601  14.419  -4.115  1.00 20.00    -0.326 OA
HETATM    9  C7  UNL     1     -34.202  15.074  -2.993  1.00 20.00     0.213 C 
ENDBRANCH   6   8
ENDBRANCH   5   6
TORSDOF 2
ENDMDL
