MODEL 1
REMARK VINA RESULT:      -4.6      0.000      0.000
REMARK  0 active torsions:
REMARK  status: ('A' for Active; 'I' for Inactive)
ROOT
HETATM    1  C1  UNL     1     -35.315  13.971  -3.942  1.00 20.00     0.045 C 
HETATM    2  C2  UNL     1     -36.199  14.988  -3.924  1.00 20.00     0.011 C 
HETATM    3  C3  UNL     1     -33.854  14.201  -3.825  1.00 20.00     0.028 C 
HETATM    4  C4  UNL     1     -35.718  16.425  -3.751  1.00 20.00     0.059 C 
HETATM    5  C5  UNL     1     -33.335  15.621  -3.762  1.00 20.00     0.067 C 
HETATM    6  C6  UNL     1     -34.331  16.567  -3.078  1.00 20.00    -0.038 C 
HETATM    7  C7  UNL     1     -33.840  18.017  -3.235  1.00 20.00     0.015 C 
HETATM    8  C8  UNL     1     -34.423  16.255  -1.569  1.00 20.00     0.015 C 
HETATM    9  N9  UNL     1     -32.997  13.232  -3.810  1.00 20.00    -0.305 NA
HETATM   10  S10 UNL     1     -37.937  14.828  -4.093  1.00 20.00    -0.085 SA
HETATM   11  H22 UNL     1     -32.054  13.620  -3.723  1.00 20.00     0.186 HD
ENDROOT
TORSDOF 0
ENDMDL
MODEL 2
REMARK VINA RESULT:      -4.5      2.169      2.459
REMARK  0 active torsions:
REMARK  status: ('A' for Active; 'I' for Inactive)
ROOT
HETATM    1  C1  UNL     1     -34.625  14.753  -5.913  1.00 20.00     0.045 C 
HETATM    2  C2  UNL     1     -34.453  16.085  -5.809  1.00 20.00     0.011 C 
HETATM    3  C3  UNL     1     -34.518  13.854  -4.736  1.00 20.00     0.028 C 
HETATM    4  C4  UNL     1     -34.171  16.722  -4.452  1.00 20.00     0.059 C 
HETATM    5  C5  UNL     1     -34.131  14.440  -3.397  1.00 20.00     0.067 C 
HETATM    6  C6  UNL     1     -34.628  15.882  -3.235  1.00 20.00    -0.038 C 
HETATM    7  C7  UNL     1     -34.025  16.483  -1.952  1.00 20.00     0.015 C 
HETATM    8  C8  UNL     1     -36.165  15.912  -3.098  1.00 20.00     0.015 C 
HETATM    9  N9  UNL     1     -34.710  12.577  -4.818  1.00 20.00    -0.305 NA
HETATM   10  S10 UNL     1     -34.520  17.226  -7.138  1.00 20.00    -0.085 SA
HETATM   11  H22 UNL     1     -34.585  12.161  -3.891  1.00 20.00     0.186 HD
ENDROOT
TORSDOF 0
ENDMDL
MODEL 3
REMARK VINA RESULT:      -4.3     11.573     12.476
REMARK  0 active torsions:
REMARK  status: ('A' for Active; 'I' for Inactive)
ROOT
HETATM    1  C1  UNL     1     -42.704   5.041  -3.050  1.00 20.00     0.045 C 
HETATM    2  C2  UNL     1     -42.585   6.364  -2.831  1.00 20.00     0.011 C 
HETATM    3  C3  UNL     1     -41.939   4.044  -2.260  1.00 20.00     0.028 C 
HETATM    4  C4  UNL     1     -41.670   6.885  -1.728  1.00 20.00     0.059 C 
HETATM    5  C5  UNL     1     -40.941   4.529  -1.232  1.00 20.00     0.067 C 
HETATM    6  C6  UNL     1     -41.365   5.864  -0.605  1.00 20.00    -0.038 C 
HETATM    7  C7  UNL     1     -40.215   6.400   0.266  1.00 20.00     0.015 C 
HETATM    8  C8  UNL     1     -42.598   5.667   0.303  1.00 20.00     0.015 C 
HETATM    9  N9  UNL     1     -42.067   2.769  -2.439  1.00 20.00    -0.305 NA
HETATM   10  S10 UNL     1     -43.411   7.622  -3.731  1.00 20.00    -0.085 SA
HETATM   11  H22 UNL     1     -41.448   2.276  -1.790  1.00 20.00     0.186 HD
ENDROOT
TORSDOF 0
ENDMDL
MODEL 4
REMARK VINA RESULT:      -4.3      1.393      1.637
REMARK  0 active torsions:
REMARK  status: ('A' for Active; 'I' for Inactive)
ROOT
HETATM    1  C1  UNL     1     -36.621  14.544  -3.838  1.00 20.00     0.045 C 
HETATM    2  C2  UNL     1     -36.831  15.873  -3.891  1.00 20.00     0.011 C 
HETATM    3  C3  UNL     1     -35.351  13.931  -4.301  1.00 20.00     0.028 C 
HETATM    4  C4  UNL     1     -35.740  16.805  -4.409  1.00 20.00     0.059 C 
HETATM    5  C5  UNL     1     -34.292  14.815  -4.921  1.00 20.00     0.067 C 
HETATM    6  C6  UNL     1     -34.305  16.230  -4.329  1.00 20.00    -0.038 C 
HETATM    7  C7  UNL     1     -33.356  17.127  -5.143  1.00 20.00     0.015 C 
HETATM    8  C8  UNL     1     -33.806  16.210  -2.868  1.00 20.00     0.015 C 
HETATM    9  N9  UNL     1     -35.126  12.659  -4.227  1.00 20.00    -0.305 NA
HETATM   10  S10 UNL     1     -38.304  16.691  -3.407  1.00 20.00    -0.085 SA
HETATM   11  H22 UNL     1     -34.194  12.463  -4.601  1.00 20.00     0.186 HD
ENDROOT
TORSDOF 0
ENDMDL
MODEL 5
REMARK VINA RESULT:      -4.3      2.726      3.735
REMARK  0 active torsions:
REMARK  status: ('A' for Active; 'I' for Inactive)
ROOT
HETATM    1  C1  UNL     1     -36.175  15.478  -2.923  1.00 20.00     0.045 C 
HETATM    2  C2  UNL     1     -34.935  15.942  -3.171  1.00 20.00     0.011 C 
HETATM    3  C3  UNL     1     -37.004  14.850  -3.983  1.00 20.00     0.028 C 
HETATM    4  C4  UNL     1     -34.325  15.806  -4.562  1.00 20.00     0.059 C 
HETATM    5  C5  UNL     1     -36.472  14.798  -5.398  1.00 20.00     0.067 C 
HETATM    6  C6  UNL     1     -34.942  14.685  -5.433  1.00 20.00    -0.038 C 
HETATM    7  C7  UNL     1     -34.457  14.849  -6.885  1.00 20.00     0.015 C 
HETATM    8  C8  UNL     1     -34.491  13.296  -4.934  1.00 20.00     0.015 C 
HETATM    9  N9  UNL     1     -38.184  14.373  -3.751  1.00 20.00    -0.305 NA
HETATM   10  S10 UNL     1     -33.893  16.732  -2.004  1.00 20.00    -0.085 SA
HETATM   11  H22 UNL     1     -38.567  13.992  -4.620  1.00 20.00     0.186 HD
ENDROOT
TORSDOF 0
ENDMDL
MODEL 6
REMARK VINA RESULT:      -4.3      2.543      3.289
REMARK  0 active torsions:
REMARK  status: ('A' for Active; 'I' for Inactive)
ROOT
HETATM    1  C1  UNL     1     -36.796  15.918  -5.086  1.00 20.00     0.045 C 
HETATM    2  C2  UNL     1     -35.590  16.339  -5.514  1.00 20.00     0.011 C 
HETATM    3  C3  UNL     1     -36.950  14.696  -4.258  1.00 20.00     0.028 C 
HETATM    4  C4  UNL     1     -34.326  15.578  -5.129  1.00 20.00     0.059 C 
HETATM    5  C5  UNL     1     -35.730  13.857  -3.950  1.00 20.00     0.067 C 
HETATM    6  C6  UNL     1     -34.457  14.708  -3.856  1.00 20.00    -0.038 C 
HETATM    7  C7  UNL     1     -33.235  13.778  -3.752  1.00 20.00     0.015 C 
HETATM    8  C8  UNL     1     -34.490  15.593  -2.591  1.00 20.00     0.015 C 
HETATM    9  N9  UNL     1     -38.099  14.298  -3.816  1.00 20.00    -0.305 NA
HETATM   10  S10 UNL     1     -35.303  17.743  -6.525  1.00 20.00    -0.085 SA
HETATM   11  H22 UNL     1     -37.969  13.440  -3.273  1.00 20.00     0.186 HD
ENDROOT
TORSDOF 0
ENDMDL
MODEL 7
REMARK VINA RESULT:      -4.3      2.045      3.056
REMARK  0 active torsions:
REMARK  status: ('A' for Active; 'I' for Inactive)
ROOT
HETATM    1  C1  UNL     1     -34.361  15.022  -3.189  1.00 20.00     0.045 C 
HETATM    2  C2  UNL     1     -35.339  15.888  -3.516  1.00 20.00     0.011 C 
HETATM    3  C3  UNL     1     -33.944  13.928  -4.102  1.00 20.00     0.028 C 
HETATM    4  C4  UNL     1     -36.039  15.787  -4.867  1.00 20.00     0.059 C 
HETATM    5  C5  UNL     1     -34.691  13.732  -5.403  1.00 20.00     0.067 C 
HETATM    6  C6  UNL     1     -35.226  15.057  -5.964  1.00 20.00    -0.038 C 
HETATM    7  C7  UNL     1     -36.146  14.763  -7.162  1.00 20.00     0.015 C 
HETATM    8  C8  UNL     1     -34.063  15.942  -6.462  1.00 20.00     0.015 C 
HETATM    9  N9  UNL     1     -32.986  13.109  -3.813  1.00 20.00    -0.305 NA
HETATM   10  S10 UNL     1     -35.931  17.187  -2.497  1.00 20.00    -0.085 SA
HETATM   11  H22 UNL     1     -32.873  12.442  -4.581  1.00 20.00     0.186 HD
ENDROOT
TORSDOF 0
ENDMDL
MODEL 8
REMARK VINA RESULT:      -4.3      2.626      3.681
REMARK  0 active torsions:
REMARK  status: ('A' for Active; 'I' for Inactive)
ROOT
HETATM    1  C1  UNL     1     -34.261  17.468  -2.995  1.00 20.00     0.045 C 
HETATM    2  C2  UNL     1     -34.036  17.336  -4.316  1.00 20.00     0.011 C 
HETATM    3  C3  UNL     1     -34.642  16.311  -2.146  1.00 20.00     0.028 C 
HETATM    4  C4  UNL     1     -34.137  15.969  -4.984  1.00 20.00     0.059 C 
HETATM    5  C5  UNL     1     -34.858  14.962  -2.795  1.00 20.00     0.067 C 
HETATM    6  C6  UNL     1     -33.961  14.766  -4.025  1.00 20.00    -0.038 C 
HETATM    7  C7  UNL     1     -34.378  13.476  -4.754  1.00 20.00     0.015 C 
HETATM    8  C8  UNL     1     -32.485  14.618  -3.600  1.00 20.00     0.015 C 
HETATM    9  N9  UNL     1     -34.832  16.417  -0.871  1.00 20.00    -0.305 NA
HETATM   10  S10 UNL     1     -33.620  18.641  -5.411  1.00 20.00    -0.085 SA
HETATM   11  H22 UNL     1     -35.085  15.501  -0.493  1.00 20.00     0.186 HD
ENDROOT
TORSDOF 0
ENDMDL
MODEL 9
REMARK VINA RESULT:      -4.2      2.606      3.722
REMARK  0 active torsions:
REMARK  status: ('A' for Active; 'I' for Inactive)
ROOT
HETATM    1  C1  UNL     1     -33.894  17.656  -3.302  1.00 20.00     0.045 C 
HETATM    2  C2  UNL     1     -34.237  16.665  -2.456  1.00 20.00     0.011 C 
HETATM    3  C3  UNL     1     -33.588  17.396  -4.731  1.00 20.00     0.028 C 
HETATM    4  C4  UNL     1     -34.353  15.229  -2.957  1.00 20.00     0.059 C 
HETATM    5  C5  UNL     1     -33.586  15.969  -5.235  1.00 20.00     0.067 C 
HETATM    6  C6  UNL     1     -34.594  15.092  -4.479  1.00 20.00    -0.038 C 
HETATM    7  C7  UNL     1     -34.393  13.623  -4.892  1.00 20.00     0.015 C 
HETATM    8  C8  UNL     1     -36.040  15.495  -4.842  1.00 20.00     0.015 C 
HETATM    9  N9  UNL     1     -33.287  18.342  -5.560  1.00 20.00    -0.305 NA
HETATM   10  S10 UNL     1     -34.580  16.859  -0.747  1.00 20.00    -0.085 SA
HETATM   11  H22 UNL     1     -33.116  17.935  -6.483  1.00 20.00     0.186 HD
ENDROOT
TORSDOF 0
ENDMDL
