MODEL 1
REMARK VINA RESULT:      -4.2      0.000      0.000
REMARK  1 active torsions:
REMARK  status: ('A' for Active; 'I' for Inactive)
REMARK    1  A    between atoms: C4_4  and  C5_5 
ROOT
HETATM    1  C1  UNL     1     -34.741   5.265   5.438  1.00 20.00     0.127 C 
HETATM    2  C2  UNL     1     -33.602   6.305   5.443  1.00 20.00     0.084 C 
HETATM    3  C3  UNL     1     -34.622   5.078   3.912  1.00 20.00     0.084 C 
HETATM    4  C4  UNL     1     -33.802   6.401   3.902  1.00 20.00     0.013 C 
HETATM    5  O6  UNL     1     -35.456   4.791   6.295  1.00 20.00    -0.298 OA
ENDROOT
BRANCH   4   6
HETATM    6  C5  UNL     1     -32.536   6.390   3.067  1.00 20.00     0.120 C 
HETATM    7 CL7  UNL     1     -32.215   8.005   2.403  1.00 20.00    -0.130 Cl
ENDBRANCH   4   6
TORSDOF 1
ENDMDL
MODEL 2
REMARK VINA RESULT:      -3.9      3.205      3.847
REMARK  1 active torsions:
REMARK  status: ('A' for Active; 'I' for Inactive)
REMARK    1  A    between atoms: C4_4  and  C5_5 
ROOT
HETATM    1  C1  UNL     1     -32.961   6.577   3.255  1.00 20.00     0.127 C 
HETATM    2  C2  UNL     1     -33.884   5.469   2.708  1.00 20.00     0.084 C 
HETATM    3  C3  UNL     1     -33.524   6.402   4.680  1.00 20.00     0.084 C 
HETATM    4  C4  UNL     1     -34.700   5.620   4.026  1.00 20.00     0.013 C 
HETATM    5  O6  UNL     1     -32.130   7.306   2.757  1.00 20.00    -0.298 OA
ENDROOT
BRANCH   4   6
HETATM    6  C5  UNL     1     -35.099   4.327   4.711  1.00 20.00     0.120 C 
HETATM    7 CL7  UNL     1     -35.200   4.562   6.468  1.00 20.00    -0.130 Cl
ENDBRANCH   4   6
TORSDOF 1
ENDMDL
MODEL 3
REMARK VINA RESULT:      -3.9      0.821      1.439
REMARK  1 active torsions:
REMARK  status: ('A' for Active; 'I' for Inactive)
REMARK    1  A    between atoms: C4_4  and  C5_5 
ROOT
HETATM    1  C1  UNL     1     -34.971   4.877   5.820  1.00 20.00     0.127 C 
HETATM    2  C2  UNL     1     -34.986   4.887   4.278  1.00 20.00     0.084 C 
HETATM    3  C3  UNL     1     -34.008   6.081   5.862  1.00 20.00     0.084 C 
HETATM    4  C4  UNL     1     -33.721   5.791   4.359  1.00 20.00     0.013 C 
HETATM    5  O6  UNL     1     -35.499   4.187   6.665  1.00 20.00    -0.298 OA
ENDROOT
BRANCH   4   6
HETATM    6  C5  UNL     1     -33.709   6.999   3.442  1.00 20.00     0.120 C 
HETATM    7 CL7  UNL     1     -32.053   7.361   2.914  1.00 20.00    -0.130 Cl
ENDBRANCH   4   6
TORSDOF 1
ENDMDL
MODEL 4
REMARK VINA RESULT:      -3.7     11.696     11.997
REMARK  1 active torsions:
REMARK  status: ('A' for Active; 'I' for Inactive)
REMARK    1  A    between atoms: C4_4  and  C5_5 
ROOT
HETATM    1  C1  UNL     1     -34.669  13.555  -4.236  1.00 20.00     0.127 C 
HETATM    2  C2  UNL     1     -33.405  14.272  -3.719  1.00 20.00     0.084 C 
HETATM    3  C3  UNL     1     -35.579  14.676  -3.694  1.00 20.00     0.084 C 
HETATM    4  C4  UNL     1     -34.359  15.134  -2.842  1.00 20.00     0.013 C 
HETATM    5  O6  UNL     1     -34.869  12.514  -4.824  1.00 20.00    -0.298 OA
ENDROOT
BRANCH   4   6
HETATM    6  C5  UNL     1     -34.083  16.625  -2.828  1.00 20.00     0.120 C 
HETATM    7 CL7  UNL     1     -33.735  17.177  -1.176  1.00 20.00    -0.130 Cl
ENDBRANCH   4   6
TORSDOF 1
ENDMDL
MODEL 5
REMARK VINA RESULT:      -3.7      3.304      3.782
REMARK  1 active torsions:
REMARK  status: ('A' for Active; 'I' for Inactive)
REMARK    1  A    between atoms: C4_4  and  C5_5 
ROOT
HETATM    1  C1  UNL     1     -32.803   6.852   3.149  1.00 20.00     0.127 C 
HETATM    2  C2  UNL     1     -33.356   6.754   4.586  1.00 20.00     0.084 C 
HETATM    3  C3  UNL     1     -33.656   5.650   2.693  1.00 20.00     0.084 C 
HETATM    4  C4  UNL     1     -33.853   5.329   4.204  1.00 20.00     0.013 C 
HETATM    5  O6  UNL     1     -32.004   7.578   2.599  1.00 20.00    -0.298 OA
ENDROOT
BRANCH   4   6
HETATM    6  C5  UNL     1     -35.267   4.983   4.629  1.00 20.00     0.120 C 
HETATM    7 CL7  UNL     1     -35.261   4.190   6.217  1.00 20.00    -0.130 Cl
ENDBRANCH   4   6
TORSDOF 1
ENDMDL
MODEL 6
REMARK VINA RESULT:      -3.5      1.087      1.627
REMARK  1 active torsions:
REMARK  status: ('A' for Active; 'I' for Inactive)
REMARK    1  A    between atoms: C4_4  and  C5_5 
ROOT
HETATM    1  C1  UNL     1     -34.790   5.198   4.377  1.00 20.00     0.127 C 
HETATM    2  C2  UNL     1     -34.220   5.313   2.948  1.00 20.00     0.084 C 
HETATM    3  C3  UNL     1     -33.798   6.254   4.904  1.00 20.00     0.084 C 
HETATM    4  C4  UNL     1     -32.996   6.030   3.588  1.00 20.00     0.013 C 
HETATM    5  O6  UNL     1     -35.664   4.530   4.886  1.00 20.00    -0.298 OA
ENDROOT
BRANCH   4   6
HETATM    6  C5  UNL     1     -32.518   7.285   2.882  1.00 20.00     0.120 C 
HETATM    7 CL7  UNL     1     -31.084   7.946   3.695  1.00 20.00    -0.130 Cl
ENDBRANCH   4   6
TORSDOF 1
ENDMDL
MODEL 7
REMARK VINA RESULT:      -3.4      2.651      3.256
REMARK  1 active torsions:
REMARK  status: ('A' for Active; 'I' for Inactive)
REMARK    1  A    between atoms: C4_4  and  C5_5 
ROOT
HETATM    1  C1  UNL     1     -34.212   5.316   3.074  1.00 20.00     0.127 C 
HETATM    2  C2  UNL     1     -35.186   5.117   4.253  1.00 20.00     0.084 C 
HETATM    3  C3  UNL     1     -33.258   6.156   3.948  1.00 20.00     0.084 C 
HETATM    4  C4  UNL     1     -34.438   6.288   4.955  1.00 20.00     0.013 C 
HETATM    5  O6  UNL     1     -34.205   4.962   1.915  1.00 20.00    -0.298 OA
ENDROOT
BRANCH   4   6
HETATM    6  C5  UNL     1     -34.090   6.074   6.415  1.00 20.00     0.120 C 
HETATM    7 CL7  UNL     1     -33.436   7.565   7.123  1.00 20.00    -0.130 Cl
ENDBRANCH   4   6
TORSDOF 1
ENDMDL
MODEL 8
REMARK VINA RESULT:      -3.3     12.264     13.026
REMARK  1 active torsions:
REMARK  status: ('A' for Active; 'I' for Inactive)
REMARK    1  A    between atoms: C4_4  and  C5_5 
ROOT
HETATM    1  C1  UNL     1     -34.555  13.617  -4.739  1.00 20.00     0.127 C 
HETATM    2  C2  UNL     1     -33.792  14.599  -3.826  1.00 20.00     0.084 C 
HETATM    3  C3  UNL     1     -34.674  14.677  -5.853  1.00 20.00     0.084 C 
HETATM    4  C4  UNL     1     -34.295  15.730  -4.770  1.00 20.00     0.013 C 
HETATM    5  O6  UNL     1     -34.926  12.469  -4.621  1.00 20.00    -0.298 OA
ENDROOT
BRANCH   4   6
HETATM    6  C5  UNL     1     -33.262  16.761  -5.181  1.00 20.00     0.120 C 
HETATM    7 CL7  UNL     1     -33.613  18.328  -4.424  1.00 20.00    -0.130 Cl
ENDBRANCH   4   6
TORSDOF 1
ENDMDL
MODEL 9
REMARK VINA RESULT:      -3.2     11.635     12.139
REMARK  1 active torsions:
REMARK  status: ('A' for Active; 'I' for Inactive)
REMARK    1  A    between atoms: C4_4  and  C5_5 
ROOT
HETATM    1  C1  UNL     1     -33.802  13.654  -3.796  1.00 20.00     0.127 C 
HETATM    2  C2  UNL     1     -34.467  14.939  -3.261  1.00 20.00     0.084 C 
HETATM    3  C3  UNL     1     -35.061  13.290  -4.610  1.00 20.00     0.084 C 
HETATM    4  C4  UNL     1     -35.819  14.332  -3.737  1.00 20.00     0.013 C 
HETATM    5  O6  UNL     1     -32.721  13.131  -3.632  1.00 20.00    -0.298 OA
ENDROOT
BRANCH   4   6
HETATM    6  C5  UNL     1     -36.744  15.275  -4.483  1.00 20.00     0.120 C 
HETATM    7 CL7  UNL     1     -38.436  14.778  -4.278  1.00 20.00    -0.130 Cl
ENDBRANCH   4   6
TORSDOF 1
ENDMDL
