MODEL 1
REMARK VINA RESULT:      -4.7      0.000      0.000
REMARK  4 active torsions:
REMARK  status: ('A' for Active; 'I' for Inactive)
REMARK    1  A    between atoms: C1_1  and  C6_6 
REMARK    2  A    between atoms: C1_1  and  C9_9 
REMARK    3  A    between atoms: C7_7  and  C8_8 
REMARK    4  A    between atoms: C8_8  and  N10_10 
ROOT
HETATM    1  C1  UNL     1     -33.819   6.121   4.377  1.00 20.00     0.009 C 
HETATM    2  N10 UNL     1     -32.731   6.787   4.184  1.00 20.00    -0.298 NA
ENDROOT
BRANCH   1   3
HETATM    3  C6  UNL     1     -34.610   5.406   3.294  1.00 20.00     0.050 C 
HETATM    4  C2  UNL     1     -36.079   5.781   3.370  1.00 20.00     0.011 C 
ENDBRANCH   1   3
BRANCH   1   5
HETATM    5  C9  UNL     1     -34.363   6.025   5.806  1.00 20.00     0.025 C 
HETATM    6  C4  UNL     1     -33.593   6.974   6.719  1.00 20.00     0.016 C 
HETATM    7  C5  UNL     1     -34.302   4.588   6.313  1.00 20.00     0.016 C 
ENDBRANCH   1   5
BRANCH   2   8
HETATM    8  C8  UNL     1     -32.176   6.889   2.845  1.00 20.00     0.148 C 
BRANCH   8   9
HETATM    9  C7  UNL     1     -32.164   8.346   2.400  1.00 20.00     0.017 C 
HETATM   10  C3  UNL     1     -31.793   8.507   0.932  1.00 20.00     0.007 C 
ENDBRANCH   8   9
ENDBRANCH   2   8
TORSDOF 4
ENDMDL
MODEL 2
REMARK VINA RESULT:      -4.0      0.841      2.338
REMARK  4 active torsions:
REMARK  status: ('A' for Active; 'I' for Inactive)
REMARK    1  A    between atoms: C1_1  and  C6_6 
REMARK    2  A    between atoms: C1_1  and  C9_9 
REMARK    3  A    between atoms: C7_7  and  C8_8 
REMARK    4  A    between atoms: C8_8  and  N10_10 
ROOT
HETATM    1  C1  UNL     1     -33.705   6.164   4.577  1.00 20.00     0.009 C 
HETATM    2  N10 UNL     1     -33.276   6.157   3.360  1.00 20.00    -0.298 NA
ENDROOT
BRANCH   1   3
HETATM    3  C6  UNL     1     -33.018   6.858   5.742  1.00 20.00     0.050 C 
HETATM    4  C2  UNL     1     -33.999   7.091   6.877  1.00 20.00     0.011 C 
ENDBRANCH   1   3
BRANCH   1   5
HETATM    5  C9  UNL     1     -35.014   5.432   4.885  1.00 20.00     0.025 C 
HETATM    6  C4  UNL     1     -34.719   4.000   5.320  1.00 20.00     0.016 C 
HETATM    7  C5  UNL     1     -35.952   5.469   3.683  1.00 20.00     0.016 C 
ENDBRANCH   1   5
BRANCH   2   8
HETATM    8  C8  UNL     1     -32.045   6.852   3.025  1.00 20.00     0.148 C 
BRANCH   8   9
HETATM    9  C7  UNL     1     -32.366   8.238   2.480  1.00 20.00     0.017 C 
HETATM   10  C3  UNL     1     -31.767   8.477   1.101  1.00 20.00     0.007 C 
ENDBRANCH   8   9
ENDBRANCH   2   8
TORSDOF 4
ENDMDL
MODEL 3
REMARK VINA RESULT:      -3.9     10.922     12.849
REMARK  4 active torsions:
REMARK  status: ('A' for Active; 'I' for Inactive)
REMARK    1  A    between atoms: C1_1  and  C6_6 
REMARK    2  A    between atoms: C1_1  and  C9_9 
REMARK    3  A    between atoms: C7_7  and  C8_8 
REMARK    4  A    between atoms: C8_8  and  N10_10 
ROOT
HETATM    1  C1  UNL     1     -34.751  15.143  -4.754  1.00 20.00     0.009 C 
HETATM    2  N10 UNL     1     -35.110  16.204  -4.113  1.00 20.00    -0.298 NA
ENDROOT
BRANCH   1   3
HETATM    3  C6  UNL     1     -34.682  13.745  -4.162  1.00 20.00     0.050 C 
HETATM    4  C2  UNL     1     -33.260  13.410  -3.748  1.00 20.00     0.011 C 
ENDBRANCH   1   3
BRANCH   1   5
HETATM    5  C9  UNL     1     -34.374  15.285  -6.231  1.00 20.00     0.025 C 
HETATM    6  C4  UNL     1     -34.380  16.758  -6.629  1.00 20.00     0.016 C 
HETATM    7  C5  UNL     1     -35.310  14.464  -7.112  1.00 20.00     0.016 C 
ENDBRANCH   1   5
BRANCH   2   8
HETATM    8  C8  UNL     1     -35.489  16.106  -2.714  1.00 20.00     0.148 C 
BRANCH   8   9
HETATM    9  C7  UNL     1     -34.305  16.476  -1.830  1.00 20.00     0.017 C 
HETATM   10  C3  UNL     1     -34.728  16.896  -0.429  1.00 20.00     0.007 C 
ENDBRANCH   8   9
ENDBRANCH   2   8
TORSDOF 4
ENDMDL
MODEL 4
REMARK VINA RESULT:      -3.8     11.170     12.740
REMARK  4 active torsions:
REMARK  status: ('A' for Active; 'I' for Inactive)
REMARK    1  A    between atoms: C1_1  and  C6_6 
REMARK    2  A    between atoms: C1_1  and  C9_9 
REMARK    3  A    between atoms: C7_7  and  C8_8 
REMARK    4  A    between atoms: C8_8  and  N10_10 
ROOT
HETATM    1  C1  UNL     1     -34.211  16.096  -3.580  1.00 20.00     0.009 C 
HETATM    2  N10 UNL     1     -34.430  16.954  -4.519  1.00 20.00    -0.298 NA
ENDROOT
BRANCH   1   3
HETATM    3  C6  UNL     1     -33.107  15.052  -3.590  1.00 20.00     0.050 C 
HETATM    4  C2  UNL     1     -33.689  13.663  -3.785  1.00 20.00     0.011 C 
ENDBRANCH   1   3
BRANCH   1   5
HETATM    5  C9  UNL     1     -35.119  16.128  -2.348  1.00 20.00     0.025 C 
HETATM    6  C4  UNL     1     -36.354  16.978  -2.634  1.00 20.00     0.016 C 
HETATM    7  C5  UNL     1     -34.359  16.639  -1.128  1.00 20.00     0.016 C 
ENDBRANCH   1   5
BRANCH   2   8
HETATM    8  C8  UNL     1     -33.580  16.964  -5.698  1.00 20.00     0.148 C 
BRANCH   8   9
HETATM    9  C7  UNL     1     -34.393  16.571  -6.924  1.00 20.00     0.017 C 
HETATM   10  C3  UNL     1     -34.405  15.067  -7.162  1.00 20.00     0.007 C 
ENDBRANCH   8   9
ENDBRANCH   2   8
TORSDOF 4
ENDMDL
MODEL 5
REMARK VINA RESULT:      -3.8     11.265     12.948
REMARK  4 active torsions:
REMARK  status: ('A' for Active; 'I' for Inactive)
REMARK    1  A    between atoms: C1_1  and  C6_6 
REMARK    2  A    between atoms: C1_1  and  C9_9 
REMARK    3  A    between atoms: C7_7  and  C8_8 
REMARK    4  A    between atoms: C8_8  and  N10_10 
ROOT
HETATM    1  C1  UNL     1     -34.849  15.644  -4.546  1.00 20.00     0.009 C 
HETATM    2  N10 UNL     1     -35.157  15.365  -3.324  1.00 20.00    -0.298 NA
ENDROOT
BRANCH   1   3
HETATM    3  C6  UNL     1     -34.872  17.035  -5.157  1.00 20.00     0.050 C 
HETATM    4  C2  UNL     1     -33.462  17.580  -5.296  1.00 20.00     0.011 C 
ENDBRANCH   1   3
BRANCH   1   5
HETATM    5  C9  UNL     1     -34.411  14.496  -5.460  1.00 20.00     0.025 C 
HETATM    6  C4  UNL     1     -35.185  14.555  -6.774  1.00 20.00     0.016 C 
HETATM    7  C5  UNL     1     -34.591  13.151  -4.765  1.00 20.00     0.016 C 
ENDBRANCH   1   5
BRANCH   2   8
HETATM    8  C8  UNL     1     -35.563  16.429  -2.422  1.00 20.00     0.148 C 
BRANCH   8   9
HETATM    9  C7  UNL     1     -34.664  16.436  -1.193  1.00 20.00     0.017 C 
HETATM   10  C3  UNL     1     -33.614  17.537  -1.241  1.00 20.00     0.007 C 
ENDBRANCH   8   9
ENDBRANCH   2   8
TORSDOF 4
ENDMDL
MODEL 6
REMARK VINA RESULT:      -3.7     11.074     12.272
REMARK  4 active torsions:
REMARK  status: ('A' for Active; 'I' for Inactive)
REMARK    1  A    between atoms: C1_1  and  C6_6 
REMARK    2  A    between atoms: C1_1  and  C9_9 
REMARK    3  A    between atoms: C7_7  and  C8_8 
REMARK    4  A    between atoms: C8_8  and  N10_10 
ROOT
HETATM    1  C1  UNL     1     -34.799  15.491  -2.893  1.00 20.00     0.009 C 
HETATM    2  N10 UNL     1     -36.038  15.740  -3.157  1.00 20.00    -0.298 NA
ENDROOT
BRANCH   1   3
HETATM    3  C6  UNL     1     -34.042  14.253  -3.345  1.00 20.00     0.050 C 
HETATM    4  C2  UNL     1     -32.604  14.604  -3.687  1.00 20.00     0.011 C 
ENDBRANCH   1   3
BRANCH   1   5
HETATM    5  C9  UNL     1     -34.015  16.518  -2.071  1.00 20.00     0.025 C 
HETATM    6  C4  UNL     1     -34.634  16.655  -0.683  1.00 20.00     0.016 C 
HETATM    7  C5  UNL     1     -33.958  17.860  -2.793  1.00 20.00     0.016 C 
ENDBRANCH   1   5
BRANCH   2   8
HETATM    8  C8  UNL     1     -36.811  14.797  -3.946  1.00 20.00     0.148 C 
BRANCH   8   9
HETATM    9  C7  UNL     1     -37.079  15.377  -5.328  1.00 20.00     0.017 C 
HETATM   10  C3  UNL     1     -36.093  14.876  -6.375  1.00 20.00     0.007 C 
ENDBRANCH   8   9
ENDBRANCH   2   8
TORSDOF 4
ENDMDL
MODEL 7
REMARK VINA RESULT:      -3.7     11.285     13.087
REMARK  4 active torsions:
REMARK  status: ('A' for Active; 'I' for Inactive)
REMARK    1  A    between atoms: C1_1  and  C6_6 
REMARK    2  A    between atoms: C1_1  and  C9_9 
REMARK    3  A    between atoms: C7_7  and  C8_8 
REMARK    4  A    between atoms: C8_8  and  N10_10 
ROOT
HETATM    1  C1  UNL     1     -33.658  16.319  -3.832  1.00 20.00     0.009 C 
HETATM    2  N10 UNL     1     -34.468  16.835  -2.970  1.00 20.00    -0.298 NA
ENDROOT
BRANCH   1   3
HETATM    3  C6  UNL     1     -32.847  15.051  -3.619  1.00 20.00     0.050 C 
HETATM    4  C2  UNL     1     -33.644  13.831  -4.045  1.00 20.00     0.011 C 
ENDBRANCH   1   3
BRANCH   1   5
HETATM    5  C9  UNL     1     -33.500  17.020  -5.183  1.00 20.00     0.025 C 
HETATM    6  C4  UNL     1     -33.486  18.533  -4.985  1.00 20.00     0.016 C 
HETATM    7  C5  UNL     1     -34.602  16.593  -6.148  1.00 20.00     0.016 C 
ENDBRANCH   1   5
BRANCH   2   8
HETATM    8  C8  UNL     1     -34.656  16.190  -1.681  1.00 20.00     0.148 C 
BRANCH   8   9
HETATM    9  C7  UNL     1     -34.581  17.227  -0.568  1.00 20.00     0.017 C 
HETATM   10  C3  UNL     1     -33.346  18.111  -0.673  1.00 20.00     0.007 C 
ENDBRANCH   8   9
ENDBRANCH   2   8
TORSDOF 4
ENDMDL
MODEL 8
REMARK VINA RESULT:      -3.7     11.055     12.892
REMARK  4 active torsions:
REMARK  status: ('A' for Active; 'I' for Inactive)
REMARK    1  A    between atoms: C1_1  and  C6_6 
REMARK    2  A    between atoms: C1_1  and  C9_9 
REMARK    3  A    between atoms: C7_7  and  C8_8 
REMARK    4  A    between atoms: C8_8  and  N10_10 
ROOT
HETATM    1  C1  UNL     1     -34.134  15.898  -3.869  1.00 20.00     0.009 C 
HETATM    2  N10 UNL     1     -33.815  16.133  -5.097  1.00 20.00    -0.298 NA
ENDROOT
BRANCH   1   3
HETATM    3  C6  UNL     1     -34.252  16.951  -2.780  1.00 20.00     0.050 C 
HETATM    4  C2  UNL     1     -34.582  16.305  -1.446  1.00 20.00     0.011 C 
ENDBRANCH   1   3
BRANCH   1   5
HETATM    5  C9  UNL     1     -34.432  14.451  -3.465  1.00 20.00     0.025 C 
HETATM    6  C4  UNL     1     -33.208  13.578  -3.720  1.00 20.00     0.016 C 
HETATM    7  C5  UNL     1     -35.659  13.924  -4.202  1.00 20.00     0.016 C 
ENDBRANCH   1   5
BRANCH   2   8
HETATM    8  C8  UNL     1     -33.539  17.494  -5.523  1.00 20.00     0.148 C 
BRANCH   8   9
HETATM    9  C7  UNL     1     -34.308  17.803  -6.800  1.00 20.00     0.017 C 
HETATM   10  C3  UNL     1     -34.825  16.548  -7.491  1.00 20.00     0.007 C 
ENDBRANCH   8   9
ENDBRANCH   2   8
TORSDOF 4
ENDMDL
MODEL 9
REMARK VINA RESULT:      -3.6     11.145     13.278
REMARK  4 active torsions:
REMARK  status: ('A' for Active; 'I' for Inactive)
REMARK    1  A    between atoms: C1_1  and  C6_6 
REMARK    2  A    between atoms: C1_1  and  C9_9 
REMARK    3  A    between atoms: C7_7  and  C8_8 
REMARK    4  A    between atoms: C8_8  and  N10_10 
ROOT
HETATM    1  C1  UNL     1     -35.373  14.445  -5.295  1.00 20.00     0.009 C 
HETATM    2  N10 UNL     1     -36.411  15.149  -4.991  1.00 20.00    -0.298 NA
ENDROOT
BRANCH   1   3
HETATM    3  C6  UNL     1     -34.815  13.305  -4.459  1.00 20.00     0.050 C 
HETATM    4  C2  UNL     1     -33.502  13.712  -3.813  1.00 20.00     0.011 C 
ENDBRANCH   1   3
BRANCH   1   5
HETATM    5  C9  UNL     1     -34.645  14.761  -6.604  1.00 20.00     0.025 C 
HETATM    6  C4  UNL     1     -34.174  16.212  -6.600  1.00 20.00     0.016 C 
HETATM    7  C5  UNL     1     -35.538  14.466  -7.806  1.00 20.00     0.016 C 
ENDBRANCH   1   5
BRANCH   2   8
HETATM    8  C8  UNL     1     -37.137  14.870  -3.764  1.00 20.00     0.148 C 
BRANCH   8   9
HETATM    9  C7  UNL     1     -38.619  14.693  -4.069  1.00 20.00     0.017 C 
HETATM   10  C3  UNL     1     -39.020  15.306  -5.404  1.00 20.00     0.007 C 
ENDBRANCH   8   9
ENDBRANCH   2   8
TORSDOF 4
ENDMDL
