MODEL 1
REMARK VINA RESULT:      -3.4      0.000      0.000
REMARK  2 active torsions:
REMARK  status: ('A' for Active; 'I' for Inactive)
REMARK    1  A    between atoms: C2_2  and  C4_4 
REMARK    2  A    between atoms: C4_4  and  S5_5 
ROOT
HETATM    1  C1  UNL     1     -33.980   6.500   5.376  1.00 20.00     0.051 A 
HETATM    2  C2  UNL     1     -33.271   5.661   4.349  1.00 20.00     0.036 A 
HETATM    3  C3  UNL     1     -34.681   5.311   4.766  1.00 20.00     0.118 A 
HETATM    4 CL6  UNL     1     -34.904   3.883   5.777  1.00 20.00    -0.101 Cl
HETATM    5 CL7  UNL     1     -36.035   5.613   3.685  1.00 20.00    -0.101 Cl
ENDROOT
BRANCH   2   6
HETATM    6  C4  UNL     1     -32.943   6.238   3.014  1.00 20.00     0.078 C 
BRANCH   6   7
HETATM    7  S5  UNL     1     -31.750   7.608   3.158  1.00 20.00    -0.182 SA
HETATM    8  H13 UNL     1     -32.455   8.307   4.055  1.00 20.00     0.101 HD
ENDBRANCH   6   7
ENDBRANCH   2   6
TORSDOF 2
ENDMDL
MODEL 2
REMARK VINA RESULT:      -3.1      1.822      2.486
REMARK  2 active torsions:
REMARK  status: ('A' for Active; 'I' for Inactive)
REMARK    1  A    between atoms: C2_2  and  C4_4 
REMARK    2  A    between atoms: C4_4  and  S5_5 
ROOT
HETATM    1  C1  UNL     1     -32.384   5.475   3.254  1.00 20.00     0.051 A 
HETATM    2  C2  UNL     1     -32.890   6.780   2.704  1.00 20.00     0.036 A 
HETATM    3  C3  UNL     1     -33.576   6.147   3.892  1.00 20.00     0.118 A 
HETATM    4 CL6  UNL     1     -35.163   5.422   3.630  1.00 20.00    -0.101 Cl
HETATM    5 CL7  UNL     1     -33.380   6.822   5.504  1.00 20.00    -0.101 Cl
ENDROOT
BRANCH   2   6
HETATM    6  C4  UNL     1     -32.053   8.010   2.816  1.00 20.00     0.078 C 
BRANCH   6   7
HETATM    7  S5  UNL     1     -32.094   8.983   1.276  1.00 20.00    -0.182 SA
HETATM    8  H13 UNL     1     -30.767   9.127   1.172  1.00 20.00     0.101 HD
ENDBRANCH   6   7
ENDBRANCH   2   6
TORSDOF 2
ENDMDL
MODEL 3
REMARK VINA RESULT:      -3.0     11.949     12.728
REMARK  2 active torsions:
REMARK  status: ('A' for Active; 'I' for Inactive)
REMARK    1  A    between atoms: C2_2  and  C4_4 
REMARK    2  A    between atoms: C4_4  and  S5_5 
ROOT
HETATM    1  C1  UNL     1     -32.975  15.118  -3.720  1.00 20.00     0.051 A 
HETATM    2  C2  UNL     1     -34.235  15.913  -3.515  1.00 20.00     0.036 A 
HETATM    3  C3  UNL     1     -34.205  14.796  -4.533  1.00 20.00     0.118 A 
HETATM    4 CL6  UNL     1     -34.200  15.244  -6.239  1.00 20.00    -0.101 Cl
HETATM    5 CL7  UNL     1     -35.031  13.276  -4.218  1.00 20.00    -0.101 Cl
ENDROOT
BRANCH   2   6
HETATM    6  C4  UNL     1     -34.979  15.811  -2.227  1.00 20.00     0.078 C 
BRANCH   6   7
HETATM    7  S5  UNL     1     -34.336  16.991  -0.995  1.00 20.00    -0.182 SA
HETATM    8  H13 UNL     1     -33.117  17.101  -1.537  1.00 20.00     0.101 HD
ENDBRANCH   6   7
ENDBRANCH   2   6
TORSDOF 2
ENDMDL
MODEL 4
REMARK VINA RESULT:      -3.0     11.948     12.631
REMARK  2 active torsions:
REMARK  status: ('A' for Active; 'I' for Inactive)
REMARK    1  A    between atoms: C2_2  and  C4_4 
REMARK    2  A    between atoms: C4_4  and  S5_5 
ROOT
HETATM    1  C1  UNL     1     -35.354  15.470  -3.302  1.00 20.00     0.051 A 
HETATM    2  C2  UNL     1     -34.314  15.742  -2.250  1.00 20.00     0.036 A 
HETATM    3  C3  UNL     1     -33.892  15.279  -3.626  1.00 20.00     0.118 A 
HETATM    4 CL6  UNL     1     -33.297  13.627  -3.787  1.00 20.00    -0.101 Cl
HETATM    5 CL7  UNL     1     -33.143  16.399  -4.756  1.00 20.00    -0.101 Cl
ENDROOT
BRANCH   2   6
HETATM    6  C4  UNL     1     -34.093  17.134  -1.764  1.00 20.00     0.078 C 
BRANCH   6   7
HETATM    7  S5  UNL     1     -34.756  17.362  -0.082  1.00 20.00    -0.182 SA
HETATM    8  H13 UNL     1     -33.639  17.891   0.433  1.00 20.00     0.101 HD
ENDBRANCH   6   7
ENDBRANCH   2   6
TORSDOF 2
ENDMDL
MODEL 5
REMARK VINA RESULT:      -3.0      3.117      3.666
REMARK  2 active torsions:
REMARK  status: ('A' for Active; 'I' for Inactive)
REMARK    1  A    between atoms: C2_2  and  C4_4 
REMARK    2  A    between atoms: C4_4  and  S5_5 
ROOT
HETATM    1  C1  UNL     1     -33.167   6.767   4.846  1.00 20.00     0.051 A 
HETATM    2  C2  UNL     1     -34.273   6.468   3.871  1.00 20.00     0.036 A 
HETATM    3  C3  UNL     1     -32.848   6.591   3.382  1.00 20.00     0.118 A 
HETATM    4 CL6  UNL     1     -32.422   8.032   2.457  1.00 20.00    -0.101 Cl
HETATM    5 CL7  UNL     1     -31.941   5.164   2.899  1.00 20.00    -0.101 Cl
ENDROOT
BRANCH   2   6
HETATM    6  C4  UNL     1     -34.993   5.164   3.939  1.00 20.00     0.078 C 
BRANCH   6   7
HETATM    7  S5  UNL     1     -34.921   4.453   5.616  1.00 20.00    -0.182 SA
HETATM    8  H13 UNL     1     -33.587   4.490   5.721  1.00 20.00     0.101 HD
ENDBRANCH   6   7
ENDBRANCH   2   6
TORSDOF 2
ENDMDL
MODEL 6
REMARK VINA RESULT:      -3.0     12.308     12.924
REMARK  2 active torsions:
REMARK  status: ('A' for Active; 'I' for Inactive)
REMARK    1  A    between atoms: C2_2  and  C4_4 
REMARK    2  A    between atoms: C4_4  and  S5_5 
ROOT
HETATM    1  C1  UNL     1     -35.102  13.839  -4.003  1.00 20.00     0.051 A 
HETATM    2  C2  UNL     1     -34.999  15.135  -4.760  1.00 20.00     0.036 A 
HETATM    3  C3  UNL     1     -34.196  14.934  -3.495  1.00 20.00     0.118 A 
HETATM    4 CL6  UNL     1     -34.704  15.817  -2.054  1.00 20.00    -0.101 Cl
HETATM    5 CL7  UNL     1     -32.459  14.670  -3.569  1.00 20.00    -0.101 Cl
ENDROOT
BRANCH   2   6
HETATM    6  C4  UNL     1     -34.377  15.157  -6.115  1.00 20.00     0.078 C 
BRANCH   6   7
HETATM    7  S5  UNL     1     -35.524  14.524  -7.381  1.00 20.00    -0.182 SA
HETATM    8  H13 UNL     1     -34.708  13.564  -7.834  1.00 20.00     0.101 HD
ENDBRANCH   6   7
ENDBRANCH   2   6
TORSDOF 2
ENDMDL
MODEL 7
REMARK VINA RESULT:      -3.0     12.136     12.936
REMARK  2 active torsions:
REMARK  status: ('A' for Active; 'I' for Inactive)
REMARK    1  A    between atoms: C2_2  and  C4_4 
REMARK    2  A    between atoms: C4_4  and  S5_5 
ROOT
HETATM    1  C1  UNL     1     -33.551  13.707  -3.798  1.00 20.00     0.051 A 
HETATM    2  C2  UNL     1     -34.855  14.128  -4.419  1.00 20.00     0.036 A 
HETATM    3  C3  UNL     1     -33.978  15.153  -3.738  1.00 20.00     0.118 A 
HETATM    4 CL6  UNL     1     -34.516  15.786  -2.182  1.00 20.00    -0.101 Cl
HETATM    5 CL7  UNL     1     -33.068  16.323  -4.684  1.00 20.00    -0.101 Cl
ENDROOT
BRANCH   2   6
HETATM    6  C4  UNL     1     -35.027  14.069  -5.899  1.00 20.00     0.078 C 
BRANCH   6   7
HETATM    7  S5  UNL     1     -36.402  15.130  -6.450  1.00 20.00    -0.182 SA
HETATM    8  H13 UNL     1     -37.108  15.035  -5.316  1.00 20.00     0.101 HD
ENDBRANCH   6   7
ENDBRANCH   2   6
TORSDOF 2
ENDMDL
MODEL 8
REMARK VINA RESULT:      -3.0     11.958     12.543
REMARK  2 active torsions:
REMARK  status: ('A' for Active; 'I' for Inactive)
REMARK    1  A    between atoms: C2_2  and  C4_4 
REMARK    2  A    between atoms: C4_4  and  S5_5 
ROOT
HETATM    1  C1  UNL     1     -33.634  16.090  -2.898  1.00 20.00     0.051 A 
HETATM    2  C2  UNL     1     -34.781  15.141  -2.684  1.00 20.00     0.036 A 
HETATM    3  C3  UNL     1     -34.853  16.549  -2.137  1.00 20.00     0.118 A 
HETATM    4 CL6  UNL     1     -34.701  16.759  -0.392  1.00 20.00    -0.101 Cl
HETATM    5 CL7  UNL     1     -35.895  17.749  -2.891  1.00 20.00    -0.101 Cl
ENDROOT
BRANCH   2   6
HETATM    6  C4  UNL     1     -35.595  14.684  -3.845  1.00 20.00     0.078 C 
BRANCH   6   7
HETATM    7  S5  UNL     1     -34.740  13.374  -4.780  1.00 20.00    -0.182 SA
HETATM    8  H13 UNL     1     -35.296  13.668  -5.963  1.00 20.00     0.101 HD
ENDBRANCH   6   7
ENDBRANCH   2   6
TORSDOF 2
ENDMDL
MODEL 9
REMARK VINA RESULT:      -3.0     12.256     12.866
REMARK  2 active torsions:
REMARK  status: ('A' for Active; 'I' for Inactive)
REMARK    1  A    between atoms: C2_2  and  C4_4 
REMARK    2  A    between atoms: C4_4  and  S5_5 
ROOT
HETATM    1  C1  UNL     1     -34.164  13.984  -3.753  1.00 20.00     0.051 A 
HETATM    2  C2  UNL     1     -34.286  15.244  -4.565  1.00 20.00     0.036 A 
HETATM    3  C3  UNL     1     -35.127  15.064  -3.322  1.00 20.00     0.118 A 
HETATM    4 CL6  UNL     1     -36.851  14.758  -3.538  1.00 20.00    -0.101 Cl
HETATM    5 CL7  UNL     1     -34.761  15.962  -1.856  1.00 20.00    -0.101 Cl
ENDROOT
BRANCH   2   6
HETATM    6  C4  UNL     1     -33.143  16.199  -4.635  1.00 20.00     0.078 C 
BRANCH   6   7
HETATM    7  S5  UNL     1     -33.639  17.772  -5.411  1.00 20.00    -0.182 SA
HETATM    8  H13 UNL     1     -33.339  17.404  -6.663  1.00 20.00     0.101 HD
ENDBRANCH   6   7
ENDBRANCH   2   6
TORSDOF 2
ENDMDL
