MODEL 1
REMARK VINA RESULT:      -3.8      0.000      0.000
REMARK  2 active torsions:
REMARK  status: ('A' for Active; 'I' for Inactive)
REMARK    1  A    between atoms: C1_1  and  C7_7 
REMARK    2  A    between atoms: C6_6  and  N8_8 
ROOT
HETATM    1  C1  UNL     1     -33.277   5.824   4.246  1.00 20.00     0.108 C 
HETATM    2  N8  UNL     1     -33.375   6.797   3.406  1.00 20.00    -0.299 NA
ENDROOT
BRANCH   1   3
HETATM    3  C7  UNL     1     -34.488   5.237   4.948  1.00 20.00     0.063 C 
HETATM    4  C4  UNL     1     -34.642   5.904   6.314  1.00 20.00     0.038 C 
HETATM    5  C5  UNL     1     -34.429   3.718   5.087  1.00 20.00     0.038 C 
HETATM    6 CL9  UNL     1     -35.890   5.675   3.920  1.00 20.00    -0.114 Cl
ENDBRANCH   1   3
BRANCH   2   7
HETATM    7  C6  UNL     1     -32.086   7.206   2.855  1.00 20.00     0.099 C 
HETATM    8  C2  UNL     1     -32.308   8.348   1.875  1.00 20.00     0.034 C 
HETATM    9  C3  UNL     1     -31.168   7.613   3.998  1.00 20.00     0.034 C 
ENDBRANCH   2   7
TORSDOF 2
ENDMDL
MODEL 2
REMARK VINA RESULT:      -3.7      1.095      1.521
REMARK  2 active torsions:
REMARK  status: ('A' for Active; 'I' for Inactive)
REMARK    1  A    between atoms: C1_1  and  C7_7 
REMARK    2  A    between atoms: C6_6  and  N8_8 
ROOT
HETATM    1  C1  UNL     1     -33.281   5.854   4.174  1.00 20.00     0.108 C 
HETATM    2  N8  UNL     1     -33.336   6.827   3.329  1.00 20.00    -0.299 NA
ENDROOT
BRANCH   1   3
HETATM    3  C7  UNL     1     -34.525   5.278   4.826  1.00 20.00     0.063 C 
HETATM    4  C4  UNL     1     -34.334   3.775   5.018  1.00 20.00     0.038 C 
HETATM    5  C5  UNL     1     -35.806   5.569   4.048  1.00 20.00     0.038 C 
HETATM    6 CL9  UNL     1     -34.626   6.066   6.432  1.00 20.00    -0.114 Cl
ENDBRANCH   1   3
BRANCH   2   7
HETATM    7  C6  UNL     1     -32.023   7.224   2.831  1.00 20.00     0.099 C 
HETATM    8  C2  UNL     1     -32.198   8.342   1.814  1.00 20.00     0.034 C 
HETATM    9  C3  UNL     1     -31.160   7.659   4.006  1.00 20.00     0.034 C 
ENDBRANCH   2   7
TORSDOF 2
ENDMDL
MODEL 3
REMARK VINA RESULT:      -3.7     11.716     12.255
REMARK  2 active torsions:
REMARK  status: ('A' for Active; 'I' for Inactive)
REMARK    1  A    between atoms: C1_1  and  C7_7 
REMARK    2  A    between atoms: C6_6  and  N8_8 
ROOT
HETATM    1  C1  UNL     1     -33.880  15.926  -2.823  1.00 20.00     0.108 C 
HETATM    2  N8  UNL     1     -34.628  16.158  -1.798  1.00 20.00    -0.299 NA
ENDROOT
BRANCH   1   3
HETATM    3  C7  UNL     1     -34.298  14.975  -3.930  1.00 20.00     0.063 C 
HETATM    4  C4  UNL     1     -34.052  15.647  -5.280  1.00 20.00     0.038 C 
HETATM    5  C5  UNL     1     -35.746  14.507  -3.811  1.00 20.00     0.038 C 
HETATM    6 CL9  UNL     1     -33.211  13.559  -3.774  1.00 20.00    -0.114 Cl
ENDBRANCH   1   3
BRANCH   2   7
HETATM    7  C6  UNL     1     -34.029  17.099  -0.858  1.00 20.00     0.099 C 
HETATM    8  C2  UNL     1     -33.661  18.374  -1.601  1.00 20.00     0.034 C 
HETATM    9  C3  UNL     1     -35.016  17.367   0.269  1.00 20.00     0.034 C 
ENDBRANCH   2   7
TORSDOF 2
ENDMDL
MODEL 4
REMARK VINA RESULT:      -3.7     11.431     12.225
REMARK  2 active torsions:
REMARK  status: ('A' for Active; 'I' for Inactive)
REMARK    1  A    between atoms: C1_1  and  C7_7 
REMARK    2  A    between atoms: C6_6  and  N8_8 
ROOT
HETATM    1  C1  UNL     1     -33.914  15.936  -2.839  1.00 20.00     0.108 C 
HETATM    2  N8  UNL     1     -34.587  16.090  -1.750  1.00 20.00    -0.299 NA
ENDROOT
BRANCH   1   3
HETATM    3  C7  UNL     1     -34.309  14.921  -3.896  1.00 20.00     0.063 C 
HETATM    4  C4  UNL     1     -35.805  14.638  -3.778  1.00 20.00     0.038 C 
HETATM    5  C5  UNL     1     -33.502  13.627  -3.824  1.00 20.00     0.038 C 
HETATM    6 CL9  UNL     1     -33.987  15.723  -5.466  1.00 20.00    -0.114 Cl
ENDBRANCH   1   3
BRANCH   2   7
HETATM    7  C6  UNL     1     -34.028  17.116  -0.875  1.00 20.00     0.099 C 
HETATM    8  C2  UNL     1     -33.772  18.375  -1.690  1.00 20.00     0.034 C 
HETATM    9  C3  UNL     1     -34.997  17.372   0.270  1.00 20.00     0.034 C 
ENDBRANCH   2   7
TORSDOF 2
ENDMDL
MODEL 5
REMARK VINA RESULT:      -3.6     11.684     12.610
REMARK  2 active torsions:
REMARK  status: ('A' for Active; 'I' for Inactive)
REMARK    1  A    between atoms: C1_1  and  C7_7 
REMARK    2  A    between atoms: C6_6  and  N8_8 
ROOT
HETATM    1  C1  UNL     1     -34.397  15.632  -4.197  1.00 20.00     0.108 C 
HETATM    2  N8  UNL     1     -34.493  15.424  -2.928  1.00 20.00    -0.299 NA
ENDROOT
BRANCH   1   3
HETATM    3  C7  UNL     1     -34.975  14.672  -5.220  1.00 20.00     0.063 C 
HETATM    4  C4  UNL     1     -34.684  13.239  -4.776  1.00 20.00     0.038 C 
HETATM    5  C5  UNL     1     -34.463  14.917  -6.637  1.00 20.00     0.038 C 
HETATM    6 CL9  UNL     1     -36.746  14.948  -5.183  1.00 20.00    -0.114 Cl
ENDBRANCH   1   3
BRANCH   2   7
HETATM    7  C6  UNL     1     -33.865  16.471  -2.130  1.00 20.00     0.099 C 
HETATM    8  C2  UNL     1     -33.836  17.759  -2.939  1.00 20.00     0.034 C 
HETATM    9  C3  UNL     1     -34.642  16.637  -0.832  1.00 20.00     0.034 C 
ENDBRANCH   2   7
TORSDOF 2
ENDMDL
MODEL 6
REMARK VINA RESULT:      -3.5     11.305     12.208
REMARK  2 active torsions:
REMARK  status: ('A' for Active; 'I' for Inactive)
REMARK    1  A    between atoms: C1_1  and  C7_7 
REMARK    2  A    between atoms: C6_6  and  N8_8 
ROOT
HETATM    1  C1  UNL     1     -34.450  15.593  -2.773  1.00 20.00     0.108 C 
HETATM    2  N8  UNL     1     -35.334  14.925  -3.433  1.00 20.00    -0.299 NA
ENDROOT
BRANCH   1   3
HETATM    3  C7  UNL     1     -34.783  16.888  -2.056  1.00 20.00     0.063 C 
HETATM    4  C4  UNL     1     -33.863  17.993  -2.573  1.00 20.00     0.038 C 
HETATM    5  C5  UNL     1     -34.700  16.777  -0.536  1.00 20.00     0.038 C 
HETATM    6 CL9  UNL     1     -36.472  17.267  -2.522  1.00 20.00    -0.114 Cl
ENDBRANCH   1   3
BRANCH   2   7
HETATM    7  C6  UNL     1     -34.795  13.715  -4.045  1.00 20.00     0.099 C 
HETATM    8  C2  UNL     1     -35.052  13.763  -5.544  1.00 20.00     0.034 C 
HETATM    9  C3  UNL     1     -33.309  13.622  -3.729  1.00 20.00     0.034 C 
ENDBRANCH   2   7
TORSDOF 2
ENDMDL
MODEL 7
REMARK VINA RESULT:      -3.5     11.445     12.324
REMARK  2 active torsions:
REMARK  status: ('A' for Active; 'I' for Inactive)
REMARK    1  A    between atoms: C1_1  and  C7_7 
REMARK    2  A    between atoms: C6_6  and  N8_8 
ROOT
HETATM    1  C1  UNL     1     -34.503  15.677  -2.968  1.00 20.00     0.108 C 
HETATM    2  N8  UNL     1     -35.397  14.852  -3.395  1.00 20.00    -0.299 NA
ENDROOT
BRANCH   1   3
HETATM    3  C7  UNL     1     -34.864  16.934  -2.199  1.00 20.00     0.063 C 
HETATM    4  C4  UNL     1     -34.632  16.688  -0.709  1.00 20.00     0.038 C 
HETATM    5  C5  UNL     1     -36.290  17.412  -2.456  1.00 20.00     0.038 C 
HETATM    6 CL9  UNL     1     -33.716  18.186  -2.771  1.00 20.00    -0.114 Cl
ENDBRANCH   1   3
BRANCH   2   7
HETATM    7  C6  UNL     1     -34.828  13.716  -4.112  1.00 20.00     0.099 C 
HETATM    8  C2  UNL     1     -35.033  13.921  -5.606  1.00 20.00     0.034 C 
HETATM    9  C3  UNL     1     -33.354  13.595  -3.756  1.00 20.00     0.034 C 
ENDBRANCH   2   7
TORSDOF 2
ENDMDL
MODEL 8
REMARK VINA RESULT:      -3.5     11.110     12.328
REMARK  2 active torsions:
REMARK  status: ('A' for Active; 'I' for Inactive)
REMARK    1  A    between atoms: C1_1  and  C7_7 
REMARK    2  A    between atoms: C6_6  and  N8_8 
ROOT
HETATM    1  C1  UNL     1     -34.404  15.721  -2.980  1.00 20.00     0.108 C 
HETATM    2  N8  UNL     1     -35.295  14.859  -3.334  1.00 20.00    -0.299 NA
ENDROOT
BRANCH   1   3
HETATM    3  C7  UNL     1     -34.767  17.019  -2.282  1.00 20.00     0.063 C 
HETATM    4  C4  UNL     1     -36.206  17.388  -2.638  1.00 20.00     0.038 C 
HETATM    5  C5  UNL     1     -33.815  18.167  -2.607  1.00 20.00     0.038 C 
HETATM    6 CL9  UNL     1     -34.671  16.658  -0.529  1.00 20.00    -0.114 Cl
ENDBRANCH   1   3
BRANCH   2   7
HETATM    7  C6  UNL     1     -34.724  13.687  -3.992  1.00 20.00     0.099 C 
HETATM    8  C2  UNL     1     -35.002  13.775  -5.485  1.00 20.00     0.034 C 
HETATM    9  C3  UNL     1     -33.232  13.634  -3.698  1.00 20.00     0.034 C 
ENDBRANCH   2   7
TORSDOF 2
ENDMDL
MODEL 9
REMARK VINA RESULT:      -3.4     10.470     11.275
REMARK  2 active torsions:
REMARK  status: ('A' for Active; 'I' for Inactive)
REMARK    1  A    between atoms: C1_1  and  C7_7 
REMARK    2  A    between atoms: C6_6  and  N8_8 
ROOT
HETATM    1  C1  UNL     1     -42.399   4.579  -2.027  1.00 20.00     0.108 C 
HETATM    2  N8  UNL     1     -41.571   3.652  -2.368  1.00 20.00    -0.299 NA
ENDROOT
BRANCH   1   3
HETATM    3  C7  UNL     1     -41.948   5.849  -1.328  1.00 20.00     0.063 C 
HETATM    4  C4  UNL     1     -41.797   6.960  -2.366  1.00 20.00     0.038 C 
HETATM    5  C5  UNL     1     -40.660   5.674  -0.528  1.00 20.00     0.038 C 
HETATM    6 CL9  UNL     1     -43.280   6.272  -0.206  1.00 20.00    -0.114 Cl
ENDBRANCH   1   3
BRANCH   2   7
HETATM    7  C6  UNL     1     -42.222   2.521  -3.022  1.00 20.00     0.099 C 
HETATM    8  C2  UNL     1     -43.414   3.029  -3.819  1.00 20.00     0.034 C 
HETATM    9  C3  UNL     1     -41.208   1.815  -3.911  1.00 20.00     0.034 C 
ENDBRANCH   2   7
TORSDOF 2
ENDMDL
