MODEL 1
REMARK VINA RESULT:      -4.6      0.000      0.000
REMARK  1 active torsions:
REMARK  status: ('A' for Active; 'I' for Inactive)
REMARK    1  A    between atoms: C2_2  and  C5_5 
ROOT
HETATM    1  C1  UNL     1     -34.249  15.458  -5.528  1.00 20.00     0.065 A 
HETATM    2  C2  UNL     1     -34.631  14.979  -4.293  1.00 20.00     0.015 A 
HETATM    3  C3  UNL     1     -34.460  15.949  -3.262  1.00 20.00    -0.031 A 
HETATM    4  C4  UNL     1     -33.943  17.130  -3.762  1.00 20.00    -0.010 A 
HETATM    5  C6  UNL     1     -34.754  15.763  -1.805  1.00 20.00     0.040 C 
HETATM    6  C7  UNL     1     -33.666  18.359  -2.954  1.00 20.00     0.046 C 
HETATM    7  C8  UNL     1     -34.816  17.107  -1.061  1.00 20.00     0.005 C 
HETATM    8  C9  UNL     1     -33.649  18.025  -1.454  1.00 20.00     0.005 C 
HETATM    9  S11 UNL     1     -33.681  17.072  -5.443  1.00 20.00    -0.105 SA
ENDROOT
BRANCH   2  10
HETATM   10  C5  UNL     1     -35.138  13.642  -4.120  1.00 20.00     0.271 C 
HETATM   11  O10 UNL     1     -34.755  12.669  -4.791  1.00 20.00    -0.301 OA
ENDBRANCH   2  10
TORSDOF 1
ENDMDL
MODEL 2
REMARK VINA RESULT:      -4.5      2.080      3.914
REMARK  1 active torsions:
REMARK  status: ('A' for Active; 'I' for Inactive)
REMARK    1  A    between atoms: C2_2  and  C5_5 
ROOT
HETATM    1  C1  UNL     1     -33.864  17.771  -3.230  1.00 20.00     0.065 A 
HETATM    2  C2  UNL     1     -34.309  16.556  -2.755  1.00 20.00     0.015 A 
HETATM    3  C3  UNL     1     -34.480  15.599  -3.799  1.00 20.00    -0.031 A 
HETATM    4  C4  UNL     1     -34.162  16.137  -5.032  1.00 20.00    -0.010 A 
HETATM    5  C6  UNL     1     -34.966  14.191  -3.647  1.00 20.00     0.040 C 
HETATM    6  C7  UNL     1     -34.207  15.396  -6.332  1.00 20.00     0.046 C 
HETATM    7  C8  UNL     1     -34.667  13.347  -4.896  1.00 20.00     0.005 C 
HETATM    8  C9  UNL     1     -35.021  14.101  -6.187  1.00 20.00     0.005 C 
HETATM    9  S11 UNL     1     -33.656  17.759  -4.930  1.00 20.00    -0.105 SA
ENDROOT
BRANCH   2  10
HETATM   10  C5  UNL     1     -34.560  16.332  -1.354  1.00 20.00     0.271 C 
HETATM   11  O10 UNL     1     -34.194  17.110  -0.458  1.00 20.00    -0.301 OA
ENDBRANCH   2  10
TORSDOF 1
ENDMDL
MODEL 3
REMARK VINA RESULT:      -4.3      1.827      2.047
REMARK  1 active torsions:
REMARK  status: ('A' for Active; 'I' for Inactive)
REMARK    1  A    between atoms: C2_2  and  C5_5 
ROOT
HETATM    1  C1  UNL     1     -36.585  14.954  -4.816  1.00 20.00     0.065 A 
HETATM    2  C2  UNL     1     -35.496  14.811  -3.983  1.00 20.00     0.015 A 
HETATM    3  C3  UNL     1     -35.439  15.834  -2.991  1.00 20.00    -0.031 A 
HETATM    4  C4  UNL     1     -36.492  16.719  -3.119  1.00 20.00    -0.010 A 
HETATM    5  C6  UNL     1     -34.384  15.997  -1.939  1.00 20.00     0.040 C 
HETATM    6  C7  UNL     1     -36.744  17.892  -2.222  1.00 20.00     0.046 C 
HETATM    7  C8  UNL     1     -34.834  16.957  -0.827  1.00 20.00     0.005 C 
HETATM    8  C9  UNL     1     -35.489  18.222  -1.400  1.00 20.00     0.005 C 
HETATM    9  S11 UNL     1     -37.535  16.319  -4.403  1.00 20.00    -0.105 SA
ENDROOT
BRANCH   2  10
HETATM   10  C5  UNL     1     -34.552  13.735  -4.144  1.00 20.00     0.271 C 
HETATM   11  O10 UNL     1     -34.864  12.600  -4.542  1.00 20.00    -0.301 OA
ENDBRANCH   2  10
TORSDOF 1
ENDMDL
MODEL 4
REMARK VINA RESULT:      -4.2      1.792      3.877
REMARK  1 active torsions:
REMARK  status: ('A' for Active; 'I' for Inactive)
REMARK    1  A    between atoms: C2_2  and  C5_5 
ROOT
HETATM    1  C1  UNL     1     -33.575  16.214  -3.486  1.00 20.00     0.065 A 
HETATM    2  C2  UNL     1     -33.959  15.079  -4.166  1.00 20.00     0.015 A 
HETATM    3  C3  UNL     1     -34.417  15.369  -5.485  1.00 20.00    -0.031 A 
HETATM    4  C4  UNL     1     -34.366  16.726  -5.749  1.00 20.00    -0.010 A 
HETATM    5  C6  UNL     1     -34.926  14.382  -6.490  1.00 20.00     0.040 C 
HETATM    6  C7  UNL     1     -34.750  17.365  -7.047  1.00 20.00     0.046 C 
HETATM    7  C8  UNL     1     -34.969  14.980  -7.905  1.00 20.00     0.005 C 
HETATM    8  C9  UNL     1     -35.574  16.392  -7.905  1.00 20.00     0.005 C 
HETATM    9  S11 UNL     1     -33.768  17.628  -4.435  1.00 20.00    -0.105 SA
ENDROOT
BRANCH   2  10
HETATM   10  C5  UNL     1     -33.888  13.772  -3.564  1.00 20.00     0.271 C 
HETATM   11  O10 UNL     1     -32.921  13.005  -3.697  1.00 20.00    -0.301 OA
ENDBRANCH   2  10
TORSDOF 1
ENDMDL
MODEL 5
REMARK VINA RESULT:      -4.2      1.924      2.621
REMARK  1 active torsions:
REMARK  status: ('A' for Active; 'I' for Inactive)
REMARK    1  A    between atoms: C2_2  and  C5_5 
ROOT
HETATM    1  C1  UNL     1     -35.109  14.328  -7.054  1.00 20.00     0.065 A 
HETATM    2  C2  UNL     1     -34.550  14.424  -5.798  1.00 20.00     0.015 A 
HETATM    3  C3  UNL     1     -34.246  15.772  -5.445  1.00 20.00    -0.031 A 
HETATM    4  C4  UNL     1     -34.585  16.647  -6.460  1.00 20.00    -0.010 A 
HETATM    5  C6  UNL     1     -33.617  16.239  -4.168  1.00 20.00     0.040 C 
HETATM    6  C7  UNL     1     -34.422  18.134  -6.404  1.00 20.00     0.046 C 
HETATM    7  C8  UNL     1     -33.787  17.753  -3.971  1.00 20.00     0.005 C 
HETATM    8  C9  UNL     1     -33.478  18.531  -5.259  1.00 20.00     0.005 C 
HETATM    9  S11 UNL     1     -35.264  15.859  -7.807  1.00 20.00    -0.105 SA
ENDROOT
BRANCH   2  10
HETATM   10  C5  UNL     1     -34.318  13.262  -4.978  1.00 20.00     0.271 C 
HETATM   11  O10 UNL     1     -35.196  12.723  -4.284  1.00 20.00    -0.301 OA
ENDBRANCH   2  10
TORSDOF 1
ENDMDL
MODEL 6
REMARK VINA RESULT:      -4.2      2.571      3.380
REMARK  1 active torsions:
REMARK  status: ('A' for Active; 'I' for Inactive)
REMARK    1  A    between atoms: C2_2  and  C5_5 
ROOT
HETATM    1  C1  UNL     1     -37.398  17.024  -3.054  1.00 20.00     0.065 A 
HETATM    2  C2  UNL     1     -37.230  15.816  -3.697  1.00 20.00     0.015 A 
HETATM    3  C3  UNL     1     -35.880  15.359  -3.642  1.00 20.00    -0.031 A 
HETATM    4  C4  UNL     1     -35.074  16.252  -2.962  1.00 20.00    -0.010 A 
HETATM    5  C6  UNL     1     -35.339  14.101  -4.250  1.00 20.00     0.040 C 
HETATM    6  C7  UNL     1     -33.612  16.065  -2.702  1.00 20.00     0.046 C 
HETATM    7  C8  UNL     1     -33.958  13.743  -3.680  1.00 20.00     0.005 C 
HETATM    8  C9  UNL     1     -33.037  14.970  -3.614  1.00 20.00     0.005 C 
HETATM    9  S11 UNL     1     -35.931  17.607  -2.390  1.00 20.00    -0.105 SA
ENDROOT
BRANCH   2  10
HETATM   10  C5  UNL     1     -38.328  15.136  -4.336  1.00 20.00     0.271 C 
HETATM   11  O10 UNL     1     -38.826  14.081  -3.909  1.00 20.00    -0.301 OA
ENDBRANCH   2  10
TORSDOF 1
ENDMDL
MODEL 7
REMARK VINA RESULT:      -4.2      3.082      4.172
REMARK  1 active torsions:
REMARK  status: ('A' for Active; 'I' for Inactive)
REMARK    1  A    between atoms: C2_2  and  C5_5 
ROOT
HETATM    1  C1  UNL     1     -35.171  16.236  -7.619  1.00 20.00     0.065 A 
HETATM    2  C2  UNL     1     -34.397  16.797  -6.626  1.00 20.00     0.015 A 
HETATM    3  C3  UNL     1     -34.087  15.865  -5.592  1.00 20.00    -0.031 A 
HETATM    4  C4  UNL     1     -34.650  14.628  -5.844  1.00 20.00    -0.010 A 
HETATM    5  C6  UNL     1     -33.286  16.138  -4.356  1.00 20.00     0.040 C 
HETATM    6  C7  UNL     1     -34.498  13.420  -4.973  1.00 20.00     0.046 C 
HETATM    7  C8  UNL     1     -32.836  14.838  -3.671  1.00 20.00     0.005 C 
HETATM    8  C9  UNL     1     -33.981  13.819  -3.582  1.00 20.00     0.005 C 
HETATM    9  S11 UNL     1     -35.526  14.590  -7.303  1.00 20.00    -0.105 SA
ENDROOT
BRANCH   2  10
HETATM   10  C5  UNL     1     -33.979  18.175  -6.676  1.00 20.00     0.271 C 
HETATM   11  O10 UNL     1     -34.498  19.076  -5.997  1.00 20.00    -0.301 OA
ENDBRANCH   2  10
TORSDOF 1
ENDMDL
MODEL 8
REMARK VINA RESULT:      -4.1      2.943      4.192
REMARK  1 active torsions:
REMARK  status: ('A' for Active; 'I' for Inactive)
REMARK    1  A    between atoms: C2_2  and  C5_5 
ROOT
HETATM    1  C1  UNL     1     -37.508  16.285  -3.316  1.00 20.00     0.065 A 
HETATM    2  C2  UNL     1     -36.276  16.724  -2.880  1.00 20.00     0.015 A 
HETATM    3  C3  UNL     1     -35.232  15.807  -3.202  1.00 20.00    -0.031 A 
HETATM    4  C4  UNL     1     -35.722  14.699  -3.868  1.00 20.00    -0.010 A 
HETATM    5  C6  UNL     1     -33.780  15.955  -2.864  1.00 20.00     0.040 C 
HETATM    6  C7  UNL     1     -34.891  13.561  -4.372  1.00 20.00     0.046 C 
HETATM    7  C8  UNL     1     -32.905  14.992  -3.681  1.00 20.00     0.005 C 
HETATM    8  C9  UNL     1     -33.501  13.577  -3.718  1.00 20.00     0.005 C 
HETATM    9  S11 UNL     1     -37.405  14.770  -4.110  1.00 20.00    -0.105 SA
ENDROOT
BRANCH   2  10
HETATM   10  C5  UNL     1     -36.119  17.973  -2.181  1.00 20.00     0.271 C 
HETATM   11  O10 UNL     1     -36.316  18.108  -0.962  1.00 20.00    -0.301 OA
ENDBRANCH   2  10
TORSDOF 1
ENDMDL
MODEL 9
REMARK VINA RESULT:      -4.1      2.296      2.549
REMARK  1 active torsions:
REMARK  status: ('A' for Active; 'I' for Inactive)
REMARK    1  A    between atoms: C2_2  and  C5_5 
ROOT
HETATM    1  C1  UNL     1     -35.671  13.789  -4.292  1.00 20.00     0.065 A 
HETATM    2  C2  UNL     1     -36.545  14.811  -3.989  1.00 20.00     0.015 A 
HETATM    3  C3  UNL     1     -35.933  15.826  -3.196  1.00 20.00    -0.031 A 
HETATM    4  C4  UNL     1     -34.612  15.524  -2.923  1.00 20.00    -0.010 A 
HETATM    5  C6  UNL     1     -36.591  17.065  -2.671  1.00 20.00     0.040 C 
HETATM    6  C7  UNL     1     -33.676  16.389  -2.138  1.00 20.00     0.046 C 
HETATM    7  C8  UNL     1     -35.559  18.098  -2.193  1.00 20.00     0.005 C 
HETATM    8  C9  UNL     1     -34.457  17.448  -1.344  1.00 20.00     0.005 C 
HETATM    9  S11 UNL     1     -34.118  14.051  -3.619  1.00 20.00    -0.105 SA
ENDROOT
BRANCH   2  10
HETATM   10  C5  UNL     1     -37.912  14.802  -4.445  1.00 20.00     0.271 C 
HETATM   11  O10 UNL     1     -38.814  14.143  -3.903  1.00 20.00    -0.301 OA
ENDBRANCH   2  10
TORSDOF 1
ENDMDL
