MODEL 1
REMARK VINA RESULT:      -4.4      0.000      0.000
REMARK  3 active torsions:
REMARK  status: ('A' for Active; 'I' for Inactive)
REMARK    1  A    between atoms: C1_1  and  C3_3 
REMARK       I    between atoms: C1_1  and  N10_10 
REMARK    2  A    between atoms: C8_8  and  C9_9 
REMARK    3  A    between atoms: C8_8  and  N10_10 
ROOT
HETATM    1  C1  UNL     1     -34.539  13.794  -5.210  1.00 20.00     0.222 C 
HETATM    2  N10 UNL     1     -33.679  14.802  -4.893  1.00 20.00    -0.360 N 
HETATM    3  O11 UNL     1     -34.920  12.881  -4.488  1.00 20.00    -0.273 OA
HETATM    4  H28 UNL     1     -33.455  15.487  -5.588  1.00 20.00     0.162 HD
ENDROOT
BRANCH   1   5
HETATM    5  C3  UNL     1     -35.035  13.877  -6.616  1.00 20.00     0.082 A 
HETATM    6  C2  UNL     1     -34.714  15.100  -7.415  1.00 20.00     0.019 A 
HETATM    7  C4  UNL     1     -36.126  14.837  -6.973  1.00 20.00    -0.005 A 
HETATM    8  C5  UNL     1     -36.775  15.736  -5.976  1.00 20.00     0.011 C 
ENDBRANCH   1   5
BRANCH   2   9
HETATM    9  C8  UNL     1     -33.067  14.917  -3.550  1.00 20.00     0.126 C 
BRANCH   9  10
HETATM   10  C9  UNL     1     -33.541  16.176  -2.814  1.00 20.00    -0.005 C 
HETATM   11  C6  UNL     1     -33.753  17.358  -3.762  1.00 20.00     0.011 C 
HETATM   12  C7  UNL     1     -34.799  15.917  -1.985  1.00 20.00     0.011 C 
ENDBRANCH   9  10
ENDBRANCH   2   9
TORSDOF 3
ENDMDL
MODEL 2
REMARK VINA RESULT:      -4.3     11.609     13.045
REMARK  3 active torsions:
REMARK  status: ('A' for Active; 'I' for Inactive)
REMARK    1  A    between atoms: C1_1  and  C3_3 
REMARK       I    between atoms: C1_1  and  N10_10 
REMARK    2  A    between atoms: C8_8  and  C9_9 
REMARK    3  A    between atoms: C8_8  and  N10_10 
ROOT
HETATM    1  C1  UNL     1     -34.427   5.440   3.932  1.00 20.00     0.222 C 
HETATM    2  N10 UNL     1     -33.249   5.965   3.496  1.00 20.00    -0.360 N 
HETATM    3  O11 UNL     1     -35.538   5.574   3.432  1.00 20.00    -0.273 OA
HETATM    4  H28 UNL     1     -32.410   5.771   4.007  1.00 20.00     0.162 HD
ENDROOT
BRANCH   1   5
HETATM    5  C3  UNL     1     -34.271   4.615   5.167  1.00 20.00     0.082 A 
HETATM    6  C2  UNL     1     -35.370   4.635   6.182  1.00 20.00     0.019 A 
HETATM    7  C4  UNL     1     -34.047   5.278   6.490  1.00 20.00    -0.005 A 
HETATM    8  C5  UNL     1     -33.956   6.757   6.652  1.00 20.00     0.011 C 
ENDBRANCH   1   5
BRANCH   2   9
HETATM    9  C8  UNL     1     -33.170   6.815   2.286  1.00 20.00     0.126 C 
BRANCH   9  10
HETATM   10  C9  UNL     1     -31.959   7.755   2.328  1.00 20.00    -0.005 C 
HETATM   11  C6  UNL     1     -32.271   9.130   1.732  1.00 20.00     0.011 C 
HETATM   12  C7  UNL     1     -31.391   7.897   3.740  1.00 20.00     0.011 C 
ENDBRANCH   9  10
ENDBRANCH   2   9
TORSDOF 3
ENDMDL
MODEL 3
REMARK VINA RESULT:      -4.3     10.995     12.323
REMARK  3 active torsions:
REMARK  status: ('A' for Active; 'I' for Inactive)
REMARK    1  A    between atoms: C1_1  and  C3_3 
REMARK       I    between atoms: C1_1  and  N10_10 
REMARK    2  A    between atoms: C8_8  and  C9_9 
REMARK    3  A    between atoms: C8_8  and  N10_10 
ROOT
HETATM    1  C1  UNL     1     -33.415   6.255   3.988  1.00 20.00     0.222 C 
HETATM    2  N10 UNL     1     -32.853   6.592   2.794  1.00 20.00    -0.360 N 
HETATM    3  O11 UNL     1     -33.267   6.811   5.069  1.00 20.00    -0.273 OA
HETATM    4  H28 UNL     1     -33.065   6.043   1.984  1.00 20.00     0.162 HD
ENDROOT
BRANCH   1   5
HETATM    5  C3  UNL     1     -34.305   5.059   3.891  1.00 20.00     0.082 A 
HETATM    6  C2  UNL     1     -35.777   5.247   4.079  1.00 20.00     0.019 A 
HETATM    7  C4  UNL     1     -34.972   4.517   5.117  1.00 20.00    -0.005 A 
HETATM    8  C5  UNL     1     -34.787   5.111   6.472  1.00 20.00     0.011 C 
ENDBRANCH   1   5
BRANCH   2   9
HETATM    9  C8  UNL     1     -31.938   7.747   2.658  1.00 20.00     0.126 C 
BRANCH   9  10
HETATM   10  C9  UNL     1     -32.350   8.668   1.502  1.00 20.00    -0.005 C 
HETATM   11  C6  UNL     1     -32.657  10.090   1.975  1.00 20.00     0.011 C 
HETATM   12  C7  UNL     1     -31.309   8.685   0.382  1.00 20.00     0.011 C 
ENDBRANCH   9  10
ENDBRANCH   2   9
TORSDOF 3
ENDMDL
MODEL 4
REMARK VINA RESULT:      -4.3      2.173      2.984
REMARK  3 active torsions:
REMARK  status: ('A' for Active; 'I' for Inactive)
REMARK    1  A    between atoms: C1_1  and  C3_3 
REMARK       I    between atoms: C1_1  and  N10_10 
REMARK    2  A    between atoms: C8_8  and  C9_9 
REMARK    3  A    between atoms: C8_8  and  N10_10 
ROOT
HETATM    1  C1  UNL     1     -35.055  15.341  -3.138  1.00 20.00     0.222 C 
HETATM    2  N10 UNL     1     -33.908  15.974  -2.765  1.00 20.00    -0.360 N 
HETATM    3  O11 UNL     1     -36.192  15.796  -3.151  1.00 20.00    -0.273 OA
HETATM    4  H28 UNL     1     -33.041  15.475  -2.805  1.00 20.00     0.162 HD
ENDROOT
BRANCH   1   5
HETATM    5  C3  UNL     1     -34.822  13.930  -3.569  1.00 20.00     0.082 A 
HETATM    6  C2  UNL     1     -33.445  13.532  -3.995  1.00 20.00     0.019 A 
HETATM    7  C4  UNL     1     -34.551  13.619  -5.008  1.00 20.00    -0.005 A 
HETATM    8  C5  UNL     1     -34.508  14.663  -6.070  1.00 20.00     0.011 C 
ENDBRANCH   1   5
BRANCH   2   9
HETATM    9  C8  UNL     1     -33.905  17.381  -2.303  1.00 20.00     0.126 C 
BRANCH   9  10
HETATM   10  C9  UNL     1     -33.612  17.487  -0.802  1.00 20.00    -0.005 C 
HETATM   11  C6  UNL     1     -32.925  18.805  -0.437  1.00 20.00     0.011 C 
HETATM   12  C7  UNL     1     -34.868  17.282   0.045  1.00 20.00     0.011 C 
ENDBRANCH   9  10
ENDBRANCH   2   9
TORSDOF 3
ENDMDL
MODEL 5
REMARK VINA RESULT:      -4.3     10.572     11.808
REMARK  3 active torsions:
REMARK  status: ('A' for Active; 'I' for Inactive)
REMARK    1  A    between atoms: C1_1  and  C3_3 
REMARK       I    between atoms: C1_1  and  N10_10 
REMARK    2  A    between atoms: C8_8  and  C9_9 
REMARK    3  A    between atoms: C8_8  and  N10_10 
ROOT
HETATM    1  C1  UNL     1     -32.177   7.415   2.978  1.00 20.00     0.222 C 
HETATM    2  N10 UNL     1     -33.244   6.677   3.391  1.00 20.00    -0.360 N 
HETATM    3  O11 UNL     1     -31.204   7.761   3.638  1.00 20.00    -0.273 OA
HETATM    4  H28 UNL     1     -33.973   6.467   2.738  1.00 20.00     0.162 HD
ENDROOT
BRANCH   1   5
HETATM    5  C3  UNL     1     -32.270   7.814   1.542  1.00 20.00     0.082 A 
HETATM    6  C2  UNL     1     -31.193   8.680   0.970  1.00 20.00     0.019 A 
HETATM    7  C4  UNL     1     -32.577   9.232   1.173  1.00 20.00    -0.005 A 
HETATM    8  C5  UNL     1     -32.812  10.301   2.185  1.00 20.00     0.011 C 
ENDBRANCH   1   5
BRANCH   2   9
HETATM    9  C8  UNL     1     -33.358   6.173   4.779  1.00 20.00     0.126 C 
BRANCH   9  10
HETATM   10  C9  UNL     1     -34.746   5.584   5.059  1.00 20.00    -0.005 C 
HETATM   11  C6  UNL     1     -35.552   5.364   3.777  1.00 20.00     0.011 C 
HETATM   12  C7  UNL     1     -34.668   4.294   5.875  1.00 20.00     0.011 C 
ENDBRANCH   9  10
ENDBRANCH   2   9
TORSDOF 3
ENDMDL
MODEL 6
REMARK VINA RESULT:      -4.2     11.066     12.537
REMARK  3 active torsions:
REMARK  status: ('A' for Active; 'I' for Inactive)
REMARK    1  A    between atoms: C1_1  and  C3_3 
REMARK       I    between atoms: C1_1  and  N10_10 
REMARK    2  A    between atoms: C8_8  and  C9_9 
REMARK    3  A    between atoms: C8_8  and  N10_10 
ROOT
HETATM    1  C1  UNL     1     -33.862   6.278   3.788  1.00 20.00     0.222 C 
HETATM    2  N10 UNL     1     -32.900   7.242   3.808  1.00 20.00    -0.360 N 
HETATM    3  O11 UNL     1     -34.066   5.441   2.917  1.00 20.00    -0.273 OA
HETATM    4  H28 UNL     1     -32.849   7.862   4.592  1.00 20.00     0.162 HD
ENDROOT
BRANCH   1   5
HETATM    5  C3  UNL     1     -34.731   6.303   5.003  1.00 20.00     0.082 A 
HETATM    6  C2  UNL     1     -34.094   6.100   6.340  1.00 20.00     0.019 A 
HETATM    7  C4  UNL     1     -34.993   5.042   5.766  1.00 20.00    -0.005 A 
HETATM    8  C5  UNL     1     -34.430   3.720   5.368  1.00 20.00     0.011 C 
ENDBRANCH   1   5
BRANCH   2   9
HETATM    9  C8  UNL     1     -31.925   7.398   2.705  1.00 20.00     0.126 C 
BRANCH   9  10
HETATM   10  C9  UNL     1     -32.412   8.402   1.653  1.00 20.00    -0.005 C 
HETATM   11  C6  UNL     1     -32.693   9.781   2.253  1.00 20.00     0.011 C 
HETATM   12  C7  UNL     1     -31.445   8.513   0.474  1.00 20.00     0.011 C 
ENDBRANCH   9  10
ENDBRANCH   2   9
TORSDOF 3
ENDMDL
MODEL 7
REMARK VINA RESULT:      -4.2      1.980      2.680
REMARK  3 active torsions:
REMARK  status: ('A' for Active; 'I' for Inactive)
REMARK    1  A    between atoms: C1_1  and  C3_3 
REMARK       I    between atoms: C1_1  and  N10_10 
REMARK    2  A    between atoms: C8_8  and  C9_9 
REMARK    3  A    between atoms: C8_8  and  N10_10 
ROOT
HETATM    1  C1  UNL     1     -33.796  16.264  -4.907  1.00 20.00     0.222 C 
HETATM    2  N10 UNL     1     -34.587  17.028  -4.104  1.00 20.00    -0.360 N 
HETATM    3  O11 UNL     1     -32.572  16.206  -4.918  1.00 20.00    -0.273 OA
HETATM    4  H28 UNL     1     -35.581  16.973  -4.205  1.00 20.00     0.162 HD
ENDROOT
BRANCH   1   5
HETATM    5  C3  UNL     1     -34.580  15.422  -5.860  1.00 20.00     0.082 A 
HETATM    6  C2  UNL     1     -36.016  15.142  -5.550  1.00 20.00     0.019 A 
HETATM    7  C4  UNL     1     -34.999  14.038  -5.472  1.00 20.00    -0.005 A 
HETATM    8  C5  UNL     1     -34.660  13.427  -4.156  1.00 20.00     0.011 C 
ENDBRANCH   1   5
BRANCH   2   9
HETATM    9  C8  UNL     1     -34.020  17.937  -3.082  1.00 20.00     0.126 C 
BRANCH   9  10
HETATM   10  C9  UNL     1     -33.695  17.197  -1.779  1.00 20.00    -0.005 C 
HETATM   11  C6  UNL     1     -33.294  18.154  -0.654  1.00 20.00     0.011 C 
HETATM   12  C7  UNL     1     -34.841  16.290  -1.332  1.00 20.00     0.011 C 
ENDBRANCH   9  10
ENDBRANCH   2   9
TORSDOF 3
ENDMDL
MODEL 8
REMARK VINA RESULT:      -4.1      1.842      4.318
REMARK  3 active torsions:
REMARK  status: ('A' for Active; 'I' for Inactive)
REMARK    1  A    between atoms: C1_1  and  C3_3 
REMARK       I    between atoms: C1_1  and  N10_10 
REMARK    2  A    between atoms: C8_8  and  C9_9 
REMARK    3  A    between atoms: C8_8  and  N10_10 
ROOT
HETATM    1  C1  UNL     1     -33.462  15.965  -3.326  1.00 20.00     0.222 C 
HETATM    2  N10 UNL     1     -33.956  14.711  -3.127  1.00 20.00    -0.360 N 
HETATM    3  O11 UNL     1     -32.922  16.407  -4.333  1.00 20.00    -0.273 OA
HETATM    4  H28 UNL     1     -34.375  14.487  -2.246  1.00 20.00     0.162 HD
ENDROOT
BRANCH   1   5
HETATM    5  C3  UNL     1     -33.635  16.850  -2.135  1.00 20.00     0.082 A 
HETATM    6  C2  UNL     1     -34.657  16.475  -1.110  1.00 20.00     0.019 A 
HETATM    7  C4  UNL     1     -34.874  17.677  -1.986  1.00 20.00    -0.005 A 
HETATM    8  C5  UNL     1     -35.975  17.677  -2.991  1.00 20.00     0.011 C 
ENDBRANCH   1   5
BRANCH   2   9
HETATM    9  C8  UNL     1     -33.893  13.669  -4.177  1.00 20.00     0.126 C 
BRANCH   9  10
HETATM   10  C9  UNL     1     -35.182  13.617  -5.006  1.00 20.00    -0.005 C 
HETATM   11  C6  UNL     1     -36.384  14.182  -4.246  1.00 20.00     0.011 C 
HETATM   12  C7  UNL     1     -35.024  14.312  -6.359  1.00 20.00     0.011 C 
ENDBRANCH   9  10
ENDBRANCH   2   9
TORSDOF 3
ENDMDL
MODEL 9
REMARK VINA RESULT:      -4.1      2.265      3.109
REMARK  3 active torsions:
REMARK  status: ('A' for Active; 'I' for Inactive)
REMARK    1  A    between atoms: C1_1  and  C3_3 
REMARK       I    between atoms: C1_1  and  N10_10 
REMARK    2  A    between atoms: C8_8  and  C9_9 
REMARK    3  A    between atoms: C8_8  and  N10_10 
ROOT
HETATM    1  C1  UNL     1     -33.719  15.431  -3.448  1.00 20.00     0.222 C 
HETATM    2  N10 UNL     1     -34.180  16.218  -2.436  1.00 20.00    -0.360 N 
HETATM    3  O11 UNL     1     -32.886  15.716  -4.299  1.00 20.00    -0.273 OA
HETATM    4  H28 UNL     1     -34.867  15.850  -1.808  1.00 20.00     0.162 HD
ENDROOT
BRANCH   1   5
HETATM    5  C3  UNL     1     -34.346  14.075  -3.458  1.00 20.00     0.082 A 
HETATM    6  C2  UNL     1     -34.299  13.276  -4.721  1.00 20.00     0.019 A 
HETATM    7  C4  UNL     1     -35.605  13.834  -4.230  1.00 20.00    -0.005 A 
HETATM    8  C5  UNL     1     -36.299  14.902  -5.005  1.00 20.00     0.011 C 
ENDBRANCH   1   5
BRANCH   2   9
HETATM    9  C8  UNL     1     -33.694  17.602  -2.237  1.00 20.00     0.126 C 
BRANCH   9  10
HETATM   10  C9  UNL     1     -34.017  18.122  -0.831  1.00 20.00    -0.005 C 
HETATM   11  C6  UNL     1     -34.795  17.100   0.001  1.00 20.00     0.011 C 
HETATM   12  C7  UNL     1     -32.763  18.581  -0.086  1.00 20.00     0.011 C 
ENDBRANCH   9  10
ENDBRANCH   2   9
TORSDOF 3
ENDMDL
