MODEL 1
REMARK VINA RESULT:      -5.0      0.000      0.000
REMARK  3 active torsions:
REMARK  status: ('A' for Active; 'I' for Inactive)
REMARK    1  A    between atoms: C1_1  and  C3_3 
REMARK       I    between atoms: C1_1  and  N10_10 
REMARK    2  A    between atoms: C8_8  and  C9_9 
REMARK    3  A    between atoms: C8_8  and  N10_10 
ROOT
HETATM    1  C1  UNL     1     -32.547   6.695   3.057  1.00 20.00     0.222 C 
HETATM    2  N10 UNL     1     -33.825   6.844   3.507  1.00 20.00    -0.360 N 
HETATM    3  O11 UNL     1     -31.892   5.662   2.993  1.00 20.00    -0.273 OA
HETATM    4  H28 UNL     1     -34.238   7.755   3.502  1.00 20.00     0.162 HD
ENDROOT
BRANCH   1   5
HETATM    5  C3  UNL     1     -31.939   7.981   2.605  1.00 20.00     0.082 A 
HETATM    6  C2  UNL     1     -31.660   8.163   1.147  1.00 20.00     0.019 A 
HETATM    7  C4  UNL     1     -32.781   8.920   1.800  1.00 20.00    -0.005 A 
HETATM    8  C5  UNL     1     -32.663  10.388   2.025  1.00 20.00     0.011 C 
ENDBRANCH   1   5
BRANCH   2   9
HETATM    9  C8  UNL     1     -34.620   5.698   4.002  1.00 20.00     0.126 C 
BRANCH   9  10
HETATM   10  C9  UNL     1     -34.195   5.279   5.415  1.00 20.00    -0.005 C 
HETATM   11  C6  UNL     1     -34.107   6.468   6.372  1.00 20.00     0.011 C 
HETATM   12  C7  UNL     1     -35.105   4.193   5.990  1.00 20.00     0.011 C 
ENDBRANCH   9  10
ENDBRANCH   2   9
TORSDOF 3
ENDMDL
MODEL 2
REMARK VINA RESULT:      -5.0      0.964      5.133
REMARK  3 active torsions:
REMARK  status: ('A' for Active; 'I' for Inactive)
REMARK    1  A    between atoms: C1_1  and  C3_3 
REMARK       I    between atoms: C1_1  and  N10_10 
REMARK    2  A    between atoms: C8_8  and  C9_9 
REMARK    3  A    between atoms: C8_8  and  N10_10 
ROOT
HETATM    1  C1  UNL     1     -32.882   6.393   3.415  1.00 20.00     0.222 C 
HETATM    2  N10 UNL     1     -32.830   7.603   2.788  1.00 20.00    -0.360 N 
HETATM    3  O11 UNL     1     -32.077   5.473   3.335  1.00 20.00    -0.273 OA
HETATM    4  H28 UNL     1     -33.563   8.264   2.947  1.00 20.00     0.162 HD
ENDROOT
BRANCH   1   5
HETATM    5  C3  UNL     1     -34.086   6.244   4.284  1.00 20.00     0.082 A 
HETATM    6  C2  UNL     1     -35.234   5.432   3.776  1.00 20.00     0.019 A 
HETATM    7  C4  UNL     1     -34.368   4.901   4.882  1.00 20.00    -0.005 A 
HETATM    8  C5  UNL     1     -34.897   4.813   6.272  1.00 20.00     0.011 C 
ENDBRANCH   1   5
BRANCH   2   9
HETATM    9  C8  UNL     1     -31.720   7.966   1.878  1.00 20.00     0.126 C 
BRANCH   9  10
HETATM   10  C9  UNL     1     -32.021   9.252   1.100  1.00 20.00    -0.005 C 
HETATM   11  C6  UNL     1     -32.730   8.977  -0.226  1.00 20.00     0.011 C 
HETATM   12  C7  UNL     1     -32.815  10.257   1.936  1.00 20.00     0.011 C 
ENDBRANCH   9  10
ENDBRANCH   2   9
TORSDOF 3
ENDMDL
MODEL 3
REMARK VINA RESULT:      -4.6      1.064      5.162
REMARK  3 active torsions:
REMARK  status: ('A' for Active; 'I' for Inactive)
REMARK    1  A    between atoms: C1_1  and  C3_3 
REMARK       I    between atoms: C1_1  and  N10_10 
REMARK    2  A    between atoms: C8_8  and  C9_9 
REMARK    3  A    between atoms: C8_8  and  N10_10 
ROOT
HETATM    1  C1  UNL     1     -33.493   6.193   3.363  1.00 20.00     0.222 C 
HETATM    2  N10 UNL     1     -32.756   7.321   3.572  1.00 20.00    -0.360 N 
HETATM    3  O11 UNL     1     -33.411   5.407   2.426  1.00 20.00    -0.273 OA
HETATM    4  H28 UNL     1     -32.933   7.872   4.387  1.00 20.00     0.162 HD
ENDROOT
BRANCH   1   5
HETATM    5  C3  UNL     1     -34.498   5.951   4.440  1.00 20.00     0.082 A 
HETATM    6  C2  UNL     1     -35.795   5.306   4.071  1.00 20.00     0.019 A 
HETATM    7  C4  UNL     1     -34.768   4.538   4.853  1.00 20.00    -0.005 A 
HETATM    8  C5  UNL     1     -35.001   4.227   6.291  1.00 20.00     0.011 C 
ENDBRANCH   1   5
BRANCH   2   9
HETATM    9  C8  UNL     1     -31.700   7.751   2.628  1.00 20.00     0.126 C 
BRANCH   9  10
HETATM   10  C9  UNL     1     -32.274   8.579   1.472  1.00 20.00    -0.005 C 
HETATM   11  C6  UNL     1     -32.641  10.000   1.900  1.00 20.00     0.011 C 
HETATM   12  C7  UNL     1     -31.336   8.606   0.264  1.00 20.00     0.011 C 
ENDBRANCH   9  10
ENDBRANCH   2   9
TORSDOF 3
ENDMDL
MODEL 4
REMARK VINA RESULT:      -4.5     10.773     12.386
REMARK  3 active torsions:
REMARK  status: ('A' for Active; 'I' for Inactive)
REMARK    1  A    between atoms: C1_1  and  C3_3 
REMARK       I    between atoms: C1_1  and  N10_10 
REMARK    2  A    between atoms: C8_8  and  C9_9 
REMARK    3  A    between atoms: C8_8  and  N10_10 
ROOT
HETATM    1  C1  UNL     1     -34.055  14.400  -3.805  1.00 20.00     0.222 C 
HETATM    2  N10 UNL     1     -34.570  14.888  -4.970  1.00 20.00    -0.360 N 
HETATM    3  O11 UNL     1     -33.883  13.227  -3.496  1.00 20.00    -0.273 OA
HETATM    4  H28 UNL     1     -34.654  15.877  -5.087  1.00 20.00     0.162 HD
ENDROOT
BRANCH   1   5
HETATM    5  C3  UNL     1     -33.679  15.478  -2.843  1.00 20.00     0.082 A 
HETATM    6  C2  UNL     1     -33.946  16.898  -3.226  1.00 20.00     0.019 A 
HETATM    7  C4  UNL     1     -34.776  16.236  -2.163  1.00 20.00    -0.005 A 
HETATM    8  C5  UNL     1     -34.619  16.631  -0.736  1.00 20.00     0.011 C 
ENDBRANCH   1   5
BRANCH   2   9
HETATM    9  C8  UNL     1     -35.008  13.995  -6.066  1.00 20.00     0.126 C 
BRANCH   9  10
HETATM   10  C9  UNL     1     -35.113  14.743  -7.401  1.00 20.00    -0.005 C 
HETATM   11  C6  UNL     1     -36.550  14.811  -7.918  1.00 20.00     0.011 C 
HETATM   12  C7  UNL     1     -34.502  16.143  -7.323  1.00 20.00     0.011 C 
ENDBRANCH   9  10
ENDBRANCH   2   9
TORSDOF 3
ENDMDL
MODEL 5
REMARK VINA RESULT:      -4.5     10.647     12.627
REMARK  3 active torsions:
REMARK  status: ('A' for Active; 'I' for Inactive)
REMARK    1  A    between atoms: C1_1  and  C3_3 
REMARK       I    between atoms: C1_1  and  N10_10 
REMARK    2  A    between atoms: C8_8  and  C9_9 
REMARK    3  A    between atoms: C8_8  and  N10_10 
ROOT
HETATM    1  C1  UNL     1     -34.630  13.712  -4.609  1.00 20.00     0.222 C 
HETATM    2  N10 UNL     1     -34.613  14.556  -5.680  1.00 20.00    -0.360 N 
HETATM    3  O11 UNL     1     -35.053  12.563  -4.569  1.00 20.00    -0.273 OA
HETATM    4  H28 UNL     1     -34.234  15.475  -5.567  1.00 20.00     0.162 HD
ENDROOT
BRANCH   1   5
HETATM    5  C3  UNL     1     -34.049  14.325  -3.379  1.00 20.00     0.082 A 
HETATM    6  C2  UNL     1     -32.986  15.366  -3.537  1.00 20.00     0.019 A 
HETATM    7  C4  UNL     1     -34.364  15.759  -3.085  1.00 20.00    -0.005 A 
HETATM    8  C5  UNL     1     -34.597  16.184  -1.676  1.00 20.00     0.011 C 
ENDBRANCH   1   5
BRANCH   2   9
HETATM    9  C8  UNL     1     -35.139  14.153  -7.003  1.00 20.00     0.126 C 
BRANCH   9  10
HETATM   10  C9  UNL     1     -35.533  15.367  -7.853  1.00 20.00    -0.005 C 
HETATM   11  C6  UNL     1     -37.045  15.587  -7.889  1.00 20.00     0.011 C 
HETATM   12  C7  UNL     1     -34.815  16.640  -7.401  1.00 20.00     0.011 C 
ENDBRANCH   9  10
ENDBRANCH   2   9
TORSDOF 3
ENDMDL
MODEL 6
REMARK VINA RESULT:      -4.4     10.962     12.012
REMARK  3 active torsions:
REMARK  status: ('A' for Active; 'I' for Inactive)
REMARK    1  A    between atoms: C1_1  and  C3_3 
REMARK       I    between atoms: C1_1  and  N10_10 
REMARK    2  A    between atoms: C8_8  and  C9_9 
REMARK    3  A    between atoms: C8_8  and  N10_10 
ROOT
HETATM    1  C1  UNL     1     -33.515  15.331  -3.367  1.00 20.00     0.222 C 
HETATM    2  N10 UNL     1     -34.716  14.916  -3.861  1.00 20.00    -0.360 N 
HETATM    3  O11 UNL     1     -32.403  14.888  -3.630  1.00 20.00    -0.273 OA
HETATM    4  H28 UNL     1     -35.550  15.373  -3.555  1.00 20.00     0.162 HD
ENDROOT
BRANCH   1   5
HETATM    5  C3  UNL     1     -33.646  16.460  -2.400  1.00 20.00     0.082 A 
HETATM    6  C2  UNL     1     -34.660  17.523  -2.681  1.00 20.00     0.019 A 
HETATM    7  C4  UNL     1     -34.888  16.541  -1.568  1.00 20.00    -0.005 A 
HETATM    8  C5  UNL     1     -34.792  16.982  -0.148  1.00 20.00     0.011 C 
ENDBRANCH   1   5
BRANCH   2   9
HETATM    9  C8  UNL     1     -34.819  13.808  -4.837  1.00 20.00     0.126 C 
BRANCH   9  10
HETATM   10  C9  UNL     1     -35.382  14.285  -6.181  1.00 20.00    -0.005 C 
HETATM   11  C6  UNL     1     -36.617  15.171  -6.014  1.00 20.00     0.011 C 
HETATM   12  C7  UNL     1     -34.323  14.994  -7.027  1.00 20.00     0.011 C 
ENDBRANCH   9  10
ENDBRANCH   2   9
TORSDOF 3
ENDMDL
MODEL 7
REMARK VINA RESULT:      -4.4     10.714     11.862
REMARK  3 active torsions:
REMARK  status: ('A' for Active; 'I' for Inactive)
REMARK    1  A    between atoms: C1_1  and  C3_3 
REMARK       I    between atoms: C1_1  and  N10_10 
REMARK    2  A    between atoms: C8_8  and  C9_9 
REMARK    3  A    between atoms: C8_8  and  N10_10 
ROOT
HETATM    1  C1  UNL     1     -35.696  16.816  -2.972  1.00 20.00     0.222 C 
HETATM    2  N10 UNL     1     -36.007  15.504  -2.768  1.00 20.00    -0.360 N 
HETATM    3  O11 UNL     1     -35.776  17.451  -4.017  1.00 20.00    -0.273 OA
HETATM    4  H28 UNL     1     -35.891  15.114  -1.855  1.00 20.00     0.162 HD
ENDROOT
BRANCH   1   5
HETATM    5  C3  UNL     1     -35.207  17.493  -1.735  1.00 20.00     0.082 A 
HETATM    6  C2  UNL     1     -34.670  16.647  -0.626  1.00 20.00     0.019 A 
HETATM    7  C4  UNL     1     -33.737  17.484  -1.454  1.00 20.00    -0.005 A 
HETATM    8  C5  UNL     1     -33.095  18.693  -0.868  1.00 20.00     0.011 C 
ENDBRANCH   1   5
BRANCH   2   9
HETATM    9  C8  UNL     1     -36.512  14.641  -3.860  1.00 20.00     0.126 C 
BRANCH   9  10
HETATM   10  C9  UNL     1     -35.400  13.768  -4.456  1.00 20.00    -0.005 C 
HETATM   11  C6  UNL     1     -35.036  14.184  -5.881  1.00 20.00     0.011 C 
HETATM   12  C7  UNL     1     -34.155  13.741  -3.568  1.00 20.00     0.011 C 
ENDBRANCH   9  10
ENDBRANCH   2   9
TORSDOF 3
ENDMDL
MODEL 8
REMARK VINA RESULT:      -4.3     10.940     11.905
REMARK  3 active torsions:
REMARK  status: ('A' for Active; 'I' for Inactive)
REMARK    1  A    between atoms: C1_1  and  C3_3 
REMARK       I    between atoms: C1_1  and  N10_10 
REMARK    2  A    between atoms: C8_8  and  C9_9 
REMARK    3  A    between atoms: C8_8  and  N10_10 
ROOT
HETATM    1  C1  UNL     1     -35.204  16.397  -2.766  1.00 20.00     0.222 C 
HETATM    2  N10 UNL     1     -35.641  15.155  -3.122  1.00 20.00    -0.360 N 
HETATM    3  O11 UNL     1     -35.223  17.419  -3.441  1.00 20.00    -0.273 OA
HETATM    4  H28 UNL     1     -35.562  14.406  -2.464  1.00 20.00     0.162 HD
ENDROOT
BRANCH   1   5
HETATM    5  C3  UNL     1     -34.652  16.440  -1.380  1.00 20.00     0.082 A 
HETATM    6  C2  UNL     1     -33.588  17.444  -1.070  1.00 20.00     0.019 A 
HETATM    7  C4  UNL     1     -34.976  17.624  -0.524  1.00 20.00    -0.005 A 
HETATM    8  C5  UNL     1     -35.241  17.429   0.929  1.00 20.00     0.011 C 
ENDBRANCH   1   5
BRANCH   2   9
HETATM    9  C8  UNL     1     -36.228  14.884  -4.453  1.00 20.00     0.126 C 
BRANCH   9  10
HETATM   10  C9  UNL     1     -35.247  14.138  -5.366  1.00 20.00    -0.005 C 
HETATM   11  C6  UNL     1     -34.494  15.081  -6.305  1.00 20.00     0.011 C 
HETATM   12  C7  UNL     1     -34.266  13.275  -4.571  1.00 20.00     0.011 C 
ENDBRANCH   9  10
ENDBRANCH   2   9
TORSDOF 3
ENDMDL
MODEL 9
REMARK VINA RESULT:      -4.2     11.151     12.166
REMARK  3 active torsions:
REMARK  status: ('A' for Active; 'I' for Inactive)
REMARK    1  A    between atoms: C1_1  and  C3_3 
REMARK       I    between atoms: C1_1  and  N10_10 
REMARK    2  A    between atoms: C8_8  and  C9_9 
REMARK    3  A    between atoms: C8_8  and  N10_10 
ROOT
HETATM    1  C1  UNL     1     -35.393  16.337  -2.766  1.00 20.00     0.222 C 
HETATM    2  N10 UNL     1     -34.534  15.996  -3.768  1.00 20.00    -0.360 N 
HETATM    3  O11 UNL     1     -36.587  16.597  -2.859  1.00 20.00    -0.273 OA
HETATM    4  H28 UNL     1     -33.577  15.809  -3.545  1.00 20.00     0.162 HD
ENDROOT
BRANCH   1   5
HETATM    5  C3  UNL     1     -34.734  16.378  -1.428  1.00 20.00     0.082 A 
HETATM    6  C2  UNL     1     -33.630  17.363  -1.209  1.00 20.00     0.019 A 
HETATM    7  C4  UNL     1     -34.968  17.573  -0.558  1.00 20.00    -0.005 A 
HETATM    8  C5  UNL     1     -35.123  17.391   0.912  1.00 20.00     0.011 C 
ENDBRANCH   1   5
BRANCH   2   9
HETATM    9  C8  UNL     1     -34.976  15.893  -5.177  1.00 20.00     0.126 C 
BRANCH   9  10
HETATM   10  C9  UNL     1     -34.569  14.553  -5.804  1.00 20.00    -0.005 C 
HETATM   11  C6  UNL     1     -34.812  13.373  -4.864  1.00 20.00     0.011 C 
HETATM   12  C7  UNL     1     -35.256  14.319  -7.151  1.00 20.00     0.011 C 
ENDBRANCH   9  10
ENDBRANCH   2   9
TORSDOF 3
ENDMDL
