MODEL 1
REMARK VINA RESULT:      -3.7      0.000      0.000
REMARK  0 active torsions:
REMARK  status: ('A' for Active; 'I' for Inactive)
ROOT
HETATM    1  C1  UNL     1     -35.252   4.368   6.136  1.00 20.00     0.137 A 
HETATM    2  C2  UNL     1     -34.459   5.471   6.413  1.00 20.00     0.118 A 
HETATM    3  C3  UNL     1     -34.488   4.981   4.276  1.00 20.00     0.177 A 
HETATM    4  C4  UNL     1     -33.155   6.827   4.698  1.00 20.00     0.112 A 
HETATM    5  C5  UNL     1     -33.015   6.729   3.363  1.00 20.00    -0.002 A 
HETATM    6  C6  UNL     1     -32.198   7.623   2.498  1.00 20.00     0.058 C 
HETATM    7  N7  UNL     1     -35.265   4.065   4.787  1.00 20.00    -0.235 NA
HETATM    8  N8  UNL     1     -33.980   5.846   5.195  1.00 20.00    -0.309 N 
HETATM    9  S9  UNL     1     -33.938   5.367   2.676  1.00 20.00    -0.055 SA
ENDROOT
TORSDOF 0
ENDMDL
MODEL 2
REMARK VINA RESULT:      -3.7     12.109     13.704
REMARK  0 active torsions:
REMARK  status: ('A' for Active; 'I' for Inactive)
ROOT
HETATM    1  C1  UNL     1     -34.083  13.263  -3.769  1.00 20.00     0.137 A 
HETATM    2  C2  UNL     1     -33.633  14.573  -3.811  1.00 20.00     0.118 A 
HETATM    3  C3  UNL     1     -34.753  14.020  -5.612  1.00 20.00     0.177 A 
HETATM    4  C4  UNL     1     -34.018  16.214  -5.719  1.00 20.00     0.112 A 
HETATM    5  C5  UNL     1     -34.657  16.116  -6.900  1.00 20.00    -0.002 A 
HETATM    6  C6  UNL     1     -34.790  17.193  -7.918  1.00 20.00     0.058 C 
HETATM    7  N7  UNL     1     -34.789  12.922  -4.908  1.00 20.00    -0.235 NA
HETATM    8  N8  UNL     1     -34.079  15.037  -5.010  1.00 20.00    -0.309 N 
HETATM    9  S9  UNL     1     -35.372  14.503  -7.161  1.00 20.00    -0.055 SA
ENDROOT
TORSDOF 0
ENDMDL
MODEL 3
REMARK VINA RESULT:      -3.6     12.043     13.352
REMARK  0 active torsions:
REMARK  status: ('A' for Active; 'I' for Inactive)
ROOT
HETATM    1  C1  UNL     1     -34.592  13.121  -4.839  1.00 20.00     0.137 A 
HETATM    2  C2  UNL     1     -34.622  14.177  -5.735  1.00 20.00     0.118 A 
HETATM    3  C3  UNL     1     -34.194  14.833  -3.688  1.00 20.00     0.177 A 
HETATM    4  C4  UNL     1     -34.234  16.626  -5.154  1.00 20.00     0.112 A 
HETATM    5  C5  UNL     1     -33.962  17.265  -4.002  1.00 20.00    -0.002 A 
HETATM    6  C6  UNL     1     -33.761  18.730  -3.836  1.00 20.00     0.058 C 
HETATM    7  N7  UNL     1     -34.322  13.543  -3.550  1.00 20.00    -0.235 NA
HETATM    8  N8  UNL     1     -34.361  15.270  -4.966  1.00 20.00    -0.309 N 
HETATM    9  S9  UNL     1     -33.854  16.153  -2.612  1.00 20.00    -0.055 SA
ENDROOT
TORSDOF 0
ENDMDL
MODEL 4
REMARK VINA RESULT:      -3.6     12.636     13.694
REMARK  0 active torsions:
REMARK  status: ('A' for Active; 'I' for Inactive)
ROOT
HETATM    1  C1  UNL     1     -34.446  14.796  -6.643  1.00 20.00     0.137 A 
HETATM    2  C2  UNL     1     -34.845  14.086  -5.522  1.00 20.00     0.118 A 
HETATM    3  C3  UNL     1     -34.203  16.124  -5.033  1.00 20.00     0.177 A 
HETATM    4  C4  UNL     1     -34.861  14.971  -3.134  1.00 20.00     0.112 A 
HETATM    5  C5  UNL     1     -34.523  16.154  -2.591  1.00 20.00    -0.002 A 
HETATM    6  C6  UNL     1     -34.595  16.511  -1.149  1.00 20.00     0.058 C 
HETATM    7  N7  UNL     1     -34.042  16.079  -6.327  1.00 20.00    -0.235 NA
HETATM    8  N8  UNL     1     -34.678  14.967  -4.498  1.00 20.00    -0.309 N 
HETATM    9  S9  UNL     1     -33.951  17.327  -3.807  1.00 20.00    -0.055 SA
ENDROOT
TORSDOF 0
ENDMDL
MODEL 5
REMARK VINA RESULT:      -3.5     12.456     12.822
REMARK  0 active torsions:
REMARK  status: ('A' for Active; 'I' for Inactive)
ROOT
HETATM    1  C1  UNL     1     -38.640  15.469  -3.561  1.00 20.00     0.137 A 
HETATM    2  C2  UNL     1     -37.707  16.454  -3.279  1.00 20.00     0.118 A 
HETATM    3  C3  UNL     1     -36.769  14.559  -3.858  1.00 20.00     0.177 A 
HETATM    4  C4  UNL     1     -35.178  16.179  -3.396  1.00 20.00     0.112 A 
HETATM    5  C5  UNL     1     -34.381  15.143  -3.716  1.00 20.00    -0.002 A 
HETATM    6  C6  UNL     1     -32.893  15.153  -3.733  1.00 20.00     0.058 C 
HETATM    7  N7  UNL     1     -38.041  14.277  -3.924  1.00 20.00    -0.235 NA
HETATM    8  N8  UNL     1     -36.509  15.840  -3.479  1.00 20.00    -0.309 N 
HETATM    9  S9  UNL     1     -35.301  13.676  -4.141  1.00 20.00    -0.055 SA
ENDROOT
TORSDOF 0
ENDMDL
MODEL 6
REMARK VINA RESULT:      -3.5     12.358     14.035
REMARK  0 active torsions:
REMARK  status: ('A' for Active; 'I' for Inactive)
ROOT
HETATM    1  C1  UNL     1     -33.839  13.651  -3.700  1.00 20.00     0.137 A 
HETATM    2  C2  UNL     1     -34.407  13.469  -4.951  1.00 20.00     0.118 A 
HETATM    3  C3  UNL     1     -33.738  15.532  -4.631  1.00 20.00     0.177 A 
HETATM    4  C4  UNL     1     -34.680  15.269  -6.731  1.00 20.00     0.112 A 
HETATM    5  C5  UNL     1     -34.359  16.575  -6.774  1.00 20.00    -0.002 A 
HETATM    6  C6  UNL     1     -34.593  17.501  -7.915  1.00 20.00     0.058 C 
HETATM    7  N7  UNL     1     -33.420  14.954  -3.506  1.00 20.00    -0.235 NA
HETATM    8  N8  UNL     1     -34.328  14.699  -5.530  1.00 20.00    -0.309 N 
HETATM    9  S9  UNL     1     -33.585  17.140  -5.269  1.00 20.00    -0.055 SA
ENDROOT
TORSDOF 0
ENDMDL
MODEL 7
REMARK VINA RESULT:      -3.4     12.661     13.853
REMARK  0 active torsions:
REMARK  status: ('A' for Active; 'I' for Inactive)
ROOT
HETATM    1  C1  UNL     1     -34.558  13.196  -4.766  1.00 20.00     0.137 A 
HETATM    2  C2  UNL     1     -33.905  14.024  -3.867  1.00 20.00     0.118 A 
HETATM    3  C3  UNL     1     -34.566  15.098  -5.659  1.00 20.00     0.177 A 
HETATM    4  C4  UNL     1     -33.481  16.515  -4.182  1.00 20.00     0.112 A 
HETATM    5  C5  UNL     1     -33.781  17.380  -5.169  1.00 20.00    -0.002 A 
HETATM    6  C6  UNL     1     -33.453  18.831  -5.194  1.00 20.00     0.058 C 
HETATM    7  N7  UNL     1     -34.972  13.881  -5.893  1.00 20.00    -0.235 NA
HETATM    8  N8  UNL     1     -33.925  15.245  -4.468  1.00 20.00    -0.309 N 
HETATM    9  S9  UNL     1     -34.651  16.605  -6.518  1.00 20.00    -0.055 SA
ENDROOT
TORSDOF 0
ENDMDL
MODEL 8
REMARK VINA RESULT:      -3.4     12.935     13.936
REMARK  0 active torsions:
REMARK  status: ('A' for Active; 'I' for Inactive)
ROOT
HETATM    1  C1  UNL     1     -34.509  15.039  -7.171  1.00 20.00     0.137 A 
HETATM    2  C2  UNL     1     -34.143  16.291  -6.704  1.00 20.00     0.118 A 
HETATM    3  C3  UNL     1     -34.489  14.864  -5.077  1.00 20.00     0.177 A 
HETATM    4  C4  UNL     1     -33.878  16.943  -4.257  1.00 20.00     0.112 A 
HETATM    5  C5  UNL     1     -34.030  16.265  -3.105  1.00 20.00    -0.002 A 
HETATM    6  C6  UNL     1     -33.832  16.809  -1.734  1.00 20.00     0.058 C 
HETATM    7  N7  UNL     1     -34.726  14.144  -6.139  1.00 20.00    -0.235 NA
HETATM    8  N8  UNL     1     -34.137  16.149  -5.351  1.00 20.00    -0.309 N 
HETATM    9  S9  UNL     1     -34.515  14.569  -3.366  1.00 20.00    -0.055 SA
ENDROOT
TORSDOF 0
ENDMDL
MODEL 9
REMARK VINA RESULT:      -3.4     12.497     13.266
REMARK  0 active torsions:
REMARK  status: ('A' for Active; 'I' for Inactive)
ROOT
HETATM    1  C1  UNL     1     -33.971  17.843  -1.096  1.00 20.00     0.137 A 
HETATM    2  C2  UNL     1     -34.522  16.572  -1.066  1.00 20.00     0.118 A 
HETATM    3  C3  UNL     1     -33.795  17.118  -3.061  1.00 20.00     0.177 A 
HETATM    4  C4  UNL     1     -34.708  14.989  -3.052  1.00 20.00     0.112 A 
HETATM    5  C5  UNL     1     -34.346  15.090  -4.344  1.00 20.00    -0.002 A 
HETATM    6  C6  UNL     1     -34.531  14.049  -5.391  1.00 20.00     0.058 C 
HETATM    7  N7  UNL     1     -33.515  18.180  -2.357  1.00 20.00    -0.235 NA
HETATM    8  N8  UNL     1     -34.395  16.128  -2.346  1.00 20.00    -0.309 N 
HETATM    9  S9  UNL     1     -33.582  16.656  -4.721  1.00 20.00    -0.055 SA
ENDROOT
TORSDOF 0
ENDMDL
