MODEL 1
REMARK VINA RESULT:      -3.9      0.000      0.000
REMARK  1 active torsions:
REMARK  status: ('A' for Active; 'I' for Inactive)
REMARK    1  A    between atoms: C1_1  and  C4_4 
ROOT
HETATM    1  C2  UNL     1     -35.689  15.880  -5.527  1.00 20.00     0.023 C 
HETATM    2  C3  UNL     1     -34.851  17.083  -5.922  1.00 20.00     0.075 C 
HETATM    3  C4  UNL     1     -34.723  14.858  -4.937  1.00 20.00     0.066 C 
HETATM    4  C5  UNL     1     -33.877  15.586  -3.874  1.00 20.00     0.010 C 
HETATM    5  C6  UNL     1     -34.588  15.804  -2.531  1.00 20.00     0.027 C 
HETATM    6  C7  UNL     1     -32.534  14.888  -3.649  1.00 20.00     0.027 C 
HETATM    7  S9  UNL     1     -33.587  17.239  -4.629  1.00 20.00    -0.159 SA
ENDROOT
BRANCH   3   8
HETATM    8  C1  UNL     1     -35.466  13.677  -4.387  1.00 20.00     0.237 C 
HETATM    9  O8  UNL     1     -35.038  12.529  -4.432  1.00 20.00    -0.306 OA
ENDBRANCH   3   8
TORSDOF 1
ENDMDL
MODEL 2
REMARK VINA RESULT:      -3.9      1.808      2.704
REMARK  1 active torsions:
REMARK  status: ('A' for Active; 'I' for Inactive)
REMARK    1  A    between atoms: C1_1  and  C4_4 
ROOT
HETATM    1  C2  UNL     1     -35.493  15.539  -2.757  1.00 20.00     0.023 C 
HETATM    2  C3  UNL     1     -34.099  16.117  -2.596  1.00 20.00     0.075 C 
HETATM    3  C4  UNL     1     -35.759  15.472  -4.257  1.00 20.00     0.066 C 
HETATM    4  C5  UNL     1     -34.554  14.764  -4.907  1.00 20.00     0.010 C 
HETATM    5  C6  UNL     1     -34.557  13.236  -4.760  1.00 20.00     0.027 C 
HETATM    6  C7  UNL     1     -34.401  15.149  -6.380  1.00 20.00     0.027 C 
HETATM    7  S9  UNL     1     -33.121  15.415  -3.953  1.00 20.00    -0.159 SA
ENDROOT
BRANCH   3   8
HETATM    8  C1  UNL     1     -37.063  14.787  -4.538  1.00 20.00     0.237 C 
HETATM    9  O8  UNL     1     -37.747  14.254  -3.671  1.00 20.00    -0.306 OA
ENDBRANCH   3   8
TORSDOF 1
ENDMDL
MODEL 3
REMARK VINA RESULT:      -3.9      1.943      2.709
REMARK  1 active torsions:
REMARK  status: ('A' for Active; 'I' for Inactive)
REMARK    1  A    between atoms: C1_1  and  C4_4 
ROOT
HETATM    1  C2  UNL     1     -35.362  13.778  -4.678  1.00 20.00     0.023 C 
HETATM    2  C3  UNL     1     -33.888  13.491  -4.459  1.00 20.00     0.075 C 
HETATM    3  C4  UNL     1     -35.829  14.580  -3.468  1.00 20.00     0.066 C 
HETATM    4  C5  UNL     1     -34.840  15.746  -3.279  1.00 20.00     0.010 C 
HETATM    5  C6  UNL     1     -35.053  16.925  -4.240  1.00 20.00     0.027 C 
HETATM    6  C7  UNL     1     -34.825  16.244  -1.833  1.00 20.00     0.027 C 
HETATM    7  S9  UNL     1     -33.213  14.985  -3.681  1.00 20.00    -0.159 SA
ENDROOT
BRANCH   3   8
HETATM    8  C1  UNL     1     -37.247  15.035  -3.644  1.00 20.00     0.237 C 
HETATM    9  O8  UNL     1     -38.203  14.269  -3.688  1.00 20.00    -0.306 OA
ENDBRANCH   3   8
TORSDOF 1
ENDMDL
MODEL 4
REMARK VINA RESULT:      -3.9      1.568      2.883
REMARK  1 active torsions:
REMARK  status: ('A' for Active; 'I' for Inactive)
REMARK    1  A    between atoms: C1_1  and  C4_4 
ROOT
HETATM    1  C2  UNL     1     -33.582  15.504  -3.032  1.00 20.00     0.023 C 
HETATM    2  C3  UNL     1     -34.127  16.509  -2.034  1.00 20.00     0.075 C 
HETATM    3  C4  UNL     1     -34.759  14.630  -3.449  1.00 20.00     0.066 C 
HETATM    4  C5  UNL     1     -35.909  15.570  -3.858  1.00 20.00     0.010 C 
HETATM    5  C6  UNL     1     -35.766  16.180  -5.259  1.00 20.00     0.027 C 
HETATM    6  C7  UNL     1     -37.272  14.889  -3.718  1.00 20.00     0.027 C 
HETATM    7  S9  UNL     1     -35.784  16.941  -2.636  1.00 20.00    -0.159 SA
ENDROOT
BRANCH   3   8
HETATM    8  C1  UNL     1     -34.360  13.681  -4.540  1.00 20.00     0.237 C 
HETATM    9  O8  UNL     1     -34.854  12.568  -4.682  1.00 20.00    -0.306 OA
ENDBRANCH   3   8
TORSDOF 1
ENDMDL
MODEL 5
REMARK VINA RESULT:      -3.9      1.230      2.664
REMARK  1 active torsions:
REMARK  status: ('A' for Active; 'I' for Inactive)
REMARK    1  A    between atoms: C1_1  and  C4_4 
ROOT
HETATM    1  C2  UNL     1     -33.224  15.728  -4.081  1.00 20.00     0.023 C 
HETATM    2  C3  UNL     1     -33.589  17.201  -4.134  1.00 20.00     0.075 C 
HETATM    3  C4  UNL     1     -34.492  14.958  -4.432  1.00 20.00     0.066 C 
HETATM    4  C5  UNL     1     -35.053  15.563  -5.733  1.00 20.00     0.010 C 
HETATM    5  C6  UNL     1     -34.331  15.109  -7.010  1.00 20.00     0.027 C 
HETATM    6  C7  UNL     1     -36.557  15.319  -5.866  1.00 20.00     0.027 C 
HETATM    7  S9  UNL     1     -34.742  17.365  -5.525  1.00 20.00    -0.159 SA
ENDROOT
BRANCH   3   8
HETATM    8  C1  UNL     1     -34.211  13.489  -4.541  1.00 20.00     0.237 C 
HETATM    9  O8  UNL     1     -35.052  12.622  -4.330  1.00 20.00    -0.306 OA
ENDBRANCH   3   8
TORSDOF 1
ENDMDL
MODEL 6
REMARK VINA RESULT:      -3.9      1.169      1.581
REMARK  1 active torsions:
REMARK  status: ('A' for Active; 'I' for Inactive)
REMARK    1  A    between atoms: C1_1  and  C4_4 
ROOT
HETATM    1  C2  UNL     1     -34.398  15.133  -5.747  1.00 20.00     0.023 C 
HETATM    2  C3  UNL     1     -34.321  16.639  -5.921  1.00 20.00     0.075 C 
HETATM    3  C4  UNL     1     -34.170  14.860  -4.264  1.00 20.00     0.066 C 
HETATM    4  C5  UNL     1     -35.128  15.774  -3.475  1.00 20.00     0.010 C 
HETATM    5  C6  UNL     1     -36.581  15.281  -3.422  1.00 20.00     0.027 C 
HETATM    6  C7  UNL     1     -34.613  16.043  -2.060  1.00 20.00     0.027 C 
HETATM    7  S9  UNL     1     -35.103  17.340  -4.442  1.00 20.00    -0.159 SA
ENDROOT
BRANCH   3   8
HETATM    8  C1  UNL     1     -34.360  13.405  -3.954  1.00 20.00     0.237 C 
HETATM    9  O8  UNL     1     -34.782  12.590  -4.767  1.00 20.00    -0.306 OA
ENDBRANCH   3   8
TORSDOF 1
ENDMDL
MODEL 7
REMARK VINA RESULT:      -3.8      2.442      3.110
REMARK  1 active torsions:
REMARK  status: ('A' for Active; 'I' for Inactive)
REMARK    1  A    between atoms: C1_1  and  C4_4 
ROOT
HETATM    1  C2  UNL     1     -36.139  15.539  -3.226  1.00 20.00     0.023 C 
HETATM    2  C3  UNL     1     -36.350  14.426  -4.236  1.00 20.00     0.075 C 
HETATM    3  C4  UNL     1     -34.720  15.372  -2.692  1.00 20.00     0.066 C 
HETATM    4  C5  UNL     1     -33.783  15.252  -3.910  1.00 20.00     0.010 C 
HETATM    5  C6  UNL     1     -33.452  16.586  -4.594  1.00 20.00     0.027 C 
HETATM    6  C7  UNL     1     -32.493  14.509  -3.556  1.00 20.00     0.027 C 
HETATM    7  S9  UNL     1     -34.764  14.243  -5.096  1.00 20.00    -0.159 SA
ENDROOT
BRANCH   3   8
HETATM    8  C1  UNL     1     -34.356  16.505  -1.780  1.00 20.00     0.237 C 
HETATM    9  O8  UNL     1     -34.632  16.527  -0.586  1.00 20.00    -0.306 OA
ENDBRANCH   3   8
TORSDOF 1
ENDMDL
MODEL 8
REMARK VINA RESULT:      -3.8      1.426      2.660
REMARK  1 active torsions:
REMARK  status: ('A' for Active; 'I' for Inactive)
REMARK    1  A    between atoms: C1_1  and  C4_4 
ROOT
HETATM    1  C2  UNL     1     -34.662  15.712  -2.427  1.00 20.00     0.023 C 
HETATM    2  C3  UNL     1     -35.417  17.028  -2.384  1.00 20.00     0.075 C 
HETATM    3  C4  UNL     1     -35.260  14.911  -3.578  1.00 20.00     0.066 C 
HETATM    4  C5  UNL     1     -35.275  15.827  -4.817  1.00 20.00     0.010 C 
HETATM    5  C6  UNL     1     -33.918  15.972  -5.520  1.00 20.00     0.027 C 
HETATM    6  C7  UNL     1     -36.344  15.396  -5.823  1.00 20.00     0.027 C 
HETATM    7  S9  UNL     1     -35.721  17.470  -4.118  1.00 20.00    -0.159 SA
ENDROOT
BRANCH   3   8
HETATM    8  C1  UNL     1     -34.495  13.640  -3.797  1.00 20.00     0.237 C 
HETATM    9  O8  UNL     1     -34.983  12.637  -4.307  1.00 20.00    -0.306 OA
ENDBRANCH   3   8
TORSDOF 1
ENDMDL
MODEL 9
REMARK VINA RESULT:      -3.8      1.621      1.703
REMARK  1 active torsions:
REMARK  status: ('A' for Active; 'I' for Inactive)
REMARK    1  A    between atoms: C1_1  and  C4_4 
ROOT
HETATM    1  C2  UNL     1     -35.951  16.883  -4.964  1.00 20.00     0.023 C 
HETATM    2  C3  UNL     1     -34.616  17.104  -5.651  1.00 20.00     0.075 C 
HETATM    3  C4  UNL     1     -35.935  15.449  -4.446  1.00 20.00     0.066 C 
HETATM    4  C5  UNL     1     -34.625  15.258  -3.658  1.00 20.00     0.010 C 
HETATM    5  C6  UNL     1     -34.640  15.851  -2.242  1.00 20.00     0.027 C 
HETATM    6  C7  UNL     1     -34.207  13.788  -3.606  1.00 20.00     0.027 C 
HETATM    7  S9  UNL     1     -33.398  16.208  -4.649  1.00 20.00    -0.159 SA
ENDROOT
BRANCH   3   8
HETATM    8  C1  UNL     1     -37.159  15.164  -3.628  1.00 20.00     0.237 C 
HETATM    9  O8  UNL     1     -37.840  14.153  -3.760  1.00 20.00    -0.306 OA
ENDBRANCH   3   8
TORSDOF 1
ENDMDL
