MODEL 1
REMARK VINA RESULT:      -4.3      0.000      0.000
REMARK  2 active torsions:
REMARK  status: ('A' for Active; 'I' for Inactive)
REMARK    1  A    between atoms: C5_5  and  C6_6 
REMARK    2  A    between atoms: C7_7  and  N9_9 
ROOT
HETATM    1  C1  UNL     1     -34.697  16.751  -1.466  1.00 20.00     0.079 C 
HETATM    2  C7  UNL     1     -34.747  16.734  -2.930  1.00 20.00     0.252 C 
HETATM    3  N8  UNL     1     -34.658  16.767  -0.307  1.00 20.00    -0.196 NA
ENDROOT
BRANCH   2   4
HETATM    4  N9  UNL     1     -34.657  15.391  -3.459  1.00 20.00    -0.341 N 
HETATM    5  C4  UNL     1     -33.484  14.723  -3.692  1.00 20.00     0.092 A 
HETATM    6  C2  UNL     1     -33.798  13.479  -4.193  1.00 20.00     0.020 A 
HETATM    7  C3  UNL     1     -35.211  13.396  -4.260  1.00 20.00     0.034 A 
HETATM    8  C5  UNL     1     -35.717  14.591  -3.801  1.00 20.00     0.073 A 
BRANCH   8   9
HETATM    9  C6  UNL     1     -37.092  14.971  -3.687  1.00 20.00     0.288 C 
HETATM   10  O10 UNL     1     -38.042  14.163  -3.714  1.00 20.00    -0.300 OA
ENDBRANCH   8   9
ENDBRANCH   2   4
TORSDOF 2
ENDMDL
MODEL 2
REMARK VINA RESULT:      -4.2      2.426      3.951
REMARK  2 active torsions:
REMARK  status: ('A' for Active; 'I' for Inactive)
REMARK    1  A    between atoms: C5_5  and  C6_6 
REMARK    2  A    between atoms: C7_7  and  N9_9 
ROOT
HETATM    1  C1  UNL     1     -34.072  13.609  -4.030  1.00 20.00     0.079 C 
HETATM    2  C7  UNL     1     -33.025  14.560  -3.647  1.00 20.00     0.252 C 
HETATM    3  N8  UNL     1     -34.900  12.854  -4.332  1.00 20.00    -0.196 NA
ENDROOT
BRANCH   2   4
HETATM    4  N9  UNL     1     -33.357  15.914  -4.035  1.00 20.00    -0.341 N 
HETATM    5  C4  UNL     1     -33.364  16.373  -5.325  1.00 20.00     0.092 A 
HETATM    6  C2  UNL     1     -33.726  17.703  -5.298  1.00 20.00     0.020 A 
HETATM    7  C3  UNL     1     -33.946  18.053  -3.943  1.00 20.00     0.034 A 
HETATM    8  C5  UNL     1     -33.710  16.928  -3.184  1.00 20.00     0.073 A 
BRANCH   8   9
HETATM    9  C6  UNL     1     -33.805  16.800  -1.762  1.00 20.00     0.288 C 
HETATM   10  O10 UNL     1     -34.748  16.234  -1.174  1.00 20.00    -0.300 OA
ENDBRANCH   8   9
ENDBRANCH   2   4
TORSDOF 2
ENDMDL
MODEL 3
REMARK VINA RESULT:      -4.2      2.693      3.557
REMARK  2 active torsions:
REMARK  status: ('A' for Active; 'I' for Inactive)
REMARK    1  A    between atoms: C5_5  and  C6_6 
REMARK    2  A    between atoms: C7_7  and  N9_9 
ROOT
HETATM    1  C1  UNL     1     -37.391  14.995  -3.791  1.00 20.00     0.079 C 
HETATM    2  C7  UNL     1     -36.147  15.764  -3.886  1.00 20.00     0.252 C 
HETATM    3  N8  UNL     1     -38.376  14.387  -3.713  1.00 20.00    -0.196 NA
ENDROOT
BRANCH   2   4
HETATM    4  N9  UNL     1     -35.551  15.667  -5.200  1.00 20.00    -0.341 N 
HETATM    5  C4  UNL     1     -35.762  16.560  -6.217  1.00 20.00     0.092 A 
HETATM    6  C2  UNL     1     -35.032  16.139  -7.307  1.00 20.00     0.020 A 
HETATM    7  C3  UNL     1     -34.355  14.952  -6.929  1.00 20.00     0.034 A 
HETATM    8  C5  UNL     1     -34.695  14.683  -5.622  1.00 20.00     0.073 A 
BRANCH   8   9
HETATM    9  C6  UNL     1     -34.256  13.587  -4.814  1.00 20.00     0.288 C 
HETATM   10  O10 UNL     1     -34.946  12.574  -4.579  1.00 20.00    -0.300 OA
ENDBRANCH   8   9
ENDBRANCH   2   4
TORSDOF 2
ENDMDL
MODEL 4
REMARK VINA RESULT:      -4.2      1.995      3.361
REMARK  2 active torsions:
REMARK  status: ('A' for Active; 'I' for Inactive)
REMARK    1  A    between atoms: C5_5  and  C6_6 
REMARK    2  A    between atoms: C7_7  and  N9_9 
ROOT
HETATM    1  C1  UNL     1     -37.570  14.963  -4.331  1.00 20.00     0.079 C 
HETATM    2  C7  UNL     1     -36.534  15.723  -5.036  1.00 20.00     0.252 C 
HETATM    3  N8  UNL     1     -38.392  14.362  -3.775  1.00 20.00    -0.196 NA
ENDROOT
BRANCH   2   4
HETATM    4  N9  UNL     1     -35.309  15.804  -4.272  1.00 20.00    -0.341 N 
HETATM    5  C4  UNL     1     -34.954  16.866  -3.482  1.00 20.00     0.092 A 
HETATM    6  C2  UNL     1     -33.729  16.582  -2.918  1.00 20.00     0.020 A 
HETATM    7  C3  UNL     1     -33.336  15.303  -3.385  1.00 20.00     0.034 A 
HETATM    8  C5  UNL     1     -34.331  14.846  -4.220  1.00 20.00     0.073 A 
BRANCH   8   9
HETATM    9  C6  UNL     1     -34.374  13.602  -4.925  1.00 20.00     0.288 C 
HETATM   10  O10 UNL     1     -34.946  12.578  -4.499  1.00 20.00    -0.300 OA
ENDBRANCH   8   9
ENDBRANCH   2   4
TORSDOF 2
ENDMDL
MODEL 5
REMARK VINA RESULT:      -4.1     11.756     12.283
REMARK  2 active torsions:
REMARK  status: ('A' for Active; 'I' for Inactive)
REMARK    1  A    between atoms: C5_5  and  C6_6 
REMARK    2  A    between atoms: C7_7  and  N9_9 
ROOT
HETATM    1  C1  UNL     1     -32.411   7.360   2.625  1.00 20.00     0.079 C 
HETATM    2  C7  UNL     1     -32.992   6.132   3.174  1.00 20.00     0.252 C 
HETATM    3  N8  UNL     1     -31.951   8.331   2.188  1.00 20.00    -0.196 NA
ENDROOT
BRANCH   2   4
HETATM    4  N9  UNL     1     -33.408   6.299   4.549  1.00 20.00    -0.341 N 
HETATM    5  C4  UNL     1     -32.875   7.215   5.417  1.00 20.00     0.092 A 
HETATM    6  C2  UNL     1     -33.520   7.076   6.626  1.00 20.00     0.020 A 
HETATM    7  C3  UNL     1     -34.477   6.041   6.478  1.00 20.00     0.034 A 
HETATM    8  C5  UNL     1     -34.386   5.578   5.185  1.00 20.00     0.073 A 
BRANCH   8   9
HETATM    9  C6  UNL     1     -35.153   4.536   4.575  1.00 20.00     0.288 C 
HETATM   10  O10 UNL     1     -35.105   3.339   4.925  1.00 20.00    -0.300 OA
ENDBRANCH   8   9
ENDBRANCH   2   4
TORSDOF 2
ENDMDL
MODEL 6
REMARK VINA RESULT:      -4.1      2.213      2.624
REMARK  2 active torsions:
REMARK  status: ('A' for Active; 'I' for Inactive)
REMARK    1  A    between atoms: C5_5  and  C6_6 
REMARK    2  A    between atoms: C7_7  and  N9_9 
ROOT
HETATM    1  C1  UNL     1     -34.066  15.933  -2.422  1.00 20.00     0.079 C 
HETATM    2  C7  UNL     1     -33.115  15.506  -3.452  1.00 20.00     0.252 C 
HETATM    3  N8  UNL     1     -34.816  16.272  -1.605  1.00 20.00    -0.196 NA
ENDROOT
BRANCH   2   4
HETATM    4  N9  UNL     1     -33.694  15.558  -4.776  1.00 20.00    -0.341 N 
HETATM    5  C4  UNL     1     -33.758  16.685  -5.553  1.00 20.00     0.092 A 
HETATM    6  C2  UNL     1     -34.374  16.346  -6.738  1.00 20.00     0.020 A 
HETATM    7  C3  UNL     1     -34.687  14.966  -6.672  1.00 20.00     0.034 A 
HETATM    8  C5  UNL     1     -34.256  14.504  -5.448  1.00 20.00     0.073 A 
BRANCH   8   9
HETATM    9  C6  UNL     1     -34.359  13.173  -4.933  1.00 20.00     0.288 C 
HETATM   10  O10 UNL     1     -35.291  12.778  -4.205  1.00 20.00    -0.300 OA
ENDBRANCH   8   9
ENDBRANCH   2   4
TORSDOF 2
ENDMDL
MODEL 7
REMARK VINA RESULT:      -4.1     11.213     11.767
REMARK  2 active torsions:
REMARK  status: ('A' for Active; 'I' for Inactive)
REMARK    1  A    between atoms: C5_5  and  C6_6 
REMARK    2  A    between atoms: C7_7  and  N9_9 
ROOT
HETATM    1  C1  UNL     1     -32.094   7.830   2.471  1.00 20.00     0.079 C 
HETATM    2  C7  UNL     1     -32.009   6.955   3.643  1.00 20.00     0.252 C 
HETATM    3  N8  UNL     1     -32.158   8.524   1.543  1.00 20.00    -0.196 NA
ENDROOT
BRANCH   2   4
HETATM    4  N9  UNL     1     -33.259   6.274   3.901  1.00 20.00    -0.341 N 
HETATM    5  C4  UNL     1     -34.011   5.640   2.947  1.00 20.00     0.092 A 
HETATM    6  C2  UNL     1     -35.124   5.115   3.566  1.00 20.00     0.020 A 
HETATM    7  C3  UNL     1     -35.036   5.444   4.942  1.00 20.00     0.034 A 
HETATM    8  C5  UNL     1     -33.875   6.161   5.120  1.00 20.00     0.073 A 
BRANCH   8   9
HETATM    9  C6  UNL     1     -33.366   6.708   6.341  1.00 20.00     0.288 C 
HETATM   10  O10 UNL     1     -33.978   7.540   7.041  1.00 20.00    -0.300 OA
ENDBRANCH   8   9
ENDBRANCH   2   4
TORSDOF 2
ENDMDL
MODEL 8
REMARK VINA RESULT:      -4.0      2.746      3.587
REMARK  2 active torsions:
REMARK  status: ('A' for Active; 'I' for Inactive)
REMARK    1  A    between atoms: C5_5  and  C6_6 
REMARK    2  A    between atoms: C7_7  and  N9_9 
ROOT
HETATM    1  C1  UNL     1     -37.343  14.823  -4.265  1.00 20.00     0.079 C 
HETATM    2  C7  UNL     1     -36.216  15.451  -4.960  1.00 20.00     0.252 C 
HETATM    3  N8  UNL     1     -38.237  14.327  -3.716  1.00 20.00    -0.196 NA
ENDROOT
BRANCH   2   4
HETATM    4  N9  UNL     1     -34.943  14.993  -4.448  1.00 20.00    -0.341 N 
HETATM    5  C4  UNL     1     -34.635  13.684  -4.186  1.00 20.00     0.092 A 
HETATM    6  C2  UNL     1     -33.341  13.640  -3.714  1.00 20.00     0.020 A 
HETATM    7  C3  UNL     1     -32.854  14.970  -3.694  1.00 20.00     0.034 A 
HETATM    8  C5  UNL     1     -33.864  15.786  -4.152  1.00 20.00     0.073 A 
BRANCH   8   9
HETATM    9  C6  UNL     1     -33.835  17.208  -4.306  1.00 20.00     0.288 C 
HETATM   10  O10 UNL     1     -33.293  17.795  -5.264  1.00 20.00    -0.300 OA
ENDBRANCH   8   9
ENDBRANCH   2   4
TORSDOF 2
ENDMDL
MODEL 9
REMARK VINA RESULT:      -4.0      1.432      2.486
REMARK  2 active torsions:
REMARK  status: ('A' for Active; 'I' for Inactive)
REMARK    1  A    between atoms: C5_5  and  C6_6 
REMARK    2  A    between atoms: C7_7  and  N9_9 
ROOT
HETATM    1  C1  UNL     1     -34.536  16.664  -1.016  1.00 20.00     0.079 C 
HETATM    2  C7  UNL     1     -34.286  16.150  -2.366  1.00 20.00     0.252 C 
HETATM    3  N8  UNL     1     -34.731  17.072   0.052  1.00 20.00    -0.196 NA
ENDROOT
BRANCH   2   4
HETATM    4  N9  UNL     1     -35.510  15.762  -3.031  1.00 20.00    -0.341 N 
HETATM    5  C4  UNL     1     -36.654  16.515  -3.057  1.00 20.00     0.092 A 
HETATM    6  C2  UNL     1     -37.600  15.822  -3.780  1.00 20.00     0.020 A 
HETATM    7  C3  UNL     1     -37.001  14.610  -4.207  1.00 20.00     0.034 A 
HETATM    8  C5  UNL     1     -35.709  14.599  -3.729  1.00 20.00     0.073 A 
BRANCH   8   9
HETATM    9  C6  UNL     1     -34.723  13.578  -3.907  1.00 20.00     0.288 C 
HETATM   10  O10 UNL     1     -34.880  12.575  -4.632  1.00 20.00    -0.300 OA
ENDBRANCH   8   9
ENDBRANCH   2   4
TORSDOF 2
ENDMDL
