MODEL 1
REMARK VINA RESULT:      -3.7      0.000      0.000
REMARK  4 active torsions:
REMARK  status: ('A' for Active; 'I' for Inactive)
REMARK    1  A    between atoms: C1_1  and  C6_6 
REMARK    2  A    between atoms: C1_1  and  O8_8 
REMARK    3  A    between atoms: C5_5  and  C6_6 
REMARK    4  A    between atoms: C5_5  and  S9_9 
ROOT
HETATM    1  C2  UNL     1     -32.889  15.258  -3.681  1.00 20.00     0.021 C 
HETATM    2  C6  UNL     1     -34.192  14.502  -3.415  1.00 20.00     0.090 C 
ENDROOT
BRANCH   2   3
HETATM    3  C1  UNL     1     -34.600  13.670  -4.623  1.00 20.00     0.263 C 
HETATM    4  O7  UNL     1     -35.088  12.548  -4.566  1.00 20.00    -0.265 OA
BRANCH   3   5
HETATM    5  O8  UNL     1     -34.333  14.364  -5.768  1.00 20.00    -0.326 OA
HETATM    6  C3  UNL     1     -35.342  14.297  -6.780  1.00 20.00     0.213 C 
ENDBRANCH   3   5
ENDBRANCH   2   3
BRANCH   2   7
HETATM    7  C5  UNL     1     -35.327  15.422  -2.941  1.00 20.00     0.087 C 
BRANCH   7   8
HETATM    8  S9  UNL     1     -34.795  17.084  -2.418  1.00 20.00    -0.173 SA
HETATM    9  C4  UNL     1     -34.633  16.757  -0.649  1.00 20.00     0.089 C 
ENDBRANCH   7   8
ENDBRANCH   2   7
TORSDOF 4
ENDMDL
MODEL 2
REMARK VINA RESULT:      -3.5      1.090      1.636
REMARK  4 active torsions:
REMARK  status: ('A' for Active; 'I' for Inactive)
REMARK    1  A    between atoms: C1_1  and  C6_6 
REMARK    2  A    between atoms: C1_1  and  O8_8 
REMARK    3  A    between atoms: C5_5  and  C6_6 
REMARK    4  A    between atoms: C5_5  and  S9_9 
ROOT
HETATM    1  C2  UNL     1     -36.856  14.770  -3.811  1.00 20.00     0.021 C 
HETATM    2  C6  UNL     1     -35.396  14.838  -4.264  1.00 20.00     0.090 C 
ENDROOT
BRANCH   2   3
HETATM    3  C1  UNL     1     -35.052  13.673  -5.181  1.00 20.00     0.263 C 
HETATM    4  O7  UNL     1     -34.645  12.582  -4.803  1.00 20.00    -0.265 OA
BRANCH   3   5
HETATM    5  O8  UNL     1     -35.261  14.036  -6.481  1.00 20.00    -0.326 OA
HETATM    6  C3  UNL     1     -34.386  15.051  -6.986  1.00 20.00     0.213 C 
ENDBRANCH   3   5
ENDBRANCH   2   3
BRANCH   2   7
HETATM    7  C5  UNL     1     -34.414  14.955  -3.090  1.00 20.00     0.087 C 
BRANCH   7   8
HETATM    8  S9  UNL     1     -33.990  16.662  -2.616  1.00 20.00    -0.173 SA
HETATM    9  C4  UNL     1     -34.606  16.618  -0.919  1.00 20.00     0.089 C 
ENDBRANCH   7   8
ENDBRANCH   2   7
TORSDOF 4
ENDMDL
MODEL 3
REMARK VINA RESULT:      -3.4      1.969      3.115
REMARK  4 active torsions:
REMARK  status: ('A' for Active; 'I' for Inactive)
REMARK    1  A    between atoms: C1_1  and  C6_6 
REMARK    2  A    between atoms: C1_1  and  O8_8 
REMARK    3  A    between atoms: C5_5  and  C6_6 
REMARK    4  A    between atoms: C5_5  and  S9_9 
ROOT
HETATM    1  C2  UNL     1     -34.450  14.843  -6.900  1.00 20.00     0.021 C 
HETATM    2  C6  UNL     1     -34.939  14.880  -5.451  1.00 20.00     0.090 C 
ENDROOT
BRANCH   2   3
HETATM    3  C1  UNL     1     -34.421  13.682  -4.666  1.00 20.00     0.263 C 
HETATM    4  O7  UNL     1     -34.961  12.585  -4.628  1.00 20.00    -0.265 OA
BRANCH   3   5
HETATM    5  O8  UNL     1     -33.273  14.027  -4.012  1.00 20.00    -0.326 OA
HETATM    6  C3  UNL     1     -33.239  15.357  -3.483  1.00 20.00     0.213 C 
ENDBRANCH   3   5
ENDBRANCH   2   3
BRANCH   2   7
HETATM    7  C5  UNL     1     -36.464  15.022  -5.342  1.00 20.00     0.087 C 
BRANCH   7   8
HETATM    8  S9  UNL     1     -37.083  15.341  -3.658  1.00 20.00    -0.173 SA
HETATM    9  C4  UNL     1     -38.792  14.810  -3.908  1.00 20.00     0.089 C 
ENDBRANCH   7   8
ENDBRANCH   2   7
TORSDOF 4
ENDMDL
MODEL 4
REMARK VINA RESULT:      -3.4      1.868      2.825
REMARK  4 active torsions:
REMARK  status: ('A' for Active; 'I' for Inactive)
REMARK    1  A    between atoms: C1_1  and  C6_6 
REMARK    2  A    between atoms: C1_1  and  O8_8 
REMARK    3  A    between atoms: C5_5  and  C6_6 
REMARK    4  A    between atoms: C5_5  and  S9_9 
ROOT
HETATM    1  C2  UNL     1     -34.554  16.251  -1.551  1.00 20.00     0.021 C 
HETATM    2  C6  UNL     1     -34.922  15.597  -2.884  1.00 20.00     0.090 C 
ENDROOT
BRANCH   2   3
HETATM    3  C1  UNL     1     -33.810  14.676  -3.369  1.00 20.00     0.263 C 
HETATM    4  O7  UNL     1     -32.654  15.024  -3.573  1.00 20.00    -0.265 OA
BRANCH   3   5
HETATM    5  O8  UNL     1     -34.305  13.416  -3.544  1.00 20.00    -0.326 OA
HETATM    6  C3  UNL     1     -34.673  13.078  -4.886  1.00 20.00     0.213 C 
ENDBRANCH   3   5
ENDBRANCH   2   3
BRANCH   2   7
HETATM    7  C5  UNL     1     -35.329  16.619  -3.956  1.00 20.00     0.087 C 
BRANCH   7   8
HETATM    8  S9  UNL     1     -36.865  16.219  -4.849  1.00 20.00    -0.173 SA
HETATM    9  C4  UNL     1     -37.559  15.052  -3.657  1.00 20.00     0.089 C 
ENDBRANCH   7   8
ENDBRANCH   2   7
TORSDOF 4
ENDMDL
MODEL 5
REMARK VINA RESULT:      -3.4      1.191      1.636
REMARK  4 active torsions:
REMARK  status: ('A' for Active; 'I' for Inactive)
REMARK    1  A    between atoms: C1_1  and  C6_6 
REMARK    2  A    between atoms: C1_1  and  O8_8 
REMARK    3  A    between atoms: C5_5  and  C6_6 
REMARK    4  A    between atoms: C5_5  and  S9_9 
ROOT
HETATM    1  C2  UNL     1     -33.375  15.500  -3.395  1.00 20.00     0.021 C 
HETATM    2  C6  UNL     1     -34.597  14.580  -3.407  1.00 20.00     0.090 C 
ENDROOT
BRANCH   2   3
HETATM    3  C1  UNL     1     -34.631  13.728  -4.668  1.00 20.00     0.263 C 
HETATM    4  O7  UNL     1     -34.898  12.533  -4.697  1.00 20.00    -0.265 OA
BRANCH   3   5
HETATM    5  O8  UNL     1     -34.313  14.498  -5.749  1.00 20.00    -0.326 OA
HETATM    6  C3  UNL     1     -35.209  14.400  -6.861  1.00 20.00     0.213 C 
ENDBRANCH   3   5
ENDBRANCH   2   3
BRANCH   2   7
HETATM    7  C5  UNL     1     -35.914  15.340  -3.192  1.00 20.00     0.087 C 
BRANCH   7   8
HETATM    8  S9  UNL     1     -35.762  17.155  -3.216  1.00 20.00    -0.173 SA
HETATM    9  C4  UNL     1     -36.279  17.434  -4.923  1.00 20.00     0.089 C 
ENDBRANCH   7   8
ENDBRANCH   2   7
TORSDOF 4
ENDMDL
MODEL 6
REMARK VINA RESULT:      -3.4      1.772      2.714
REMARK  4 active torsions:
REMARK  status: ('A' for Active; 'I' for Inactive)
REMARK    1  A    between atoms: C1_1  and  C6_6 
REMARK    2  A    between atoms: C1_1  and  O8_8 
REMARK    3  A    between atoms: C5_5  and  C6_6 
REMARK    4  A    between atoms: C5_5  and  S9_9 
ROOT
HETATM    1  C2  UNL     1     -34.468  16.316  -1.548  1.00 20.00     0.021 C 
HETATM    2  C6  UNL     1     -34.925  15.589  -2.814  1.00 20.00     0.090 C 
ENDROOT
BRANCH   2   3
HETATM    3  C1  UNL     1     -33.829  14.677  -3.349  1.00 20.00     0.263 C 
HETATM    4  O7  UNL     1     -32.680  15.028  -3.584  1.00 20.00    -0.265 OA
BRANCH   3   5
HETATM    5  O8  UNL     1     -34.329  13.420  -3.530  1.00 20.00    -0.326 OA
HETATM    6  C3  UNL     1     -34.729  13.100  -4.867  1.00 20.00     0.213 C 
ENDBRANCH   3   5
ENDBRANCH   2   3
BRANCH   2   7
HETATM    7  C5  UNL     1     -35.451  16.548  -3.892  1.00 20.00     0.087 C 
BRANCH   7   8
HETATM    8  S9  UNL     1     -34.780  18.239  -3.805  1.00 20.00    -0.173 SA
HETATM    9  C4  UNL     1     -33.566  18.102  -5.136  1.00 20.00     0.089 C 
ENDBRANCH   7   8
ENDBRANCH   2   7
TORSDOF 4
ENDMDL
MODEL 7
REMARK VINA RESULT:      -3.4      1.912      3.201
REMARK  4 active torsions:
REMARK  status: ('A' for Active; 'I' for Inactive)
REMARK    1  A    between atoms: C1_1  and  C6_6 
REMARK    2  A    between atoms: C1_1  and  O8_8 
REMARK    3  A    between atoms: C5_5  and  C6_6 
REMARK    4  A    between atoms: C5_5  and  S9_9 
ROOT
HETATM    1  C2  UNL     1     -34.056  15.942  -2.319  1.00 20.00     0.021 C 
HETATM    2  C6  UNL     1     -34.365  15.437  -3.729  1.00 20.00     0.090 C 
ENDROOT
BRANCH   2   3
HETATM    3  C1  UNL     1     -34.330  13.917  -3.788  1.00 20.00     0.263 C 
HETATM    4  O7  UNL     1     -33.343  13.231  -3.556  1.00 20.00    -0.265 OA
BRANCH   3   5
HETATM    5  O8  UNL     1     -35.561  13.445  -4.145  1.00 20.00    -0.326 OA
HETATM    6  C3  UNL     1     -36.625  14.400  -4.098  1.00 20.00     0.213 C 
ENDBRANCH   3   5
ENDBRANCH   2   3
BRANCH   2   7
HETATM    7  C5  UNL     1     -33.465  16.074  -4.798  1.00 20.00     0.087 C 
BRANCH   7   8
HETATM    8  S9  UNL     1     -34.342  16.667  -6.281  1.00 20.00    -0.173 SA
HETATM    9  C4  UNL     1     -34.376  15.112  -7.198  1.00 20.00     0.089 C 
ENDBRANCH   7   8
ENDBRANCH   2   7
TORSDOF 4
ENDMDL
MODEL 8
REMARK VINA RESULT:      -3.4      2.048      2.598
REMARK  4 active torsions:
REMARK  status: ('A' for Active; 'I' for Inactive)
REMARK    1  A    between atoms: C1_1  and  C6_6 
REMARK    2  A    between atoms: C1_1  and  O8_8 
REMARK    3  A    between atoms: C5_5  and  C6_6 
REMARK    4  A    between atoms: C5_5  and  S9_9 
ROOT
HETATM    1  C2  UNL     1     -34.449  15.044  -6.410  1.00 20.00     0.021 C 
HETATM    2  C6  UNL     1     -33.973  14.676  -5.004  1.00 20.00     0.090 C 
ENDROOT
BRANCH   2   3
HETATM    3  C1  UNL     1     -35.017  13.846  -4.270  1.00 20.00     0.263 C 
HETATM    4  O7  UNL     1     -35.118  12.628  -4.340  1.00 20.00    -0.265 OA
BRANCH   3   5
HETATM    5  O8  UNL     1     -35.819  14.670  -3.532  1.00 20.00    -0.326 OA
HETATM    6  C3  UNL     1     -37.198  14.695  -3.915  1.00 20.00     0.213 C 
ENDBRANCH   3   5
ENDBRANCH   2   3
BRANCH   2   7
HETATM    7  C5  UNL     1     -33.533  15.899  -4.186  1.00 20.00     0.087 C 
BRANCH   7   8
HETATM    8  S9  UNL     1     -33.653  17.490  -5.066  1.00 20.00    -0.173 SA
HETATM    9  C4  UNL     1     -35.155  18.108  -4.274  1.00 20.00     0.089 C 
ENDBRANCH   7   8
ENDBRANCH   2   7
TORSDOF 4
ENDMDL
MODEL 9
REMARK VINA RESULT:      -3.4      1.919      2.787
REMARK  4 active torsions:
REMARK  status: ('A' for Active; 'I' for Inactive)
REMARK    1  A    between atoms: C1_1  and  C6_6 
REMARK    2  A    between atoms: C1_1  and  O8_8 
REMARK    3  A    between atoms: C5_5  and  C6_6 
REMARK    4  A    between atoms: C5_5  and  S9_9 
ROOT
HETATM    1  C2  UNL     1     -34.489  14.806  -6.845  1.00 20.00     0.021 C 
HETATM    2  C6  UNL     1     -35.069  14.884  -5.431  1.00 20.00     0.090 C 
ENDROOT
BRANCH   2   3
HETATM    3  C1  UNL     1     -34.621  13.699  -4.588  1.00 20.00     0.263 C 
HETATM    4  O7  UNL     1     -34.794  12.524  -4.885  1.00 20.00    -0.265 OA
BRANCH   3   5
HETATM    5  O8  UNL     1     -34.006  14.150  -3.455  1.00 20.00    -0.326 OA
HETATM    6  C3  UNL     1     -33.007  15.156  -3.653  1.00 20.00     0.213 C 
ENDBRANCH   3   5
ENDBRANCH   2   3
BRANCH   2   7
HETATM    7  C5  UNL     1     -36.595  15.050  -5.423  1.00 20.00     0.087 C 
BRANCH   7   8
HETATM    8  S9  UNL     1     -37.351  15.089  -3.766  1.00 20.00    -0.173 SA
HETATM    9  C4  UNL     1     -36.596  16.621  -3.175  1.00 20.00     0.089 C 
ENDBRANCH   7   8
ENDBRANCH   2   7
TORSDOF 4
ENDMDL
