MODEL 1
REMARK VINA RESULT:      -3.9      0.000      0.000
REMARK  3 active torsions:
REMARK  status: ('A' for Active; 'I' for Inactive)
REMARK    1  A    between atoms: C1_1  and  N8_8 
REMARK    2  A    between atoms: C6_6  and  C7_7 
REMARK    3  A    between atoms: C6_6  and  N8_8 
ROOT
HETATM    1  C2  UNL     1     -34.932  13.325  -4.228  1.00 20.00     0.033 C 
HETATM    2  C6  UNL     1     -35.106  14.839  -4.085  1.00 20.00     0.087 C 
ENDROOT
BRANCH   2   3
HETATM    3  C7  UNL     1     -33.818  15.612  -3.649  1.00 20.00    -0.031 C 
HETATM    4  C3  UNL     1     -33.445  16.727  -4.645  1.00 20.00     0.016 C 
HETATM    5  C4  UNL     1     -34.017  16.247  -2.257  1.00 20.00     0.016 C 
HETATM    6  C5  UNL     1     -32.629  14.632  -3.547  1.00 20.00     0.016 C 
ENDBRANCH   2   3
BRANCH   2   7
HETATM    7  N8  UNL     1     -36.220  15.099  -3.197  1.00 20.00    -0.363 N 
HETATM    8  H24 UNL     1     -36.027  15.251  -2.213  1.00 20.00     0.162 HD
BRANCH   7   9
HETATM    9  C1  UNL     1     -37.526  15.150  -3.623  1.00 20.00     0.348 C 
HETATM   10  O9  UNL     1     -38.330  14.231  -3.706  1.00 20.00    -0.284 OA
ENDBRANCH   7   9
ENDBRANCH   2   7
TORSDOF 3
ENDMDL
MODEL 2
REMARK VINA RESULT:      -3.9      2.076      3.106
REMARK  3 active torsions:
REMARK  status: ('A' for Active; 'I' for Inactive)
REMARK    1  A    between atoms: C1_1  and  N8_8 
REMARK    2  A    between atoms: C6_6  and  C7_7 
REMARK    3  A    between atoms: C6_6  and  N8_8 
ROOT
HETATM    1  C2  UNL     1     -33.862  16.074  -2.760  1.00 20.00     0.033 C 
HETATM    2  C6  UNL     1     -33.375  15.780  -4.181  1.00 20.00     0.087 C 
ENDROOT
BRANCH   2   3
HETATM    3  C7  UNL     1     -34.175  16.505  -5.313  1.00 20.00    -0.031 C 
HETATM    4  C3  UNL     1     -34.140  15.722  -6.640  1.00 20.00     0.016 C 
HETATM    5  C4  UNL     1     -35.648  16.691  -4.896  1.00 20.00     0.016 C 
HETATM    6  C5  UNL     1     -33.579  17.908  -5.559  1.00 20.00     0.016 C 
ENDBRANCH   2   3
BRANCH   2   7
HETATM    7  N8  UNL     1     -33.341  14.346  -4.375  1.00 20.00    -0.363 N 
HETATM    8  H24 UNL     1     -32.623  13.958  -4.978  1.00 20.00     0.162 HD
BRANCH   7   9
HETATM    9  C1  UNL     1     -34.233  13.484  -3.782  1.00 20.00     0.348 C 
HETATM   10  O9  UNL     1     -35.031  12.731  -4.324  1.00 20.00    -0.284 OA
ENDBRANCH   7   9
ENDBRANCH   2   7
TORSDOF 3
ENDMDL
MODEL 3
REMARK VINA RESULT:      -3.8      0.835      1.845
REMARK  3 active torsions:
REMARK  status: ('A' for Active; 'I' for Inactive)
REMARK    1  A    between atoms: C1_1  and  N8_8 
REMARK    2  A    between atoms: C6_6  and  C7_7 
REMARK    3  A    between atoms: C6_6  and  N8_8 
ROOT
HETATM    1  C2  UNL     1     -34.553  16.090  -1.993  1.00 20.00     0.033 C 
HETATM    2  C6  UNL     1     -35.149  15.201  -3.088  1.00 20.00     0.087 C 
ENDROOT
BRANCH   2   3
HETATM    3  C7  UNL     1     -34.134  14.734  -4.182  1.00 20.00    -0.031 C 
HETATM    4  C3  UNL     1     -34.166  15.640  -5.428  1.00 20.00     0.016 C 
HETATM    5  C4  UNL     1     -32.698  14.732  -3.617  1.00 20.00     0.016 C 
HETATM    6  C5  UNL     1     -34.464  13.291  -4.620  1.00 20.00     0.016 C 
ENDBRANCH   2   3
BRANCH   2   7
HETATM    7  N8  UNL     1     -36.294  15.874  -3.663  1.00 20.00    -0.363 N 
HETATM    8  H24 UNL     1     -36.155  16.781  -4.095  1.00 20.00     0.162 HD
BRANCH   7   9
HETATM    9  C1  UNL     1     -37.563  15.342  -3.654  1.00 20.00     0.348 C 
HETATM   10  O9  UNL     1     -37.890  14.167  -3.755  1.00 20.00    -0.284 OA
ENDBRANCH   7   9
ENDBRANCH   2   7
TORSDOF 3
ENDMDL
MODEL 4
REMARK VINA RESULT:      -3.8      0.829      2.195
REMARK  3 active torsions:
REMARK  status: ('A' for Active; 'I' for Inactive)
REMARK    1  A    between atoms: C1_1  and  N8_8 
REMARK    2  A    between atoms: C6_6  and  C7_7 
REMARK    3  A    between atoms: C6_6  and  N8_8 
ROOT
HETATM    1  C2  UNL     1     -34.569  16.132  -1.971  1.00 20.00     0.033 C 
HETATM    2  C6  UNL     1     -35.163  15.223  -3.049  1.00 20.00     0.087 C 
ENDROOT
BRANCH   2   3
HETATM    3  C7  UNL     1     -34.148  14.742  -4.138  1.00 20.00    -0.031 C 
HETATM    4  C3  UNL     1     -32.699  14.733  -3.616  1.00 20.00     0.016 C 
HETATM    5  C4  UNL     1     -34.504  13.318  -4.612  1.00 20.00     0.016 C 
HETATM    6  C5  UNL     1     -34.219  15.674  -5.367  1.00 20.00     0.016 C 
ENDBRANCH   2   3
BRANCH   2   7
HETATM    7  N8  UNL     1     -36.312  15.883  -3.634  1.00 20.00    -0.363 N 
HETATM    8  H24 UNL     1     -36.180  16.792  -4.063  1.00 20.00     0.162 HD
BRANCH   7   9
HETATM    9  C1  UNL     1     -37.574  15.336  -3.636  1.00 20.00     0.348 C 
HETATM   10  O9  UNL     1     -37.885  14.157  -3.743  1.00 20.00    -0.284 OA
ENDBRANCH   7   9
ENDBRANCH   2   7
TORSDOF 3
ENDMDL
MODEL 5
REMARK VINA RESULT:      -3.7     11.471     12.464
REMARK  3 active torsions:
REMARK  status: ('A' for Active; 'I' for Inactive)
REMARK    1  A    between atoms: C1_1  and  N8_8 
REMARK    2  A    between atoms: C6_6  and  C7_7 
REMARK    3  A    between atoms: C6_6  and  N8_8 
ROOT
HETATM    1  C2  UNL     1     -33.686   5.187   2.352  1.00 20.00     0.033 C 
HETATM    2  C6  UNL     1     -33.329   5.483   3.811  1.00 20.00     0.087 C 
ENDROOT
BRANCH   2   3
HETATM    3  C7  UNL     1     -34.511   5.325   4.823  1.00 20.00    -0.031 C 
HETATM    4  C3  UNL     1     -34.594   3.899   5.400  1.00 20.00     0.016 C 
HETATM    5  C4  UNL     1     -34.352   6.316   5.994  1.00 20.00     0.016 C 
HETATM    6  C5  UNL     1     -35.848   5.646   4.120  1.00 20.00     0.016 C 
ENDBRANCH   2   3
BRANCH   2   7
HETATM    7  N8  UNL     1     -32.724   6.796   3.886  1.00 20.00    -0.363 N 
HETATM    8  H24 UNL     1     -32.858   7.342   4.731  1.00 20.00     0.162 HD
BRANCH   7   9
HETATM    9  C1  UNL     1     -31.975   7.339   2.869  1.00 20.00     0.348 C 
HETATM   10  O9  UNL     1     -32.205   8.351   2.220  1.00 20.00    -0.284 OA
ENDBRANCH   7   9
ENDBRANCH   2   7
TORSDOF 3
ENDMDL
MODEL 6
REMARK VINA RESULT:      -3.7      2.519      3.389
REMARK  3 active torsions:
REMARK  status: ('A' for Active; 'I' for Inactive)
REMARK    1  A    between atoms: C1_1  and  N8_8 
REMARK    2  A    between atoms: C6_6  and  C7_7 
REMARK    3  A    between atoms: C6_6  and  N8_8 
ROOT
HETATM    1  C2  UNL     1     -33.307  16.824  -4.998  1.00 20.00     0.033 C 
HETATM    2  C6  UNL     1     -34.319  15.694  -5.202  1.00 20.00     0.087 C 
ENDROOT
BRANCH   2   3
HETATM    3  C7  UNL     1     -34.537  14.772  -3.958  1.00 20.00    -0.031 C 
HETATM    4  C3  UNL     1     -33.417  13.724  -3.809  1.00 20.00     0.016 C 
HETATM    5  C4  UNL     1     -34.590  15.616  -2.667  1.00 20.00     0.016 C 
HETATM    6  C5  UNL     1     -35.886  14.031  -4.085  1.00 20.00     0.016 C 
ENDBRANCH   2   3
BRANCH   2   7
HETATM    7  N8  UNL     1     -33.944  14.937  -6.378  1.00 20.00    -0.363 N 
HETATM    8  H24 UNL     1     -33.084  14.399  -6.351  1.00 20.00     0.162 HD
BRANCH   7   9
HETATM    9  C1  UNL     1     -34.696  14.911  -7.529  1.00 20.00     0.348 C 
HETATM   10  O9  UNL     1     -35.691  14.239  -7.765  1.00 20.00    -0.284 OA
ENDBRANCH   7   9
ENDBRANCH   2   7
TORSDOF 3
ENDMDL
MODEL 7
REMARK VINA RESULT:      -3.7     11.476     12.449
REMARK  3 active torsions:
REMARK  status: ('A' for Active; 'I' for Inactive)
REMARK    1  A    between atoms: C1_1  and  N8_8 
REMARK    2  A    between atoms: C6_6  and  C7_7 
REMARK    3  A    between atoms: C6_6  and  N8_8 
ROOT
HETATM    1  C2  UNL     1     -33.675   5.183   2.358  1.00 20.00     0.033 C 
HETATM    2  C6  UNL     1     -33.343   5.485   3.821  1.00 20.00     0.087 C 
ENDROOT
BRANCH   2   3
HETATM    3  C7  UNL     1     -34.544   5.337   4.813  1.00 20.00    -0.031 C 
HETATM    4  C3  UNL     1     -34.408   6.269   6.032  1.00 20.00     0.016 C 
HETATM    5  C4  UNL     1     -35.873   5.658   4.099  1.00 20.00     0.016 C 
HETATM    6  C5  UNL     1     -34.627   3.880   5.319  1.00 20.00     0.016 C 
ENDBRANCH   2   3
BRANCH   2   7
HETATM    7  N8  UNL     1     -32.735   6.796   3.900  1.00 20.00    -0.363 N 
HETATM    8  H24 UNL     1     -32.889   7.351   4.735  1.00 20.00     0.162 HD
BRANCH   7   9
HETATM    9  C1  UNL     1     -31.956   7.326   2.898  1.00 20.00     0.348 C 
HETATM   10  O9  UNL     1     -32.170   8.326   2.225  1.00 20.00    -0.284 OA
ENDBRANCH   7   9
ENDBRANCH   2   7
TORSDOF 3
ENDMDL
MODEL 8
REMARK VINA RESULT:      -3.7      1.453      1.944
REMARK  3 active torsions:
REMARK  status: ('A' for Active; 'I' for Inactive)
REMARK    1  A    between atoms: C1_1  and  N8_8 
REMARK    2  A    between atoms: C6_6  and  C7_7 
REMARK    3  A    between atoms: C6_6  and  N8_8 
ROOT
HETATM    1  C2  UNL     1     -35.754  16.912  -4.705  1.00 20.00     0.033 C 
HETATM    2  C6  UNL     1     -35.828  16.783  -3.182  1.00 20.00     0.087 C 
ENDROOT
BRANCH   2   3
HETATM    3  C7  UNL     1     -34.448  16.836  -2.449  1.00 20.00    -0.031 C 
HETATM    4  C3  UNL     1     -33.759  18.206  -2.604  1.00 20.00     0.016 C 
HETATM    5  C4  UNL     1     -34.627  16.549  -0.944  1.00 20.00     0.016 C 
HETATM    6  C5  UNL     1     -33.510  15.751  -3.021  1.00 20.00     0.016 C 
ENDBRANCH   2   3
BRANCH   2   7
HETATM    7  N8  UNL     1     -36.572  15.586  -2.850  1.00 20.00    -0.363 N 
HETATM    8  H24 UNL     1     -36.693  15.348  -1.872  1.00 20.00     0.162 HD
BRANCH   7   9
HETATM    9  C1  UNL     1     -37.122  14.755  -3.798  1.00 20.00     0.348 C 
HETATM   10  O9  UNL     1     -38.207  14.189  -3.767  1.00 20.00    -0.284 OA
ENDBRANCH   7   9
ENDBRANCH   2   7
TORSDOF 3
ENDMDL
MODEL 9
REMARK VINA RESULT:      -3.7     11.493     12.475
REMARK  3 active torsions:
REMARK  status: ('A' for Active; 'I' for Inactive)
REMARK    1  A    between atoms: C1_1  and  N8_8 
REMARK    2  A    between atoms: C6_6  and  C7_7 
REMARK    3  A    between atoms: C6_6  and  N8_8 
ROOT
HETATM    1  C2  UNL     1     -33.655   5.186   2.356  1.00 20.00     0.033 C 
HETATM    2  C6  UNL     1     -33.335   5.470   3.826  1.00 20.00     0.087 C 
ENDROOT
BRANCH   2   3
HETATM    3  C7  UNL     1     -34.546   5.318   4.804  1.00 20.00    -0.031 C 
HETATM    4  C3  UNL     1     -35.890   5.627   4.117  1.00 20.00     0.016 C 
HETATM    5  C4  UNL     1     -34.604   3.883   5.367  1.00 20.00     0.016 C 
HETATM    6  C5  UNL     1     -34.376   6.281   6.000  1.00 20.00     0.016 C 
ENDBRANCH   2   3
BRANCH   2   7
HETATM    7  N8  UNL     1     -32.719   6.777   3.925  1.00 20.00    -0.363 N 
HETATM    8  H24 UNL     1     -32.876   7.322   4.766  1.00 20.00     0.162 HD
BRANCH   7   9
HETATM    9  C1  UNL     1     -31.931   7.315   2.935  1.00 20.00     0.348 C 
HETATM   10  O9  UNL     1     -32.152   8.303   2.247  1.00 20.00    -0.284 OA
ENDBRANCH   7   9
ENDBRANCH   2   7
TORSDOF 3
ENDMDL
