MODEL 1
REMARK VINA RESULT:      -4.6      0.000      0.000
REMARK  1 active torsions:
REMARK  status: ('A' for Active; 'I' for Inactive)
REMARK    1  A    between atoms: C3_3  and  C7_7 
ROOT
HETATM    1  C1  UNL     1     -33.798  17.724  -3.195  1.00 20.00    -0.030 C 
HETATM    2  C2  UNL     1     -34.109  17.415  -4.461  1.00 20.00    -0.025 C 
HETATM    3  C4  UNL     1     -33.966  16.772  -2.052  1.00 20.00     0.028 C 
HETATM    4  C5  UNL     1     -34.818  15.554  -2.416  1.00 20.00     0.021 C 
HETATM    5  C6  UNL     1     -34.630  16.063  -4.895  1.00 20.00     0.018 C 
HETATM    6  C7  UNL     1     -34.459  14.963  -3.798  1.00 20.00     0.016 C 
HETATM    7  C8  UNL     1     -33.994  15.685  -6.241  1.00 20.00     0.015 C 
HETATM    8  C9  UNL     1     -33.055  14.340  -3.763  1.00 20.00     0.023 C 
ENDROOT
BRANCH   6   9
HETATM    9  C3  UNL     1     -35.432  13.838  -4.058  1.00 20.00     0.241 C 
HETATM   10  O10 UNL     1     -35.086  12.702  -4.365  1.00 20.00    -0.306 OA
ENDBRANCH   6   9
TORSDOF 1
ENDMDL
MODEL 2
REMARK VINA RESULT:      -4.6      1.228      2.847
REMARK  1 active torsions:
REMARK  status: ('A' for Active; 'I' for Inactive)
REMARK    1  A    between atoms: C3_3  and  C7_7 
ROOT
HETATM    1  C1  UNL     1     -33.848  17.499  -6.091  1.00 20.00    -0.030 C 
HETATM    2  C2  UNL     1     -33.423  17.111  -4.881  1.00 20.00    -0.025 C 
HETATM    3  C4  UNL     1     -34.517  16.577  -7.061  1.00 20.00     0.028 C 
HETATM    4  C5  UNL     1     -34.374  15.103  -6.673  1.00 20.00     0.021 C 
HETATM    5  C6  UNL     1     -33.599  15.712  -4.335  1.00 20.00     0.018 C 
HETATM    6  C7  UNL     1     -34.607  14.855  -5.167  1.00 20.00     0.016 C 
HETATM    7  C8  UNL     1     -33.953  15.793  -2.843  1.00 20.00     0.015 C 
HETATM    8  C9  UNL     1     -36.079  15.112  -4.805  1.00 20.00     0.023 C 
ENDROOT
BRANCH   6   9
HETATM    9  C3  UNL     1     -34.345  13.388  -4.920  1.00 20.00     0.241 C 
HETATM   10  O10 UNL     1     -35.095  12.667  -4.269  1.00 20.00    -0.306 OA
ENDBRANCH   6   9
TORSDOF 1
ENDMDL
MODEL 3
REMARK VINA RESULT:      -4.5      1.640      1.851
REMARK  1 active torsions:
REMARK  status: ('A' for Active; 'I' for Inactive)
REMARK    1  A    between atoms: C3_3  and  C7_7 
ROOT
HETATM    1  C1  UNL     1     -33.163  16.177  -4.059  1.00 20.00    -0.030 C 
HETATM    2  C2  UNL     1     -33.685  16.091  -5.290  1.00 20.00    -0.025 C 
HETATM    3  C4  UNL     1     -33.897  15.758  -2.825  1.00 20.00     0.028 C 
HETATM    4  C5  UNL     1     -35.392  15.538  -3.070  1.00 20.00     0.021 C 
HETATM    5  C6  UNL     1     -35.059  15.532  -5.585  1.00 20.00     0.018 C 
HETATM    6  C7  UNL     1     -35.677  14.761  -4.374  1.00 20.00     0.016 C 
HETATM    7  C8  UNL     1     -34.999  14.696  -6.873  1.00 20.00     0.015 C 
HETATM    8  C9  UNL     1     -35.183  13.311  -4.250  1.00 20.00     0.023 C 
ENDROOT
BRANCH   6   9
HETATM    9  C3  UNL     1     -37.178  14.702  -4.528  1.00 20.00     0.241 C 
HETATM   10  O10 UNL     1     -37.923  14.182  -3.704  1.00 20.00    -0.306 OA
ENDBRANCH   6   9
TORSDOF 1
ENDMDL
MODEL 4
REMARK VINA RESULT:      -4.4      1.706      2.408
REMARK  1 active torsions:
REMARK  status: ('A' for Active; 'I' for Inactive)
REMARK    1  A    between atoms: C3_3  and  C7_7 
ROOT
HETATM    1  C1  UNL     1     -32.708  14.991  -3.765  1.00 20.00    -0.030 C 
HETATM    2  C2  UNL     1     -33.358  16.127  -4.052  1.00 20.00    -0.025 C 
HETATM    3  C4  UNL     1     -33.366  13.647  -3.761  1.00 20.00     0.028 C 
HETATM    4  C5  UNL     1     -34.893  13.734  -3.792  1.00 20.00     0.021 C 
HETATM    5  C6  UNL     1     -34.819  16.186  -4.440  1.00 20.00     0.018 C 
HETATM    6  C7  UNL     1     -35.412  14.785  -4.798  1.00 20.00     0.016 C 
HETATM    7  C8  UNL     1     -35.004  17.228  -5.553  1.00 20.00     0.015 C 
HETATM    8  C9  UNL     1     -35.114  14.339  -6.238  1.00 20.00     0.023 C 
ENDROOT
BRANCH   6   9
HETATM    9  C3  UNL     1     -36.915  14.824  -4.654  1.00 20.00     0.241 C 
HETATM   10  O10 UNL     1     -37.533  14.156  -3.831  1.00 20.00    -0.306 OA
ENDBRANCH   6   9
TORSDOF 1
ENDMDL
MODEL 5
REMARK VINA RESULT:      -4.2      1.235      2.045
REMARK  1 active torsions:
REMARK  status: ('A' for Active; 'I' for Inactive)
REMARK    1  A    between atoms: C3_3  and  C7_7 
ROOT
HETATM    1  C1  UNL     1     -35.040  16.634  -2.184  1.00 20.00    -0.030 C 
HETATM    2  C2  UNL     1     -36.115  16.072  -2.754  1.00 20.00    -0.025 C 
HETATM    3  C4  UNL     1     -33.635  16.244  -2.521  1.00 20.00     0.028 C 
HETATM    4  C5  UNL     1     -33.557  14.940  -3.319  1.00 20.00     0.021 C 
HETATM    5  C6  UNL     1     -36.042  15.008  -3.825  1.00 20.00     0.018 C 
HETATM    6  C7  UNL     1     -34.614  14.861  -4.442  1.00 20.00     0.016 C 
HETATM    7  C8  UNL     1     -37.134  15.269  -4.873  1.00 20.00     0.015 C 
HETATM    8  C9  UNL     1     -34.306  15.894  -5.538  1.00 20.00     0.023 C 
ENDROOT
BRANCH   6   9
HETATM    9  C3  UNL     1     -34.477  13.496  -5.076  1.00 20.00     0.241 C 
HETATM   10  O10 UNL     1     -34.933  12.471  -4.580  1.00 20.00    -0.306 OA
ENDBRANCH   6   9
TORSDOF 1
ENDMDL
MODEL 6
REMARK VINA RESULT:      -4.2      2.030      3.455
REMARK  1 active torsions:
REMARK  status: ('A' for Active; 'I' for Inactive)
REMARK    1  A    between atoms: C3_3  and  C7_7 
ROOT
HETATM    1  C1  UNL     1     -34.548  13.337  -4.505  1.00 20.00    -0.030 C 
HETATM    2  C2  UNL     1     -35.409  14.255  -4.966  1.00 20.00    -0.025 C 
HETATM    3  C4  UNL     1     -33.335  13.681  -3.700  1.00 20.00     0.028 C 
HETATM    4  C5  UNL     1     -33.003  15.175  -3.736  1.00 20.00     0.021 C 
HETATM    5  C6  UNL     1     -35.281  15.739  -4.701  1.00 20.00     0.018 C 
HETATM    6  C7  UNL     1     -34.251  16.070  -3.573  1.00 20.00     0.016 C 
HETATM    7  C8  UNL     1     -36.676  16.329  -4.445  1.00 20.00     0.015 C 
HETATM    8  C9  UNL     1     -34.826  15.931  -2.154  1.00 20.00     0.023 C 
ENDROOT
BRANCH   6   9
HETATM    9  C3  UNL     1     -33.786  17.500  -3.719  1.00 20.00     0.241 C 
HETATM   10  O10 UNL     1     -33.406  17.981  -4.781  1.00 20.00    -0.306 OA
ENDBRANCH   6   9
TORSDOF 1
ENDMDL
MODEL 7
REMARK VINA RESULT:      -4.1      1.509      1.773
REMARK  1 active torsions:
REMARK  status: ('A' for Active; 'I' for Inactive)
REMARK    1  A    between atoms: C3_3  and  C7_7 
ROOT
HETATM    1  C1  UNL     1     -36.480  17.085  -4.670  1.00 20.00    -0.030 C 
HETATM    2  C2  UNL     1     -36.139  16.413  -5.778  1.00 20.00    -0.025 C 
HETATM    3  C4  UNL     1     -36.060  16.668  -3.295  1.00 20.00     0.028 C 
HETATM    4  C5  UNL     1     -35.495  15.246  -3.254  1.00 20.00     0.021 C 
HETATM    5  C6  UNL     1     -35.265  15.179  -5.779  1.00 20.00     0.018 C 
HETATM    6  C7  UNL     1     -34.527  14.952  -4.421  1.00 20.00     0.016 C 
HETATM    7  C8  UNL     1     -34.317  15.233  -6.986  1.00 20.00     0.015 C 
HETATM    8  C9  UNL     1     -33.242  15.783  -4.271  1.00 20.00     0.023 C 
ENDROOT
BRANCH   6   9
HETATM    9  C3  UNL     1     -34.126  13.501  -4.301  1.00 20.00     0.241 C 
HETATM   10  O10 UNL     1     -34.859  12.569  -4.615  1.00 20.00    -0.306 OA
ENDBRANCH   6   9
TORSDOF 1
ENDMDL
MODEL 8
REMARK VINA RESULT:      -4.1      1.558      2.901
REMARK  1 active torsions:
REMARK  status: ('A' for Active; 'I' for Inactive)
REMARK    1  A    between atoms: C3_3  and  C7_7 
ROOT
HETATM    1  C1  UNL     1     -33.611  16.412  -3.162  1.00 20.00    -0.030 C 
HETATM    2  C2  UNL     1     -33.772  15.090  -3.309  1.00 20.00    -0.025 C 
HETATM    3  C4  UNL     1     -33.738  17.386  -4.291  1.00 20.00     0.028 C 
HETATM    4  C5  UNL     1     -33.745  16.706  -5.662  1.00 20.00     0.021 C 
HETATM    5  C6  UNL     1     -34.137  14.427  -4.619  1.00 20.00     0.018 C 
HETATM    6  C7  UNL     1     -34.631  15.441  -5.700  1.00 20.00     0.016 C 
HETATM    7  C8  UNL     1     -35.134  13.290  -4.349  1.00 20.00     0.015 C 
HETATM    8  C9  UNL     1     -36.113  15.823  -5.555  1.00 20.00     0.023 C 
ENDROOT
BRANCH   6   9
HETATM    9  C3  UNL     1     -34.468  14.833  -7.073  1.00 20.00     0.241 C 
HETATM   10  O10 UNL     1     -35.388  14.318  -7.698  1.00 20.00    -0.306 OA
ENDBRANCH   6   9
TORSDOF 1
ENDMDL
MODEL 9
REMARK VINA RESULT:      -4.0     11.211     12.593
REMARK  1 active torsions:
REMARK  status: ('A' for Active; 'I' for Inactive)
REMARK    1  A    between atoms: C3_3  and  C7_7 
ROOT
HETATM    1  C1  UNL     1     -40.488   4.753  -0.499  1.00 20.00    -0.030 C 
HETATM    2  C2  UNL     1     -41.201   4.411  -1.581  1.00 20.00    -0.025 C 
HETATM    3  C4  UNL     1     -40.419   6.151   0.030  1.00 20.00     0.028 C 
HETATM    4  C5  UNL     1     -40.963   7.187  -0.958  1.00 20.00     0.021 C 
HETATM    5  C6  UNL     1     -42.046   5.382  -2.375  1.00 20.00     0.018 C 
HETATM    6  C7  UNL     1     -42.278   6.738  -1.632  1.00 20.00     0.016 C 
HETATM    7  C8  UNL     1     -43.350   4.689  -2.798  1.00 20.00     0.015 C 
HETATM    8  C9  UNL     1     -43.417   6.689  -0.601  1.00 20.00     0.023 C 
ENDROOT
BRANCH   6   9
HETATM    9  C3  UNL     1     -42.641   7.806  -2.636  1.00 20.00     0.241 C 
HETATM   10  O10 UNL     1     -42.154   7.872  -3.760  1.00 20.00    -0.306 OA
ENDBRANCH   6   9
TORSDOF 1
ENDMDL
