MODEL 1
REMARK VINA RESULT:      -3.8      0.000      0.000
REMARK  4 active torsions:
REMARK  status: ('A' for Active; 'I' for Inactive)
REMARK    1  A    between atoms: C3_3  and  C4_4 
REMARK    2  A    between atoms: C4_4  and  N7_7 
REMARK    3  A    between atoms: C5_5  and  C6_6 
REMARK    4  A    between atoms: C5_5  and  N7_7 
ROOT
HETATM    1  C2  UNL     1     -35.276   5.741   3.254  1.00 20.00     0.309 C 
HETATM    2  N7  UNL     1     -33.994   5.526   3.923  1.00 20.00     0.085 N 
ENDROOT
BRANCH   2   3
HETATM    3  C4  UNL     1     -33.901   6.354   5.126  1.00 20.00     0.271 C 
BRANCH   3   4
HETATM    4  C3  UNL     1     -34.485   5.661   6.352  1.00 20.00     0.026 C 
HETATM    5  C1  UNL     1     -34.823   4.200   6.097  1.00 20.00     0.007 C 
ENDBRANCH   3   4
ENDBRANCH   2   3
BRANCH   2   6
HETATM    6  C5  UNL     1     -32.887   5.820   3.014  1.00 20.00     0.286 C 
BRANCH   6   7
HETATM    7  C6  UNL     1     -32.148   7.094   3.388  1.00 20.00     0.144 C 
HETATM    8 CL8  UNL     1     -32.051   8.216   2.009  1.00 20.00    -0.129 Cl
ENDBRANCH   6   7
ENDBRANCH   2   6
TORSDOF 4
ENDMDL
MODEL 2
REMARK VINA RESULT:      -3.7      1.952      3.668
REMARK  4 active torsions:
REMARK  status: ('A' for Active; 'I' for Inactive)
REMARK    1  A    between atoms: C3_3  and  C4_4 
REMARK    2  A    between atoms: C4_4  and  N7_7 
REMARK    3  A    between atoms: C5_5  and  C6_6 
REMARK    4  A    between atoms: C5_5  and  N7_7 
ROOT
HETATM    1  C2  UNL     1     -35.582   5.772   3.301  1.00 20.00     0.309 C 
HETATM    2  N7  UNL     1     -34.336   5.972   4.039  1.00 20.00     0.085 N 
ENDROOT
BRANCH   2   3
HETATM    3  C4  UNL     1     -33.187   5.869   3.140  1.00 20.00     0.271 C 
BRANCH   3   4
HETATM    4  C3  UNL     1     -32.150   6.957   3.398  1.00 20.00     0.026 C 
HETATM    5  C1  UNL     1     -32.094   7.992   2.283  1.00 20.00     0.007 C 
ENDBRANCH   3   4
ENDBRANCH   2   3
BRANCH   2   6
HETATM    6  C5  UNL     1     -34.224   5.000   5.125  1.00 20.00     0.286 C 
BRANCH   6   7
HETATM    7  C6  UNL     1     -34.527   5.606   6.485  1.00 20.00     0.144 C 
HETATM    8 CL8  UNL     1     -33.651   7.138   6.721  1.00 20.00    -0.129 Cl
ENDBRANCH   6   7
ENDBRANCH   2   6
TORSDOF 4
ENDMDL
MODEL 3
REMARK VINA RESULT:      -3.7      2.450      4.105
REMARK  4 active torsions:
REMARK  status: ('A' for Active; 'I' for Inactive)
REMARK    1  A    between atoms: C3_3  and  C4_4 
REMARK    2  A    between atoms: C4_4  and  N7_7 
REMARK    3  A    between atoms: C5_5  and  C6_6 
REMARK    4  A    between atoms: C5_5  and  N7_7 
ROOT
HETATM    1  C2  UNL     1     -34.850   5.479   3.350  1.00 20.00     0.309 C 
HETATM    2  N7  UNL     1     -33.883   6.441   3.876  1.00 20.00     0.085 N 
ENDROOT
BRANCH   2   3
HETATM    3  C4  UNL     1     -32.576   6.247   3.247  1.00 20.00     0.271 C 
BRANCH   3   4
HETATM    4  C3  UNL     1     -31.779   7.544   3.155  1.00 20.00     0.026 C 
HETATM    5  C1  UNL     1     -32.047   8.310   1.868  1.00 20.00     0.007 C 
ENDBRANCH   3   4
ENDBRANCH   2   3
BRANCH   2   6
HETATM    6  C5  UNL     1     -33.774   6.314   5.328  1.00 20.00     0.286 C 
BRANCH   6   7
HETATM    7  C6  UNL     1     -34.859   5.430   5.920  1.00 20.00     0.144 C 
HETATM    8 CL8  UNL     1     -34.285   3.759   6.141  1.00 20.00    -0.129 Cl
ENDBRANCH   6   7
ENDBRANCH   2   6
TORSDOF 4
ENDMDL
MODEL 4
REMARK VINA RESULT:      -3.5     11.665     12.256
REMARK  4 active torsions:
REMARK  status: ('A' for Active; 'I' for Inactive)
REMARK    1  A    between atoms: C3_3  and  C4_4 
REMARK    2  A    between atoms: C4_4  and  N7_7 
REMARK    3  A    between atoms: C5_5  and  C6_6 
REMARK    4  A    between atoms: C5_5  and  N7_7 
ROOT
HETATM    1  C2  UNL     1     -33.311  16.274  -4.970  1.00 20.00     0.309 C 
HETATM    2  N7  UNL     1     -34.028  15.645  -3.862  1.00 20.00     0.085 N 
ENDROOT
BRANCH   2   3
HETATM    3  C4  UNL     1     -33.673  16.285  -2.595  1.00 20.00     0.271 C 
BRANCH   3   4
HETATM    4  C3  UNL     1     -34.792  16.188  -1.564  1.00 20.00     0.026 C 
HETATM    5  C1  UNL     1     -34.574  17.107  -0.371  1.00 20.00     0.007 C 
ENDBRANCH   3   4
ENDBRANCH   2   3
BRANCH   2   6
HETATM    6  C5  UNL     1     -33.734  14.214  -3.810  1.00 20.00     0.286 C 
BRANCH   6   7
HETATM    7  C6  UNL     1     -34.918  13.360  -4.232  1.00 20.00     0.144 C 
HETATM    8 CL8  UNL     1     -36.448  14.262  -4.098  1.00 20.00    -0.129 Cl
ENDBRANCH   6   7
ENDBRANCH   2   6
TORSDOF 4
ENDMDL
MODEL 5
REMARK VINA RESULT:      -3.4      2.678      4.542
REMARK  4 active torsions:
REMARK  status: ('A' for Active; 'I' for Inactive)
REMARK    1  A    between atoms: C3_3  and  C4_4 
REMARK    2  A    between atoms: C4_4  and  N7_7 
REMARK    3  A    between atoms: C5_5  and  C6_6 
REMARK    4  A    between atoms: C5_5  and  N7_7 
ROOT
HETATM    1  C2  UNL     1     -32.157   5.339   2.971  1.00 20.00     0.309 C 
HETATM    2  N7  UNL     1     -32.990   6.540   2.980  1.00 20.00     0.085 N 
ENDROOT
BRANCH   2   3
HETATM    3  C4  UNL     1     -32.155   7.741   3.010  1.00 20.00     0.271 C 
BRANCH   3   4
HETATM    4  C3  UNL     1     -31.931   8.325   1.619  1.00 20.00     0.026 C 
HETATM    5  C1  UNL     1     -32.475   9.740   1.481  1.00 20.00     0.007 C 
ENDBRANCH   3   4
ENDBRANCH   2   3
BRANCH   2   6
HETATM    6  C5  UNL     1     -33.900   6.523   4.125  1.00 20.00     0.286 C 
BRANCH   6   7
HETATM    7  C6  UNL     1     -34.839   5.328   4.106  1.00 20.00     0.144 C 
HETATM    8 CL8  UNL     1     -35.006   4.610   5.727  1.00 20.00    -0.129 Cl
ENDBRANCH   6   7
ENDBRANCH   2   6
TORSDOF 4
ENDMDL
MODEL 6
REMARK VINA RESULT:      -3.4     11.941     12.289
REMARK  4 active torsions:
REMARK  status: ('A' for Active; 'I' for Inactive)
REMARK    1  A    between atoms: C3_3  and  C4_4 
REMARK    2  A    between atoms: C4_4  and  N7_7 
REMARK    3  A    between atoms: C5_5  and  C6_6 
REMARK    4  A    between atoms: C5_5  and  N7_7 
ROOT
HETATM    1  C2  UNL     1     -36.420  14.573  -3.973  1.00 20.00     0.309 C 
HETATM    2  N7  UNL     1     -35.102  13.991  -3.724  1.00 20.00     0.085 N 
ENDROOT
BRANCH   2   3
HETATM    3  C4  UNL     1     -34.215  14.978  -3.110  1.00 20.00     0.271 C 
BRANCH   3   4
HETATM    4  C3  UNL     1     -34.977  16.175  -2.553  1.00 20.00     0.026 C 
HETATM    5  C1  UNL     1     -34.617  16.480  -1.106  1.00 20.00     0.007 C 
ENDBRANCH   3   4
ENDBRANCH   2   3
BRANCH   2   6
HETATM    6  C5  UNL     1     -34.522  13.488  -4.968  1.00 20.00     0.286 C 
BRANCH   6   7
HETATM    7  C6  UNL     1     -35.149  14.118  -6.201  1.00 20.00     0.144 C 
HETATM    8 CL8  UNL     1     -34.131  15.427  -6.849  1.00 20.00    -0.129 Cl
ENDBRANCH   6   7
ENDBRANCH   2   6
TORSDOF 4
ENDMDL
MODEL 7
REMARK VINA RESULT:      -3.4     12.030     12.750
REMARK  4 active torsions:
REMARK  status: ('A' for Active; 'I' for Inactive)
REMARK    1  A    between atoms: C3_3  and  C4_4 
REMARK    2  A    between atoms: C4_4  and  N7_7 
REMARK    3  A    between atoms: C5_5  and  C6_6 
REMARK    4  A    between atoms: C5_5  and  N7_7 
ROOT
HETATM    1  C2  UNL     1     -34.306  14.607  -3.410  1.00 20.00     0.309 C 
HETATM    2  N7  UNL     1     -33.354  15.715  -3.449  1.00 20.00     0.085 N 
ENDROOT
BRANCH   2   3
HETATM    3  C4  UNL     1     -33.765  16.775  -2.527  1.00 20.00     0.271 C 
BRANCH   3   4
HETATM    4  C3  UNL     1     -34.729  16.271  -1.458  1.00 20.00     0.026 C 
HETATM    5  C1  UNL     1     -34.696  17.115  -0.192  1.00 20.00     0.007 C 
ENDBRANCH   3   4
ENDBRANCH   2   3
BRANCH   2   6
HETATM    6  C5  UNL     1     -33.235  16.240  -4.808  1.00 20.00     0.286 C 
BRANCH   6   7
HETATM    7  C6  UNL     1     -34.512  16.069  -5.613  1.00 20.00     0.144 C 
HETATM    8 CL8  UNL     1     -34.239  15.062  -7.056  1.00 20.00    -0.129 Cl
ENDBRANCH   6   7
ENDBRANCH   2   6
TORSDOF 4
ENDMDL
MODEL 8
REMARK VINA RESULT:      -3.4     11.581     12.476
REMARK  4 active torsions:
REMARK  status: ('A' for Active; 'I' for Inactive)
REMARK    1  A    between atoms: C3_3  and  C4_4 
REMARK    2  A    between atoms: C4_4  and  N7_7 
REMARK    3  A    between atoms: C5_5  and  C6_6 
REMARK    4  A    between atoms: C5_5  and  N7_7 
ROOT
HETATM    1  C2  UNL     1     -33.510  16.790  -4.934  1.00 20.00     0.309 C 
HETATM    2  N7  UNL     1     -33.197  16.182  -3.642  1.00 20.00     0.085 N 
ENDROOT
BRANCH   2   3
HETATM    3  C4  UNL     1     -32.990  14.742  -3.791  1.00 20.00     0.271 C 
BRANCH   3   4
HETATM    4  C3  UNL     1     -34.267  13.944  -3.549  1.00 20.00     0.026 C 
HETATM    5  C1  UNL     1     -34.737  13.196  -4.789  1.00 20.00     0.007 C 
ENDBRANCH   3   4
ENDBRANCH   2   3
BRANCH   2   6
HETATM    6  C5  UNL     1     -34.267  16.447  -2.680  1.00 20.00     0.286 C 
BRANCH   6   7
HETATM    7  C6  UNL     1     -33.783  17.227  -1.470  1.00 20.00     0.144 C 
HETATM    8 CL8  UNL     1     -34.838  16.959  -0.061  1.00 20.00    -0.129 Cl
ENDBRANCH   6   7
ENDBRANCH   2   6
TORSDOF 4
ENDMDL
MODEL 9
REMARK VINA RESULT:      -3.4     11.725     12.552
REMARK  4 active torsions:
REMARK  status: ('A' for Active; 'I' for Inactive)
REMARK    1  A    between atoms: C3_3  and  C4_4 
REMARK    2  A    between atoms: C4_4  and  N7_7 
REMARK    3  A    between atoms: C5_5  and  C6_6 
REMARK    4  A    between atoms: C5_5  and  N7_7 
ROOT
HETATM    1  C2  UNL     1     -32.649  14.716  -3.706  1.00 20.00     0.309 C 
HETATM    2  N7  UNL     1     -33.977  14.129  -3.546  1.00 20.00     0.085 N 
ENDROOT
BRANCH   2   3
HETATM    3  C4  UNL     1     -34.431  13.538  -4.805  1.00 20.00     0.271 C 
BRANCH   3   4
HETATM    4  C3  UNL     1     -35.198  14.534  -5.669  1.00 20.00     0.026 C 
HETATM    5  C1  UNL     1     -34.483  14.854  -6.973  1.00 20.00     0.007 C 
ENDBRANCH   3   4
ENDBRANCH   2   3
BRANCH   2   6
HETATM    6  C5  UNL     1     -34.930  15.137  -3.083  1.00 20.00     0.286 C 
BRANCH   6   7
HETATM    7  C6  UNL     1     -34.246  16.349  -2.474  1.00 20.00     0.144 C 
HETATM    8 CL8  UNL     1     -34.651  16.524  -0.749  1.00 20.00    -0.129 Cl
ENDBRANCH   6   7
ENDBRANCH   2   6
TORSDOF 4
ENDMDL
