MODEL 1
REMARK VINA RESULT:      -4.5      0.000      0.000
REMARK  1 active torsions:
REMARK  status: ('A' for Active; 'I' for Inactive)
REMARK    1  A    between atoms: C3_3  and  C7_7 
ROOT
HETATM    1  C1  UNL     1     -33.715  17.552  -3.515  1.00 20.00    -0.030 C 
HETATM    2  C2  UNL     1     -33.504  17.244  -4.802  1.00 20.00    -0.025 C 
HETATM    3  C4  UNL     1     -34.183  16.560  -2.496  1.00 20.00     0.028 C 
HETATM    4  C5  UNL     1     -34.108  15.114  -2.992  1.00 20.00     0.021 C 
HETATM    5  C6  UNL     1     -33.742  15.868  -5.383  1.00 20.00     0.018 C 
HETATM    6  C7  UNL     1     -34.599  14.957  -4.448  1.00 20.00     0.016 C 
HETATM    7  C8  UNL     1     -34.323  15.995  -6.797  1.00 20.00     0.015 C 
HETATM    8  C9  UNL     1     -36.110  15.237  -4.535  1.00 20.00     0.023 C 
ENDROOT
BRANCH   6   9
HETATM    9  C3  UNL     1     -34.380  13.511  -4.825  1.00 20.00     0.241 C 
HETATM   10  O10 UNL     1     -35.089  12.593  -4.426  1.00 20.00    -0.306 OA
ENDBRANCH   6   9
TORSDOF 1
ENDMDL
MODEL 2
REMARK VINA RESULT:      -4.4      1.359      2.897
REMARK  1 active torsions:
REMARK  status: ('A' for Active; 'I' for Inactive)
REMARK    1  A    between atoms: C3_3  and  C7_7 
ROOT
HETATM    1  C1  UNL     1     -33.295  16.554  -5.264  1.00 20.00    -0.030 C 
HETATM    2  C2  UNL     1     -33.619  16.878  -4.004  1.00 20.00    -0.025 C 
HETATM    3  C4  UNL     1     -34.156  15.699  -6.141  1.00 20.00     0.028 C 
HETATM    4  C5  UNL     1     -35.562  15.487  -5.574  1.00 20.00     0.021 C 
HETATM    5  C6  UNL     1     -34.874  16.397  -3.312  1.00 20.00     0.018 C 
HETATM    6  C7  UNL     1     -35.555  15.204  -4.056  1.00 20.00     0.016 C 
HETATM    7  C8  UNL     1     -34.570  16.093  -1.839  1.00 20.00     0.015 C 
HETATM    8  C9  UNL     1     -34.895  13.844  -3.768  1.00 20.00     0.023 C 
ENDROOT
BRANCH   6   9
HETATM    9  C3  UNL     1     -37.000  15.111  -3.626  1.00 20.00     0.241 C 
HETATM   10  O10 UNL     1     -37.685  14.104  -3.774  1.00 20.00    -0.306 OA
ENDBRANCH   6   9
TORSDOF 1
ENDMDL
MODEL 3
REMARK VINA RESULT:      -4.4      1.029      2.605
REMARK  1 active torsions:
REMARK  status: ('A' for Active; 'I' for Inactive)
REMARK    1  A    between atoms: C3_3  and  C7_7 
ROOT
HETATM    1  C1  UNL     1     -33.710  17.707  -4.963  1.00 20.00    -0.030 C 
HETATM    2  C2  UNL     1     -34.335  17.538  -3.790  1.00 20.00    -0.025 C 
HETATM    3  C4  UNL     1     -33.466  16.594  -5.935  1.00 20.00     0.028 C 
HETATM    4  C5  UNL     1     -34.255  15.325  -5.600  1.00 20.00     0.021 C 
HETATM    5  C6  UNL     1     -34.840  16.201  -3.296  1.00 20.00     0.018 C 
HETATM    6  C7  UNL     1     -34.242  14.997  -4.091  1.00 20.00     0.016 C 
HETATM    7  C8  UNL     1     -34.620  16.091  -1.781  1.00 20.00     0.015 C 
HETATM    8  C9  UNL     1     -32.823  14.609  -3.640  1.00 20.00     0.023 C 
ENDROOT
BRANCH   6   9
HETATM    9  C3  UNL     1     -35.128  13.789  -3.904  1.00 20.00     0.241 C 
HETATM   10  O10 UNL     1     -34.894  12.695  -4.408  1.00 20.00    -0.306 OA
ENDBRANCH   6   9
TORSDOF 1
ENDMDL
MODEL 4
REMARK VINA RESULT:      -4.4      1.070      2.258
REMARK  1 active torsions:
REMARK  status: ('A' for Active; 'I' for Inactive)
REMARK    1  A    between atoms: C3_3  and  C7_7 
ROOT
HETATM    1  C1  UNL     1     -35.389  16.698  -2.218  1.00 20.00    -0.030 C 
HETATM    2  C2  UNL     1     -34.266  15.966  -2.230  1.00 20.00    -0.025 C 
HETATM    3  C4  UNL     1     -36.510  16.502  -3.191  1.00 20.00     0.028 C 
HETATM    4  C5  UNL     1     -36.383  15.206  -3.996  1.00 20.00     0.021 C 
HETATM    5  C6  UNL     1     -33.986  14.879  -3.243  1.00 20.00     0.018 C 
HETATM    6  C7  UNL     1     -34.939  14.944  -4.479  1.00 20.00     0.016 C 
HETATM    7  C8  UNL     1     -32.501  14.898  -3.627  1.00 20.00     0.015 C 
HETATM    8  C9  UNL     1     -34.524  15.998  -5.520  1.00 20.00     0.023 C 
ENDROOT
BRANCH   6   9
HETATM    9  C3  UNL     1     -34.951  13.601  -5.168  1.00 20.00     0.241 C 
HETATM   10  O10 UNL     1     -34.961  12.532  -4.566  1.00 20.00    -0.306 OA
ENDBRANCH   6   9
TORSDOF 1
ENDMDL
MODEL 5
REMARK VINA RESULT:      -4.3      2.084      3.766
REMARK  1 active torsions:
REMARK  status: ('A' for Active; 'I' for Inactive)
REMARK    1  A    between atoms: C3_3  and  C7_7 
ROOT
HETATM    1  C1  UNL     1     -34.671  13.424  -4.563  1.00 20.00    -0.030 C 
HETATM    2  C2  UNL     1     -34.281  14.020  -3.427  1.00 20.00    -0.025 C 
HETATM    3  C4  UNL     1     -34.810  14.147  -5.867  1.00 20.00     0.028 C 
HETATM    4  C5  UNL     1     -34.182  15.543  -5.846  1.00 20.00     0.021 C 
HETATM    5  C6  UNL     1     -33.966  15.495  -3.322  1.00 20.00     0.018 C 
HETATM    6  C7  UNL     1     -34.490  16.315  -4.543  1.00 20.00     0.016 C 
HETATM    7  C8  UNL     1     -34.462  16.037  -1.975  1.00 20.00     0.015 C 
HETATM    8  C9  UNL     1     -35.990  16.647  -4.461  1.00 20.00     0.023 C 
ENDROOT
BRANCH   6   9
HETATM    9  C3  UNL     1     -33.737  17.621  -4.626  1.00 20.00     0.241 C 
HETATM   10  O10 UNL     1     -33.359  18.117  -5.682  1.00 20.00    -0.306 OA
ENDBRANCH   6   9
TORSDOF 1
ENDMDL
MODEL 6
REMARK VINA RESULT:      -4.2     11.670     12.975
REMARK  1 active torsions:
REMARK  status: ('A' for Active; 'I' for Inactive)
REMARK    1  A    between atoms: C3_3  and  C7_7 
ROOT
HETATM    1  C1  UNL     1     -40.898   7.032  -0.614  1.00 20.00    -0.030 C 
HETATM    2  C2  UNL     1     -41.545   7.179  -1.778  1.00 20.00    -0.025 C 
HETATM    3  C4  UNL     1     -40.591   5.700  -0.004  1.00 20.00     0.028 C 
HETATM    4  C5  UNL     1     -40.816   4.534  -0.971  1.00 20.00     0.021 C 
HETATM    5  C6  UNL     1     -42.068   6.020  -2.597  1.00 20.00     0.018 C 
HETATM    6  C7  UNL     1     -42.116   4.683  -1.791  1.00 20.00     0.016 C 
HETATM    7  C8  UNL     1     -43.417   6.394  -3.224  1.00 20.00     0.015 C 
HETATM    8  C9  UNL     1     -43.344   4.566  -0.871  1.00 20.00     0.023 C 
ENDROOT
BRANCH   6   9
HETATM    9  C3  UNL     1     -42.154   3.522  -2.755  1.00 20.00     0.241 C 
HETATM   10  O10 UNL     1     -41.212   2.755  -2.927  1.00 20.00    -0.306 OA
ENDBRANCH   6   9
TORSDOF 1
ENDMDL
MODEL 7
REMARK VINA RESULT:      -4.2      1.889      3.227
REMARK  1 active torsions:
REMARK  status: ('A' for Active; 'I' for Inactive)
REMARK    1  A    between atoms: C3_3  and  C7_7 
ROOT
HETATM    1  C1  UNL     1     -34.780  14.354  -6.292  1.00 20.00    -0.030 C 
HETATM    2  C2  UNL     1     -34.676  15.681  -6.137  1.00 20.00    -0.025 C 
HETATM    3  C4  UNL     1     -34.831  13.392  -5.146  1.00 20.00     0.028 C 
HETATM    4  C5  UNL     1     -35.054  14.082  -3.797  1.00 20.00     0.021 C 
HETATM    5  C6  UNL     1     -34.566  16.360  -4.791  1.00 20.00     0.018 C 
HETATM    6  C7  UNL     1     -34.212  15.366  -3.639  1.00 20.00     0.016 C 
HETATM    7  C8  UNL     1     -33.595  17.544  -4.884  1.00 20.00     0.015 C 
HETATM    8  C9  UNL     1     -32.715  15.019  -3.567  1.00 20.00     0.023 C 
ENDROOT
BRANCH   6   9
HETATM    9  C3  UNL     1     -34.603  15.980  -2.316  1.00 20.00     0.241 C 
HETATM   10  O10 UNL     1     -33.819  16.587  -1.594  1.00 20.00    -0.306 OA
ENDBRANCH   6   9
TORSDOF 1
ENDMDL
MODEL 8
REMARK VINA RESULT:      -4.2      1.364      3.252
REMARK  1 active torsions:
REMARK  status: ('A' for Active; 'I' for Inactive)
REMARK    1  A    between atoms: C3_3  and  C7_7 
ROOT
HETATM    1  C1  UNL     1     -36.874  15.251  -5.132  1.00 20.00    -0.030 C 
HETATM    2  C2  UNL     1     -36.603  15.377  -3.826  1.00 20.00    -0.025 C 
HETATM    3  C4  UNL     1     -35.878  14.761  -6.137  1.00 20.00     0.028 C 
HETATM    4  C5  UNL     1     -34.636  14.139  -5.493  1.00 20.00     0.021 C 
HETATM    5  C6  UNL     1     -35.254  15.068  -3.218  1.00 20.00     0.018 C 
HETATM    6  C7  UNL     1     -34.120  14.954  -4.287  1.00 20.00     0.016 C 
HETATM    7  C8  UNL     1     -34.938  16.083  -2.111  1.00 20.00     0.015 C 
HETATM    8  C9  UNL     1     -33.579  16.317  -4.754  1.00 20.00     0.023 C 
ENDROOT
BRANCH   6   9
HETATM    9  C3  UNL     1     -32.963  14.178  -3.704  1.00 20.00     0.241 C 
HETATM   10  O10 UNL     1     -32.903  12.953  -3.704  1.00 20.00    -0.306 OA
ENDBRANCH   6   9
TORSDOF 1
ENDMDL
MODEL 9
REMARK VINA RESULT:      -4.2      1.776      2.293
REMARK  1 active torsions:
REMARK  status: ('A' for Active; 'I' for Inactive)
REMARK    1  A    between atoms: C3_3  and  C7_7 
ROOT
HETATM    1  C1  UNL     1     -33.283  15.168  -3.564  1.00 20.00    -0.030 C 
HETATM    2  C2  UNL     1     -33.177  16.050  -4.567  1.00 20.00    -0.025 C 
HETATM    3  C4  UNL     1     -34.091  13.911  -3.654  1.00 20.00     0.028 C 
HETATM    4  C5  UNL     1     -34.532  13.585  -5.083  1.00 20.00     0.021 C 
HETATM    5  C6  UNL     1     -33.884  15.896  -5.895  1.00 20.00     0.018 C 
HETATM    6  C7  UNL     1     -35.025  14.830  -5.853  1.00 20.00     0.016 C 
HETATM    7  C8  UNL     1     -34.359  17.267  -6.393  1.00 20.00     0.015 C 
HETATM    8  C9  UNL     1     -36.333  15.356  -5.237  1.00 20.00     0.023 C 
ENDROOT
BRANCH   6   9
HETATM    9  C3  UNL     1     -35.332  14.375  -7.259  1.00 20.00     0.241 C 
HETATM   10  O10 UNL     1     -36.383  14.632  -7.839  1.00 20.00    -0.306 OA
ENDBRANCH   6   9
TORSDOF 1
ENDMDL
