MODEL 1
REMARK VINA RESULT:      -4.1      0.000      0.000
REMARK  2 active torsions:
REMARK  status: ('A' for Active; 'I' for Inactive)
REMARK    1  A    between atoms: C1_1  and  C8_8 
REMARK    2  A    between atoms: C2_2  and  C3_3 
ROOT
HETATM    1  C1  UNL     1     -35.376  15.499  -3.051  1.00 20.00    -0.009 C 
HETATM    2  C3  UNL     1     -34.571  14.542  -3.551  1.00 20.00    -0.027 C 
HETATM    3  C4  UNL     1     -33.078  14.471  -3.540  1.00 20.00     0.051 C 
ENDROOT
BRANCH   1   4
HETATM    4  C8  UNL     1     -35.024  16.812  -2.357  1.00 20.00    -0.033 C 
HETATM    5  C5  UNL     1     -36.305  17.676  -2.281  1.00 20.00     0.018 C 
HETATM    6  C6  UNL     1     -34.547  16.565  -0.916  1.00 20.00     0.018 C 
HETATM    7  C7  UNL     1     -33.977  17.621  -3.142  1.00 20.00     0.018 C 
ENDBRANCH   1   4
BRANCH   2   8
HETATM    8  C2  UNL     1     -35.271  13.388  -4.191  1.00 20.00     0.265 C 
HETATM    9  O9  UNL     1     -34.703  12.582  -4.919  1.00 20.00    -0.302 OA
ENDBRANCH   2   8
TORSDOF 2
ENDMDL
MODEL 2
REMARK VINA RESULT:      -4.0      0.971      1.743
REMARK  2 active torsions:
REMARK  status: ('A' for Active; 'I' for Inactive)
REMARK    1  A    between atoms: C1_1  and  C8_8 
REMARK    2  A    between atoms: C2_2  and  C3_3 
ROOT
HETATM    1  C1  UNL     1     -34.470  15.381  -2.782  1.00 20.00    -0.009 C 
HETATM    2  C3  UNL     1     -34.392  14.968  -4.062  1.00 20.00    -0.027 C 
HETATM    3  C4  UNL     1     -34.547  15.766  -5.317  1.00 20.00     0.051 C 
ENDROOT
BRANCH   1   4
HETATM    4  C8  UNL     1     -34.771  16.766  -2.215  1.00 20.00    -0.033 C 
HETATM    5  C5  UNL     1     -34.654  16.692  -0.675  1.00 20.00     0.018 C 
HETATM    6  C6  UNL     1     -33.746  17.800  -2.709  1.00 20.00     0.018 C 
HETATM    7  C7  UNL     1     -36.203  17.227  -2.540  1.00 20.00     0.018 C 
ENDBRANCH   1   4
BRANCH   2   8
HETATM    8  C2  UNL     1     -34.097  13.516  -4.248  1.00 20.00     0.265 C 
HETATM    9  O9  UNL     1     -34.973  12.669  -4.386  1.00 20.00    -0.302 OA
ENDBRANCH   2   8
TORSDOF 2
ENDMDL
MODEL 3
REMARK VINA RESULT:      -4.0      0.055      1.442
REMARK  2 active torsions:
REMARK  status: ('A' for Active; 'I' for Inactive)
REMARK    1  A    between atoms: C1_1  and  C8_8 
REMARK    2  A    between atoms: C2_2  and  C3_3 
ROOT
HETATM    1  C1  UNL     1     -35.418  15.485  -3.052  1.00 20.00    -0.009 C 
HETATM    2  C3  UNL     1     -34.585  14.549  -3.547  1.00 20.00    -0.027 C 
HETATM    3  C4  UNL     1     -33.091  14.509  -3.513  1.00 20.00     0.051 C 
ENDROOT
BRANCH   1   4
HETATM    4  C8  UNL     1     -35.106  16.799  -2.341  1.00 20.00    -0.033 C 
HETATM    5  C5  UNL     1     -34.025  17.543  -3.158  1.00 20.00     0.018 C 
HETATM    6  C6  UNL     1     -36.347  17.703  -2.281  1.00 20.00     0.018 C 
HETATM    7  C7  UNL     1     -34.532  16.573  -0.930  1.00 20.00     0.018 C 
ENDBRANCH   1   4
BRANCH   2   8
HETATM    8  C2  UNL     1     -35.251  13.387  -4.208  1.00 20.00     0.265 C 
HETATM    9  O9  UNL     1     -34.649  12.586  -4.915  1.00 20.00    -0.302 OA
ENDBRANCH   2   8
TORSDOF 2
ENDMDL
MODEL 4
REMARK VINA RESULT:      -3.9      1.356      2.408
REMARK  2 active torsions:
REMARK  status: ('A' for Active; 'I' for Inactive)
REMARK    1  A    between atoms: C1_1  and  C8_8 
REMARK    2  A    between atoms: C2_2  and  C3_3 
ROOT
HETATM    1  C1  UNL     1     -33.677  16.440  -2.316  1.00 20.00    -0.009 C 
HETATM    2  C3  UNL     1     -34.306  15.466  -3.001  1.00 20.00    -0.027 C 
HETATM    3  C4  UNL     1     -35.772  15.206  -3.131  1.00 20.00     0.051 C 
ENDROOT
BRANCH   1   4
HETATM    4  C8  UNL     1     -34.251  17.550  -1.439  1.00 20.00    -0.033 C 
HETATM    5  C5  UNL     1     -33.089  18.478  -1.014  1.00 20.00     0.018 C 
HETATM    6  C6  UNL     1     -35.263  18.403  -2.221  1.00 20.00     0.018 C 
HETATM    7  C7  UNL     1     -34.887  17.001  -0.150  1.00 20.00     0.018 C 
ENDBRANCH   1   4
BRANCH   2   8
HETATM    8  C2  UNL     1     -33.412  14.526  -3.742  1.00 20.00     0.265 C 
HETATM    9  O9  UNL     1     -33.534  13.308  -3.690  1.00 20.00    -0.302 OA
ENDBRANCH   2   8
TORSDOF 2
ENDMDL
MODEL 5
REMARK VINA RESULT:      -3.7      2.806      3.623
REMARK  2 active torsions:
REMARK  status: ('A' for Active; 'I' for Inactive)
REMARK    1  A    between atoms: C1_1  and  C8_8 
REMARK    2  A    between atoms: C2_2  and  C3_3 
ROOT
HETATM    1  C1  UNL     1     -35.752  15.945  -5.181  1.00 20.00    -0.009 C 
HETATM    2  C3  UNL     1     -36.058  14.883  -4.410  1.00 20.00    -0.027 C 
HETATM    3  C4  UNL     1     -35.274  13.631  -4.184  1.00 20.00     0.051 C 
ENDROOT
BRANCH   1   4
HETATM    4  C8  UNL     1     -34.544  16.187  -6.082  1.00 20.00    -0.033 C 
HETATM    5  C5  UNL     1     -34.778  17.503  -6.859  1.00 20.00     0.018 C 
HETATM    6  C6  UNL     1     -33.262  16.361  -5.251  1.00 20.00     0.018 C 
HETATM    7  C7  UNL     1     -34.364  15.070  -7.125  1.00 20.00     0.018 C 
ENDBRANCH   1   4
BRANCH   2   8
HETATM    8  C2  UNL     1     -37.353  14.981  -3.673  1.00 20.00     0.265 C 
HETATM    9  O9  UNL     1     -38.248  14.151  -3.781  1.00 20.00    -0.302 OA
ENDBRANCH   2   8
TORSDOF 2
ENDMDL
MODEL 6
REMARK VINA RESULT:      -3.7      2.838      4.242
REMARK  2 active torsions:
REMARK  status: ('A' for Active; 'I' for Inactive)
REMARK    1  A    between atoms: C1_1  and  C8_8 
REMARK    2  A    between atoms: C2_2  and  C3_3 
ROOT
HETATM    1  C1  UNL     1     -34.669  15.836  -2.083  1.00 20.00    -0.009 C 
HETATM    2  C3  UNL     1     -34.339  16.963  -1.422  1.00 20.00    -0.027 C 
HETATM    3  C4  UNL     1     -33.546  18.136  -1.904  1.00 20.00     0.051 C 
ENDROOT
BRANCH   1   4
HETATM    4  C8  UNL     1     -34.315  15.391  -3.499  1.00 20.00    -0.033 C 
HETATM    5  C5  UNL     1     -34.984  14.020  -3.754  1.00 20.00     0.018 C 
HETATM    6  C6  UNL     1     -34.866  16.377  -4.542  1.00 20.00     0.018 C 
HETATM    7  C7  UNL     1     -32.799  15.198  -3.685  1.00 20.00     0.018 C 
ENDBRANCH   1   4
BRANCH   2   8
HETATM    8  C2  UNL     1     -34.847  17.054  -0.021  1.00 20.00     0.265 C 
HETATM    9  O9  UNL     1     -34.426  17.871   0.791  1.00 20.00    -0.302 OA
ENDBRANCH   2   8
TORSDOF 2
ENDMDL
MODEL 7
REMARK VINA RESULT:      -3.7      1.468      1.530
REMARK  2 active torsions:
REMARK  status: ('A' for Active; 'I' for Inactive)
REMARK    1  A    between atoms: C1_1  and  C8_8 
REMARK    2  A    between atoms: C2_2  and  C3_3 
ROOT
HETATM    1  C1  UNL     1     -35.895  16.224  -2.905  1.00 20.00    -0.009 C 
HETATM    2  C3  UNL     1     -35.554  15.037  -3.444  1.00 20.00    -0.027 C 
HETATM    3  C4  UNL     1     -34.238  14.330  -3.401  1.00 20.00     0.051 C 
ENDROOT
BRANCH   1   4
HETATM    4  C8  UNL     1     -35.048  17.224  -2.122  1.00 20.00    -0.033 C 
HETATM    5  C5  UNL     1     -35.924  18.462  -1.817  1.00 20.00     0.018 C 
HETATM    6  C6  UNL     1     -34.598  16.633  -0.777  1.00 20.00     0.018 C 
HETATM    7  C7  UNL     1     -33.835  17.716  -2.931  1.00 20.00     0.018 C 
ENDBRANCH   1   4
BRANCH   2   8
HETATM    8  C2  UNL     1     -36.649  14.328  -4.171  1.00 20.00     0.265 C 
HETATM    9  O9  UNL     1     -37.781  14.205  -3.719  1.00 20.00    -0.302 OA
ENDBRANCH   2   8
TORSDOF 2
ENDMDL
MODEL 8
REMARK VINA RESULT:      -3.7      2.195      2.912
REMARK  2 active torsions:
REMARK  status: ('A' for Active; 'I' for Inactive)
REMARK    1  A    between atoms: C1_1  and  C8_8 
REMARK    2  A    between atoms: C2_2  and  C3_3 
ROOT
HETATM    1  C1  UNL     1     -34.512  15.401  -5.109  1.00 20.00    -0.009 C 
HETATM    2  C3  UNL     1     -34.466  14.945  -3.842  1.00 20.00    -0.027 C 
HETATM    3  C4  UNL     1     -34.561  15.713  -2.563  1.00 20.00     0.051 C 
ENDROOT
BRANCH   1   4
HETATM    4  C8  UNL     1     -34.637  16.830  -5.632  1.00 20.00    -0.033 C 
HETATM    5  C5  UNL     1     -34.542  16.787  -7.175  1.00 20.00     0.018 C 
HETATM    6  C6  UNL     1     -36.004  17.433  -5.269  1.00 20.00     0.018 C 
HETATM    7  C7  UNL     1     -33.497  17.733  -5.132  1.00 20.00     0.018 C 
ENDBRANCH   1   4
BRANCH   2   8
HETATM    8  C2  UNL     1     -34.314  13.466  -3.701  1.00 20.00     0.265 C 
HETATM    9  O9  UNL     1     -34.987  12.662  -4.335  1.00 20.00    -0.302 OA
ENDBRANCH   2   8
TORSDOF 2
ENDMDL
MODEL 9
REMARK VINA RESULT:      -3.7     11.482     12.490
REMARK  2 active torsions:
REMARK  status: ('A' for Active; 'I' for Inactive)
REMARK    1  A    between atoms: C1_1  and  C8_8 
REMARK    2  A    between atoms: C2_2  and  C3_3 
ROOT
HETATM    1  C1  UNL     1     -33.441   6.131   4.593  1.00 20.00    -0.009 C 
HETATM    2  C3  UNL     1     -32.952   6.198   3.340  1.00 20.00    -0.027 C 
HETATM    3  C4  UNL     1     -33.335   5.395   2.138  1.00 20.00     0.051 C 
ENDROOT
BRANCH   1   4
HETATM    4  C8  UNL     1     -34.501   5.206   5.184  1.00 20.00    -0.033 C 
HETATM    5  C5  UNL     1     -34.834   5.703   6.610  1.00 20.00     0.018 C 
HETATM    6  C6  UNL     1     -35.799   5.256   4.361  1.00 20.00     0.018 C 
HETATM    7  C7  UNL     1     -33.999   3.756   5.314  1.00 20.00     0.018 C 
ENDBRANCH   1   4
BRANCH   2   8
HETATM    8  C2  UNL     1     -31.889   7.225   3.122  1.00 20.00     0.265 C 
HETATM    9  O9  UNL     1     -31.945   8.065   2.232  1.00 20.00    -0.302 OA
ENDBRANCH   2   8
TORSDOF 2
ENDMDL
