MODEL 1
REMARK VINA RESULT:      -4.9      0.000      0.000
REMARK  2 active torsions:
REMARK  status: ('A' for Active; 'I' for Inactive)
REMARK    1  A    between atoms: C2_2  and  C7_7 
REMARK    2  A    between atoms: C3_3  and  C7_7 
ROOT
HETATM    1  C6  UNL     1     -35.580   5.444   3.600  1.00 20.00     0.022 C 
HETATM    2  C7  UNL     1     -34.264   5.420   4.371  1.00 20.00     0.073 C 
ENDROOT
BRANCH   2   3
HETATM    3  C2  UNL     1     -33.396   6.592   4.011  1.00 20.00    -0.019 C 
HETATM    4  C1  UNL     1     -32.701   6.676   2.867  1.00 20.00    -0.034 C 
HETATM    5  C4  UNL     1     -31.839   7.839   2.502  1.00 20.00     0.036 C 
ENDBRANCH   2   3
BRANCH   2   6
HETATM    6  C3  UNL     1     -34.514   5.489   5.874  1.00 20.00     0.130 C 
HETATM    7  C5  UNL     1     -33.933   6.674   6.606  1.00 20.00     0.091 C 
HETATM    8  O8  UNL     1     -35.123   4.608   6.482  1.00 20.00    -0.298 OA
ENDBRANCH   2   6
TORSDOF 2
ENDMDL
MODEL 2
REMARK VINA RESULT:      -4.8      0.963      1.202
REMARK  2 active torsions:
REMARK  status: ('A' for Active; 'I' for Inactive)
REMARK    1  A    between atoms: C2_2  and  C7_7 
REMARK    2  A    between atoms: C3_3  and  C7_7 
ROOT
HETATM    1  C6  UNL     1     -35.527   5.421   3.643  1.00 20.00     0.022 C 
HETATM    2  C7  UNL     1     -34.173   5.534   4.338  1.00 20.00     0.073 C 
ENDROOT
BRANCH   2   3
HETATM    3  C2  UNL     1     -33.423   6.753   3.883  1.00 20.00    -0.019 C 
HETATM    4  C1  UNL     1     -32.595   6.762   2.827  1.00 20.00    -0.034 C 
HETATM    5  C4  UNL     1     -31.849   7.971   2.368  1.00 20.00     0.036 C 
ENDBRANCH   2   3
BRANCH   2   6
HETATM    6  C3  UNL     1     -34.348   5.651   5.849  1.00 20.00     0.130 C 
HETATM    7  C5  UNL     1     -35.072   4.521   6.538  1.00 20.00     0.091 C 
HETATM    8  O8  UNL     1     -33.960   6.632   6.484  1.00 20.00    -0.298 OA
ENDBRANCH   2   6
TORSDOF 2
ENDMDL
MODEL 3
REMARK VINA RESULT:      -4.2     11.547     12.339
REMARK  2 active torsions:
REMARK  status: ('A' for Active; 'I' for Inactive)
REMARK    1  A    between atoms: C2_2  and  C7_7 
REMARK    2  A    between atoms: C3_3  and  C7_7 
ROOT
HETATM    1  C6  UNL     1     -33.293  16.243  -4.679  1.00 20.00     0.022 C 
HETATM    2  C7  UNL     1     -33.319  15.362  -3.433  1.00 20.00     0.073 C 
ENDROOT
BRANCH   2   3
HETATM    3  C2  UNL     1     -34.310  15.868  -2.424  1.00 20.00    -0.019 C 
HETATM    4  C1  UNL     1     -33.991  16.712  -1.431  1.00 20.00    -0.034 C 
HETATM    5  C4  UNL     1     -34.971  17.221  -0.427  1.00 20.00     0.036 C 
ENDBRANCH   2   3
BRANCH   2   6
HETATM    6  C3  UNL     1     -33.725  13.935  -3.787  1.00 20.00     0.130 C 
HETATM    7  C5  UNL     1     -35.178  13.705  -4.120  1.00 20.00     0.091 C 
HETATM    8  O8  UNL     1     -32.926  12.998  -3.764  1.00 20.00    -0.298 OA
ENDBRANCH   2   6
TORSDOF 2
ENDMDL
MODEL 4
REMARK VINA RESULT:      -4.1      1.281      2.002
REMARK  2 active torsions:
REMARK  status: ('A' for Active; 'I' for Inactive)
REMARK    1  A    between atoms: C2_2  and  C7_7 
REMARK    2  A    between atoms: C3_3  and  C7_7 
ROOT
HETATM    1  C6  UNL     1     -33.681   6.646   6.433  1.00 20.00     0.022 C 
HETATM    2  C7  UNL     1     -34.157   6.456   4.996  1.00 20.00     0.073 C 
ENDROOT
BRANCH   2   3
HETATM    3  C2  UNL     1     -33.017   6.551   4.023  1.00 20.00    -0.019 C 
HETATM    4  C1  UNL     1     -32.884   7.544   3.131  1.00 20.00    -0.034 C 
HETATM    5  C4  UNL     1     -31.752   7.645   2.163  1.00 20.00     0.036 C 
ENDBRANCH   2   3
BRANCH   2   6
HETATM    6  C3  UNL     1     -34.794   5.082   4.812  1.00 20.00     0.130 C 
HETATM    7  C5  UNL     1     -34.942   4.232   6.049  1.00 20.00     0.091 C 
HETATM    8  O8  UNL     1     -35.136   4.657   3.709  1.00 20.00    -0.298 OA
ENDBRANCH   2   6
TORSDOF 2
ENDMDL
MODEL 5
REMARK VINA RESULT:      -4.1      1.990      3.805
REMARK  2 active torsions:
REMARK  status: ('A' for Active; 'I' for Inactive)
REMARK    1  A    between atoms: C2_2  and  C7_7 
REMARK    2  A    between atoms: C3_3  and  C7_7 
ROOT
HETATM    1  C6  UNL     1     -34.563   5.362   2.425  1.00 20.00     0.022 C 
HETATM    2  C7  UNL     1     -34.000   6.422   3.367  1.00 20.00     0.073 C 
ENDROOT
BRANCH   2   3
HETATM    3  C2  UNL     1     -34.125   6.000   4.804  1.00 20.00    -0.019 C 
HETATM    4  C1  UNL     1     -34.880   4.969   5.211  1.00 20.00    -0.034 C 
HETATM    5  C4  UNL     1     -35.006   4.543   6.636  1.00 20.00     0.036 C 
ENDBRANCH   2   3
BRANCH   2   6
HETATM    6  C3  UNL     1     -32.518   6.658   3.095  1.00 20.00     0.130 C 
HETATM    7  C5  UNL     1     -32.152   7.948   2.403  1.00 20.00     0.091 C 
HETATM    8  O8  UNL     1     -31.655   5.828   3.380  1.00 20.00    -0.298 OA
ENDBRANCH   2   6
TORSDOF 2
ENDMDL
MODEL 6
REMARK VINA RESULT:      -4.0     11.402     12.023
REMARK  2 active torsions:
REMARK  status: ('A' for Active; 'I' for Inactive)
REMARK    1  A    between atoms: C2_2  and  C7_7 
REMARK    2  A    between atoms: C3_3  and  C7_7 
ROOT
HETATM    1  C6  UNL     1     -36.900  14.844  -3.820  1.00 20.00     0.022 C 
HETATM    2  C7  UNL     1     -35.396  15.034  -3.645  1.00 20.00     0.073 C 
ENDROOT
BRANCH   2   3
HETATM    3  C2  UNL     1     -35.055  15.449  -2.243  1.00 20.00    -0.019 C 
HETATM    4  C1  UNL     1     -34.708  16.699  -1.903  1.00 20.00    -0.034 C 
HETATM    5  C4  UNL     1     -34.370  17.119  -0.511  1.00 20.00     0.036 C 
ENDBRANCH   2   3
BRANCH   2   6
HETATM    6  C3  UNL     1     -34.649  13.734  -3.926  1.00 20.00     0.130 C 
HETATM    7  C5  UNL     1     -33.163  13.738  -3.672  1.00 20.00     0.091 C 
HETATM    8  O8  UNL     1     -35.211  12.736  -4.378  1.00 20.00    -0.298 OA
ENDBRANCH   2   6
TORSDOF 2
ENDMDL
MODEL 7
REMARK VINA RESULT:      -4.0      1.438      2.439
REMARK  2 active torsions:
REMARK  status: ('A' for Active; 'I' for Inactive)
REMARK    1  A    between atoms: C2_2  and  C7_7 
REMARK    2  A    between atoms: C3_3  and  C7_7 
ROOT
HETATM    1  C6  UNL     1     -32.180   5.393   2.749  1.00 20.00     0.022 C 
HETATM    2  C7  UNL     1     -32.524   6.533   3.703  1.00 20.00     0.073 C 
ENDROOT
BRANCH   2   3
HETATM    3  C2  UNL     1     -32.776   7.814   2.959  1.00 20.00    -0.019 C 
HETATM    4  C1  UNL     1     -32.042   8.220   1.913  1.00 20.00    -0.034 C 
HETATM    5  C4  UNL     1     -32.289   9.490   1.167  1.00 20.00     0.036 C 
ENDBRANCH   2   3
BRANCH   2   6
HETATM    6  C3  UNL     1     -33.788   6.216   4.495  1.00 20.00     0.130 C 
HETATM    7  C5  UNL     1     -34.904   5.532   3.746  1.00 20.00     0.091 C 
HETATM    8  O8  UNL     1     -33.922   6.533   5.677  1.00 20.00    -0.298 OA
ENDBRANCH   2   6
TORSDOF 2
ENDMDL
MODEL 8
REMARK VINA RESULT:      -3.9     11.887     12.411
REMARK  2 active torsions:
REMARK  status: ('A' for Active; 'I' for Inactive)
REMARK    1  A    between atoms: C2_2  and  C7_7 
REMARK    2  A    between atoms: C3_3  and  C7_7 
ROOT
HETATM    1  C6  UNL     1     -33.457  16.168  -4.098  1.00 20.00     0.022 C 
HETATM    2  C7  UNL     1     -34.124  15.198  -3.127  1.00 20.00     0.073 C 
ENDROOT
BRANCH   2   3
HETATM    3  C2  UNL     1     -34.861  15.929  -2.042  1.00 20.00    -0.019 C 
HETATM    4  C1  UNL     1     -34.255  16.679  -1.109  1.00 20.00    -0.034 C 
HETATM    5  C4  UNL     1     -34.981  17.410  -0.030  1.00 20.00     0.036 C 
ENDBRANCH   2   3
BRANCH   2   6
HETATM    6  C3  UNL     1     -35.141  14.320  -3.850  1.00 20.00     0.130 C 
HETATM    7  C5  UNL     1     -34.590  13.262  -4.772  1.00 20.00     0.091 C 
HETATM    8  O8  UNL     1     -36.356  14.483  -3.731  1.00 20.00    -0.298 OA
ENDBRANCH   2   6
TORSDOF 2
ENDMDL
MODEL 9
REMARK VINA RESULT:      -3.8      1.948      3.368
REMARK  2 active torsions:
REMARK  status: ('A' for Active; 'I' for Inactive)
REMARK    1  A    between atoms: C2_2  and  C7_7 
REMARK    2  A    between atoms: C3_3  and  C7_7 
ROOT
HETATM    1  C6  UNL     1     -34.889   4.213   4.961  1.00 20.00     0.022 C 
HETATM    2  C7  UNL     1     -34.789   5.546   4.227  1.00 20.00     0.073 C 
ENDROOT
BRANCH   2   3
HETATM    3  C2  UNL     1     -34.176   6.607   5.097  1.00 20.00    -0.019 C 
HETATM    4  C1  UNL     1     -34.024   6.481   6.424  1.00 20.00    -0.034 C 
HETATM    5  C4  UNL     1     -33.413   7.529   7.293  1.00 20.00     0.036 C 
ENDBRANCH   2   3
BRANCH   2   6
HETATM    6  C3  UNL     1     -33.912   5.418   2.986  1.00 20.00     0.130 C 
HETATM    7  C5  UNL     1     -32.547   6.057   3.050  1.00 20.00     0.091 C 
HETATM    8  O8  UNL     1     -34.300   4.860   1.959  1.00 20.00    -0.298 OA
ENDBRANCH   2   6
TORSDOF 2
ENDMDL
