MODEL 1
REMARK VINA RESULT:      -4.0      0.000      0.000
REMARK  2 active torsions:
REMARK  status: ('A' for Active; 'I' for Inactive)
REMARK    1  A    between atoms: C2_2  and  C6_6 
REMARK    2  A    between atoms: C3_3  and  C7_7 
ROOT
HETATM    1  C1  UNL     1     -34.464  13.296  -4.896  1.00 20.00     0.100 C 
HETATM    2  C2  UNL     1     -35.272  14.211  -5.783  1.00 20.00     0.089 C 
HETATM    3  C3  UNL     1     -35.078  14.714  -3.248  1.00 20.00     0.168 C 
HETATM    4  N8  UNL     1     -34.324  13.506  -3.624  1.00 20.00    -0.289 NA
HETATM    5  S9  UNL     1     -36.019  15.389  -4.643  1.00 20.00    -0.132 SA
ENDROOT
BRANCH   2   6
HETATM    6  C6  UNL     1     -34.366  14.907  -6.783  1.00 20.00     0.016 C 
HETATM    7  C4  UNL     1     -34.271  16.378  -6.525  1.00 20.00     0.006 C 
ENDBRANCH   2   6
BRANCH   3   8
HETATM    8  C7  UNL     1     -34.097  15.756  -2.725  1.00 20.00     0.033 C 
HETATM    9  C5  UNL     1     -34.566  16.367  -1.444  1.00 20.00     0.008 C 
ENDBRANCH   3   8
TORSDOF 2
ENDMDL
MODEL 2
REMARK VINA RESULT:      -3.8      1.604      3.114
REMARK  2 active torsions:
REMARK  status: ('A' for Active; 'I' for Inactive)
REMARK    1  A    between atoms: C2_2  and  C6_6 
REMARK    2  A    between atoms: C3_3  and  C7_7 
ROOT
HETATM    1  C1  UNL     1     -32.716  14.767  -3.583  1.00 20.00     0.100 C 
HETATM    2  C2  UNL     1     -33.129  16.003  -4.344  1.00 20.00     0.089 C 
HETATM    3  C3  UNL     1     -34.291  13.739  -4.836  1.00 20.00     0.168 C 
HETATM    4  N8  UNL     1     -33.271  13.612  -3.780  1.00 20.00    -0.289 NA
HETATM    5  S9  UNL     1     -34.316  15.402  -5.559  1.00 20.00    -0.132 SA
ENDROOT
BRANCH   2   6
HETATM    6  C6  UNL     1     -33.763  17.011  -3.402  1.00 20.00     0.016 C 
HETATM    7  C4  UNL     1     -34.032  16.426  -2.052  1.00 20.00     0.006 C 
ENDBRANCH   2   6
BRANCH   3   8
HETATM    8  C7  UNL     1     -35.652  13.408  -4.240  1.00 20.00     0.033 C 
HETATM    9  C5  UNL     1     -36.562  14.594  -4.237  1.00 20.00     0.008 C 
ENDBRANCH   3   8
TORSDOF 2
ENDMDL
MODEL 3
REMARK VINA RESULT:      -3.8      1.946      2.657
REMARK  2 active torsions:
REMARK  status: ('A' for Active; 'I' for Inactive)
REMARK    1  A    between atoms: C2_2  and  C6_6 
REMARK    2  A    between atoms: C3_3  and  C7_7 
ROOT
HETATM    1  C1  UNL     1     -34.876  16.659  -5.068  1.00 20.00     0.100 C 
HETATM    2  C2  UNL     1     -34.064  15.404  -5.279  1.00 20.00     0.089 C 
HETATM    3  C3  UNL     1     -33.990  16.618  -2.990  1.00 20.00     0.168 C 
HETATM    4  N8  UNL     1     -34.886  17.300  -3.941  1.00 20.00    -0.289 NA
HETATM    5  S9  UNL     1     -33.113  15.231  -3.759  1.00 20.00    -0.132 SA
ENDROOT
BRANCH   2   6
HETATM    6  C6  UNL     1     -34.982  14.215  -5.497  1.00 20.00     0.016 C 
HETATM    7  C4  UNL     1     -35.039  13.323  -4.296  1.00 20.00     0.006 C 
ENDBRANCH   2   6
BRANCH   3   8
HETATM    8  C7  UNL     1     -34.818  16.125  -1.811  1.00 20.00     0.033 C 
HETATM    9  C5  UNL     1     -34.527  16.898  -0.565  1.00 20.00     0.008 C 
ENDBRANCH   3   8
TORSDOF 2
ENDMDL
MODEL 4
REMARK VINA RESULT:      -3.7      1.389      3.894
REMARK  2 active torsions:
REMARK  status: ('A' for Active; 'I' for Inactive)
REMARK    1  A    between atoms: C2_2  and  C6_6 
REMARK    2  A    between atoms: C3_3  and  C7_7 
ROOT
HETATM    1  C1  UNL     1     -34.306  13.815  -3.565  1.00 20.00     0.100 C 
HETATM    2  C2  UNL     1     -33.970  15.263  -3.299  1.00 20.00     0.089 C 
HETATM    3  C3  UNL     1     -34.373  14.458  -5.730  1.00 20.00     0.168 C 
HETATM    4  N8  UNL     1     -34.528  13.361  -4.758  1.00 20.00    -0.289 NA
HETATM    5  S9  UNL     1     -33.811  15.989  -4.940  1.00 20.00    -0.132 SA
ENDROOT
BRANCH   2   6
HETATM    6  C6  UNL     1     -35.084  15.923  -2.507  1.00 20.00     0.016 C 
HETATM    7  C4  UNL     1     -34.605  16.433  -1.184  1.00 20.00     0.006 C 
ENDBRANCH   2   6
BRANCH   3   8
HETATM    8  C7  UNL     1     -35.710  14.686  -6.423  1.00 20.00     0.033 C 
HETATM    9  C5  UNL     1     -35.595  14.560  -7.908  1.00 20.00     0.008 C 
ENDBRANCH   3   8
TORSDOF 2
ENDMDL
MODEL 5
REMARK VINA RESULT:      -3.7      1.648      3.835
REMARK  2 active torsions:
REMARK  status: ('A' for Active; 'I' for Inactive)
REMARK    1  A    between atoms: C2_2  and  C6_6 
REMARK    2  A    between atoms: C3_3  and  C7_7 
ROOT
HETATM    1  C1  UNL     1     -33.555  17.028  -4.472  1.00 20.00     0.100 C 
HETATM    2  C2  UNL     1     -34.550  16.963  -3.340  1.00 20.00     0.089 C 
HETATM    3  C3  UNL     1     -34.942  15.557  -5.482  1.00 20.00     0.168 C 
HETATM    4  N8  UNL     1     -33.695  16.338  -5.561  1.00 20.00    -0.289 NA
HETATM    5  S9  UNL     1     -35.882  15.931  -3.978  1.00 20.00    -0.132 SA
ENDROOT
BRANCH   2   6
HETATM    6  C6  UNL     1     -33.909  16.343  -2.111  1.00 20.00     0.016 C 
HETATM    7  C4  UNL     1     -34.612  16.739  -0.851  1.00 20.00     0.006 C 
ENDBRANCH   2   6
BRANCH   3   8
HETATM    8  C7  UNL     1     -34.592  14.076  -5.525  1.00 20.00     0.033 C 
HETATM    9  C5  UNL     1     -35.022  13.366  -4.282  1.00 20.00     0.008 C 
ENDBRANCH   3   8
TORSDOF 2
ENDMDL
MODEL 6
REMARK VINA RESULT:      -3.7      1.907      2.545
REMARK  2 active torsions:
REMARK  status: ('A' for Active; 'I' for Inactive)
REMARK    1  A    between atoms: C2_2  and  C6_6 
REMARK    2  A    between atoms: C3_3  and  C7_7 
ROOT
HETATM    1  C1  UNL     1     -36.016  15.484  -3.954  1.00 20.00     0.100 C 
HETATM    2  C2  UNL     1     -34.915  15.072  -4.900  1.00 20.00     0.089 C 
HETATM    3  C3  UNL     1     -34.508  16.992  -3.207  1.00 20.00     0.168 C 
HETATM    4  N8  UNL     1     -35.864  16.429  -3.080  1.00 20.00    -0.289 NA
HETATM    5  S9  UNL     1     -33.599  16.265  -4.597  1.00 20.00    -0.132 SA
ENDROOT
BRANCH   2   6
HETATM    6  C6  UNL     1     -34.460  13.656  -4.591  1.00 20.00     0.016 C 
HETATM    7  C4  UNL     1     -33.243  13.636  -3.721  1.00 20.00     0.006 C 
ENDBRANCH   2   6
BRANCH   3   8
HETATM    8  C7  UNL     1     -33.756  16.747  -1.905  1.00 20.00     0.033 C 
HETATM    9  C5  UNL     1     -34.678  16.711  -0.729  1.00 20.00     0.008 C 
ENDBRANCH   3   8
TORSDOF 2
ENDMDL
MODEL 7
REMARK VINA RESULT:      -3.7      1.779      2.420
REMARK  2 active torsions:
REMARK  status: ('A' for Active; 'I' for Inactive)
REMARK    1  A    between atoms: C2_2  and  C6_6 
REMARK    2  A    between atoms: C3_3  and  C7_7 
ROOT
HETATM    1  C1  UNL     1     -33.883  15.823  -5.666  1.00 20.00     0.100 C 
HETATM    2  C2  UNL     1     -34.796  14.688  -5.271  1.00 20.00     0.089 C 
HETATM    3  C3  UNL     1     -33.155  15.688  -3.531  1.00 20.00     0.168 C 
HETATM    4  N8  UNL     1     -33.052  16.368  -4.834  1.00 20.00    -0.289 NA
HETATM    5  S9  UNL     1     -34.291  14.277  -3.591  1.00 20.00    -0.132 SA
ENDROOT
BRANCH   2   6
HETATM    6  C6  UNL     1     -36.245  15.139  -5.318  1.00 20.00     0.016 C 
HETATM    7  C4  UNL     1     -37.030  14.628  -4.151  1.00 20.00     0.006 C 
ENDBRANCH   2   6
BRANCH   3   8
HETATM    8  C7  UNL     1     -33.628  16.697  -2.493  1.00 20.00     0.033 C 
HETATM    9  C5  UNL     1     -34.731  16.148  -1.646  1.00 20.00     0.008 C 
ENDBRANCH   3   8
TORSDOF 2
ENDMDL
MODEL 8
REMARK VINA RESULT:      -3.7      1.447      3.984
REMARK  2 active torsions:
REMARK  status: ('A' for Active; 'I' for Inactive)
REMARK    1  A    between atoms: C2_2  and  C6_6 
REMARK    2  A    between atoms: C3_3  and  C7_7 
ROOT
HETATM    1  C1  UNL     1     -36.062  15.177  -3.574  1.00 20.00     0.100 C 
HETATM    2  C2  UNL     1     -34.770  14.886  -2.851  1.00 20.00     0.089 C 
HETATM    3  C3  UNL     1     -35.068  14.127  -5.311  1.00 20.00     0.168 C 
HETATM    4  N8  UNL     1     -36.261  14.830  -4.808  1.00 20.00    -0.289 NA
HETATM    5  S9  UNL     1     -33.824  13.887  -4.014  1.00 20.00    -0.132 SA
ENDROOT
BRANCH   2   6
HETATM    6  C6  UNL     1     -34.051  16.182  -2.521  1.00 20.00     0.016 C 
HETATM    7  C4  UNL     1     -34.399  16.686  -1.156  1.00 20.00     0.006 C 
ENDBRANCH   2   6
BRANCH   3   8
HETATM    8  C7  UNL     1     -34.478  14.933  -6.460  1.00 20.00     0.033 C 
HETATM    9  C5  UNL     1     -35.176  14.654  -7.752  1.00 20.00     0.008 C 
ENDBRANCH   3   8
TORSDOF 2
ENDMDL
MODEL 9
REMARK VINA RESULT:      -3.5      1.718      3.785
REMARK  2 active torsions:
REMARK  status: ('A' for Active; 'I' for Inactive)
REMARK    1  A    between atoms: C2_2  and  C6_6 
REMARK    2  A    between atoms: C3_3  and  C7_7 
ROOT
HETATM    1  C1  UNL     1     -33.300  16.238  -4.086  1.00 20.00     0.100 C 
HETATM    2  C2  UNL     1     -34.659  15.808  -3.592  1.00 20.00     0.089 C 
HETATM    3  C3  UNL     1     -34.379  16.648  -6.028  1.00 20.00     0.168 C 
HETATM    4  N8  UNL     1     -33.100  16.655  -5.297  1.00 20.00    -0.289 NA
HETATM    5  S9  UNL     1     -35.770  16.191  -4.958  1.00 20.00    -0.132 SA
ENDROOT
BRANCH   2   6
HETATM    6  C6  UNL     1     -34.658  14.323  -3.279  1.00 20.00     0.016 C 
HETATM    7  C4  UNL     1     -33.426  13.643  -3.788  1.00 20.00     0.006 C 
ENDBRANCH   2   6
BRANCH   3   8
HETATM    8  C7  UNL     1     -34.269  15.669  -7.190  1.00 20.00     0.033 C 
HETATM    9  C5  UNL     1     -35.217  14.523  -7.043  1.00 20.00     0.008 C 
ENDBRANCH   3   8
TORSDOF 2
ENDMDL
