MODEL 1
REMARK VINA RESULT:      -5.3      0.000      0.000
REMARK  2 active torsions:
REMARK  status: ('A' for Active; 'I' for Inactive)
REMARK    1  A    between atoms: C2_2  and  C3_3 
REMARK    2  A    between atoms: C4_4  and  C5_5 
ROOT
HETATM    1  C1  UNL     1     -34.801   5.023   4.012  1.00 20.00    -0.020 C 
HETATM    2  C2  UNL     1     -34.177   6.179   4.266  1.00 20.00    -0.062 C 
HETATM    3  C6  UNL     1     -35.098   4.270   5.266  1.00 20.00     0.028 C 
HETATM    4  C7  UNL     1     -33.959   6.382   5.731  1.00 20.00     0.038 C 
HETATM    5  C8  UNL     1     -34.246   4.994   6.307  1.00 20.00     0.008 C 
ENDROOT
BRANCH   2   6
HETATM    6  C3  UNL     1     -33.767   7.148   3.300  1.00 20.00     0.010 C 
HETATM    7  C4  UNL     1     -32.486   7.330   2.939  1.00 20.00     0.050 C 
BRANCH   7   8
HETATM    8  C5  UNL     1     -32.120   8.358   1.924  1.00 20.00     0.145 C 
HETATM    9  C9  UNL     1     -32.747   9.718   2.083  1.00 20.00     0.096 C 
HETATM   10  O10 UNL     1     -31.329   8.125   1.013  1.00 20.00    -0.294 OA
ENDBRANCH   7   8
ENDBRANCH   2   6
TORSDOF 2
ENDMDL
MODEL 2
REMARK VINA RESULT:      -4.8     10.962     11.711
REMARK  2 active torsions:
REMARK  status: ('A' for Active; 'I' for Inactive)
REMARK    1  A    between atoms: C2_2  and  C3_3 
REMARK    2  A    between atoms: C4_4  and  C5_5 
ROOT
HETATM    1  C1  UNL     1     -34.791  16.661  -0.462  1.00 20.00    -0.020 C 
HETATM    2  C2  UNL     1     -34.478  16.578  -1.760  1.00 20.00    -0.062 C 
HETATM    3  C6  UNL     1     -34.201  17.876   0.171  1.00 20.00     0.028 C 
HETATM    4  C7  UNL     1     -33.629  17.727  -2.202  1.00 20.00     0.038 C 
HETATM    5  C8  UNL     1     -33.189  18.345  -0.873  1.00 20.00     0.008 C 
ENDROOT
BRANCH   2   6
HETATM    6  C3  UNL     1     -34.894  15.554  -2.666  1.00 20.00     0.010 C 
HETATM    7  C4  UNL     1     -34.067  14.977  -3.554  1.00 20.00     0.050 C 
BRANCH   7   8
HETATM    8  C5  UNL     1     -34.560  13.913  -4.472  1.00 20.00     0.145 C 
HETATM    9  C9  UNL     1     -34.695  14.284  -5.926  1.00 20.00     0.096 C 
HETATM   10  O10 UNL     1     -34.822  12.779  -4.079  1.00 20.00    -0.294 OA
ENDBRANCH   7   8
ENDBRANCH   2   6
TORSDOF 2
ENDMDL
MODEL 3
REMARK VINA RESULT:      -4.7     10.687     11.743
REMARK  2 active torsions:
REMARK  status: ('A' for Active; 'I' for Inactive)
REMARK    1  A    between atoms: C2_2  and  C3_3 
REMARK    2  A    between atoms: C4_4  and  C5_5 
ROOT
HETATM    1  C1  UNL     1     -34.303  13.873  -3.532  1.00 20.00    -0.020 C 
HETATM    2  C2  UNL     1     -34.037  15.172  -3.701  1.00 20.00    -0.062 C 
HETATM    3  C6  UNL     1     -34.534  13.182  -4.834  1.00 20.00     0.028 C 
HETATM    4  C7  UNL     1     -34.046  15.557  -5.146  1.00 20.00     0.038 C 
HETATM    5  C8  UNL     1     -34.703  14.346  -5.810  1.00 20.00     0.008 C 
ENDROOT
BRANCH   2   6
HETATM    6  C3  UNL     1     -33.750  16.118  -2.669  1.00 20.00     0.010 C 
HETATM    7  C4  UNL     1     -34.525  16.279  -1.584  1.00 20.00     0.050 C 
BRANCH   7   8
HETATM    8  C5  UNL     1     -34.173  17.283  -0.540  1.00 20.00     0.145 C 
HETATM    9  C9  UNL     1     -35.131  17.424   0.613  1.00 20.00     0.096 C 
HETATM   10  O10 UNL     1     -33.142  17.950  -0.596  1.00 20.00    -0.294 OA
ENDBRANCH   7   8
ENDBRANCH   2   6
TORSDOF 2
ENDMDL
MODEL 4
REMARK VINA RESULT:      -4.7     10.850     11.617
REMARK  2 active torsions:
REMARK  status: ('A' for Active; 'I' for Inactive)
REMARK    1  A    between atoms: C2_2  and  C3_3 
REMARK    2  A    between atoms: C4_4  and  C5_5 
ROOT
HETATM    1  C1  UNL     1     -33.396  17.522  -1.642  1.00 20.00    -0.020 C 
HETATM    2  C2  UNL     1     -34.452  16.748  -1.368  1.00 20.00    -0.062 C 
HETATM    3  C6  UNL     1     -33.000  18.351  -0.466  1.00 20.00     0.028 C 
HETATM    4  C7  UNL     1     -34.928  16.936   0.037  1.00 20.00     0.038 C 
HETATM    5  C8  UNL     1     -34.199  18.210   0.469  1.00 20.00     0.008 C 
ENDROOT
BRANCH   2   6
HETATM    6  C3  UNL     1     -35.076  15.823  -2.260  1.00 20.00     0.010 C 
HETATM    7  C4  UNL     1     -34.386  15.002  -3.069  1.00 20.00     0.050 C 
BRANCH   7   8
HETATM    8  C5  UNL     1     -35.094  14.058  -3.978  1.00 20.00     0.145 C 
HETATM    9  C9  UNL     1     -36.155  14.647  -4.872  1.00 20.00     0.096 C 
HETATM   10  O10 UNL     1     -34.817  12.862  -4.023  1.00 20.00    -0.294 OA
ENDBRANCH   7   8
ENDBRANCH   2   6
TORSDOF 2
ENDMDL
MODEL 5
REMARK VINA RESULT:      -4.6     11.006     11.499
REMARK  2 active torsions:
REMARK  status: ('A' for Active; 'I' for Inactive)
REMARK    1  A    between atoms: C2_2  and  C3_3 
REMARK    2  A    between atoms: C4_4  and  C5_5 
ROOT
HETATM    1  C1  UNL     1     -33.453  14.503  -3.529  1.00 20.00    -0.020 C 
HETATM    2  C2  UNL     1     -34.350  15.340  -2.995  1.00 20.00    -0.062 C 
HETATM    3  C6  UNL     1     -34.094  13.525  -4.456  1.00 20.00     0.028 C 
HETATM    4  C7  UNL     1     -35.734  15.055  -3.483  1.00 20.00     0.038 C 
HETATM    5  C8  UNL     1     -35.580  13.682  -4.139  1.00 20.00     0.008 C 
ENDROOT
BRANCH   2   6
HETATM    6  C3  UNL     1     -34.073  16.405  -2.084  1.00 20.00     0.010 C 
HETATM    7  C4  UNL     1     -34.670  16.523  -0.887  1.00 20.00     0.050 C 
BRANCH   7   8
HETATM    8  C5  UNL     1     -34.339  17.658   0.020  1.00 20.00     0.145 C 
HETATM    9  C9  UNL     1     -33.042  18.377  -0.243  1.00 20.00     0.096 C 
HETATM   10  O10 UNL     1     -35.092  18.015   0.923  1.00 20.00    -0.294 OA
ENDBRANCH   7   8
ENDBRANCH   2   6
TORSDOF 2
ENDMDL
MODEL 6
REMARK VINA RESULT:      -4.6     10.767     11.652
REMARK  2 active torsions:
REMARK  status: ('A' for Active; 'I' for Inactive)
REMARK    1  A    between atoms: C2_2  and  C3_3 
REMARK    2  A    between atoms: C4_4  and  C5_5 
ROOT
HETATM    1  C1  UNL     1     -34.974  17.495   0.731  1.00 20.00    -0.020 C 
HETATM    2  C2  UNL     1     -34.407  17.230  -0.451  1.00 20.00    -0.062 C 
HETATM    3  C6  UNL     1     -34.272  18.602   1.444  1.00 20.00     0.028 C 
HETATM    4  C7  UNL     1     -33.235  18.119  -0.717  1.00 20.00     0.038 C 
HETATM    5  C8  UNL     1     -32.970  18.741   0.656  1.00 20.00     0.008 C 
ENDROOT
BRANCH   2   6
HETATM    6  C3  UNL     1     -34.838  16.246  -1.393  1.00 20.00     0.010 C 
HETATM    7  C4  UNL     1     -34.079  15.830  -2.421  1.00 20.00     0.050 C 
BRANCH   7   8
HETATM    8  C5  UNL     1     -34.585  14.799  -3.371  1.00 20.00     0.145 C 
HETATM    9  C9  UNL     1     -33.583  13.792  -3.873  1.00 20.00     0.096 C 
HETATM   10  O10 UNL     1     -35.764  14.748  -3.714  1.00 20.00    -0.294 OA
ENDBRANCH   7   8
ENDBRANCH   2   6
TORSDOF 2
ENDMDL
MODEL 7
REMARK VINA RESULT:      -4.5     10.091     11.382
REMARK  2 active torsions:
REMARK  status: ('A' for Active; 'I' for Inactive)
REMARK    1  A    between atoms: C2_2  and  C3_3 
REMARK    2  A    between atoms: C4_4  and  C5_5 
ROOT
HETATM    1  C1  UNL     1     -41.939   6.182  -2.162  1.00 20.00    -0.020 C 
HETATM    2  C2  UNL     1     -41.688   4.883  -1.964  1.00 20.00    -0.062 C 
HETATM    3  C6  UNL     1     -41.186   7.042  -1.203  1.00 20.00     0.028 C 
HETATM    4  C7  UNL     1     -40.726   4.668  -0.840  1.00 20.00     0.038 C 
HETATM    5  C8  UNL     1     -40.696   6.038  -0.160  1.00 20.00     0.008 C 
ENDROOT
BRANCH   2   6
HETATM    6  C3  UNL     1     -42.228   3.794  -2.716  1.00 20.00     0.010 C 
HETATM    7  C4  UNL     1     -41.500   2.732  -3.098  1.00 20.00     0.050 C 
BRANCH   7   8
HETATM    8  C5  UNL     1     -42.120   1.626  -3.881  1.00 20.00     0.145 C 
HETATM    9  C9  UNL     1     -42.822   0.551  -3.093  1.00 20.00     0.096 C 
HETATM   10  O10 UNL     1     -42.089   1.597  -5.109  1.00 20.00    -0.294 OA
ENDBRANCH   7   8
ENDBRANCH   2   6
TORSDOF 2
ENDMDL
MODEL 8
REMARK VINA RESULT:      -4.3     10.185     11.306
REMARK  2 active torsions:
REMARK  status: ('A' for Active; 'I' for Inactive)
REMARK    1  A    between atoms: C2_2  and  C3_3 
REMARK    2  A    between atoms: C4_4  and  C5_5 
ROOT
HETATM    1  C1  UNL     1     -43.154   1.602  -2.615  1.00 20.00    -0.020 C 
HETATM    2  C2  UNL     1     -42.190   2.443  -3.004  1.00 20.00    -0.062 C 
HETATM    3  C6  UNL     1     -42.951   0.233  -3.174  1.00 20.00     0.028 C 
HETATM    4  C7  UNL     1     -41.187   1.768  -3.884  1.00 20.00     0.038 C 
HETATM    5  C8  UNL     1     -41.890   0.459  -4.249  1.00 20.00     0.008 C 
ENDROOT
BRANCH   2   6
HETATM    6  C3  UNL     1     -42.070   3.818  -2.637  1.00 20.00     0.010 C 
HETATM    7  C4  UNL     1     -41.216   4.257  -1.697  1.00 20.00     0.050 C 
BRANCH   7   8
HETATM    8  C5  UNL     1     -41.137   5.706  -1.359  1.00 20.00     0.145 C 
HETATM    9  C9  UNL     1     -40.768   6.050   0.060  1.00 20.00     0.096 C 
HETATM   10  O10 UNL     1     -41.337   6.585  -2.194  1.00 20.00    -0.294 OA
ENDBRANCH   7   8
ENDBRANCH   2   6
TORSDOF 2
ENDMDL
MODEL 9
REMARK VINA RESULT:      -4.1      2.191      5.043
REMARK  2 active torsions:
REMARK  status: ('A' for Active; 'I' for Inactive)
REMARK    1  A    between atoms: C2_2  and  C3_3 
REMARK    2  A    between atoms: C4_4  and  C5_5 
ROOT
HETATM    1  C1  UNL     1     -31.774   7.397   1.444  1.00 20.00    -0.020 C 
HETATM    2  C2  UNL     1     -32.459   7.629   2.570  1.00 20.00    -0.062 C 
HETATM    3  C6  UNL     1     -31.500   8.659   0.696  1.00 20.00     0.028 C 
HETATM    4  C7  UNL     1     -32.750   9.084   2.753  1.00 20.00     0.038 C 
HETATM    5  C8  UNL     1     -32.427   9.665   1.375  1.00 20.00     0.008 C 
ENDROOT
BRANCH   2   6
HETATM    6  C3  UNL     1     -32.870   6.650   3.526  1.00 20.00     0.010 C 
HETATM    7  C4  UNL     1     -34.145   6.493   3.917  1.00 20.00     0.050 C 
BRANCH   7   8
HETATM    8  C5  UNL     1     -34.511   5.452   4.919  1.00 20.00     0.145 C 
HETATM    9  C9  UNL     1     -34.346   5.823   6.369  1.00 20.00     0.096 C 
HETATM   10  O10 UNL     1     -34.950   4.353   4.589  1.00 20.00    -0.294 OA
ENDBRANCH   7   8
ENDBRANCH   2   6
TORSDOF 2
ENDMDL
