MODEL 1
REMARK VINA RESULT:      -4.8      0.000      0.000
REMARK  3 active torsions:
REMARK  status: ('A' for Active; 'I' for Inactive)
REMARK    1  A    between atoms: C1_1  and  C5_5 
REMARK    2  A    between atoms: C6_6  and  C8_8 
REMARK    3  A    between atoms: C8_8  and  C9_9 
ROOT
HETATM    1  C2  UNL     1     -35.222  15.084  -2.933  1.00 20.00     0.028 C 
HETATM    2  C3  UNL     1     -34.332  16.342  -4.398  1.00 20.00     0.028 C 
HETATM    3  C4  UNL     1     -33.136  14.950  -3.322  1.00 20.00     0.028 C 
HETATM    4  C5  UNL     1     -34.395  14.806  -4.213  1.00 20.00     0.038 C 
HETATM    5  C6  UNL     1     -34.055  16.151  -2.851  1.00 20.00    -0.037 C 
ENDROOT
BRANCH   4   6
HETATM    6  C1  UNL     1     -34.658  13.778  -5.255  1.00 20.00     0.227 C 
HETATM    7  O10 UNL     1     -34.756  12.587  -4.976  1.00 20.00    -0.279 OA
HETATM    8 CL11 UNL     1     -34.796  14.474  -6.841  1.00 20.00    -0.043 Cl
ENDBRANCH   4   6
BRANCH   5   9
HETATM    9  C8  UNL     1     -33.796  17.174  -1.815  1.00 20.00     0.009 C 
BRANCH   9  10
HETATM   10  C9  UNL     1     -34.579  16.920  -0.510  1.00 20.00    -0.004 C 
HETATM   11  C7  UNL     1     -34.304  17.964   0.559  1.00 20.00     0.005 C 
ENDBRANCH   9  10
ENDBRANCH   5   9
TORSDOF 3
ENDMDL
MODEL 2
REMARK VINA RESULT:      -4.8      0.121      1.111
REMARK  3 active torsions:
REMARK  status: ('A' for Active; 'I' for Inactive)
REMARK    1  A    between atoms: C1_1  and  C5_5 
REMARK    2  A    between atoms: C6_6  and  C8_8 
REMARK    3  A    between atoms: C8_8  and  C9_9 
ROOT
HETATM    1  C2  UNL     1     -34.354  16.286  -4.474  1.00 20.00     0.028 C 
HETATM    2  C3  UNL     1     -33.129  14.901  -3.424  1.00 20.00     0.028 C 
HETATM    3  C4  UNL     1     -35.200  15.050  -2.965  1.00 20.00     0.028 C 
HETATM    4  C5  UNL     1     -34.419  14.752  -4.269  1.00 20.00     0.038 C 
HETATM    5  C6  UNL     1     -34.024  16.111  -2.935  1.00 20.00    -0.037 C 
ENDROOT
BRANCH   4   6
HETATM    6  C1  UNL     1     -34.718  13.714  -5.290  1.00 20.00     0.227 C 
HETATM    7  O10 UNL     1     -34.752  12.520  -5.005  1.00 20.00    -0.279 OA
HETATM    8 CL11 UNL     1     -34.994  14.401  -6.861  1.00 20.00    -0.043 Cl
ENDBRANCH   4   6
BRANCH   5   9
HETATM    9  C8  UNL     1     -33.725  17.145  -1.921  1.00 20.00     0.009 C 
BRANCH   9  10
HETATM   10  C9  UNL     1     -34.493  16.930  -0.600  1.00 20.00    -0.004 C 
HETATM   11  C7  UNL     1     -34.196  18.000   0.439  1.00 20.00     0.005 C 
ENDBRANCH   9  10
ENDBRANCH   5   9
TORSDOF 3
ENDMDL
MODEL 3
REMARK VINA RESULT:      -4.5     11.264     11.912
REMARK  3 active torsions:
REMARK  status: ('A' for Active; 'I' for Inactive)
REMARK    1  A    between atoms: C1_1  and  C5_5 
REMARK    2  A    between atoms: C6_6  and  C8_8 
REMARK    3  A    between atoms: C8_8  and  C9_9 
ROOT
HETATM    1  C2  UNL     1     -32.609   5.401   3.259  1.00 20.00     0.028 C 
HETATM    2  C3  UNL     1     -32.864   6.971   4.670  1.00 20.00     0.028 C 
HETATM    3  C4  UNL     1     -34.215   6.776   3.039  1.00 20.00     0.028 C 
HETATM    4  C5  UNL     1     -33.780   5.823   4.180  1.00 20.00     0.038 C 
HETATM    5  C6  UNL     1     -32.645   6.976   3.102  1.00 20.00    -0.037 C 
ENDROOT
BRANCH   4   6
HETATM    6  C1  UNL     1     -34.647   4.940   5.006  1.00 20.00     0.227 C 
HETATM    7  O10 UNL     1     -35.196   3.950   4.532  1.00 20.00    -0.279 OA
HETATM    8 CL11 UNL     1     -34.762   5.489   6.650  1.00 20.00    -0.043 Cl
ENDBRANCH   4   6
BRANCH   5   9
HETATM    9  C8  UNL     1     -31.781   7.853   2.282  1.00 20.00     0.009 C 
BRANCH   9  10
HETATM   10  C9  UNL     1     -32.503   9.130   1.805  1.00 20.00    -0.004 C 
HETATM   11  C7  UNL     1     -32.497   9.285   0.293  1.00 20.00     0.005 C 
ENDBRANCH   9  10
ENDBRANCH   5   9
TORSDOF 3
ENDMDL
MODEL 4
REMARK VINA RESULT:      -4.2      3.069      5.046
REMARK  3 active torsions:
REMARK  status: ('A' for Active; 'I' for Inactive)
REMARK    1  A    between atoms: C1_1  and  C5_5 
REMARK    2  A    between atoms: C6_6  and  C8_8 
REMARK    3  A    between atoms: C8_8  and  C9_9 
ROOT
HETATM    1  C2  UNL     1     -34.410  16.665  -4.475  1.00 20.00     0.028 C 
HETATM    2  C3  UNL     1     -35.204  15.228  -3.123  1.00 20.00     0.028 C 
HETATM    3  C4  UNL     1     -33.111  15.300  -3.490  1.00 20.00     0.028 C 
HETATM    4  C5  UNL     1     -34.139  16.343  -2.985  1.00 20.00     0.038 C 
HETATM    5  C6  UNL     1     -34.352  15.083  -4.450  1.00 20.00    -0.037 C 
ENDROOT
BRANCH   4   6
HETATM    6  C1  UNL     1     -33.978  17.308  -1.864  1.00 20.00     0.227 C 
HETATM    7  O10 UNL     1     -33.402  18.381  -2.015  1.00 20.00    -0.279 OA
HETATM    8 CL11 UNL     1     -34.687  16.723  -0.390  1.00 20.00    -0.043 Cl
ENDBRANCH   4   6
BRANCH   5   9
HETATM    9  C8  UNL     1     -34.514  14.124  -5.564  1.00 20.00     0.009 C 
BRANCH   9  10
HETATM   10  C9  UNL     1     -34.598  14.813  -6.942  1.00 20.00    -0.004 C 
HETATM   11  C7  UNL     1     -36.004  14.813  -7.520  1.00 20.00     0.005 C 
ENDBRANCH   9  10
ENDBRANCH   5   9
TORSDOF 3
ENDMDL
MODEL 5
REMARK VINA RESULT:      -4.2     12.568     14.329
REMARK  3 active torsions:
REMARK  status: ('A' for Active; 'I' for Inactive)
REMARK    1  A    between atoms: C1_1  and  C5_5 
REMARK    2  A    between atoms: C6_6  and  C8_8 
REMARK    3  A    between atoms: C8_8  and  C9_9 
ROOT
HETATM    1  C2  UNL     1     -40.752   4.008  -1.759  1.00 20.00     0.028 C 
HETATM    2  C3  UNL     1     -42.329   5.123  -2.648  1.00 20.00     0.028 C 
HETATM    3  C4  UNL     1     -42.645   4.124  -0.798  1.00 20.00     0.028 C 
HETATM    4  C5  UNL     1     -41.625   5.190  -1.271  1.00 20.00     0.038 C 
HETATM    5  C6  UNL     1     -42.209   3.601  -2.228  1.00 20.00    -0.037 C 
ENDROOT
BRANCH   4   6
HETATM    6  C1  UNL     1     -41.177   6.406  -0.541  1.00 20.00     0.227 C 
HETATM    7  O10 UNL     1     -40.370   6.344   0.382  1.00 20.00    -0.279 OA
HETATM    8 CL11 UNL     1     -41.926   7.849  -1.153  1.00 20.00    -0.043 Cl
ENDBRANCH   4   6
BRANCH   5   9
HETATM    9  C8  UNL     1     -42.653   2.393  -2.955  1.00 20.00     0.009 C 
BRANCH   9  10
HETATM   10  C9  UNL     1     -41.552   1.795  -3.855  1.00 20.00    -0.004 C 
HETATM   11  C7  UNL     1     -41.638   0.281  -3.970  1.00 20.00     0.005 C 
ENDBRANCH   9  10
ENDBRANCH   5   9
TORSDOF 3
ENDMDL
MODEL 6
REMARK VINA RESULT:      -4.1      3.409      4.382
REMARK  3 active torsions:
REMARK  status: ('A' for Active; 'I' for Inactive)
REMARK    1  A    between atoms: C1_1  and  C5_5 
REMARK    2  A    between atoms: C6_6  and  C8_8 
REMARK    3  A    between atoms: C8_8  and  C9_9 
ROOT
HETATM    1  C2  UNL     1     -33.693  15.934  -5.754  1.00 20.00     0.028 C 
HETATM    2  C3  UNL     1     -35.793  15.618  -5.639  1.00 20.00     0.028 C 
HETATM    3  C4  UNL     1     -34.638  14.575  -7.088  1.00 20.00     0.028 C 
HETATM    4  C5  UNL     1     -34.569  14.674  -5.544  1.00 20.00     0.038 C 
HETATM    5  C6  UNL     1     -34.855  16.119  -6.813  1.00 20.00    -0.037 C 
ENDROOT
BRANCH   4   6
HETATM    6  C1  UNL     1     -34.351  13.571  -4.571  1.00 20.00     0.227 C 
HETATM    7  O10 UNL     1     -35.122  12.619  -4.492  1.00 20.00    -0.279 OA
HETATM    8 CL11 UNL     1     -32.922  13.815  -3.614  1.00 20.00    -0.043 Cl
ENDBRANCH   4   6
BRANCH   5   9
HETATM    9  C8  UNL     1     -35.073  17.218  -7.778  1.00 20.00     0.009 C 
BRANCH   9  10
HETATM   10  C9  UNL     1     -35.036  18.613  -7.120  1.00 20.00    -0.004 C 
HETATM   11  C7  UNL     1     -33.661  19.260  -7.180  1.00 20.00     0.005 C 
ENDBRANCH   9  10
ENDBRANCH   5   9
TORSDOF 3
ENDMDL
MODEL 7
REMARK VINA RESULT:      -4.1     11.621     12.228
REMARK  3 active torsions:
REMARK  status: ('A' for Active; 'I' for Inactive)
REMARK    1  A    between atoms: C1_1  and  C5_5 
REMARK    2  A    between atoms: C6_6  and  C8_8 
REMARK    3  A    between atoms: C8_8  and  C9_9 
ROOT
HETATM    1  C2  UNL     1     -33.276   6.481   4.803  1.00 20.00     0.028 C 
HETATM    2  C3  UNL     1     -33.065   5.447   2.957  1.00 20.00     0.028 C 
HETATM    3  C4  UNL     1     -34.359   7.129   3.092  1.00 20.00     0.028 C 
HETATM    4  C5  UNL     1     -32.851   6.921   3.380  1.00 20.00     0.038 C 
HETATM    5  C6  UNL     1     -34.324   5.749   3.869  1.00 20.00    -0.037 C 
ENDROOT
BRANCH   4   6
HETATM    6  C1  UNL     1     -31.723   7.816   3.008  1.00 20.00     0.227 C 
HETATM    7  O10 UNL     1     -30.793   8.035   3.778  1.00 20.00    -0.279 OA
HETATM    8 CL11 UNL     1     -31.908   8.472   1.410  1.00 20.00    -0.043 Cl
ENDBRANCH   4   6
BRANCH   5   9
HETATM    9  C8  UNL     1     -35.444   4.857   4.240  1.00 20.00     0.009 C 
BRANCH   9  10
HETATM   10  C9  UNL     1     -35.082   3.881   5.379  1.00 20.00    -0.004 C 
HETATM   11  C7  UNL     1     -35.113   4.535   6.751  1.00 20.00     0.005 C 
ENDBRANCH   9  10
ENDBRANCH   5   9
TORSDOF 3
ENDMDL
MODEL 8
REMARK VINA RESULT:      -4.0      4.205      5.672
REMARK  3 active torsions:
REMARK  status: ('A' for Active; 'I' for Inactive)
REMARK    1  A    between atoms: C1_1  and  C5_5 
REMARK    2  A    between atoms: C6_6  and  C8_8 
REMARK    3  A    between atoms: C8_8  and  C9_9 
ROOT
HETATM    1  C2  UNL     1     -34.720  18.705  -1.531  1.00 20.00     0.028 C 
HETATM    2  C3  UNL     1     -34.703  17.015  -0.240  1.00 20.00     0.028 C 
HETATM    3  C4  UNL     1     -33.342  17.122  -1.871  1.00 20.00     0.028 C 
HETATM    4  C5  UNL     1     -33.624  18.044  -0.659  1.00 20.00     0.038 C 
HETATM    5  C6  UNL     1     -34.924  17.158  -1.801  1.00 20.00    -0.037 C 
ENDROOT
BRANCH   4   6
HETATM    6  C1  UNL     1     -32.632  18.723   0.217  1.00 20.00     0.227 C 
HETATM    7  O10 UNL     1     -31.624  19.253  -0.241  1.00 20.00    -0.279 OA
HETATM    8 CL11 UNL     1     -33.084  18.656   1.893  1.00 20.00    -0.043 Cl
ENDBRANCH   4   6
BRANCH   5   9
HETATM    9  C8  UNL     1     -35.913  16.484  -2.670  1.00 20.00     0.009 C 
BRANCH   9  10
HETATM   10  C9  UNL     1     -35.414  15.126  -3.206  1.00 20.00    -0.004 C 
HETATM   11  C7  UNL     1     -36.458  14.397  -4.037  1.00 20.00     0.005 C 
ENDBRANCH   9  10
ENDBRANCH   5   9
TORSDOF 3
ENDMDL
MODEL 9
REMARK VINA RESULT:      -4.0      3.208      4.871
REMARK  3 active torsions:
REMARK  status: ('A' for Active; 'I' for Inactive)
REMARK    1  A    between atoms: C1_1  and  C5_5 
REMARK    2  A    between atoms: C6_6  and  C8_8 
REMARK    3  A    between atoms: C8_8  and  C9_9 
ROOT
HETATM    1  C2  UNL     1     -35.527  16.036  -2.695  1.00 20.00     0.028 C 
HETATM    2  C3  UNL     1     -33.418  15.806  -2.833  1.00 20.00     0.028 C 
HETATM    3  C4  UNL     1     -34.324  17.656  -3.363  1.00 20.00     0.028 C 
HETATM    4  C5  UNL     1     -34.332  16.798  -2.073  1.00 20.00     0.038 C 
HETATM    5  C6  UNL     1     -34.519  16.181  -3.908  1.00 20.00    -0.037 C 
ENDROOT
BRANCH   4   6
HETATM    6  C1  UNL     1     -34.188  17.267  -0.669  1.00 20.00     0.227 C 
HETATM    7  O10 UNL     1     -34.969  16.915   0.211  1.00 20.00    -0.279 OA
HETATM    8 CL11 UNL     1     -32.829  18.330  -0.469  1.00 20.00    -0.043 Cl
ENDBRANCH   4   6
BRANCH   5   9
HETATM    9  C8  UNL     1     -34.662  15.713  -5.303  1.00 20.00     0.009 C 
BRANCH   9  10
HETATM   10  C9  UNL     1     -35.457  14.396  -5.416  1.00 20.00    -0.004 C 
HETATM   11  C7  UNL     1     -34.675  13.187  -4.928  1.00 20.00     0.005 C 
ENDBRANCH   9  10
ENDBRANCH   5   9
TORSDOF 3
ENDMDL
