MODEL 1
REMARK VINA RESULT:      -4.3      0.000      0.000
REMARK  3 active torsions:
REMARK  status: ('A' for Active; 'I' for Inactive)
REMARK    1  A    between atoms: C1_1  and  C3_3 
REMARK    2  A    between atoms: C2_2  and  C8_8 
REMARK    3  A    between atoms: C3_3  and  O10_10 
ROOT
HETATM    1  C1  UNL     1     -33.312   6.748   3.420  1.00 20.00     0.079 C 
HETATM    2  C2  UNL     1     -33.350   5.914   4.469  1.00 20.00    -0.012 C 
ENDROOT
BRANCH   1   3
HETATM    3  C3  UNL     1     -32.045   7.424   3.062  1.00 20.00     0.282 C 
HETATM    4  O9  UNL     1     -31.120   7.649   3.827  1.00 20.00    -0.260 OA
BRANCH   3   5
HETATM    5  O10 UNL     1     -32.105   7.738   1.740  1.00 20.00    -0.323 OA
HETATM    6  C7  UNL     1     -32.219   9.135   1.444  1.00 20.00     0.213 C 
ENDBRANCH   3   5
ENDBRANCH   1   3
BRANCH   2   7
HETATM    7  C8  UNL     1     -34.557   5.136   4.978  1.00 20.00    -0.034 C 
HETATM    8  C4  UNL     1     -34.362   3.608   5.001  1.00 20.00     0.018 C 
HETATM    9  C5  UNL     1     -34.866   5.609   6.408  1.00 20.00     0.018 C 
HETATM   10  C6  UNL     1     -35.756   5.460   4.070  1.00 20.00     0.018 C 
ENDBRANCH   2   7
TORSDOF 3
ENDMDL
MODEL 2
REMARK VINA RESULT:      -4.3     10.726     11.876
REMARK  3 active torsions:
REMARK  status: ('A' for Active; 'I' for Inactive)
REMARK    1  A    between atoms: C1_1  and  C3_3 
REMARK    2  A    between atoms: C2_2  and  C8_8 
REMARK    3  A    between atoms: C3_3  and  O10_10 
ROOT
HETATM    1  C1  UNL     1     -34.803  14.671  -3.391  1.00 20.00     0.079 C 
HETATM    2  C2  UNL     1     -34.097  15.594  -2.721  1.00 20.00    -0.012 C 
ENDROOT
BRANCH   1   3
HETATM    3  C3  UNL     1     -34.115  13.500  -3.978  1.00 20.00     0.282 C 
HETATM    4  O9  UNL     1     -33.049  13.041  -3.599  1.00 20.00    -0.260 OA
BRANCH   3   5
HETATM    5  O10 UNL     1     -34.885  13.040  -5.000  1.00 20.00    -0.323 OA
HETATM    6  C7  UNL     1     -35.123  13.973  -6.060  1.00 20.00     0.213 C 
ENDBRANCH   3   5
ENDBRANCH   1   3
BRANCH   2   7
HETATM    7  C8  UNL     1     -34.635  16.853  -2.053  1.00 20.00    -0.034 C 
HETATM    8  C4  UNL     1     -34.668  16.790  -0.515  1.00 20.00     0.018 C 
HETATM    9  C5  UNL     1     -33.748  18.038  -2.474  1.00 20.00     0.018 C 
HETATM   10  C6  UNL     1     -36.068  17.093  -2.562  1.00 20.00     0.018 C 
ENDBRANCH   2   7
TORSDOF 3
ENDMDL
MODEL 3
REMARK VINA RESULT:      -4.3     10.725     11.947
REMARK  3 active torsions:
REMARK  status: ('A' for Active; 'I' for Inactive)
REMARK    1  A    between atoms: C1_1  and  C3_3 
REMARK    2  A    between atoms: C2_2  and  C8_8 
REMARK    3  A    between atoms: C3_3  and  O10_10 
ROOT
HETATM    1  C1  UNL     1     -34.784  14.715  -3.429  1.00 20.00     0.079 C 
HETATM    2  C2  UNL     1     -34.080  15.621  -2.734  1.00 20.00    -0.012 C 
ENDROOT
BRANCH   1   3
HETATM    3  C3  UNL     1     -34.108  13.514  -3.968  1.00 20.00     0.282 C 
HETATM    4  O9  UNL     1     -33.047  13.058  -3.571  1.00 20.00    -0.260 OA
BRANCH   3   5
HETATM    5  O10 UNL     1     -34.882  13.022  -4.973  1.00 20.00    -0.323 OA
HETATM    6  C7  UNL     1     -35.156  13.934  -6.042  1.00 20.00     0.213 C 
ENDBRANCH   3   5
ENDBRANCH   1   3
BRANCH   2   7
HETATM    7  C8  UNL     1     -34.606  16.906  -2.108  1.00 20.00    -0.034 C 
HETATM    8  C4  UNL     1     -33.774  18.159  -2.438  1.00 20.00     0.018 C 
HETATM    9  C5  UNL     1     -36.044  17.131  -2.605  1.00 20.00     0.018 C 
HETATM   10  C6  UNL     1     -34.625  16.723  -0.580  1.00 20.00     0.018 C 
ENDBRANCH   2   7
TORSDOF 3
ENDMDL
MODEL 4
REMARK VINA RESULT:      -4.0     11.040     11.990
REMARK  3 active torsions:
REMARK  status: ('A' for Active; 'I' for Inactive)
REMARK    1  A    between atoms: C1_1  and  C3_3 
REMARK    2  A    between atoms: C2_2  and  C8_8 
REMARK    3  A    between atoms: C3_3  and  O10_10 
ROOT
HETATM    1  C1  UNL     1     -34.849  16.126  -1.688  1.00 20.00     0.079 C 
HETATM    2  C2  UNL     1     -34.007  15.861  -2.698  1.00 20.00    -0.012 C 
ENDROOT
BRANCH   1   3
HETATM    3  C3  UNL     1     -34.427  17.031  -0.596  1.00 20.00     0.282 C 
HETATM    4  O9  UNL     1     -34.985  17.147   0.484  1.00 20.00    -0.260 OA
BRANCH   3   5
HETATM    5  O10 UNL     1     -33.317  17.694  -1.017  1.00 20.00    -0.323 OA
HETATM    6  C7  UNL     1     -32.759  18.619  -0.077  1.00 20.00     0.213 C 
ENDBRANCH   3   5
ENDBRANCH   1   3
BRANCH   2   7
HETATM    7  C8  UNL     1     -34.271  14.962  -3.899  1.00 20.00    -0.034 C 
HETATM    8  C4  UNL     1     -33.983  15.623  -5.260  1.00 20.00     0.018 C 
HETATM    9  C5  UNL     1     -33.386  13.711  -3.768  1.00 20.00     0.018 C 
HETATM   10  C6  UNL     1     -35.750  14.537  -3.867  1.00 20.00     0.018 C 
ENDBRANCH   2   7
TORSDOF 3
ENDMDL
MODEL 5
REMARK VINA RESULT:      -4.0     11.063     11.979
REMARK  3 active torsions:
REMARK  status: ('A' for Active; 'I' for Inactive)
REMARK    1  A    between atoms: C1_1  and  C3_3 
REMARK    2  A    between atoms: C2_2  and  C8_8 
REMARK    3  A    between atoms: C3_3  and  O10_10 
ROOT
HETATM    1  C1  UNL     1     -34.819  16.181  -1.576  1.00 20.00     0.079 C 
HETATM    2  C2  UNL     1     -33.969  15.932  -2.583  1.00 20.00    -0.012 C 
ENDROOT
BRANCH   1   3
HETATM    3  C3  UNL     1     -34.419  17.095  -0.483  1.00 20.00     0.282 C 
HETATM    4  O9  UNL     1     -35.023  17.253   0.566  1.00 20.00    -0.260 OA
BRANCH   3   5
HETATM    5  O10 UNL     1     -33.268  17.712  -0.864  1.00 20.00    -0.323 OA
HETATM    6  C7  UNL     1     -32.793  18.731   0.023  1.00 20.00     0.213 C 
ENDBRANCH   3   5
ENDBRANCH   1   3
BRANCH   2   7
HETATM    7  C8  UNL     1     -34.211  15.027  -3.784  1.00 20.00    -0.034 C 
HETATM    8  C4  UNL     1     -33.395  13.722  -3.768  1.00 20.00     0.018 C 
HETATM    9  C5  UNL     1     -35.706  14.667  -3.822  1.00 20.00     0.018 C 
HETATM   10  C6  UNL     1     -33.850  15.812  -5.058  1.00 20.00     0.018 C 
ENDBRANCH   2   7
TORSDOF 3
ENDMDL
MODEL 6
REMARK VINA RESULT:      -4.0     11.036     12.227
REMARK  3 active torsions:
REMARK  status: ('A' for Active; 'I' for Inactive)
REMARK    1  A    between atoms: C1_1  and  C3_3 
REMARK    2  A    between atoms: C2_2  and  C8_8 
REMARK    3  A    between atoms: C3_3  and  O10_10 
ROOT
HETATM    1  C1  UNL     1     -34.658  15.468  -2.690  1.00 20.00     0.079 C 
HETATM    2  C2  UNL     1     -33.847  16.461  -2.297  1.00 20.00    -0.012 C 
ENDROOT
BRANCH   1   3
HETATM    3  C3  UNL     1     -34.148  14.419  -3.601  1.00 20.00     0.282 C 
HETATM    4  O9  UNL     1     -34.068  13.229  -3.339  1.00 20.00    -0.260 OA
BRANCH   3   5
HETATM    5  O10 UNL     1     -33.793  15.023  -4.767  1.00 20.00    -0.323 OA
HETATM    6  C7  UNL     1     -34.550  14.633  -5.918  1.00 20.00     0.213 C 
ENDBRANCH   3   5
ENDBRANCH   1   3
BRANCH   2   7
HETATM    7  C8  UNL     1     -34.197  17.616  -1.368  1.00 20.00    -0.034 C 
HETATM    8  C4  UNL     1     -32.995  18.487  -0.958  1.00 20.00     0.018 C 
HETATM    9  C5  UNL     1     -35.228  18.510  -2.078  1.00 20.00     0.018 C 
HETATM   10  C6  UNL     1     -34.832  17.032  -0.093  1.00 20.00     0.018 C 
ENDBRANCH   2   7
TORSDOF 3
ENDMDL
MODEL 7
REMARK VINA RESULT:      -4.0     10.971     11.978
REMARK  3 active torsions:
REMARK  status: ('A' for Active; 'I' for Inactive)
REMARK    1  A    between atoms: C1_1  and  C3_3 
REMARK    2  A    between atoms: C2_2  and  C8_8 
REMARK    3  A    between atoms: C3_3  and  O10_10 
ROOT
HETATM    1  C1  UNL     1     -33.656  16.576  -2.323  1.00 20.00     0.079 C 
HETATM    2  C2  UNL     1     -34.542  15.615  -2.622  1.00 20.00    -0.012 C 
ENDROOT
BRANCH   1   3
HETATM    3  C3  UNL     1     -33.777  17.318  -1.048  1.00 20.00     0.282 C 
HETATM    4  O9  UNL     1     -33.107  18.286  -0.725  1.00 20.00    -0.260 OA
BRANCH   3   5
HETATM    5  O10 UNL     1     -34.761  16.726  -0.319  1.00 20.00    -0.323 OA
HETATM    6  C7  UNL     1     -35.203  17.459   0.829  1.00 20.00     0.213 C 
ENDBRANCH   3   5
ENDBRANCH   1   3
BRANCH   2   7
HETATM    7  C8  UNL     1     -34.570  14.753  -3.878  1.00 20.00    -0.034 C 
HETATM    8  C4  UNL     1     -35.913  14.041  -4.128  1.00 20.00     0.018 C 
HETATM    9  C5  UNL     1     -34.264  15.654  -5.087  1.00 20.00     0.018 C 
HETATM   10  C6  UNL     1     -33.469  13.686  -3.754  1.00 20.00     0.018 C 
ENDBRANCH   2   7
TORSDOF 3
ENDMDL
MODEL 8
REMARK VINA RESULT:      -3.7      9.761     11.378
REMARK  3 active torsions:
REMARK  status: ('A' for Active; 'I' for Inactive)
REMARK    1  A    between atoms: C1_1  and  C3_3 
REMARK    2  A    between atoms: C2_2  and  C8_8 
REMARK    3  A    between atoms: C3_3  and  O10_10 
ROOT
HETATM    1  C1  UNL     1     -41.193   3.864  -2.039  1.00 20.00     0.079 C 
HETATM    2  C2  UNL     1     -42.350   3.367  -2.500  1.00 20.00    -0.012 C 
ENDROOT
BRANCH   1   3
HETATM    3  C3  UNL     1     -41.203   5.054  -1.160  1.00 20.00     0.282 C 
HETATM    4  O9  UNL     1     -40.835   6.175  -1.478  1.00 20.00    -0.260 OA
BRANCH   3   5
HETATM    5  O10 UNL     1     -41.693   4.669   0.050  1.00 20.00    -0.323 OA
HETATM    6  C7  UNL     1     -42.694   5.525   0.610  1.00 20.00     0.213 C 
ENDBRANCH   3   5
ENDBRANCH   1   3
BRANCH   2   7
HETATM    7  C8  UNL     1     -42.530   2.156  -3.407  1.00 20.00    -0.034 C 
HETATM    8  C4  UNL     1     -43.417   2.413  -4.639  1.00 20.00     0.018 C 
HETATM    9  C5  UNL     1     -41.141   1.707  -3.892  1.00 20.00     0.018 C 
HETATM   10  C6  UNL     1     -43.163   1.023  -2.578  1.00 20.00     0.018 C 
ENDBRANCH   2   7
TORSDOF 3
ENDMDL
MODEL 9
REMARK VINA RESULT:      -3.6     11.479     12.839
REMARK  3 active torsions:
REMARK  status: ('A' for Active; 'I' for Inactive)
REMARK    1  A    between atoms: C1_1  and  C3_3 
REMARK    2  A    between atoms: C2_2  and  C8_8 
REMARK    3  A    between atoms: C3_3  and  O10_10 
ROOT
HETATM    1  C1  UNL     1     -36.379  15.051  -3.562  1.00 20.00     0.079 C 
HETATM    2  C2  UNL     1     -35.267  15.175  -4.301  1.00 20.00    -0.012 C 
ENDROOT
BRANCH   1   3
HETATM    3  C3  UNL     1     -37.670  14.750  -4.220  1.00 20.00     0.282 C 
HETATM    4  O9  UNL     1     -38.648  14.264  -3.675  1.00 20.00    -0.260 OA
BRANCH   3   5
HETATM    5  O10 UNL     1     -37.561  15.115  -5.526  1.00 20.00    -0.323 OA
HETATM    6  C7  UNL     1     -38.773  15.560  -6.145  1.00 20.00     0.213 C 
ENDBRANCH   3   5
ENDBRANCH   1   3
BRANCH   2   7
HETATM    7  C8  UNL     1     -33.861  15.477  -3.797  1.00 20.00    -0.034 C 
HETATM    8  C4  UNL     1     -33.817  16.213  -2.445  1.00 20.00     0.018 C 
HETATM    9  C5  UNL     1     -33.105  14.146  -3.652  1.00 20.00     0.018 C 
HETATM   10  C6  UNL     1     -33.150  16.348  -4.848  1.00 20.00     0.018 C 
ENDBRANCH   2   7
TORSDOF 3
ENDMDL
