MODEL 1
REMARK VINA RESULT:      -3.6      0.000      0.000
REMARK  3 active torsions:
REMARK  status: ('A' for Active; 'I' for Inactive)
REMARK    1  A    between atoms: C1_1  and  C7_7 
REMARK    2  A    between atoms: C7_7  and  C8_8 
REMARK    3  A    between atoms: N9_9  and  N10_10 
ROOT
HETATM    1  C1  UNL     1     -34.445  14.713  -4.060  1.00 20.00     0.023 C 
HETATM    2  C2  UNL     1     -33.336  13.747  -3.704  1.00 20.00     0.067 C 
HETATM    3  N9  UNL     1     -34.858  14.966  -5.267  1.00 20.00    -0.209 NA
ENDROOT
BRANCH   1   4
HETATM    4  C7  UNL     1     -35.099  15.479  -2.922  1.00 20.00     0.059 C 
BRANCH   4   5
HETATM    5  C8  UNL     1     -34.091  16.348  -2.157  1.00 20.00    -0.017 C 
HETATM    6  C3  UNL     1     -33.797  17.655  -2.895  1.00 20.00     0.010 C 
HETATM    7  C4  UNL     1     -34.622  16.651  -0.755  1.00 20.00     0.010 C 
ENDBRANCH   4   5
ENDBRANCH   1   4
BRANCH   3   8
HETATM    8  N10 UNL     1     -35.867  15.868  -5.358  1.00 20.00    -0.217 NA
HETATM    9  C5  UNL     1     -37.128  15.309  -5.858  1.00 20.00     0.138 C 
HETATM   10  C6  UNL     1     -35.528  17.051  -6.153  1.00 20.00     0.138 C 
ENDBRANCH   3   8
TORSDOF 3
ENDMDL
MODEL 2
REMARK VINA RESULT:      -3.5      2.154      3.443
REMARK  3 active torsions:
REMARK  status: ('A' for Active; 'I' for Inactive)
REMARK    1  A    between atoms: C1_1  and  C7_7 
REMARK    2  A    between atoms: C7_7  and  C8_8 
REMARK    3  A    between atoms: N9_9  and  N10_10 
ROOT
HETATM    1  C1  UNL     1     -35.536  16.634  -2.457  1.00 20.00     0.023 C 
HETATM    2  C2  UNL     1     -36.680  17.623  -2.408  1.00 20.00     0.067 C 
HETATM    3  N9  UNL     1     -35.206  15.921  -3.494  1.00 20.00    -0.209 NA
ENDROOT
BRANCH   1   4
HETATM    4  C7  UNL     1     -34.735  16.425  -1.182  1.00 20.00     0.059 C 
BRANCH   4   5
HETATM    5  C8  UNL     1     -34.612  17.716  -0.360  1.00 20.00    -0.017 C 
HETATM    6  C3  UNL     1     -35.075  17.513   1.084  1.00 20.00     0.010 C 
HETATM    7  C4  UNL     1     -33.164  18.209  -0.378  1.00 20.00     0.010 C 
ENDBRANCH   4   5
ENDBRANCH   1   4
BRANCH   3   8
HETATM    8  N10 UNL     1     -34.144  15.097  -3.318  1.00 20.00    -0.217 NA
HETATM    9  C5  UNL     1     -32.927  15.529  -4.013  1.00 20.00     0.138 C 
HETATM   10  C6  UNL     1     -34.419  13.702  -3.672  1.00 20.00     0.138 C 
ENDBRANCH   3   8
TORSDOF 3
ENDMDL
MODEL 3
REMARK VINA RESULT:      -3.4      1.901      3.362
REMARK  3 active torsions:
REMARK  status: ('A' for Active; 'I' for Inactive)
REMARK    1  A    between atoms: C1_1  and  C7_7 
REMARK    2  A    between atoms: C7_7  and  C8_8 
REMARK    3  A    between atoms: N9_9  and  N10_10 
ROOT
HETATM    1  C1  UNL     1     -34.784  16.797  -2.501  1.00 20.00     0.023 C 
HETATM    2  C2  UNL     1     -34.620  16.516  -1.023  1.00 20.00     0.067 C 
HETATM    3  N9  UNL     1     -34.544  17.938  -3.077  1.00 20.00    -0.209 NA
ENDROOT
BRANCH   1   4
HETATM    4  C7  UNL     1     -35.312  15.670  -3.374  1.00 20.00     0.059 C 
BRANCH   4   5
HETATM    5  C8  UNL     1     -34.401  14.434  -3.334  1.00 20.00    -0.017 C 
HETATM    6  C3  UNL     1     -34.925  13.317  -4.238  1.00 20.00     0.010 C 
HETATM    7  C4  UNL     1     -32.981  14.819  -3.752  1.00 20.00     0.010 C 
ENDBRANCH   4   5
ENDBRANCH   1   4
BRANCH   3   8
HETATM    8  N10 UNL     1     -34.759  17.969  -4.416  1.00 20.00    -0.217 NA
HETATM    9  C5  UNL     1     -33.554  18.227  -5.211  1.00 20.00     0.138 C 
HETATM   10  C6  UNL     1     -35.803  18.915  -4.821  1.00 20.00     0.138 C 
ENDBRANCH   3   8
TORSDOF 3
ENDMDL
MODEL 4
REMARK VINA RESULT:      -3.4      1.517      2.373
REMARK  3 active torsions:
REMARK  status: ('A' for Active; 'I' for Inactive)
REMARK    1  A    between atoms: C1_1  and  C7_7 
REMARK    2  A    between atoms: C7_7  and  C8_8 
REMARK    3  A    between atoms: N9_9  and  N10_10 
ROOT
HETATM    1  C1  UNL     1     -34.138  16.393  -4.103  1.00 20.00     0.023 C 
HETATM    2  C2  UNL     1     -33.472  17.639  -4.643  1.00 20.00     0.067 C 
HETATM    3  N9  UNL     1     -34.803  15.531  -4.814  1.00 20.00    -0.209 NA
ENDROOT
BRANCH   1   4
HETATM    4  C7  UNL     1     -34.061  16.152  -2.604  1.00 20.00     0.059 C 
BRANCH   4   5
HETATM    5  C8  UNL     1     -34.671  17.309  -1.801  1.00 20.00    -0.017 C 
HETATM    6  C3  UNL     1     -36.114  17.591  -2.223  1.00 20.00     0.010 C 
HETATM    7  C4  UNL     1     -34.619  16.991  -0.306  1.00 20.00     0.010 C 
ENDBRANCH   4   5
ENDBRANCH   1   4
BRANCH   3   8
HETATM    8  N10 UNL     1     -35.319  14.484  -4.124  1.00 20.00    -0.217 NA
HETATM    9  C5  UNL     1     -34.843  13.173  -4.579  1.00 20.00     0.138 C 
HETATM   10  C6  UNL     1     -36.784  14.467  -4.090  1.00 20.00     0.138 C 
ENDBRANCH   3   8
TORSDOF 3
ENDMDL
MODEL 5
REMARK VINA RESULT:      -3.4     13.315     14.283
REMARK  3 active torsions:
REMARK  status: ('A' for Active; 'I' for Inactive)
REMARK    1  A    between atoms: C1_1  and  C7_7 
REMARK    2  A    between atoms: C7_7  and  C8_8 
REMARK    3  A    between atoms: N9_9  and  N10_10 
ROOT
HETATM    1  C1  UNL     1     -42.534   4.553  -2.832  1.00 20.00     0.023 C 
HETATM    2  C2  UNL     1     -43.034   5.943  -3.162  1.00 20.00     0.067 C 
HETATM    3  N9  UNL     1     -42.899   3.462  -3.439  1.00 20.00    -0.209 NA
ENDROOT
BRANCH   1   4
HETATM    4  C7  UNL     1     -41.560   4.416  -1.673  1.00 20.00     0.059 C 
BRANCH   4   5
HETATM    5  C8  UNL     1     -41.893   5.379  -0.524  1.00 20.00    -0.017 C 
HETATM    6  C3  UNL     1     -42.506   4.643   0.670  1.00 20.00     0.010 C 
HETATM    7  C4  UNL     1     -40.631   6.122  -0.084  1.00 20.00     0.010 C 
ENDBRANCH   4   5
ENDBRANCH   1   4
BRANCH   3   8
HETATM    8  N10 UNL     1     -42.325   2.323  -2.980  1.00 20.00    -0.217 NA
HETATM    9  C5  UNL     1     -41.420   1.680  -3.938  1.00 20.00     0.138 C 
HETATM   10  C6  UNL     1     -43.291   1.329  -2.504  1.00 20.00     0.138 C 
ENDBRANCH   3   8
TORSDOF 3
ENDMDL
MODEL 6
REMARK VINA RESULT:      -3.3      2.760      3.784
REMARK  3 active torsions:
REMARK  status: ('A' for Active; 'I' for Inactive)
REMARK    1  A    between atoms: C1_1  and  C7_7 
REMARK    2  A    between atoms: C7_7  and  C8_8 
REMARK    3  A    between atoms: N9_9  and  N10_10 
ROOT
HETATM    1  C1  UNL     1     -36.197  14.271  -4.403  1.00 20.00     0.023 C 
HETATM    2  C2  UNL     1     -35.020  13.373  -4.090  1.00 20.00     0.067 C 
HETATM    3  N9  UNL     1     -37.329  14.273  -3.762  1.00 20.00    -0.209 NA
ENDROOT
BRANCH   1   4
HETATM    4  C7  UNL     1     -36.062  15.215  -5.587  1.00 20.00     0.059 C 
BRANCH   4   5
HETATM    5  C8  UNL     1     -34.664  15.153  -6.218  1.00 20.00    -0.017 C 
HETATM    6  C3  UNL     1     -34.733  14.856  -7.717  1.00 20.00     0.010 C 
HETATM    7  C4  UNL     1     -33.926  16.472  -5.982  1.00 20.00     0.010 C 
ENDBRANCH   4   5
ENDBRANCH   1   4
BRANCH   3   8
HETATM    8  N10 UNL     1     -38.249  15.161  -4.211  1.00 20.00    -0.217 NA
HETATM    9  C5  UNL     1     -38.512  16.271  -3.288  1.00 20.00     0.138 C 
HETATM   10  C6  UNL     1     -39.525  14.547  -4.586  1.00 20.00     0.138 C 
ENDBRANCH   3   8
TORSDOF 3
ENDMDL
MODEL 7
REMARK VINA RESULT:      -3.3      1.892      3.244
REMARK  3 active torsions:
REMARK  status: ('A' for Active; 'I' for Inactive)
REMARK    1  A    between atoms: C1_1  and  C7_7 
REMARK    2  A    between atoms: C7_7  and  C8_8 
REMARK    3  A    between atoms: N9_9  and  N10_10 
ROOT
HETATM    1  C1  UNL     1     -35.319  16.572  -2.138  1.00 20.00     0.023 C 
HETATM    2  C2  UNL     1     -34.509  16.705  -0.867  1.00 20.00     0.067 C 
HETATM    3  N9  UNL     1     -36.218  17.419  -2.546  1.00 20.00    -0.209 NA
ENDROOT
BRANCH   1   4
HETATM    4  C7  UNL     1     -35.094  15.328  -2.984  1.00 20.00     0.059 C 
BRANCH   4   5
HETATM    5  C8  UNL     1     -33.614  15.131  -3.339  1.00 20.00    -0.017 C 
HETATM    6  C3  UNL     1     -33.324  13.695  -3.777  1.00 20.00     0.010 C 
HETATM    7  C4  UNL     1     -33.209  16.105  -4.447  1.00 20.00     0.010 C 
ENDBRANCH   4   5
ENDBRANCH   1   4
BRANCH   3   8
HETATM    8  N10 UNL     1     -36.825  17.102  -3.716  1.00 20.00    -0.217 NA
HETATM    9  C5  UNL     1     -36.547  18.042  -4.809  1.00 20.00     0.138 C 
HETATM   10  C6  UNL     1     -38.275  16.932  -3.599  1.00 20.00     0.138 C 
ENDBRANCH   3   8
TORSDOF 3
ENDMDL
MODEL 8
REMARK VINA RESULT:      -3.3      1.836      3.821
REMARK  3 active torsions:
REMARK  status: ('A' for Active; 'I' for Inactive)
REMARK    1  A    between atoms: C1_1  and  C7_7 
REMARK    2  A    between atoms: C7_7  and  C8_8 
REMARK    3  A    between atoms: N9_9  and  N10_10 
ROOT
HETATM    1  C1  UNL     1     -34.387  15.001  -3.251  1.00 20.00     0.023 C 
HETATM    2  C2  UNL     1     -34.016  13.627  -3.763  1.00 20.00     0.067 C 
HETATM    3  N9  UNL     1     -33.540  15.926  -2.906  1.00 20.00    -0.209 NA
ENDROOT
BRANCH   1   4
HETATM    4  C7  UNL     1     -35.866  15.311  -3.085  1.00 20.00     0.059 C 
BRANCH   4   5
HETATM    5  C8  UNL     1     -36.686  14.881  -4.310  1.00 20.00    -0.017 C 
HETATM    6  C3  UNL     1     -38.175  14.766  -3.981  1.00 20.00     0.010 C 
HETATM    7  C4  UNL     1     -36.481  15.879  -5.451  1.00 20.00     0.010 C 
ENDBRANCH   4   5
ENDBRANCH   1   4
BRANCH   3   8
HETATM    8  N10 UNL     1     -34.092  17.086  -2.473  1.00 20.00    -0.217 NA
HETATM    9  C5  UNL     1     -33.838  18.235  -3.350  1.00 20.00     0.138 C 
HETATM   10  C6  UNL     1     -33.709  17.444  -1.105  1.00 20.00     0.138 C 
ENDBRANCH   3   8
TORSDOF 3
ENDMDL
MODEL 9
REMARK VINA RESULT:      -3.2      2.286      4.022
REMARK  3 active torsions:
REMARK  status: ('A' for Active; 'I' for Inactive)
REMARK    1  A    between atoms: C1_1  and  C7_7 
REMARK    2  A    between atoms: C7_7  and  C8_8 
REMARK    3  A    between atoms: N9_9  and  N10_10 
ROOT
HETATM    1  C1  UNL     1     -33.802  16.896  -3.779  1.00 20.00     0.023 C 
HETATM    2  C2  UNL     1     -33.367  17.032  -5.222  1.00 20.00     0.067 C 
HETATM    3  N9  UNL     1     -33.911  17.878  -2.934  1.00 20.00    -0.209 NA
ENDROOT
BRANCH   1   4
HETATM    4  C7  UNL     1     -34.093  15.495  -3.265  1.00 20.00     0.059 C 
BRANCH   4   5
HETATM    5  C8  UNL     1     -35.167  14.785  -4.102  1.00 20.00    -0.017 C 
HETATM    6  C3  UNL     1     -34.898  13.283  -4.210  1.00 20.00     0.010 C 
HETATM    7  C4  UNL     1     -36.548  15.023  -3.488  1.00 20.00     0.010 C 
ENDBRANCH   4   5
ENDBRANCH   1   4
BRANCH   3   8
HETATM    8  N10 UNL     1     -34.318  17.529  -1.688  1.00 20.00    -0.217 NA
HETATM    9  C5  UNL     1     -35.666  17.997  -1.344  1.00 20.00     0.138 C 
HETATM   10  C6  UNL     1     -33.392  17.942  -0.631  1.00 20.00     0.138 C 
ENDBRANCH   3   8
TORSDOF 3
ENDMDL
