MODEL 1
REMARK VINA RESULT:      -3.9      0.000      0.000
REMARK  2 active torsions:
REMARK  status: ('A' for Active; 'I' for Inactive)
REMARK    1  A    between atoms: C2_2  and  C6_6 
REMARK    2  A    between atoms: C3_3  and  C7_7 
ROOT
HETATM    1  C1  UNL     1     -32.983   5.773   2.579  1.00 20.00     0.100 A 
HETATM    2  C2  UNL     1     -32.295   6.505   3.704  1.00 20.00     0.089 A 
HETATM    3  C3  UNL     1     -34.763   5.757   3.971  1.00 20.00     0.168 A 
HETATM    4  N8  UNL     1     -34.215   5.380   2.656  1.00 20.00    -0.289 NA
HETATM    5  S9  UNL     1     -33.517   6.539   5.029  1.00 20.00    -0.132 SA
ENDROOT
BRANCH   2   6
HETATM    6  C6  UNL     1     -31.916   7.908   3.265  1.00 20.00     0.016 C 
HETATM    7  C4  UNL     1     -32.027   8.081   1.783  1.00 20.00     0.006 C 
ENDBRANCH   2   6
BRANCH   3   8
HETATM    8  C7  UNL     1     -35.309   4.507   4.645  1.00 20.00     0.033 C 
HETATM    9  C5  UNL     1     -34.824   4.378   6.054  1.00 20.00     0.008 C 
ENDBRANCH   3   8
TORSDOF 2
ENDMDL
MODEL 2
REMARK VINA RESULT:      -3.9      0.626      4.050
REMARK  2 active torsions:
REMARK  status: ('A' for Active; 'I' for Inactive)
REMARK    1  A    between atoms: C2_2  and  C6_6 
REMARK    2  A    between atoms: C3_3  and  C7_7 
ROOT
HETATM    1  C1  UNL     1     -34.239   5.462   2.745  1.00 20.00     0.100 A 
HETATM    2  C2  UNL     1     -34.873   5.675   4.097  1.00 20.00     0.089 A 
HETATM    3  C3  UNL     1     -32.411   6.383   3.701  1.00 20.00     0.168 A 
HETATM    4  N8  UNL     1     -33.013   5.794   2.492  1.00 20.00    -0.289 NA
HETATM    5  S9  UNL     1     -33.604   6.519   5.058  1.00 20.00    -0.132 SA
ENDROOT
BRANCH   2   6
HETATM    6  C6  UNL     1     -35.242   4.341   4.721  1.00 20.00     0.016 C 
HETATM    7  C4  UNL     1     -34.908   4.291   6.179  1.00 20.00     0.006 C 
ENDBRANCH   2   6
BRANCH   3   8
HETATM    8  C7  UNL     1     -31.864   7.759   3.347  1.00 20.00     0.033 C 
HETATM    9  C5  UNL     1     -32.028   8.066   1.892  1.00 20.00     0.008 C 
ENDBRANCH   3   8
TORSDOF 2
ENDMDL
MODEL 3
REMARK VINA RESULT:      -3.8     11.338     12.151
REMARK  2 active torsions:
REMARK  status: ('A' for Active; 'I' for Inactive)
REMARK    1  A    between atoms: C2_2  and  C6_6 
REMARK    2  A    between atoms: C3_3  and  C7_7 
ROOT
HETATM    1  C1  UNL     1     -35.544  16.070  -3.051  1.00 20.00     0.100 A 
HETATM    2  C2  UNL     1     -34.125  16.583  -3.088  1.00 20.00     0.089 A 
HETATM    3  C3  UNL     1     -34.621  14.112  -3.697  1.00 20.00     0.168 A 
HETATM    4  N8  UNL     1     -35.848  14.845  -3.341  1.00 20.00    -0.289 NA
HETATM    5  S9  UNL     1     -33.161  15.186  -3.692  1.00 20.00    -0.132 SA
ENDROOT
BRANCH   2   6
HETATM    6  C6  UNL     1     -33.681  17.001  -1.698  1.00 20.00     0.016 C 
HETATM    7  C4  UNL     1     -34.726  16.718  -0.665  1.00 20.00     0.006 C 
ENDBRANCH   2   6
BRANCH   3   8
HETATM    8  C7  UNL     1     -34.809  13.493  -5.074  1.00 20.00     0.033 C 
HETATM    9  C5  UNL     1     -34.657  14.506  -6.165  1.00 20.00     0.008 C 
ENDBRANCH   3   8
TORSDOF 2
ENDMDL
MODEL 4
REMARK VINA RESULT:      -3.8     11.768     12.515
REMARK  2 active torsions:
REMARK  status: ('A' for Active; 'I' for Inactive)
REMARK    1  A    between atoms: C2_2  and  C6_6 
REMARK    2  A    between atoms: C3_3  and  C7_7 
ROOT
HETATM    1  C1  UNL     1     -35.318  14.475  -3.710  1.00 20.00     0.100 A 
HETATM    2  C2  UNL     1     -34.206  14.465  -4.730  1.00 20.00     0.089 A 
HETATM    3  C3  UNL     1     -34.506  16.513  -3.170  1.00 20.00     0.168 A 
HETATM    4  N8  UNL     1     -35.516  15.473  -2.908  1.00 20.00    -0.289 NA
HETATM    5  S9  UNL     1     -33.311  16.000  -4.432  1.00 20.00    -0.132 SA
ENDROOT
BRANCH   2   6
HETATM    6  C6  UNL     1     -34.782  14.424  -6.134  1.00 20.00     0.016 C 
HETATM    7  C4  UNL     1     -34.259  15.538  -6.987  1.00 20.00     0.006 C 
ENDBRANCH   2   6
BRANCH   3   8
HETATM    8  C7  UNL     1     -33.785  16.828  -1.866  1.00 20.00     0.033 C 
HETATM    9  C5  UNL     1     -34.695  16.705  -0.685  1.00 20.00     0.008 C 
ENDBRANCH   3   8
TORSDOF 2
ENDMDL
MODEL 5
REMARK VINA RESULT:      -3.8     12.043     13.083
REMARK  2 active torsions:
REMARK  status: ('A' for Active; 'I' for Inactive)
REMARK    1  A    between atoms: C2_2  and  C6_6 
REMARK    2  A    between atoms: C3_3  and  C7_7 
ROOT
HETATM    1  C1  UNL     1     -33.114  15.761  -3.626  1.00 20.00     0.100 A 
HETATM    2  C2  UNL     1     -34.445  15.282  -3.101  1.00 20.00     0.089 A 
HETATM    3  C3  UNL     1     -34.291  16.314  -5.474  1.00 20.00     0.168 A 
HETATM    4  N8  UNL     1     -32.980  16.288  -4.802  1.00 20.00    -0.289 NA
HETATM    5  S9  UNL     1     -35.584  15.530  -4.474  1.00 20.00    -0.132 SA
ENDROOT
BRANCH   2   6
HETATM    6  C6  UNL     1     -34.855  16.096  -1.888  1.00 20.00     0.016 C 
HETATM    7  C4  UNL     1     -33.769  17.024  -1.440  1.00 20.00     0.006 C 
ENDBRANCH   2   6
BRANCH   3   8
HETATM    8  C7  UNL     1     -34.163  15.602  -6.813  1.00 20.00     0.033 C 
HETATM    9  C5  UNL     1     -35.128  14.466  -6.933  1.00 20.00     0.008 C 
ENDBRANCH   3   8
TORSDOF 2
ENDMDL
MODEL 6
REMARK VINA RESULT:      -3.7     11.709     12.580
REMARK  2 active torsions:
REMARK  status: ('A' for Active; 'I' for Inactive)
REMARK    1  A    between atoms: C2_2  and  C6_6 
REMARK    2  A    between atoms: C3_3  and  C7_7 
ROOT
HETATM    1  C1  UNL     1     -33.753  16.187  -5.242  1.00 20.00     0.100 A 
HETATM    2  C2  UNL     1     -35.100  15.517  -5.136  1.00 20.00     0.089 A 
HETATM    3  C3  UNL     1     -33.685  15.917  -3.000  1.00 20.00     0.168 A 
HETATM    4  N8  UNL     1     -33.002  16.409  -4.210  1.00 20.00    -0.289 NA
HETATM    5  S9  UNL     1     -35.339  15.274  -3.366  1.00 20.00    -0.132 SA
ENDROOT
BRANCH   2   6
HETATM    6  C6  UNL     1     -35.089  14.193  -5.879  1.00 20.00     0.016 C 
HETATM    7  C4  UNL     1     -34.682  13.056  -4.994  1.00 20.00     0.006 C 
ENDBRANCH   2   6
BRANCH   3   8
HETATM    8  C7  UNL     1     -33.779  17.059  -1.999  1.00 20.00     0.033 C 
HETATM    9  C5  UNL     1     -34.598  16.685  -0.804  1.00 20.00     0.008 C 
ENDBRANCH   3   8
TORSDOF 2
ENDMDL
MODEL 7
REMARK VINA RESULT:      -3.5     11.995     13.269
REMARK  2 active torsions:
REMARK  status: ('A' for Active; 'I' for Inactive)
REMARK    1  A    between atoms: C2_2  and  C6_6 
REMARK    2  A    between atoms: C3_3  and  C7_7 
ROOT
HETATM    1  C1  UNL     1     -35.388  17.169  -3.671  1.00 20.00     0.100 A 
HETATM    2  C2  UNL     1     -34.194  16.781  -2.835  1.00 20.00     0.089 A 
HETATM    3  C3  UNL     1     -34.676  15.532  -5.055  1.00 20.00     0.168 A 
HETATM    4  N8  UNL     1     -35.679  16.577  -4.786  1.00 20.00    -0.289 NA
HETATM    5  S9  UNL     1     -33.365  15.508  -3.805  1.00 20.00    -0.132 SA
ENDROOT
BRANCH   2   6
HETATM    6  C6  UNL     1     -34.645  16.245  -1.489  1.00 20.00     0.016 C 
HETATM    7  C4  UNL     1     -34.444  17.242  -0.391  1.00 20.00     0.006 C 
ENDBRANCH   2   6
BRANCH   3   8
HETATM    8  C7  UNL     1     -34.078  15.779  -6.433  1.00 20.00     0.033 C 
HETATM    9  C5  UNL     1     -34.706  14.909  -7.476  1.00 20.00     0.008 C 
ENDBRANCH   3   8
TORSDOF 2
ENDMDL
MODEL 8
REMARK VINA RESULT:      -3.4      9.480     10.396
REMARK  2 active torsions:
REMARK  status: ('A' for Active; 'I' for Inactive)
REMARK    1  A    between atoms: C2_2  and  C6_6 
REMARK    2  A    between atoms: C3_3  and  C7_7 
ROOT
HETATM    1  C1  UNL     1     -40.728   4.420  -1.117  1.00 20.00     0.100 A 
HETATM    2  C2  UNL     1     -41.948   4.697  -0.275  1.00 20.00     0.089 A 
HETATM    3  C3  UNL     1     -42.214   3.612  -2.615  1.00 20.00     0.168 A 
HETATM    4  N8  UNL     1     -40.802   3.884  -2.294  1.00 20.00    -0.289 NA
HETATM    5  S9  UNL     1     -43.317   4.030  -1.239  1.00 20.00    -0.132 SA
ENDROOT
BRANCH   2   6
HETATM    6  C6  UNL     1     -42.106   6.190  -0.051  1.00 20.00     0.016 C 
HETATM    7  C4  UNL     1     -41.080   6.981  -0.802  1.00 20.00     0.006 C 
ENDBRANCH   2   6
BRANCH   3   8
HETATM    8  C7  UNL     1     -42.355   2.138  -2.968  1.00 20.00     0.033 C 
HETATM    9  C5  UNL     1     -41.301   1.694  -3.931  1.00 20.00     0.008 C 
ENDBRANCH   3   8
TORSDOF 2
ENDMDL
MODEL 9
REMARK VINA RESULT:      -3.3     11.259     12.616
REMARK  2 active torsions:
REMARK  status: ('A' for Active; 'I' for Inactive)
REMARK    1  A    between atoms: C2_2  and  C6_6 
REMARK    2  A    between atoms: C3_3  and  C7_7 
ROOT
HETATM    1  C1  UNL     1     -35.819  14.734  -6.134  1.00 20.00     0.100 A 
HETATM    2  C2  UNL     1     -36.547  15.597  -5.133  1.00 20.00     0.089 A 
HETATM    3  C3  UNL     1     -34.998  13.689  -4.307  1.00 20.00     0.168 A 
HETATM    4  N8  UNL     1     -35.036  13.765  -5.777  1.00 20.00    -0.289 NA
HETATM    5  S9  UNL     1     -35.967  15.010  -3.531  1.00 20.00    -0.132 SA
ENDROOT
BRANCH   2   6
HETATM    6  C6  UNL     1     -38.047  15.417  -5.277  1.00 20.00     0.016 C 
HETATM    7  C4  UNL     1     -38.653  14.767  -4.072  1.00 20.00     0.006 C 
ENDBRANCH   2   6
BRANCH   3   8
HETATM    8  C7  UNL     1     -33.547  13.773  -3.855  1.00 20.00     0.033 C 
HETATM    9  C5  UNL     1     -33.114  15.187  -3.633  1.00 20.00     0.008 C 
ENDBRANCH   3   8
TORSDOF 2
ENDMDL
