MODEL 1
REMARK VINA RESULT:      -5.3      0.000      0.000
REMARK  1 active torsions:
REMARK  status: ('A' for Active; 'I' for Inactive)
REMARK    1  A    between atoms: C3_3  and  C6_6 
ROOT
HETATM    1  C1  UNL     1     -34.492   5.030   6.211  1.00 20.00    -0.030 C 
HETATM    2  C2  UNL     1     -35.092   4.398   5.200  1.00 20.00    -0.030 C 
HETATM    3  C4  UNL     1     -33.975   6.372   5.806  1.00 20.00     0.038 C 
HETATM    4  C5  UNL     1     -35.078   5.206   3.945  1.00 20.00     0.038 C 
HETATM    5  C6  UNL     1     -34.155   6.376   4.288  1.00 20.00     0.054 C 
ENDROOT
BRANCH   5   6
HETATM    6  C3  UNL     1     -32.825   6.216   3.612  1.00 20.00     0.236 C 
HETATM    7  O7  UNL     1     -32.349   7.049   2.848  1.00 20.00    -0.306 OA
ENDBRANCH   5   6
TORSDOF 1
ENDMDL
MODEL 2
REMARK VINA RESULT:      -4.5      2.114      3.260
REMARK  1 active torsions:
REMARK  status: ('A' for Active; 'I' for Inactive)
REMARK    1  A    between atoms: C3_3  and  C6_6 
ROOT
HETATM    1  C1  UNL     1     -33.822   5.706   2.929  1.00 20.00    -0.030 C 
HETATM    2  C2  UNL     1     -32.924   6.262   3.746  1.00 20.00    -0.030 C 
HETATM    3  C4  UNL     1     -35.131   5.474   3.610  1.00 20.00     0.038 C 
HETATM    4  C5  UNL     1     -33.476   6.495   5.112  1.00 20.00     0.038 C 
HETATM    5  C6  UNL     1     -34.825   5.775   5.077  1.00 20.00     0.054 C 
ENDROOT
BRANCH   5   6
HETATM    6  C3  UNL     1     -34.760   4.496   5.861  1.00 20.00     0.236 C 
HETATM    7  O7  UNL     1     -34.984   3.393   5.375  1.00 20.00    -0.306 OA
ENDBRANCH   5   6
TORSDOF 1
ENDMDL
MODEL 3
REMARK VINA RESULT:      -4.4      1.756      2.553
REMARK  1 active torsions:
REMARK  status: ('A' for Active; 'I' for Inactive)
REMARK    1  A    between atoms: C3_3  and  C6_6 
ROOT
HETATM    1  C1  UNL     1     -34.963   5.410   3.662  1.00 20.00    -0.030 C 
HETATM    2  C2  UNL     1     -35.516   4.576   4.546  1.00 20.00    -0.030 C 
HETATM    3  C4  UNL     1     -33.703   6.021   4.178  1.00 20.00     0.038 C 
HETATM    4  C5  UNL     1     -34.721   4.487   5.806  1.00 20.00     0.038 C 
HETATM    5  C6  UNL     1     -33.679   5.596   5.647  1.00 20.00     0.054 C 
ENDROOT
BRANCH   5   6
HETATM    6  C3  UNL     1     -34.015   6.765   6.526  1.00 20.00     0.236 C 
HETATM    7  O7  UNL     1     -33.171   7.505   7.019  1.00 20.00    -0.306 OA
ENDBRANCH   5   6
TORSDOF 1
ENDMDL
MODEL 4
REMARK VINA RESULT:      -4.2      1.769      2.421
REMARK  1 active torsions:
REMARK  status: ('A' for Active; 'I' for Inactive)
REMARK    1  A    between atoms: C3_3  and  C6_6 
ROOT
HETATM    1  C1  UNL     1     -34.779   5.392   6.614  1.00 20.00    -0.030 C 
HETATM    2  C2  UNL     1     -34.096   6.504   6.331  1.00 20.00    -0.030 C 
HETATM    3  C4  UNL     1     -34.698   4.388   5.513  1.00 20.00     0.038 C 
HETATM    4  C5  UNL     1     -33.440   6.434   4.993  1.00 20.00     0.038 C 
HETATM    5  C6  UNL     1     -34.023   5.160   4.379  1.00 20.00     0.054 C 
ENDROOT
BRANCH   5   6
HETATM    6  C3  UNL     1     -35.030   5.499   3.318  1.00 20.00     0.236 C 
HETATM    7  O7  UNL     1     -36.210   5.731   3.555  1.00 20.00    -0.306 OA
ENDBRANCH   5   6
TORSDOF 1
ENDMDL
MODEL 5
REMARK VINA RESULT:      -3.7      1.096      2.065
REMARK  1 active torsions:
REMARK  status: ('A' for Active; 'I' for Inactive)
REMARK    1  A    between atoms: C3_3  and  C6_6 
ROOT
HETATM    1  C1  UNL     1     -35.106   5.332   3.753  1.00 20.00    -0.030 C 
HETATM    2  C2  UNL     1     -34.756   5.818   4.947  1.00 20.00    -0.030 C 
HETATM    3  C4  UNL     1     -33.968   5.348   2.785  1.00 20.00     0.038 C 
HETATM    4  C5  UNL     1     -33.325   6.242   4.983  1.00 20.00     0.038 C 
HETATM    5  C6  UNL     1     -32.891   6.147   3.519  1.00 20.00     0.054 C 
ENDROOT
BRANCH   5   6
HETATM    6  C3  UNL     1     -32.766   7.516   2.916  1.00 20.00     0.236 C 
HETATM    7  O7  UNL     1     -31.867   7.836   2.147  1.00 20.00    -0.306 OA
ENDBRANCH   5   6
TORSDOF 1
ENDMDL
MODEL 6
REMARK VINA RESULT:      -3.7     11.851     12.448
REMARK  1 active torsions:
REMARK  status: ('A' for Active; 'I' for Inactive)
REMARK    1  A    between atoms: C3_3  and  C6_6 
ROOT
HETATM    1  C1  UNL     1     -33.645  16.278  -2.504  1.00 20.00    -0.030 C 
HETATM    2  C2  UNL     1     -34.887  15.955  -2.134  1.00 20.00    -0.030 C 
HETATM    3  C4  UNL     1     -33.350  15.855  -3.905  1.00 20.00     0.038 C 
HETATM    4  C5  UNL     1     -35.635  15.261  -3.223  1.00 20.00     0.038 C 
HETATM    5  C6  UNL     1     -34.560  14.999  -4.279  1.00 20.00     0.054 C 
ENDROOT
BRANCH   5   6
HETATM    6  C3  UNL     1     -34.178  13.547  -4.293  1.00 20.00     0.236 C 
HETATM    7  O7  UNL     1     -34.991  12.635  -4.392  1.00 20.00    -0.306 OA
ENDBRANCH   5   6
TORSDOF 1
ENDMDL
MODEL 7
REMARK VINA RESULT:      -3.7     12.076     12.543
REMARK  1 active torsions:
REMARK  status: ('A' for Active; 'I' for Inactive)
REMARK    1  A    between atoms: C3_3  and  C6_6 
ROOT
HETATM    1  C1  UNL     1     -34.664  13.313  -4.527  1.00 20.00    -0.030 C 
HETATM    2  C2  UNL     1     -35.790  13.968  -4.234  1.00 20.00    -0.030 C 
HETATM    3  C4  UNL     1     -33.484  13.875  -3.805  1.00 20.00     0.038 C 
HETATM    4  C5  UNL     1     -35.557  15.079  -3.266  1.00 20.00     0.038 C 
HETATM    5  C6  UNL     1     -34.032  15.154  -3.174  1.00 20.00     0.054 C 
ENDROOT
BRANCH   5   6
HETATM    6  C3  UNL     1     -33.517  16.354  -3.914  1.00 20.00     0.236 C 
HETATM    7  O7  UNL     1     -32.751  16.282  -4.869  1.00 20.00    -0.306 OA
ENDBRANCH   5   6
TORSDOF 1
ENDMDL
MODEL 8
REMARK VINA RESULT:      -3.6     11.727     12.652
REMARK  1 active torsions:
REMARK  status: ('A' for Active; 'I' for Inactive)
REMARK    1  A    between atoms: C3_3  and  C6_6 
ROOT
HETATM    1  C1  UNL     1     -34.484  16.737  -3.534  1.00 20.00    -0.030 C 
HETATM    2  C2  UNL     1     -33.343  16.319  -4.086  1.00 20.00    -0.030 C 
HETATM    3  C4  UNL     1     -35.207  15.633  -2.834  1.00 20.00     0.038 C 
HETATM    4  C5  UNL     1     -33.106  14.864  -3.851  1.00 20.00     0.038 C 
HETATM    5  C6  UNL     1     -34.424  14.385  -3.241  1.00 20.00     0.054 C 
ENDROOT
BRANCH   5   6
HETATM    6  C3  UNL     1     -35.210  13.589  -4.242  1.00 20.00     0.236 C 
HETATM    7  O7  UNL     1     -34.787  12.571  -4.779  1.00 20.00    -0.306 OA
ENDBRANCH   5   6
TORSDOF 1
ENDMDL
MODEL 9
REMARK VINA RESULT:      -3.5     12.185     13.037
REMARK  1 active torsions:
REMARK  status: ('A' for Active; 'I' for Inactive)
REMARK    1  A    between atoms: C3_3  and  C6_6 
ROOT
HETATM    1  C1  UNL     1     -33.091  16.162  -4.476  1.00 20.00    -0.030 C 
HETATM    2  C2  UNL     1     -33.471  15.777  -3.255  1.00 20.00    -0.030 C 
HETATM    3  C4  UNL     1     -34.099  15.799  -5.517  1.00 20.00     0.038 C 
HETATM    4  C5  UNL     1     -34.796  15.091  -3.269  1.00 20.00     0.038 C 
HETATM    5  C6  UNL     1     -35.084  14.908  -4.760  1.00 20.00     0.054 C 
ENDROOT
BRANCH   5   6
HETATM    6  C3  UNL     1     -34.893  13.474  -5.162  1.00 20.00     0.236 C 
HETATM    7  O7  UNL     1     -35.032  12.532  -4.391  1.00 20.00    -0.306 OA
ENDBRANCH   5   6
TORSDOF 1
ENDMDL
