MODEL 1
REMARK VINA RESULT:      -4.8      0.000      0.000
REMARK  0 active torsions:
REMARK  status: ('A' for Active; 'I' for Inactive)
ROOT
HETATM    1  C1  UNL     1     -34.196  16.381  -3.019  1.00 20.00     0.037 C 
HETATM    2  C2  UNL     1     -34.280  15.762  -5.070  1.00 20.00     0.017 C 
HETATM    3  C3  UNL     1     -34.096  17.222  -1.984  1.00 20.00    -0.063 C 
HETATM    4  C4  UNL     1     -34.732  14.983  -2.917  1.00 20.00     0.074 C 
HETATM    5  C5  UNL     1     -35.045  14.647  -4.382  1.00 20.00    -0.002 C 
HETATM    6  C6  UNL     1     -34.070  15.786  -6.552  1.00 20.00     0.066 C 
HETATM    7  C7  UNL     1     -33.551  18.613  -2.136  1.00 20.00     0.045 C 
HETATM    8  C8  UNL     1     -34.521  16.831  -0.597  1.00 20.00     0.045 C 
HETATM    9  C9  UNL     1     -34.527  13.263  -4.763  1.00 20.00     0.021 C 
HETATM   10  C10 UNL     1     -36.539  14.777  -4.684  1.00 20.00     0.021 C 
HETATM   11  N11 UNL     1     -33.844  16.713  -4.303  1.00 20.00    -0.262 NA
ENDROOT
TORSDOF 0
ENDMDL
MODEL 2
REMARK VINA RESULT:      -4.6      1.334      2.452
REMARK  0 active torsions:
REMARK  status: ('A' for Active; 'I' for Inactive)
ROOT
HETATM    1  C1  UNL     1     -34.477  16.620  -2.094  1.00 20.00     0.037 C 
HETATM    2  C2  UNL     1     -35.446  15.231  -3.409  1.00 20.00     0.017 C 
HETATM    3  C3  UNL     1     -34.234  17.288  -0.960  1.00 20.00    -0.063 C 
HETATM    4  C4  UNL     1     -33.499  16.504  -3.226  1.00 20.00     0.074 C 
HETATM    5  C5  UNL     1     -34.061  15.319  -4.023  1.00 20.00    -0.002 C 
HETATM    6  C6  UNL     1     -36.516  14.354  -3.980  1.00 20.00     0.066 C 
HETATM    7  C7  UNL     1     -35.246  17.376   0.145  1.00 20.00     0.045 C 
HETATM    8  C8  UNL     1     -32.933  17.998  -0.718  1.00 20.00     0.045 C 
HETATM    9  C9  UNL     1     -34.104  15.617  -5.519  1.00 20.00     0.021 C 
HETATM   10  C10 UNL     1     -33.284  14.031  -3.741  1.00 20.00     0.021 C 
HETATM   11  N11 UNL     1     -35.642  15.938  -2.338  1.00 20.00    -0.262 NA
ENDROOT
TORSDOF 0
ENDMDL
MODEL 3
REMARK VINA RESULT:      -4.4      1.290      4.382
REMARK  0 active torsions:
REMARK  status: ('A' for Active; 'I' for Inactive)
ROOT
HETATM    1  C1  UNL     1     -34.351  15.630  -4.213  1.00 20.00     0.037 C 
HETATM    2  C2  UNL     1     -34.519  16.531  -2.275  1.00 20.00     0.017 C 
HETATM    3  C3  UNL     1     -34.439  14.674  -5.145  1.00 20.00    -0.063 C 
HETATM    4  C4  UNL     1     -34.218  17.093  -4.520  1.00 20.00     0.074 C 
HETATM    5  C5  UNL     1     -34.607  17.743  -3.184  1.00 20.00    -0.002 C 
HETATM    6  C6  UNL     1     -34.600  16.647  -0.785  1.00 20.00     0.066 C 
HETATM    7  C7  UNL     1     -34.570  13.222  -4.788  1.00 20.00     0.045 C 
HETATM    8  C8  UNL     1     -34.411  14.990  -6.614  1.00 20.00     0.045 C 
HETATM    9  C9  UNL     1     -33.626  18.842  -2.789  1.00 20.00     0.021 C 
HETATM   10  C10 UNL     1     -36.043  18.270  -3.212  1.00 20.00     0.021 C 
HETATM   11  N11 UNL     1     -34.401  15.381  -2.865  1.00 20.00    -0.262 NA
ENDROOT
TORSDOF 0
ENDMDL
MODEL 4
REMARK VINA RESULT:      -4.3      1.795      3.836
REMARK  0 active torsions:
REMARK  status: ('A' for Active; 'I' for Inactive)
ROOT
HETATM    1  C1  UNL     1     -34.298  16.418  -5.916  1.00 20.00     0.037 C 
HETATM    2  C2  UNL     1     -34.582  14.630  -4.768  1.00 20.00     0.017 C 
HETATM    3  C3  UNL     1     -34.593  17.389  -6.789  1.00 20.00    -0.063 C 
HETATM    4  C4  UNL     1     -33.224  16.525  -4.873  1.00 20.00     0.074 C 
HETATM    5  C5  UNL     1     -33.600  15.396  -3.902  1.00 20.00    -0.002 C 
HETATM    6  C6  UNL     1     -35.107  13.284  -4.376  1.00 20.00     0.066 C 
HETATM    7  C7  UNL     1     -35.677  17.234  -7.815  1.00 20.00     0.045 C 
HETATM    8  C8  UNL     1     -33.857  18.698  -6.802  1.00 20.00     0.045 C 
HETATM    9  C9  UNL     1     -32.383  14.559  -3.518  1.00 20.00     0.021 C 
HETATM   10  C10 UNL     1     -34.312  15.935  -2.660  1.00 20.00     0.021 C 
HETATM   11  N11 UNL     1     -34.967  15.222  -5.857  1.00 20.00    -0.262 NA
ENDROOT
TORSDOF 0
ENDMDL
MODEL 5
REMARK VINA RESULT:      -4.2      1.543      4.358
REMARK  0 active torsions:
REMARK  status: ('A' for Active; 'I' for Inactive)
ROOT
HETATM    1  C1  UNL     1     -35.132  15.601  -3.063  1.00 20.00     0.037 C 
HETATM    2  C2  UNL     1     -35.959  17.396  -2.231  1.00 20.00     0.017 C 
HETATM    3  C3  UNL     1     -34.931  14.634  -3.965  1.00 20.00    -0.063 C 
HETATM    4  C4  UNL     1     -34.206  15.888  -1.918  1.00 20.00     0.074 C 
HETATM    5  C5  UNL     1     -34.633  17.302  -1.499  1.00 20.00    -0.002 C 
HETATM    6  C6  UNL     1     -36.920  18.519  -1.995  1.00 20.00     0.066 C 
HETATM    7  C7  UNL     1     -35.888  14.385  -5.094  1.00 20.00     0.045 C 
HETATM    8  C8  UNL     1     -33.733  13.729  -3.907  1.00 20.00     0.045 C 
HETATM    9  C9  UNL     1     -34.792  17.415   0.014  1.00 20.00     0.021 C 
HETATM   10  C10 UNL     1     -33.667  18.363  -2.031  1.00 20.00     0.021 C 
HETATM   11  N11 UNL     1     -36.199  16.463  -3.100  1.00 20.00    -0.262 NA
ENDROOT
TORSDOF 0
ENDMDL
MODEL 6
REMARK VINA RESULT:      -4.2      1.644      3.867
REMARK  0 active torsions:
REMARK  status: ('A' for Active; 'I' for Inactive)
ROOT
HETATM    1  C1  UNL     1     -36.772  15.540  -4.712  1.00 20.00     0.037 C 
HETATM    2  C2  UNL     1     -34.672  15.966  -4.764  1.00 20.00     0.017 C 
HETATM    3  C3  UNL     1     -38.000  15.310  -5.191  1.00 20.00    -0.063 C 
HETATM    4  C4  UNL     1     -36.332  15.184  -3.323  1.00 20.00     0.074 C 
HETATM    5  C5  UNL     1     -34.802  15.230  -3.444  1.00 20.00    -0.002 C 
HETATM    6  C6  UNL     1     -33.356  16.473  -5.265  1.00 20.00     0.066 C 
HETATM    7  C7  UNL     1     -38.394  15.685  -6.590  1.00 20.00     0.045 C 
HETATM    8  C8  UNL     1     -39.070  14.662  -4.358  1.00 20.00     0.045 C 
HETATM    9  C9  UNL     1     -34.170  15.993  -2.284  1.00 20.00     0.021 C 
HETATM   10  C10 UNL     1     -34.204  13.826  -3.569  1.00 20.00     0.021 C 
HETATM   11  N11 UNL     1     -35.763  16.103  -5.452  1.00 20.00    -0.262 NA
ENDROOT
TORSDOF 0
ENDMDL
MODEL 7
REMARK VINA RESULT:      -4.2      1.470      2.431
REMARK  0 active torsions:
REMARK  status: ('A' for Active; 'I' for Inactive)
ROOT
HETATM    1  C1  UNL     1     -35.053  16.677  -2.509  1.00 20.00     0.037 C 
HETATM    2  C2  UNL     1     -34.249  15.027  -3.617  1.00 20.00     0.017 C 
HETATM    3  C3  UNL     1     -35.228  17.502  -1.470  1.00 20.00    -0.063 C 
HETATM    4  C4  UNL     1     -35.451  17.004  -3.918  1.00 20.00     0.074 C 
HETATM    5  C5  UNL     1     -34.650  15.977  -4.730  1.00 20.00    -0.002 C 
HETATM    6  C6  UNL     1     -33.612  13.701  -3.893  1.00 20.00     0.066 C 
HETATM    7  C7  UNL     1     -34.813  17.128  -0.076  1.00 20.00     0.045 C 
HETATM    8  C8  UNL     1     -35.855  18.858  -1.628  1.00 20.00     0.045 C 
HETATM    9  C9  UNL     1     -35.515  15.301  -5.790  1.00 20.00     0.021 C 
HETATM   10  C10 UNL     1     -33.402  16.603  -5.355  1.00 20.00     0.021 C 
HETATM   11  N11 UNL     1     -34.460  15.444  -2.406  1.00 20.00    -0.262 NA
ENDROOT
TORSDOF 0
ENDMDL
MODEL 8
REMARK VINA RESULT:      -4.1      1.779      4.212
REMARK  0 active torsions:
REMARK  status: ('A' for Active; 'I' for Inactive)
ROOT
HETATM    1  C1  UNL     1     -36.301  15.342  -5.116  1.00 20.00     0.037 C 
HETATM    2  C2  UNL     1     -35.126  15.618  -3.344  1.00 20.00     0.017 C 
HETATM    3  C3  UNL     1     -37.297  15.549  -5.985  1.00 20.00    -0.063 C 
HETATM    4  C4  UNL     1     -35.024  14.631  -5.456  1.00 20.00     0.074 C 
HETATM    5  C5  UNL     1     -34.098  15.058  -4.309  1.00 20.00    -0.002 C 
HETATM    6  C6  UNL     1     -34.777  15.991  -1.937  1.00 20.00     0.066 C 
HETATM    7  C7  UNL     1     -38.557  16.266  -5.596  1.00 20.00     0.045 C 
HETATM    8  C8  UNL     1     -37.223  15.074  -7.408  1.00 20.00     0.045 C 
HETATM    9  C9  UNL     1     -33.338  13.869  -3.729  1.00 20.00     0.021 C 
HETATM   10  C10 UNL     1     -33.135  16.165  -4.745  1.00 20.00     0.021 C 
HETATM   11  N11 UNL     1     -36.322  15.785  -3.818  1.00 20.00    -0.262 NA
ENDROOT
TORSDOF 0
ENDMDL
MODEL 9
REMARK VINA RESULT:      -4.1     12.861     14.917
REMARK  0 active torsions:
REMARK  status: ('A' for Active; 'I' for Inactive)
ROOT
HETATM    1  C1  UNL     1     -42.170   3.298  -1.851  1.00 20.00     0.037 C 
HETATM    2  C2  UNL     1     -42.706   4.741  -0.359  1.00 20.00     0.017 C 
HETATM    3  C3  UNL     1     -42.324   2.256  -2.676  1.00 20.00    -0.063 C 
HETATM    4  C4  UNL     1     -41.094   4.333  -1.996  1.00 20.00     0.074 C 
HETATM    5  C5  UNL     1     -41.627   5.481  -1.127  1.00 20.00    -0.002 C 
HETATM    6  C6  UNL     1     -43.417   5.356   0.806  1.00 20.00     0.066 C 
HETATM    7  C7  UNL     1     -43.417   1.245  -2.489  1.00 20.00     0.045 C 
HETATM    8  C8  UNL     1     -41.410   2.027  -3.846  1.00 20.00     0.045 C 
HETATM    9  C9  UNL     1     -40.542   6.043  -0.213  1.00 20.00     0.021 C 
HETATM   10  C10 UNL     1     -42.257   6.586  -1.977  1.00 20.00     0.021 C 
HETATM   11  N11 UNL     1     -43.002   3.553  -0.790  1.00 20.00    -0.262 NA
ENDROOT
TORSDOF 0
ENDMDL
