MODEL 1
REMARK VINA RESULT:      -4.4      0.000      0.000
REMARK  0 active torsions:
REMARK  status: ('A' for Active; 'I' for Inactive)
ROOT
HETATM    1  C1  UNL     1     -33.546   6.550   5.451  1.00 20.00     0.149 C 
HETATM    2  C2  UNL     1     -33.486   6.292   4.137  1.00 20.00     0.010 C 
HETATM    3  C3  UNL     1     -34.381   5.276   3.495  1.00 20.00     0.050 C 
HETATM    4  C4  UNL     1     -35.519   4.895   4.441  1.00 20.00     0.032 C 
HETATM    5  C5  UNL     1     -34.985   4.726   5.858  1.00 20.00     0.174 C 
HETATM    6  O6  UNL     1     -34.359   5.916   6.356  1.00 20.00    -0.362 OA
HETATM    7 BR7  UNL     1     -32.333   7.205   2.992  1.00 20.00    -0.054 Br
ENDROOT
TORSDOF 0
ENDMDL
MODEL 2
REMARK VINA RESULT:      -3.8      1.119      1.903
REMARK  0 active torsions:
REMARK  status: ('A' for Active; 'I' for Inactive)
ROOT
HETATM    1  C1  UNL     1     -34.250   5.164   3.606  1.00 20.00     0.149 C 
HETATM    2  C2  UNL     1     -33.538   6.197   4.074  1.00 20.00     0.010 C 
HETATM    3  C3  UNL     1     -33.548   6.563   5.528  1.00 20.00     0.050 C 
HETATM    4  C4  UNL     1     -34.157   5.434   6.357  1.00 20.00     0.032 C 
HETATM    5  C5  UNL     1     -35.386   4.872   5.652  1.00 20.00     0.174 C 
HETATM    6  O6  UNL     1     -35.088   4.366   4.345  1.00 20.00    -0.362 OA
HETATM    7 BR7  UNL     1     -32.436   7.228   2.981  1.00 20.00    -0.054 Br
ENDROOT
TORSDOF 0
ENDMDL
MODEL 3
REMARK VINA RESULT:      -3.7      2.015      2.497
REMARK  0 active torsions:
REMARK  status: ('A' for Active; 'I' for Inactive)
ROOT
HETATM    1  C1  UNL     1     -33.774   6.361   4.519  1.00 20.00     0.149 C 
HETATM    2  C2  UNL     1     -34.012   6.306   5.837  1.00 20.00     0.010 C 
HETATM    3  C3  UNL     1     -34.824   5.201   6.442  1.00 20.00     0.050 C 
HETATM    4  C4  UNL     1     -35.000   4.060   5.442  1.00 20.00     0.032 C 
HETATM    5  C5  UNL     1     -35.297   4.620   4.056  1.00 20.00     0.174 C 
HETATM    6  O6  UNL     1     -34.259   5.486   3.579  1.00 20.00    -0.362 OA
HETATM    7 BR7  UNL     1     -33.313   7.554   7.031  1.00 20.00    -0.054 Br
ENDROOT
TORSDOF 0
ENDMDL
MODEL 4
REMARK VINA RESULT:      -3.5     11.911     12.426
REMARK  0 active torsions:
REMARK  status: ('A' for Active; 'I' for Inactive)
ROOT
HETATM    1  C1  UNL     1     -35.277  13.397  -4.448  1.00 20.00     0.149 C 
HETATM    2  C2  UNL     1     -35.745  14.488  -3.828  1.00 20.00     0.010 C 
HETATM    3  C3  UNL     1     -34.829  15.455  -3.141  1.00 20.00     0.050 C 
HETATM    4  C4  UNL     1     -33.380  15.200  -3.553  1.00 20.00     0.032 C 
HETATM    5  C5  UNL     1     -33.102  13.702  -3.588  1.00 20.00     0.174 C 
HETATM    6  O6  UNL     1     -33.963  13.003  -4.496  1.00 20.00    -0.362 OA
HETATM    7 BR7  UNL     1     -37.556  14.928  -3.811  1.00 20.00    -0.054 Br
ENDROOT
TORSDOF 0
ENDMDL
MODEL 5
REMARK VINA RESULT:      -3.4     12.818     13.463
REMARK  0 active torsions:
REMARK  status: ('A' for Active; 'I' for Inactive)
ROOT
HETATM    1  C1  UNL     1     -33.890  15.892  -5.585  1.00 20.00     0.149 C 
HETATM    2  C2  UNL     1     -34.513  14.758  -5.933  1.00 20.00     0.010 C 
HETATM    3  C3  UNL     1     -34.547  13.570  -5.019  1.00 20.00     0.050 C 
HETATM    4  C4  UNL     1     -34.114  13.969  -3.610  1.00 20.00     0.032 C 
HETATM    5  C5  UNL     1     -32.914  14.906  -3.677  1.00 20.00     0.174 C 
HETATM    6  O6  UNL     1     -33.189  16.099  -4.424  1.00 20.00    -0.362 OA
HETATM    7 BR7  UNL     1     -35.430  14.575  -7.544  1.00 20.00    -0.054 Br
ENDROOT
TORSDOF 0
ENDMDL
MODEL 6
REMARK VINA RESULT:      -3.4      9.556     10.308
REMARK  0 active torsions:
REMARK  status: ('A' for Active; 'I' for Inactive)
ROOT
HETATM    1  C1  UNL     1     -42.450   5.564  -2.534  1.00 20.00     0.149 C 
HETATM    2  C2  UNL     1     -41.741   4.490  -2.162  1.00 20.00     0.010 C 
HETATM    3  C3  UNL     1     -40.729   4.562  -1.058  1.00 20.00     0.050 C 
HETATM    4  C4  UNL     1     -40.900   5.854  -0.262  1.00 20.00     0.032 C 
HETATM    5  C5  UNL     1     -41.154   7.022  -1.208  1.00 20.00     0.174 C 
HETATM    6  O6  UNL     1     -42.321   6.829  -2.019  1.00 20.00    -0.362 OA
HETATM    7 BR7  UNL     1     -41.986   2.813  -2.936  1.00 20.00    -0.054 Br
ENDROOT
TORSDOF 0
ENDMDL
MODEL 7
REMARK VINA RESULT:      -3.4     11.986     12.257
REMARK  0 active torsions:
REMARK  status: ('A' for Active; 'I' for Inactive)
ROOT
HETATM    1  C1  UNL     1     -33.385  14.317  -3.369  1.00 20.00     0.149 C 
HETATM    2  C2  UNL     1     -34.296  15.263  -3.104  1.00 20.00     0.010 C 
HETATM    3  C3  UNL     1     -35.685  15.192  -3.662  1.00 20.00     0.050 C 
HETATM    4  C4  UNL     1     -35.964  13.799  -4.222  1.00 20.00     0.032 C 
HETATM    5  C5  UNL     1     -34.752  13.294  -4.995  1.00 20.00     0.174 C 
HETATM    6  O6  UNL     1     -33.570  13.231  -4.187  1.00 20.00    -0.362 OA
HETATM    7 BR7  UNL     1     -33.938  16.710  -1.985  1.00 20.00    -0.054 Br
ENDROOT
TORSDOF 0
ENDMDL
MODEL 8
REMARK VINA RESULT:      -3.3      9.475     10.185
REMARK  0 active torsions:
REMARK  status: ('A' for Active; 'I' for Inactive)
ROOT
HETATM    1  C1  UNL     1     -40.833   4.564  -1.150  1.00 20.00     0.149 C 
HETATM    2  C2  UNL     1     -41.751   4.465  -2.122  1.00 20.00     0.010 C 
HETATM    3  C3  UNL     1     -42.450   5.674  -2.667  1.00 20.00     0.050 C 
HETATM    4  C4  UNL     1     -41.732   6.948  -2.227  1.00 20.00     0.032 C 
HETATM    5  C5  UNL     1     -41.323   6.839  -0.763  1.00 20.00     0.174 C 
HETATM    6  O6  UNL     1     -40.459   5.722  -0.514  1.00 20.00    -0.362 OA
HETATM    7 BR7  UNL     1     -42.196   2.838  -2.914  1.00 20.00    -0.054 Br
ENDROOT
TORSDOF 0
ENDMDL
MODEL 9
REMARK VINA RESULT:      -3.3     12.132     12.397
REMARK  0 active torsions:
REMARK  status: ('A' for Active; 'I' for Inactive)
ROOT
HETATM    1  C1  UNL     1     -35.990  15.265  -3.115  1.00 20.00     0.149 C 
HETATM    2  C2  UNL     1     -34.723  15.522  -2.763  1.00 20.00     0.010 C 
HETATM    3  C3  UNL     1     -33.571  14.795  -3.388  1.00 20.00     0.050 C 
HETATM    4  C4  UNL     1     -34.029  14.050  -4.641  1.00 20.00     0.032 C 
HETATM    5  C5  UNL     1     -35.373  13.378  -4.389  1.00 20.00     0.174 C 
HETATM    6  O6  UNL     1     -36.395  14.312  -4.016  1.00 20.00    -0.362 OA
HETATM    7 BR7  UNL     1     -34.280  16.834  -1.516  1.00 20.00    -0.054 Br
ENDROOT
TORSDOF 0
ENDMDL
