MODEL 1
REMARK VINA RESULT:      -4.5      0.000      0.000
REMARK  1 active torsions:
REMARK  status: ('A' for Active; 'I' for Inactive)
REMARK    1  A    between atoms: C1_1  and  C2_2 
ROOT
HETATM    1  C2  UNL     1     -34.953   5.585   3.610  1.00 20.00     0.462 C 
HETATM    2  F4  UNL     1     -34.312   4.980   2.578  1.00 20.00    -0.163 F 
HETATM    3  F5  UNL     1     -36.224   5.822   3.199  1.00 20.00    -0.163 F 
HETATM    4  F6  UNL     1     -34.363   6.795   3.784  1.00 20.00    -0.163 F 
ENDROOT
BRANCH   1   5
HETATM    5  C1  UNL     1     -34.911   4.763   4.855  1.00 20.00     0.300 C 
HETATM    6  O3  UNL     1     -35.156   3.567   4.907  1.00 20.00    -0.275 OA
HETATM    7 BR7  UNL     1     -34.438   5.616   6.490  1.00 20.00     0.001 Br
ENDBRANCH   1   5
TORSDOF 1
ENDMDL
MODEL 2
REMARK VINA RESULT:      -4.5      2.716      3.060
REMARK  1 active torsions:
REMARK  status: ('A' for Active; 'I' for Inactive)
REMARK    1  A    between atoms: C1_1  and  C2_2 
ROOT
HETATM    1  C2  UNL     1     -34.530   5.039   5.923  1.00 20.00     0.462 C 
HETATM    2  F4  UNL     1     -35.721   4.687   6.470  1.00 20.00    -0.163 F 
HETATM    3  F5  UNL     1     -33.702   3.974   6.066  1.00 20.00    -0.163 F 
HETATM    4  F6  UNL     1     -34.025   6.038   6.691  1.00 20.00    -0.163 F 
ENDROOT
BRANCH   1   5
HETATM    5  C1  UNL     1     -34.669   5.452   4.495  1.00 20.00     0.300 C 
HETATM    6  O3  UNL     1     -35.684   5.320   3.828  1.00 20.00    -0.275 OA
HETATM    7 BR7  UNL     1     -33.172   6.251   3.632  1.00 20.00     0.001 Br
ENDBRANCH   1   5
TORSDOF 1
ENDMDL
MODEL 3
REMARK VINA RESULT:      -4.5      2.716      3.055
REMARK  1 active torsions:
REMARK  status: ('A' for Active; 'I' for Inactive)
REMARK    1  A    between atoms: C1_1  and  C2_2 
ROOT
HETATM    1  C2  UNL     1     -34.521   5.048   5.922  1.00 20.00     0.462 C 
HETATM    2  F4  UNL     1     -33.710   3.970   6.070  1.00 20.00    -0.163 F 
HETATM    3  F5  UNL     1     -34.000   6.040   6.687  1.00 20.00    -0.163 F 
HETATM    4  F6  UNL     1     -35.718   4.716   6.469  1.00 20.00    -0.163 F 
ENDROOT
BRANCH   1   5
HETATM    5  C1  UNL     1     -34.656   5.456   4.493  1.00 20.00     0.300 C 
HETATM    6  O3  UNL     1     -35.668   5.317   3.823  1.00 20.00    -0.275 OA
HETATM    7 BR7  UNL     1     -33.159   6.258   3.633  1.00 20.00     0.001 Br
ENDBRANCH   1   5
TORSDOF 1
ENDMDL
MODEL 4
REMARK VINA RESULT:      -4.5      2.711      3.045
REMARK  1 active torsions:
REMARK  status: ('A' for Active; 'I' for Inactive)
REMARK    1  A    between atoms: C1_1  and  C2_2 
ROOT
HETATM    1  C2  UNL     1     -34.521   5.036   5.899  1.00 20.00     0.462 C 
HETATM    2  F4  UNL     1     -34.009   6.023   6.678  1.00 20.00    -0.163 F 
HETATM    3  F5  UNL     1     -35.715   4.688   6.441  1.00 20.00    -0.163 F 
HETATM    4  F6  UNL     1     -33.699   3.964   6.034  1.00 20.00    -0.163 F 
ENDROOT
BRANCH   1   5
HETATM    5  C1  UNL     1     -34.655   5.459   4.474  1.00 20.00     0.300 C 
HETATM    6  O3  UNL     1     -35.669   5.338   3.805  1.00 20.00    -0.275 OA
HETATM    7 BR7  UNL     1     -33.150   6.253   3.619  1.00 20.00     0.001 Br
ENDBRANCH   1   5
TORSDOF 1
ENDMDL
MODEL 5
REMARK VINA RESULT:      -4.4      2.714      2.905
REMARK  1 active torsions:
REMARK  status: ('A' for Active; 'I' for Inactive)
REMARK    1  A    between atoms: C1_1  and  C2_2 
ROOT
HETATM    1  C2  UNL     1     -35.005   4.847   5.462  1.00 20.00     0.462 C 
HETATM    2  F4  UNL     1     -34.395   3.638   5.368  1.00 20.00    -0.163 F 
HETATM    3  F5  UNL     1     -35.702   4.845   6.626  1.00 20.00    -0.163 F 
HETATM    4  F6  UNL     1     -35.916   4.905   4.457  1.00 20.00    -0.163 F 
ENDROOT
BRANCH   1   5
HETATM    5  C1  UNL     1     -34.030   5.974   5.395  1.00 20.00     0.300 C 
HETATM    6  O3  UNL     1     -33.733   6.694   6.336  1.00 20.00    -0.275 OA
HETATM    7 BR7  UNL     1     -33.168   6.329   3.734  1.00 20.00     0.001 Br
ENDBRANCH   1   5
TORSDOF 1
ENDMDL
MODEL 6
REMARK VINA RESULT:      -4.4      2.729      3.003
REMARK  1 active torsions:
REMARK  status: ('A' for Active; 'I' for Inactive)
REMARK    1  A    between atoms: C1_1  and  C2_2 
ROOT
HETATM    1  C2  UNL     1     -34.997   4.856   5.482  1.00 20.00     0.462 C 
HETATM    2  F4  UNL     1     -35.904   4.891   4.474  1.00 20.00    -0.163 F 
HETATM    3  F5  UNL     1     -34.381   3.649   5.415  1.00 20.00    -0.163 F 
HETATM    4  F6  UNL     1     -35.700   4.877   6.643  1.00 20.00    -0.163 F 
ENDROOT
BRANCH   1   5
HETATM    5  C1  UNL     1     -34.024   5.986   5.401  1.00 20.00     0.300 C 
HETATM    6  O3  UNL     1     -33.725   6.715   6.334  1.00 20.00    -0.275 OA
HETATM    7 BR7  UNL     1     -33.171   6.329   3.734  1.00 20.00     0.001 Br
ENDBRANCH   1   5
TORSDOF 1
ENDMDL
MODEL 7
REMARK VINA RESULT:      -4.4      1.807      2.298
REMARK  1 active torsions:
REMARK  status: ('A' for Active; 'I' for Inactive)
REMARK    1  A    between atoms: C1_1  and  C2_2 
ROOT
HETATM    1  C2  UNL     1     -34.810   5.247   3.653  1.00 20.00     0.462 C 
HETATM    2  F4  UNL     1     -36.016   5.853   3.506  1.00 20.00    -0.163 F 
HETATM    3  F5  UNL     1     -34.349   4.981   2.405  1.00 20.00    -0.163 F 
HETATM    4  F6  UNL     1     -35.042   4.051   4.252  1.00 20.00    -0.163 F 
ENDROOT
BRANCH   1   5
HETATM    5  C1  UNL     1     -33.854   6.085   4.436  1.00 20.00     0.300 C 
HETATM    6  O3  UNL     1     -32.893   6.671   3.962  1.00 20.00    -0.275 OA
HETATM    7 BR7  UNL     1     -34.138   6.274   6.309  1.00 20.00     0.001 Br
ENDBRANCH   1   5
TORSDOF 1
ENDMDL
MODEL 8
REMARK VINA RESULT:      -4.4      1.807      2.032
REMARK  1 active torsions:
REMARK  status: ('A' for Active; 'I' for Inactive)
REMARK    1  A    between atoms: C1_1  and  C2_2 
ROOT
HETATM    1  C2  UNL     1     -34.813   5.251   3.656  1.00 20.00     0.462 C 
HETATM    2  F4  UNL     1     -35.049   4.054   4.250  1.00 20.00    -0.163 F 
HETATM    3  F5  UNL     1     -36.017   5.861   3.511  1.00 20.00    -0.163 F 
HETATM    4  F6  UNL     1     -34.353   4.985   2.407  1.00 20.00    -0.163 F 
ENDROOT
BRANCH   1   5
HETATM    5  C1  UNL     1     -33.853   6.085   4.436  1.00 20.00     0.300 C 
HETATM    6  O3  UNL     1     -32.891   6.667   3.961  1.00 20.00    -0.275 OA
HETATM    7 BR7  UNL     1     -34.134   6.276   6.310  1.00 20.00     0.001 Br
ENDBRANCH   1   5
TORSDOF 1
ENDMDL
MODEL 9
REMARK VINA RESULT:      -4.4      2.148      2.350
REMARK  1 active torsions:
REMARK  status: ('A' for Active; 'I' for Inactive)
REMARK    1  A    between atoms: C1_1  and  C2_2 
ROOT
HETATM    1  C2  UNL     1     -34.841   5.246   3.693  1.00 20.00     0.462 C 
HETATM    2  F4  UNL     1     -35.059   4.084   4.360  1.00 20.00    -0.163 F 
HETATM    3  F5  UNL     1     -36.048   5.849   3.551  1.00 20.00    -0.163 F 
HETATM    4  F6  UNL     1     -34.419   4.910   2.448  1.00 20.00    -0.163 F 
ENDROOT
BRANCH   1   5
HETATM    5  C1  UNL     1     -33.858   6.120   4.398  1.00 20.00     0.300 C 
HETATM    6  O3  UNL     1     -33.933   6.447   5.572  1.00 20.00    -0.275 OA
HETATM    7 BR7  UNL     1     -32.366   6.781   3.416  1.00 20.00     0.001 Br
ENDBRANCH   1   5
TORSDOF 1
ENDMDL
