MODEL 1
REMARK VINA RESULT:      -4.8      0.000      0.000
REMARK  0 active torsions:
REMARK  status: ('A' for Active; 'I' for Inactive)
ROOT
HETATM    1  C1  UNL     1     -32.853   6.775   3.625  1.00 20.00     0.099 C 
HETATM    2  C2  UNL     1     -35.216   4.242   4.370  1.00 20.00    -0.026 C 
HETATM    3  C3  UNL     1     -34.768   5.324   3.721  1.00 20.00     0.019 C 
HETATM    4  C4  UNL     1     -35.075   4.106   5.854  1.00 20.00     0.057 C 
HETATM    5  C5  UNL     1     -34.749   5.443   6.529  1.00 20.00     0.277 C 
HETATM    6  C6  UNL     1     -34.051   6.456   4.424  1.00 20.00     0.350 C 
HETATM    7  C7  UNL     1     -33.285   7.349   6.560  1.00 20.00     0.312 C 
HETATM    8  N8  UNL     1     -31.910   7.025   2.996  1.00 20.00    -0.195 NA
HETATM    9  N9  UNL     1     -33.665   6.141   5.820  1.00 20.00     0.106 N 
ENDROOT
TORSDOF 0
ENDMDL
MODEL 2
REMARK VINA RESULT:      -4.2     11.993     13.375
REMARK  0 active torsions:
REMARK  status: ('A' for Active; 'I' for Inactive)
ROOT
HETATM    1  C1  UNL     1     -33.975  14.332  -3.653  1.00 20.00     0.099 C 
HETATM    2  C2  UNL     1     -34.500  16.762  -1.127  1.00 20.00    -0.026 C 
HETATM    3  C3  UNL     1     -34.864  15.751  -1.926  1.00 20.00     0.019 C 
HETATM    4  C4  UNL     1     -33.727  17.932  -1.650  1.00 20.00     0.057 C 
HETATM    5  C5  UNL     1     -33.761  18.011  -3.180  1.00 20.00     0.277 C 
HETATM    6  C6  UNL     1     -34.483  15.692  -3.389  1.00 20.00     0.350 C 
HETATM    7  C7  UNL     1     -33.379  16.834  -5.240  1.00 20.00     0.312 C 
HETATM    8  N8  UNL     1     -33.575  13.263  -3.860  1.00 20.00    -0.195 NA
HETATM    9  N9  UNL     1     -33.471  16.700  -3.782  1.00 20.00     0.106 N 
ENDROOT
TORSDOF 0
ENDMDL
MODEL 3
REMARK VINA RESULT:      -4.1     12.003     12.634
REMARK  0 active torsions:
REMARK  status: ('A' for Active; 'I' for Inactive)
ROOT
HETATM    1  C1  UNL     1     -34.698  16.332  -1.619  1.00 20.00     0.099 C 
HETATM    2  C2  UNL     1     -33.715  13.768  -3.859  1.00 20.00    -0.026 C 
HETATM    3  C3  UNL     1     -33.601  14.961  -3.263  1.00 20.00     0.019 C 
HETATM    4  C4  UNL     1     -35.032  13.270  -4.366  1.00 20.00     0.057 C 
HETATM    5  C5  UNL     1     -36.071  14.392  -4.475  1.00 20.00     0.277 C 
HETATM    6  C6  UNL     1     -34.789  15.865  -3.016  1.00 20.00     0.350 C 
HETATM    7  C7  UNL     1     -37.186  16.186  -3.329  1.00 20.00     0.312 C 
HETATM    8  N8  UNL     1     -34.628  16.698  -0.520  1.00 20.00    -0.195 NA
HETATM    9  N9  UNL     1     -36.096  15.208  -3.251  1.00 20.00     0.106 N 
ENDROOT
TORSDOF 0
ENDMDL
MODEL 4
REMARK VINA RESULT:      -4.1     11.947     13.350
REMARK  0 active torsions:
REMARK  status: ('A' for Active; 'I' for Inactive)
ROOT
HETATM    1  C1  UNL     1     -34.185  15.922  -2.326  1.00 20.00     0.099 C 
HETATM    2  C2  UNL     1     -34.805  13.312  -4.641  1.00 20.00    -0.026 C 
HETATM    3  C3  UNL     1     -34.191  13.879  -3.596  1.00 20.00     0.019 C 
HETATM    4  C4  UNL     1     -35.048  14.067  -5.910  1.00 20.00     0.057 C 
HETATM    5  C5  UNL     1     -34.201  15.342  -5.996  1.00 20.00     0.277 C 
HETATM    6  C6  UNL     1     -33.744  15.325  -3.601  1.00 20.00     0.350 C 
HETATM    7  C7  UNL     1     -33.565  17.383  -4.897  1.00 20.00     0.312 C 
HETATM    8  N8  UNL     1     -34.533  16.391  -1.323  1.00 20.00    -0.195 NA
HETATM    9  N9  UNL     1     -34.274  16.108  -4.742  1.00 20.00     0.106 N 
ENDROOT
TORSDOF 0
ENDMDL
MODEL 5
REMARK VINA RESULT:      -4.0     12.640     13.688
REMARK  0 active torsions:
REMARK  status: ('A' for Active; 'I' for Inactive)
ROOT
HETATM    1  C1  UNL     1     -36.829  14.436  -3.980  1.00 20.00     0.099 C 
HETATM    2  C2  UNL     1     -34.457  15.115  -6.524  1.00 20.00    -0.026 C 
HETATM    3  C3  UNL     1     -35.215  14.319  -5.759  1.00 20.00     0.019 C 
HETATM    4  C4  UNL     1     -33.687  16.257  -5.940  1.00 20.00     0.057 C 
HETATM    5  C5  UNL     1     -33.563  16.153  -4.416  1.00 20.00     0.277 C 
HETATM    6  C6  UNL     1     -35.386  14.541  -4.272  1.00 20.00     0.350 C 
HETATM    7  C7  UNL     1     -34.743  15.882  -2.340  1.00 20.00     0.312 C 
HETATM    8  N8  UNL     1     -37.963  14.354  -3.750  1.00 20.00    -0.195 NA
HETATM    9  N9  UNL     1     -34.863  15.845  -3.801  1.00 20.00     0.106 N 
ENDROOT
TORSDOF 0
ENDMDL
MODEL 6
REMARK VINA RESULT:      -3.9     12.450     13.894
REMARK  0 active torsions:
REMARK  status: ('A' for Active; 'I' for Inactive)
ROOT
HETATM    1  C1  UNL     1     -33.646  17.266  -3.931  1.00 20.00     0.099 C 
HETATM    2  C2  UNL     1     -33.548  13.728  -3.752  1.00 20.00    -0.026 C 
HETATM    3  C3  UNL     1     -33.010  14.954  -3.744  1.00 20.00     0.019 C 
HETATM    4  C4  UNL     1     -34.577  13.333  -4.764  1.00 20.00     0.057 C 
HETATM    5  C5  UNL     1     -34.627  14.305  -5.949  1.00 20.00     0.277 C 
HETATM    6  C6  UNL     1     -33.432  16.035  -4.715  1.00 20.00     0.350 C 
HETATM    7  C7  UNL     1     -34.834  16.601  -6.628  1.00 20.00     0.312 C 
HETATM    8  N8  UNL     1     -33.814  18.234  -3.314  1.00 20.00    -0.195 NA
HETATM    9  N9  UNL     1     -34.653  15.701  -5.485  1.00 20.00     0.106 N 
ENDROOT
TORSDOF 0
ENDMDL
MODEL 7
REMARK VINA RESULT:      -3.9     12.202     13.188
REMARK  0 active torsions:
REMARK  status: ('A' for Active; 'I' for Inactive)
ROOT
HETATM    1  C1  UNL     1     -37.292  14.786  -3.907  1.00 20.00     0.099 C 
HETATM    2  C2  UNL     1     -35.064  17.166  -2.517  1.00 20.00    -0.026 C 
HETATM    3  C3  UNL     1     -36.025  16.755  -3.353  1.00 20.00     0.019 C 
HETATM    4  C4  UNL     1     -33.839  16.344  -2.269  1.00 20.00     0.057 C 
HETATM    5  C5  UNL     1     -33.651  15.251  -3.328  1.00 20.00     0.277 C 
HETATM    6  C6  UNL     1     -35.969  15.421  -4.065  1.00 20.00     0.350 C 
HETATM    7  C7  UNL     1     -34.667  13.399  -4.475  1.00 20.00     0.312 C 
HETATM    8  N8  UNL     1     -38.332  14.287  -3.783  1.00 20.00    -0.195 NA
HETATM    9  N9  UNL     1     -34.907  14.520  -3.559  1.00 20.00     0.106 N 
ENDROOT
TORSDOF 0
ENDMDL
MODEL 8
REMARK VINA RESULT:      -3.9     12.686     13.627
REMARK  0 active torsions:
REMARK  status: ('A' for Active; 'I' for Inactive)
ROOT
HETATM    1  C1  UNL     1     -37.274  14.944  -3.868  1.00 20.00     0.099 C 
HETATM    2  C2  UNL     1     -34.149  15.808  -2.436  1.00 20.00    -0.026 C 
HETATM    3  C3  UNL     1     -35.455  15.977  -2.679  1.00 20.00     0.019 C 
HETATM    4  C4  UNL     1     -33.191  15.444  -3.526  1.00 20.00     0.057 C 
HETATM    5  C5  UNL     1     -33.786  15.675  -4.921  1.00 20.00     0.277 C 
HETATM    6  C6  UNL     1     -36.061  15.766  -4.050  1.00 20.00     0.350 C 
HETATM    7  C7  UNL     1     -35.634  15.232  -6.391  1.00 20.00     0.312 C 
HETATM    8  N8  UNL     1     -38.227  14.298  -3.725  1.00 20.00    -0.195 NA
HETATM    9  N9  UNL     1     -35.143  15.115  -5.014  1.00 20.00     0.106 N 
ENDROOT
TORSDOF 0
ENDMDL
MODEL 9
REMARK VINA RESULT:      -3.8     12.471     13.964
REMARK  0 active torsions:
REMARK  status: ('A' for Active; 'I' for Inactive)
ROOT
HETATM    1  C1  UNL     1     -35.319  14.601  -6.842  1.00 20.00     0.099 C 
HETATM    2  C2  UNL     1     -33.698  13.641  -3.840  1.00 20.00    -0.026 C 
HETATM    3  C3  UNL     1     -34.754  13.787  -4.649  1.00 20.00     0.019 C 
HETATM    4  C4  UNL     1     -32.694  14.735  -3.660  1.00 20.00     0.057 C 
HETATM    5  C5  UNL     1     -33.212  16.087  -4.166  1.00 20.00     0.277 C 
HETATM    6  C6  UNL     1     -34.983  15.036  -5.473  1.00 20.00     0.350 C 
HETATM    7  C7  UNL     1     -34.185  17.277  -6.013  1.00 20.00     0.312 C 
HETATM    8  N8  UNL     1     -35.583  14.258  -7.918  1.00 20.00    -0.195 NA
HETATM    9  N9  UNL     1     -33.818  15.953  -5.500  1.00 20.00     0.106 N 
ENDROOT
TORSDOF 0
ENDMDL
