MODEL 1
REMARK VINA RESULT:      -4.0      0.000      0.000
REMARK  5 active torsions:
REMARK  status: ('A' for Active; 'I' for Inactive)
REMARK    1  A    between atoms: C2_2  and  C4_4 
REMARK    2  A    between atoms: C4_4  and  N7_7 
REMARK    3  A    between atoms: C5_5  and  C6_6 
REMARK    4  A    between atoms: C5_5  and  N7_7 
REMARK    5  A    between atoms: C6_6  and  S8_8 
ROOT
HETATM    1  C1  UNL     1     -32.227   8.562   1.824  1.00 20.00    -0.109 C 
HETATM    2  C2  UNL     1     -32.225   7.569   2.500  1.00 20.00    -0.077 C 
HETATM    3  C3  UNL     1     -32.230   9.770   1.001  1.00 20.00     0.112 C 
ENDROOT
BRANCH   2   4
HETATM    4  C4  UNL     1     -32.228   6.356   3.322  1.00 20.00     0.362 C 
BRANCH   4   5
HETATM    5  N7  UNL     1     -33.393   6.323   4.198  1.00 20.00     0.095 N 
HETATM    6  H18 UNL     1     -33.697   7.278   4.387  1.00 20.00     0.317 HD
BRANCH   5   7
HETATM    7  C5  UNL     1     -34.487   5.585   3.582  1.00 20.00     0.280 C 
BRANCH   7   8
HETATM    8  C6  UNL     1     -35.242   4.705   4.570  1.00 20.00     0.100 C 
BRANCH   8   9
HETATM    9  S8  UNL     1     -34.703   4.978   6.285  1.00 20.00    -0.180 SA
HETATM   10  H19 UNL     1     -34.104   3.789   6.433  1.00 20.00     0.101 HD
ENDBRANCH   8   9
ENDBRANCH   7   8
ENDBRANCH   5   7
ENDBRANCH   4   5
ENDBRANCH   2   4
TORSDOF 5
ENDMDL
MODEL 2
REMARK VINA RESULT:      -3.8      1.164      1.164
REMARK  5 active torsions:
REMARK  status: ('A' for Active; 'I' for Inactive)
REMARK    1  A    between atoms: C2_2  and  C4_4 
REMARK    2  A    between atoms: C4_4  and  N7_7 
REMARK    3  A    between atoms: C5_5  and  C6_6 
REMARK    4  A    between atoms: C5_5  and  N7_7 
REMARK    5  A    between atoms: C6_6  and  S8_8 
ROOT
HETATM    1  C1  UNL     1     -32.250   8.412   1.916  1.00 20.00    -0.109 C 
HETATM    2  C2  UNL     1     -32.258   7.411   2.582  1.00 20.00    -0.077 C 
HETATM    3  C3  UNL     1     -32.242   9.629   1.107  1.00 20.00     0.112 C 
ENDROOT
BRANCH   2   4
HETATM    4  C4  UNL     1     -32.274   6.190   3.392  1.00 20.00     0.362 C 
BRANCH   4   5
HETATM    5  N7  UNL     1     -33.592   5.968   3.974  1.00 20.00     0.095 N 
HETATM    6  H18 UNL     1     -33.746   4.966   4.081  1.00 20.00     0.317 HD
BRANCH   5   7
HETATM    7  C5  UNL     1     -33.700   6.611   5.276  1.00 20.00     0.280 C 
BRANCH   7   8
HETATM    8  C6  UNL     1     -34.429   5.754   6.304  1.00 20.00     0.100 C 
BRANCH   8   9
HETATM    9  S8  UNL     1     -34.945   4.150   5.620  1.00 20.00    -0.180 SA
HETATM   10  H19 UNL     1     -36.242   4.278   5.930  1.00 20.00     0.101 HD
ENDBRANCH   8   9
ENDBRANCH   7   8
ENDBRANCH   5   7
ENDBRANCH   4   5
ENDBRANCH   2   4
TORSDOF 5
ENDMDL
MODEL 3
REMARK VINA RESULT:      -3.5      3.130      4.305
REMARK  5 active torsions:
REMARK  status: ('A' for Active; 'I' for Inactive)
REMARK    1  A    between atoms: C2_2  and  C4_4 
REMARK    2  A    between atoms: C4_4  and  N7_7 
REMARK    3  A    between atoms: C5_5  and  C6_6 
REMARK    4  A    between atoms: C5_5  and  N7_7 
REMARK    5  A    between atoms: C6_6  and  S8_8 
ROOT
HETATM    1  C1  UNL     1     -33.991   6.453   6.656  1.00 20.00    -0.109 C 
HETATM    2  C2  UNL     1     -34.548   5.440   6.330  1.00 20.00    -0.077 C 
HETATM    3  C3  UNL     1     -33.313   7.686   7.052  1.00 20.00     0.112 C 
ENDROOT
BRANCH   2   4
HETATM    4  C4  UNL     1     -35.224   4.203   5.928  1.00 20.00     0.362 C 
BRANCH   4   5
HETATM    5  N7  UNL     1     -35.277   4.088   4.476  1.00 20.00     0.095 N 
HETATM    6  H18 UNL     1     -36.173   3.686   4.204  1.00 20.00     0.317 HD
BRANCH   5   7
HETATM    7  C5  UNL     1     -35.125   5.391   3.844  1.00 20.00     0.280 C 
BRANCH   7   8
HETATM    8  C6  UNL     1     -34.060   5.405   2.756  1.00 20.00     0.100 C 
BRANCH   8   9
HETATM    9  S8  UNL     1     -32.626   6.428   3.209  1.00 20.00    -0.180 SA
HETATM   10  H19 UNL     1     -33.329   7.386   3.827  1.00 20.00     0.101 HD
ENDBRANCH   8   9
ENDBRANCH   7   8
ENDBRANCH   5   7
ENDBRANCH   4   5
ENDBRANCH   2   4
TORSDOF 5
ENDMDL
MODEL 4
REMARK VINA RESULT:      -3.5     10.583     11.302
REMARK  5 active torsions:
REMARK  status: ('A' for Active; 'I' for Inactive)
REMARK    1  A    between atoms: C2_2  and  C4_4 
REMARK    2  A    between atoms: C4_4  and  N7_7 
REMARK    3  A    between atoms: C5_5  and  C6_6 
REMARK    4  A    between atoms: C5_5  and  N7_7 
REMARK    5  A    between atoms: C6_6  and  S8_8 
ROOT
HETATM    1  C1  UNL     1     -34.175  16.674  -1.488  1.00 20.00    -0.109 C 
HETATM    2  C2  UNL     1     -33.742  16.350  -2.560  1.00 20.00    -0.077 C 
HETATM    3  C3  UNL     1     -34.703  17.067  -0.182  1.00 20.00     0.112 C 
ENDROOT
BRANCH   2   4
HETATM    4  C4  UNL     1     -33.212  15.949  -3.867  1.00 20.00     0.362 C 
BRANCH   4   5
HETATM    5  N7  UNL     1     -32.804  14.550  -3.856  1.00 20.00     0.095 N 
HETATM    6  H18 UNL     1     -32.196  14.384  -3.055  1.00 20.00     0.317 HD
BRANCH   5   7
HETATM    7  C5  UNL     1     -33.962  13.671  -3.768  1.00 20.00     0.280 C 
BRANCH   7   8
HETATM    8  C6  UNL     1     -34.976  13.909  -4.880  1.00 20.00     0.100 C 
BRANCH   8   9
HETATM    9  S8  UNL     1     -36.587  14.454  -4.237  1.00 20.00    -0.180 SA
HETATM   10  H19 UNL     1     -36.166  15.648  -3.802  1.00 20.00     0.101 HD
ENDBRANCH   8   9
ENDBRANCH   7   8
ENDBRANCH   5   7
ENDBRANCH   4   5
ENDBRANCH   2   4
TORSDOF 5
ENDMDL
MODEL 5
REMARK VINA RESULT:      -3.4     10.832     11.408
REMARK  5 active torsions:
REMARK  status: ('A' for Active; 'I' for Inactive)
REMARK    1  A    between atoms: C2_2  and  C4_4 
REMARK    2  A    between atoms: C4_4  and  N7_7 
REMARK    3  A    between atoms: C5_5  and  C6_6 
REMARK    4  A    between atoms: C5_5  and  N7_7 
REMARK    5  A    between atoms: C6_6  and  S8_8 
ROOT
HETATM    1  C1  UNL     1     -34.757  17.004  -0.260  1.00 20.00    -0.109 C 
HETATM    2  C2  UNL     1     -34.395  16.577  -1.323  1.00 20.00    -0.077 C 
HETATM    3  C3  UNL     1     -35.197  17.524   1.033  1.00 20.00     0.112 C 
ENDROOT
BRANCH   2   4
HETATM    4  C4  UNL     1     -33.948  16.058  -2.619  1.00 20.00     0.362 C 
BRANCH   4   5
HETATM    5  N7  UNL     1     -34.870  15.047  -3.121  1.00 20.00     0.095 N 
HETATM    6  H18 UNL     1     -35.405  15.437  -3.897  1.00 20.00     0.317 HD
BRANCH   5   7
HETATM    7  C5  UNL     1     -34.149  13.869  -3.582  1.00 20.00     0.280 C 
BRANCH   7   8
HETATM    8  C6  UNL     1     -34.777  13.230  -4.814  1.00 20.00     0.100 C 
BRANCH   8   9
HETATM    9  S8  UNL     1     -34.992  14.420  -6.172  1.00 20.00    -0.180 SA
HETATM   10  H19 UNL     1     -36.137  14.945  -5.716  1.00 20.00     0.101 HD
ENDBRANCH   8   9
ENDBRANCH   7   8
ENDBRANCH   5   7
ENDBRANCH   4   5
ENDBRANCH   2   4
TORSDOF 5
ENDMDL
MODEL 6
REMARK VINA RESULT:      -3.3      2.755      5.108
REMARK  5 active torsions:
REMARK  status: ('A' for Active; 'I' for Inactive)
REMARK    1  A    between atoms: C2_2  and  C4_4 
REMARK    2  A    between atoms: C4_4  and  N7_7 
REMARK    3  A    between atoms: C5_5  and  C6_6 
REMARK    4  A    between atoms: C5_5  and  N7_7 
REMARK    5  A    between atoms: C6_6  and  S8_8 
ROOT
HETATM    1  C1  UNL     1     -34.672   4.961   5.206  1.00 20.00    -0.109 C 
HETATM    2  C2  UNL     1     -34.212   5.444   4.207  1.00 20.00    -0.077 C 
HETATM    3  C3  UNL     1     -35.232   4.374   6.422  1.00 20.00     0.112 C 
ENDROOT
BRANCH   2   4
HETATM    4  C4  UNL     1     -33.647   6.038   2.992  1.00 20.00     0.362 C 
BRANCH   4   5
HETATM    5  N7  UNL     1     -32.204   6.208   3.118  1.00 20.00     0.095 N 
HETATM    6  H18 UNL     1     -31.740   5.688   2.374  1.00 20.00     0.317 HD
BRANCH   5   7
HETATM    7  C5  UNL     1     -31.836   7.613   3.022  1.00 20.00     0.280 C 
BRANCH   7   8
HETATM    8  C6  UNL     1     -31.868   8.141   1.594  1.00 20.00     0.100 C 
BRANCH   8   9
HETATM    9  S8  UNL     1     -32.540   9.828   1.498  1.00 20.00    -0.180 SA
HETATM   10  H19 UNL     1     -33.829   9.466   1.528  1.00 20.00     0.101 HD
ENDBRANCH   8   9
ENDBRANCH   7   8
ENDBRANCH   5   7
ENDBRANCH   4   5
ENDBRANCH   2   4
TORSDOF 5
ENDMDL
MODEL 7
REMARK VINA RESULT:      -3.2     11.859     12.559
REMARK  5 active torsions:
REMARK  status: ('A' for Active; 'I' for Inactive)
REMARK    1  A    between atoms: C2_2  and  C4_4 
REMARK    2  A    between atoms: C4_4  and  N7_7 
REMARK    3  A    between atoms: C5_5  and  C6_6 
REMARK    4  A    between atoms: C5_5  and  N7_7 
REMARK    5  A    between atoms: C6_6  and  S8_8 
ROOT
HETATM    1  C1  UNL     1     -34.326  16.286  -1.750  1.00 20.00    -0.109 C 
HETATM    2  C2  UNL     1     -33.964  15.714  -2.743  1.00 20.00    -0.077 C 
HETATM    3  C3  UNL     1     -34.767  16.982  -0.543  1.00 20.00     0.112 C 
ENDROOT
BRANCH   2   4
HETATM    4  C4  UNL     1     -33.525  15.021  -3.957  1.00 20.00     0.362 C 
BRANCH   4   5
HETATM    5  N7  UNL     1     -32.990  15.964  -4.931  1.00 20.00     0.095 N 
HETATM    6  H18 UNL     1     -32.166  15.558  -5.374  1.00 20.00     0.317 HD
BRANCH   5   7
HETATM    7  C5  UNL     1     -33.980  16.273  -5.954  1.00 20.00     0.280 C 
BRANCH   7   8
HETATM    8  C6  UNL     1     -34.397  15.054  -6.766  1.00 20.00     0.100 C 
BRANCH   8   9
HETATM    9  S8  UNL     1     -36.196  14.979  -7.019  1.00 20.00    -0.180 SA
HETATM   10  H19 UNL     1     -36.368  16.297  -7.185  1.00 20.00     0.101 HD
ENDBRANCH   8   9
ENDBRANCH   7   8
ENDBRANCH   5   7
ENDBRANCH   4   5
ENDBRANCH   2   4
TORSDOF 5
ENDMDL
MODEL 8
REMARK VINA RESULT:      -3.1      1.720      2.235
REMARK  5 active torsions:
REMARK  status: ('A' for Active; 'I' for Inactive)
REMARK    1  A    between atoms: C2_2  and  C4_4 
REMARK    2  A    between atoms: C4_4  and  N7_7 
REMARK    3  A    between atoms: C5_5  and  C6_6 
REMARK    4  A    between atoms: C5_5  and  N7_7 
REMARK    5  A    between atoms: C6_6  and  S8_8 
ROOT
HETATM    1  C1  UNL     1     -32.407   6.880   3.199  1.00 20.00    -0.109 C 
HETATM    2  C2  UNL     1     -33.349   6.148   3.062  1.00 20.00    -0.077 C 
HETATM    3  C3  UNL     1     -31.260   7.771   3.364  1.00 20.00     0.112 C 
ENDROOT
BRANCH   2   4
HETATM    4  C4  UNL     1     -34.495   5.249   2.896  1.00 20.00     0.362 C 
BRANCH   4   5
HETATM    5  N7  UNL     1     -35.375   5.307   4.057  1.00 20.00     0.095 N 
HETATM    6  H18 UNL     1     -36.344   5.339   3.741  1.00 20.00     0.317 HD
BRANCH   5   7
HETATM    7  C5  UNL     1     -35.187   4.142   4.910  1.00 20.00     0.280 C 
BRANCH   7   8
HETATM    8  C6  UNL     1     -34.526   4.479   6.241  1.00 20.00     0.100 C 
BRANCH   8   9
HETATM    9  S8  UNL     1     -34.256   6.266   6.441  1.00 20.00    -0.180 SA
HETATM   10  H19 UNL     1     -33.812   6.198   7.703  1.00 20.00     0.101 HD
ENDBRANCH   8   9
ENDBRANCH   7   8
ENDBRANCH   5   7
ENDBRANCH   4   5
ENDBRANCH   2   4
TORSDOF 5
ENDMDL
MODEL 9
REMARK VINA RESULT:      -3.1     11.495     12.369
REMARK  5 active torsions:
REMARK  status: ('A' for Active; 'I' for Inactive)
REMARK    1  A    between atoms: C2_2  and  C4_4 
REMARK    2  A    between atoms: C4_4  and  N7_7 
REMARK    3  A    between atoms: C5_5  and  C6_6 
REMARK    4  A    between atoms: C5_5  and  N7_7 
REMARK    5  A    between atoms: C6_6  and  S8_8 
ROOT
HETATM    1  C1  UNL     1     -34.559  15.864  -1.990  1.00 20.00    -0.109 C 
HETATM    2  C2  UNL     1     -34.635  15.034  -2.855  1.00 20.00    -0.077 C 
HETATM    3  C3  UNL     1     -34.465  16.874  -0.937  1.00 20.00     0.112 C 
ENDROOT
BRANCH   2   4
HETATM    4  C4  UNL     1     -34.722  14.018  -3.908  1.00 20.00     0.362 C 
BRANCH   4   5
HETATM    5  N7  UNL     1     -33.854  14.354  -5.029  1.00 20.00     0.095 N 
HETATM    6  H18 UNL     1     -33.210  13.582  -5.198  1.00 20.00     0.317 HD
BRANCH   5   7
HETATM    7  C5  UNL     1     -34.634  14.599  -6.235  1.00 20.00     0.280 C 
BRANCH   7   8
HETATM    8  C6  UNL     1     -34.236  15.885  -6.950  1.00 20.00     0.100 C 
BRANCH   8   9
HETATM    9  S8  UNL     1     -34.052  17.282  -5.801  1.00 20.00    -0.180 SA
HETATM   10  H19 UNL     1     -33.151  17.947  -6.535  1.00 20.00     0.101 HD
ENDBRANCH   8   9
ENDBRANCH   7   8
ENDBRANCH   5   7
ENDBRANCH   4   5
ENDBRANCH   2   4
TORSDOF 5
ENDMDL
