MODEL 1
REMARK VINA RESULT:      -4.3      0.000      0.000
REMARK  3 active torsions:
REMARK  status: ('A' for Active; 'I' for Inactive)
REMARK    1  A    between atoms: C5_5  and  N8_8 
REMARK    2  A    between atoms: C6_6  and  C7_7 
REMARK    3  A    between atoms: C7_7  and  N8_8 
ROOT
HETATM    1  C1  UNL     1     -31.974   8.725   1.438  1.00 20.00     0.013 C 
HETATM    2  C2  UNL     1     -32.095   7.892   2.294  1.00 20.00    -0.087 C 
HETATM    3  C5  UNL     1     -32.235   6.876   3.339  1.00 20.00     0.364 C 
ENDROOT
BRANCH   3   4
HETATM    4  N8  UNL     1     -33.642   6.522   3.528  1.00 20.00     0.095 N 
HETATM    5  C4  UNL     1     -34.015   5.419   2.643  1.00 20.00     0.310 C 
BRANCH   4   6
HETATM    6  C7  UNL     1     -33.896   6.165   4.924  1.00 20.00     0.272 C 
BRANCH   6   7
HETATM    7  C6  UNL     1     -35.066   5.200   5.072  1.00 20.00     0.026 C 
HETATM    8  C3  UNL     1     -34.767   4.056   6.031  1.00 20.00     0.007 C 
ENDBRANCH   6   7
ENDBRANCH   4   6
ENDBRANCH   3   4
TORSDOF 3
ENDMDL
MODEL 2
REMARK VINA RESULT:      -4.1      0.752      4.533
REMARK  3 active torsions:
REMARK  status: ('A' for Active; 'I' for Inactive)
REMARK    1  A    between atoms: C5_5  and  N8_8 
REMARK    2  A    between atoms: C6_6  and  C7_7 
REMARK    3  A    between atoms: C7_7  and  N8_8 
ROOT
HETATM    1  C1  UNL     1     -35.178   4.037   5.940  1.00 20.00     0.013 C 
HETATM    2  C2  UNL     1     -35.016   4.654   4.923  1.00 20.00    -0.087 C 
HETATM    3  C5  UNL     1     -34.822   5.403   3.680  1.00 20.00     0.364 C 
ENDROOT
BRANCH   3   4
HETATM    4  N8  UNL     1     -33.887   6.509   3.884  1.00 20.00     0.095 N 
HETATM    5  C4  UNL     1     -33.640   6.712   5.312  1.00 20.00     0.310 C 
BRANCH   4   6
HETATM    6  C7  UNL     1     -32.631   6.254   3.179  1.00 20.00     0.272 C 
BRANCH   6   7
HETATM    7  C6  UNL     1     -31.762   7.501   3.072  1.00 20.00     0.026 C 
HETATM    8  C3  UNL     1     -32.103   8.353   1.858  1.00 20.00     0.007 C 
ENDBRANCH   6   7
ENDBRANCH   4   6
ENDBRANCH   3   4
TORSDOF 3
ENDMDL
MODEL 3
REMARK VINA RESULT:      -4.0      1.318      1.998
REMARK  3 active torsions:
REMARK  status: ('A' for Active; 'I' for Inactive)
REMARK    1  A    between atoms: C5_5  and  N8_8 
REMARK    2  A    between atoms: C6_6  and  C7_7 
REMARK    3  A    between atoms: C7_7  and  N8_8 
ROOT
HETATM    1  C1  UNL     1     -31.804   7.232   3.298  1.00 20.00     0.013 C 
HETATM    2  C2  UNL     1     -32.690   6.435   3.155  1.00 20.00    -0.087 C 
HETATM    3  C5  UNL     1     -33.766   5.459   2.976  1.00 20.00     0.364 C 
ENDROOT
BRANCH   3   4
HETATM    4  N8  UNL     1     -34.818   5.662   3.972  1.00 20.00     0.095 N 
HETATM    5  C4  UNL     1     -36.097   5.937   3.317  1.00 20.00     0.310 C 
BRANCH   4   6
HETATM    6  C7  UNL     1     -34.931   4.492   4.842  1.00 20.00     0.272 C 
BRANCH   6   7
HETATM    7  C6  UNL     1     -34.632   4.820   6.299  1.00 20.00     0.026 C 
HETATM    8  C3  UNL     1     -34.197   6.265   6.499  1.00 20.00     0.007 C 
ENDBRANCH   6   7
ENDBRANCH   4   6
ENDBRANCH   3   4
TORSDOF 3
ENDMDL
MODEL 4
REMARK VINA RESULT:      -3.9      0.552      4.450
REMARK  3 active torsions:
REMARK  status: ('A' for Active; 'I' for Inactive)
REMARK    1  A    between atoms: C5_5  and  N8_8 
REMARK    2  A    between atoms: C6_6  and  C7_7 
REMARK    3  A    between atoms: C7_7  and  N8_8 
ROOT
HETATM    1  C1  UNL     1     -35.080   4.239   5.967  1.00 20.00     0.013 C 
HETATM    2  C2  UNL     1     -34.503   5.215   5.573  1.00 20.00    -0.087 C 
HETATM    3  C5  UNL     1     -33.800   6.408   5.097  1.00 20.00     0.364 C 
ENDROOT
BRANCH   3   4
HETATM    4  N8  UNL     1     -32.967   6.088   3.938  1.00 20.00     0.095 N 
HETATM    5  C4  UNL     1     -33.800   5.695   2.802  1.00 20.00     0.310 C 
BRANCH   4   6
HETATM    6  C7  UNL     1     -32.126   7.231   3.582  1.00 20.00     0.272 C 
BRANCH   6   7
HETATM    7  C6  UNL     1     -32.160   7.535   2.089  1.00 20.00     0.026 C 
HETATM    8  C3  UNL     1     -32.271   9.024   1.795  1.00 20.00     0.007 C 
ENDBRANCH   6   7
ENDBRANCH   4   6
ENDBRANCH   3   4
TORSDOF 3
ENDMDL
MODEL 5
REMARK VINA RESULT:      -3.8      1.639      3.870
REMARK  3 active torsions:
REMARK  status: ('A' for Active; 'I' for Inactive)
REMARK    1  A    between atoms: C5_5  and  N8_8 
REMARK    2  A    between atoms: C6_6  and  C7_7 
REMARK    3  A    between atoms: C7_7  and  N8_8 
ROOT
HETATM    1  C1  UNL     1     -33.252   7.642   7.016  1.00 20.00     0.013 C 
HETATM    2  C2  UNL     1     -33.906   6.687   6.696  1.00 20.00    -0.087 C 
HETATM    3  C5  UNL     1     -34.708   5.524   6.310  1.00 20.00     0.364 C 
ENDROOT
BRANCH   3   4
HETATM    4  N8  UNL     1     -34.259   4.992   5.023  1.00 20.00     0.095 N 
HETATM    5  C4  UNL     1     -35.042   3.812   4.657  1.00 20.00     0.310 C 
BRANCH   4   6
HETATM    6  C7  UNL     1     -34.360   6.015   3.984  1.00 20.00     0.272 C 
BRANCH   6   7
HETATM    7  C6  UNL     1     -33.170   5.996   3.032  1.00 20.00     0.026 C 
HETATM    8  C3  UNL     1     -32.108   7.024   3.396  1.00 20.00     0.007 C 
ENDBRANCH   6   7
ENDBRANCH   4   6
ENDBRANCH   3   4
TORSDOF 3
ENDMDL
MODEL 6
REMARK VINA RESULT:      -3.7     11.014     12.131
REMARK  3 active torsions:
REMARK  status: ('A' for Active; 'I' for Inactive)
REMARK    1  A    between atoms: C5_5  and  N8_8 
REMARK    2  A    between atoms: C6_6  and  C7_7 
REMARK    3  A    between atoms: C7_7  and  N8_8 
ROOT
HETATM    1  C1  UNL     1     -34.670  16.555  -0.764  1.00 20.00     0.013 C 
HETATM    2  C2  UNL     1     -34.262  16.893  -1.841  1.00 20.00    -0.087 C 
HETATM    3  C5  UNL     1     -33.762  17.313  -3.153  1.00 20.00     0.364 C 
ENDROOT
BRANCH   3   4
HETATM    4  N8  UNL     1     -33.801  16.199  -4.100  1.00 20.00     0.095 N 
HETATM    5  C4  UNL     1     -33.504  16.669  -5.453  1.00 20.00     0.310 C 
BRANCH   4   6
HETATM    6  C7  UNL     1     -32.856  15.157  -3.702  1.00 20.00     0.272 C 
BRANCH   6   7
HETATM    7  C6  UNL     1     -33.462  13.761  -3.784  1.00 20.00     0.026 C 
HETATM    8  C3  UNL     1     -34.981  13.784  -3.880  1.00 20.00     0.007 C 
ENDBRANCH   6   7
ENDBRANCH   4   6
ENDBRANCH   3   4
TORSDOF 3
ENDMDL
MODEL 7
REMARK VINA RESULT:      -3.6     10.905     11.651
REMARK  3 active torsions:
REMARK  status: ('A' for Active; 'I' for Inactive)
REMARK    1  A    between atoms: C5_5  and  N8_8 
REMARK    2  A    between atoms: C6_6  and  C7_7 
REMARK    3  A    between atoms: C7_7  and  N8_8 
ROOT
HETATM    1  C1  UNL     1     -34.701  14.814  -6.730  1.00 20.00     0.013 C 
HETATM    2  C2  UNL     1     -34.815  14.148  -5.738  1.00 20.00    -0.087 C 
HETATM    3  C5  UNL     1     -34.958  13.331  -4.531  1.00 20.00     0.364 C 
ENDROOT
BRANCH   3   4
HETATM    4  N8  UNL     1     -34.323  13.985  -3.387  1.00 20.00     0.095 N 
HETATM    5  C4  UNL     1     -32.907  14.229  -3.659  1.00 20.00     0.310 C 
BRANCH   4   6
HETATM    6  C7  UNL     1     -35.006  15.239  -3.071  1.00 20.00     0.272 C 
BRANCH   6   7
HETATM    7  C6  UNL     1     -34.105  16.222  -2.335  1.00 20.00     0.026 C 
HETATM    8  C3  UNL     1     -34.625  16.573  -0.948  1.00 20.00     0.007 C 
ENDBRANCH   6   7
ENDBRANCH   4   6
ENDBRANCH   3   4
TORSDOF 3
ENDMDL
MODEL 8
REMARK VINA RESULT:      -3.6     11.110     12.080
REMARK  3 active torsions:
REMARK  status: ('A' for Active; 'I' for Inactive)
REMARK    1  A    between atoms: C5_5  and  N8_8 
REMARK    2  A    between atoms: C6_6  and  C7_7 
REMARK    3  A    between atoms: C7_7  and  N8_8 
ROOT
HETATM    1  C1  UNL     1     -34.940  13.285  -4.224  1.00 20.00     0.013 C 
HETATM    2  C2  UNL     1     -34.008  14.006  -3.994  1.00 20.00    -0.087 C 
HETATM    3  C5  UNL     1     -32.867  14.880  -3.713  1.00 20.00     0.364 C 
ENDROOT
BRANCH   3   4
HETATM    4  N8  UNL     1     -33.165  16.259  -4.099  1.00 20.00     0.095 N 
HETATM    5  C4  UNL     1     -33.601  16.315  -5.495  1.00 20.00     0.310 C 
BRANCH   4   6
HETATM    6  C7  UNL     1     -34.188  16.826  -3.221  1.00 20.00     0.272 C 
BRANCH   6   7
HETATM    7  C6  UNL     1     -33.692  17.005  -1.792  1.00 20.00     0.026 C 
HETATM    8  C3  UNL     1     -34.743  16.637  -0.754  1.00 20.00     0.007 C 
ENDBRANCH   6   7
ENDBRANCH   4   6
ENDBRANCH   3   4
TORSDOF 3
ENDMDL
MODEL 9
REMARK VINA RESULT:      -3.6     11.062     12.369
REMARK  3 active torsions:
REMARK  status: ('A' for Active; 'I' for Inactive)
REMARK    1  A    between atoms: C5_5  and  N8_8 
REMARK    2  A    between atoms: C6_6  and  C7_7 
REMARK    3  A    between atoms: C7_7  and  N8_8 
ROOT
HETATM    1  C1  UNL     1     -34.424  16.880  -0.743  1.00 20.00     0.013 C 
HETATM    2  C2  UNL     1     -34.762  16.212  -1.681  1.00 20.00    -0.087 C 
HETATM    3  C5  UNL     1     -35.180  15.400  -2.826  1.00 20.00     0.364 C 
ENDROOT
BRANCH   3   4
HETATM    4  N8  UNL     1     -34.059  14.611  -3.336  1.00 20.00     0.095 N 
HETATM    5  C4  UNL     1     -34.532  13.607  -4.289  1.00 20.00     0.310 C 
BRANCH   4   6
HETATM    6  C7  UNL     1     -33.064  15.481  -3.962  1.00 20.00     0.272 C 
BRANCH   6   7
HETATM    7  C6  UNL     1     -33.578  16.121  -5.246  1.00 20.00     0.026 C 
HETATM    8  C3  UNL     1     -33.486  17.640  -5.224  1.00 20.00     0.007 C 
ENDBRANCH   6   7
ENDBRANCH   4   6
ENDBRANCH   3   4
TORSDOF 3
ENDMDL
