MODEL 1
REMARK VINA RESULT:      -4.6      0.000      0.000
REMARK  1 active torsions:
REMARK  status: ('A' for Active; 'I' for Inactive)
REMARK    1  A    between atoms: C1_1  and  C6_6 
ROOT
HETATM    1  C2  UNL     1     -33.803  17.394  -4.595  1.00 20.00     0.001 C 
HETATM    2  C3  UNL     1     -33.614  15.945  -5.030  1.00 20.00     0.011 C 
HETATM    3  C4  UNL     1     -33.796  17.534  -3.073  1.00 20.00     0.009 C 
HETATM    4  C5  UNL     1     -34.629  15.155  -2.852  1.00 20.00     0.020 C 
HETATM    5  C6  UNL     1     -34.641  15.019  -4.377  1.00 20.00     0.048 C 
HETATM    6  C7  UNL     1     -34.814  16.612  -2.366  1.00 20.00    -0.047 C 
HETATM    7  C8  UNL     1     -34.568  16.667  -0.846  1.00 20.00     0.015 C 
HETATM    8  C9  UNL     1     -36.255  17.091  -2.629  1.00 20.00     0.015 C 
ENDROOT
BRANCH   5   9
HETATM    9  C1  UNL     1     -34.334  13.604  -4.762  1.00 20.00     0.235 C 
HETATM   10  O10 UNL     1     -34.998  12.643  -4.389  1.00 20.00    -0.306 OA
ENDBRANCH   5   9
TORSDOF 1
ENDMDL
MODEL 2
REMARK VINA RESULT:      -4.5      2.125      3.645
REMARK  1 active torsions:
REMARK  status: ('A' for Active; 'I' for Inactive)
REMARK    1  A    between atoms: C1_1  and  C6_6 
ROOT
HETATM    1  C2  UNL     1     -33.300  16.634  -4.843  1.00 20.00     0.001 C 
HETATM    2  C3  UNL     1     -33.681  17.390  -3.574  1.00 20.00     0.011 C 
HETATM    3  C4  UNL     1     -34.263  15.481  -5.125  1.00 20.00     0.009 C 
HETATM    4  C5  UNL     1     -34.771  15.301  -2.653  1.00 20.00     0.020 C 
HETATM    5  C6  UNL     1     -33.802  16.453  -2.372  1.00 20.00     0.048 C 
HETATM    6  C7  UNL     1     -34.424  14.509  -3.936  1.00 20.00    -0.047 C 
HETATM    7  C8  UNL     1     -35.572  13.528  -4.243  1.00 20.00     0.015 C 
HETATM    8  C9  UNL     1     -33.139  13.684  -3.730  1.00 20.00     0.015 C 
ENDROOT
BRANCH   5   9
HETATM    9  C1  UNL     1     -34.280  17.239  -1.189  1.00 20.00     0.235 C 
HETATM   10  O10 UNL     1     -34.791  16.727  -0.198  1.00 20.00    -0.306 OA
ENDBRANCH   5   9
TORSDOF 1
ENDMDL
MODEL 3
REMARK VINA RESULT:      -4.5     11.417     13.055
REMARK  1 active torsions:
REMARK  status: ('A' for Active; 'I' for Inactive)
REMARK    1  A    between atoms: C1_1  and  C6_6 
ROOT
HETATM    1  C2  UNL     1     -40.768   5.903  -0.230  1.00 20.00     0.001 C 
HETATM    2  C3  UNL     1     -41.160   7.082  -1.115  1.00 20.00     0.011 C 
HETATM    3  C4  UNL     1     -40.684   4.601  -1.027  1.00 20.00     0.009 C 
HETATM    4  C5  UNL     1     -42.367   5.507  -2.684  1.00 20.00     0.020 C 
HETATM    5  C6  UNL     1     -42.453   6.808  -1.882  1.00 20.00     0.048 C 
HETATM    6  C7  UNL     1     -41.968   4.284  -1.825  1.00 20.00    -0.047 C 
HETATM    7  C8  UNL     1     -41.696   3.086  -2.755  1.00 20.00     0.015 C 
HETATM    8  C9  UNL     1     -43.116   3.893  -0.874  1.00 20.00     0.015 C 
ENDROOT
BRANCH   5   9
HETATM    9  C1  UNL     1     -42.723   7.956  -2.807  1.00 20.00     0.235 C 
HETATM   10  O10 UNL     1     -42.279   8.024  -3.948  1.00 20.00    -0.306 OA
ENDBRANCH   5   9
TORSDOF 1
ENDMDL
MODEL 4
REMARK VINA RESULT:      -4.4      1.133      2.024
REMARK  1 active torsions:
REMARK  status: ('A' for Active; 'I' for Inactive)
REMARK    1  A    between atoms: C1_1  and  C6_6 
ROOT
HETATM    1  C2  UNL     1     -36.748  15.945  -3.144  1.00 20.00     0.001 C 
HETATM    2  C3  UNL     1     -36.001  14.860  -3.912  1.00 20.00     0.011 C 
HETATM    3  C4  UNL     1     -35.898  17.204  -2.975  1.00 20.00     0.009 C 
HETATM    4  C5  UNL     1     -33.796  15.803  -3.108  1.00 20.00     0.020 C 
HETATM    5  C6  UNL     1     -34.649  14.542  -3.273  1.00 20.00     0.048 C 
HETATM    6  C7  UNL     1     -34.517  16.934  -2.337  1.00 20.00    -0.047 C 
HETATM    7  C8  UNL     1     -33.668  18.217  -2.420  1.00 20.00     0.015 C 
HETATM    8  C9  UNL     1     -34.669  16.562  -0.849  1.00 20.00     0.015 C 
ENDROOT
BRANCH   5   9
HETATM    9  C1  UNL     1     -33.925  13.550  -4.132  1.00 20.00     0.235 C 
HETATM   10  O10 UNL     1     -34.488  12.657  -4.756  1.00 20.00    -0.306 OA
ENDBRANCH   5   9
TORSDOF 1
ENDMDL
MODEL 5
REMARK VINA RESULT:      -4.4      1.810      2.705
REMARK  1 active torsions:
REMARK  status: ('A' for Active; 'I' for Inactive)
REMARK    1  A    between atoms: C1_1  and  C6_6 
ROOT
HETATM    1  C2  UNL     1     -33.934  13.769  -4.284  1.00 20.00     0.001 C 
HETATM    2  C3  UNL     1     -35.450  13.650  -4.397  1.00 20.00     0.011 C 
HETATM    3  C4  UNL     1     -33.522  14.642  -3.099  1.00 20.00     0.009 C 
HETATM    4  C5  UNL     1     -35.715  15.893  -3.259  1.00 20.00     0.020 C 
HETATM    5  C6  UNL     1     -36.124  15.021  -4.450  1.00 20.00     0.048 C 
HETATM    6  C7  UNL     1     -34.183  16.038  -3.104  1.00 20.00    -0.047 C 
HETATM    7  C8  UNL     1     -33.880  16.741  -1.766  1.00 20.00     0.015 C 
HETATM    8  C9  UNL     1     -33.605  16.909  -4.237  1.00 20.00     0.015 C 
ENDROOT
BRANCH   5   9
HETATM    9  C1  UNL     1     -37.611  14.833  -4.453  1.00 20.00     0.235 C 
HETATM   10  O10 UNL     1     -38.224  14.276  -3.549  1.00 20.00    -0.306 OA
ENDBRANCH   5   9
TORSDOF 1
ENDMDL
MODEL 6
REMARK VINA RESULT:      -4.3     12.476     13.807
REMARK  1 active torsions:
REMARK  status: ('A' for Active; 'I' for Inactive)
REMARK    1  A    between atoms: C1_1  and  C6_6 
ROOT
HETATM    1  C2  UNL     1     -35.229   4.118   5.877  1.00 20.00     0.001 C 
HETATM    2  C3  UNL     1     -34.334   5.078   6.653  1.00 20.00     0.011 C 
HETATM    3  C4  UNL     1     -34.790   3.989   4.419  1.00 20.00     0.009 C 
HETATM    4  C5  UNL     1     -33.796   6.314   4.512  1.00 20.00     0.020 C 
HETATM    5  C6  UNL     1     -34.242   6.443   5.972  1.00 20.00     0.048 C 
HETATM    6  C7  UNL     1     -34.676   5.345   3.688  1.00 20.00    -0.047 C 
HETATM    7  C8  UNL     1     -34.018   5.119   2.313  1.00 20.00     0.015 C 
HETATM    8  C9  UNL     1     -36.072   5.952   3.449  1.00 20.00     0.015 C 
ENDROOT
BRANCH   5   9
HETATM    9  C1  UNL     1     -33.268   7.298   6.724  1.00 20.00     0.235 C 
HETATM   10  O10 UNL     1     -33.593   8.055   7.632  1.00 20.00    -0.306 OA
ENDBRANCH   5   9
TORSDOF 1
ENDMDL
MODEL 7
REMARK VINA RESULT:      -4.2      2.072      3.557
REMARK  1 active torsions:
REMARK  status: ('A' for Active; 'I' for Inactive)
REMARK    1  A    between atoms: C1_1  and  C6_6 
ROOT
HETATM    1  C2  UNL     1     -33.387  15.082  -3.931  1.00 20.00     0.001 C 
HETATM    2  C3  UNL     1     -34.759  15.010  -3.268  1.00 20.00     0.011 C 
HETATM    3  C4  UNL     1     -33.296  16.247  -4.916  1.00 20.00     0.009 C 
HETATM    4  C5  UNL     1     -35.796  16.132  -5.285  1.00 20.00     0.020 C 
HETATM    5  C6  UNL     1     -35.885  14.961  -4.301  1.00 20.00     0.048 C 
HETATM    6  C7  UNL     1     -34.418  16.246  -5.977  1.00 20.00    -0.047 C 
HETATM    7  C8  UNL     1     -34.362  17.568  -6.767  1.00 20.00     0.015 C 
HETATM    8  C9  UNL     1     -34.218  15.090  -6.977  1.00 20.00     0.015 C 
ENDROOT
BRANCH   5   9
HETATM    9  C1  UNL     1     -37.202  14.999  -3.588  1.00 20.00     0.235 C 
HETATM   10  O10 UNL     1     -38.090  14.171  -3.763  1.00 20.00    -0.306 OA
ENDBRANCH   5   9
TORSDOF 1
ENDMDL
MODEL 8
REMARK VINA RESULT:      -4.2      2.298      3.490
REMARK  1 active torsions:
REMARK  status: ('A' for Active; 'I' for Inactive)
REMARK    1  A    between atoms: C1_1  and  C6_6 
ROOT
HETATM    1  C2  UNL     1     -34.764  13.283  -5.116  1.00 20.00     0.001 C 
HETATM    2  C3  UNL     1     -35.050  14.246  -6.264  1.00 20.00     0.011 C 
HETATM    3  C4  UNL     1     -34.883  13.971  -3.757  1.00 20.00     0.009 C 
HETATM    4  C5  UNL     1     -34.293  16.187  -4.828  1.00 20.00     0.020 C 
HETATM    5  C6  UNL     1     -34.170  15.494  -6.188  1.00 20.00     0.048 C 
HETATM    6  C7  UNL     1     -34.015  15.244  -3.634  1.00 20.00    -0.047 C 
HETATM    7  C8  UNL     1     -34.378  15.972  -2.325  1.00 20.00     0.015 C 
HETATM    8  C9  UNL     1     -32.519  14.877  -3.571  1.00 20.00     0.015 C 
ENDROOT
BRANCH   5   9
HETATM    9  C1  UNL     1     -34.574  16.441  -7.277  1.00 20.00     0.235 C 
HETATM   10  O10 UNL     1     -34.532  17.661  -7.162  1.00 20.00    -0.306 OA
ENDBRANCH   5   9
TORSDOF 1
ENDMDL
MODEL 9
REMARK VINA RESULT:      -4.1      2.132      3.937
REMARK  1 active torsions:
REMARK  status: ('A' for Active; 'I' for Inactive)
REMARK    1  A    between atoms: C1_1  and  C6_6 
ROOT
HETATM    1  C2  UNL     1     -34.961  13.339  -4.565  1.00 20.00     0.001 C 
HETATM    2  C3  UNL     1     -34.372  14.072  -3.364  1.00 20.00     0.011 C 
HETATM    3  C4  UNL     1     -34.681  14.079  -5.872  1.00 20.00     0.009 C 
HETATM    4  C5  UNL     1     -34.559  16.267  -4.607  1.00 20.00     0.020 C 
HETATM    5  C6  UNL     1     -34.845  15.524  -3.299  1.00 20.00     0.048 C 
HETATM    6  C7  UNL     1     -35.136  15.556  -5.854  1.00 20.00    -0.047 C 
HETATM    7  C8  UNL     1     -34.608  16.258  -7.119  1.00 20.00     0.015 C 
HETATM    8  C9  UNL     1     -36.674  15.650  -5.867  1.00 20.00     0.015 C 
ENDROOT
BRANCH   5   9
HETATM    9  C1  UNL     1     -34.150  16.212  -2.164  1.00 20.00     0.235 C 
HETATM   10  O10 UNL     1     -34.623  16.303  -1.036  1.00 20.00    -0.306 OA
ENDBRANCH   5   9
TORSDOF 1
ENDMDL
