MODEL 1
REMARK VINA RESULT:      -5.1      0.000      0.000
REMARK  0 active torsions:
REMARK  status: ('A' for Active; 'I' for Inactive)
ROOT
HETATM    1  C1  UNL     1     -34.452  13.953  -5.272  1.00 20.00     0.131 C 
HETATM    2  C2  UNL     1     -34.529  14.785  -6.520  1.00 20.00     0.079 C 
HETATM    3  C3  UNL     1     -34.258  16.182  -5.986  1.00 20.00     0.013 C 
HETATM    4  C4  UNL     1     -34.157  14.669  -2.828  1.00 20.00     0.021 C 
HETATM    5  C5  UNL     1     -33.761  16.928  -3.579  1.00 20.00     0.014 C 
HETATM    6  C6  UNL     1     -33.563  14.584  -4.229  1.00 20.00     0.060 C 
HETATM    7  C7  UNL     1     -33.373  16.016  -4.745  1.00 20.00    -0.002 C 
HETATM    8  C8  UNL     1     -34.697  16.102  -2.675  1.00 20.00    -0.047 C 
HETATM    9  C9  UNL     1     -36.166  16.188  -3.114  1.00 20.00     0.015 C 
HETATM   10  C10 UNL     1     -34.603  16.578  -1.220  1.00 20.00     0.015 C 
HETATM   11  O11 UNL     1     -34.990  12.860  -5.149  1.00 20.00    -0.298 OA
ENDROOT
TORSDOF 0
ENDMDL
MODEL 2
REMARK VINA RESULT:      -4.9      1.368      2.898
REMARK  0 active torsions:
REMARK  status: ('A' for Active; 'I' for Inactive)
ROOT
HETATM    1  C1  UNL     1     -34.560  13.591  -4.042  1.00 20.00     0.131 C 
HETATM    2  C2  UNL     1     -33.133  13.681  -3.584  1.00 20.00     0.079 C 
HETATM    3  C3  UNL     1     -32.858  15.172  -3.694  1.00 20.00     0.013 C 
HETATM    4  C4  UNL     1     -36.108  15.406  -4.981  1.00 20.00     0.021 C 
HETATM    5  C5  UNL     1     -34.434  17.058  -4.439  1.00 20.00     0.014 C 
HETATM    6  C6  UNL     1     -35.313  14.874  -3.794  1.00 20.00     0.060 C 
HETATM    7  C7  UNL     1     -34.200  15.884  -3.486  1.00 20.00    -0.002 C 
HETATM    8  C8  UNL     1     -35.238  16.497  -5.629  1.00 20.00    -0.047 C 
HETATM    9  C9  UNL     1     -34.336  15.905  -6.723  1.00 20.00     0.015 C 
HETATM   10  C10 UNL     1     -36.103  17.593  -6.263  1.00 20.00     0.015 C 
HETATM   11  O11 UNL     1     -35.065  12.572  -4.495  1.00 20.00    -0.298 OA
ENDROOT
TORSDOF 0
ENDMDL
MODEL 3
REMARK VINA RESULT:      -4.8      1.461      2.093
REMARK  0 active torsions:
REMARK  status: ('A' for Active; 'I' for Inactive)
ROOT
HETATM    1  C1  UNL     1     -34.017  13.800  -4.109  1.00 20.00     0.131 C 
HETATM    2  C2  UNL     1     -35.417  13.274  -4.242  1.00 20.00     0.079 C 
HETATM    3  C3  UNL     1     -36.243  14.548  -4.165  1.00 20.00     0.013 C 
HETATM    4  C4  UNL     1     -33.188  16.184  -3.653  1.00 20.00     0.021 C 
HETATM    5  C5  UNL     1     -35.452  16.977  -3.909  1.00 20.00     0.014 C 
HETATM    6  C6  UNL     1     -33.902  15.223  -4.598  1.00 20.00     0.060 C 
HETATM    7  C7  UNL     1     -35.362  15.678  -4.711  1.00 20.00    -0.002 C 
HETATM    8  C8  UNL     1     -34.291  16.943  -2.896  1.00 20.00    -0.047 C 
HETATM    9  C9  UNL     1     -34.665  16.219  -1.594  1.00 20.00     0.015 C 
HETATM   10  C10 UNL     1     -33.841  18.366  -2.540  1.00 20.00     0.015 C 
HETATM   11  O11 UNL     1     -33.072  13.127  -3.717  1.00 20.00    -0.298 OA
ENDROOT
TORSDOF 0
ENDMDL
MODEL 4
REMARK VINA RESULT:      -4.7      1.921      3.935
REMARK  0 active torsions:
REMARK  status: ('A' for Active; 'I' for Inactive)
ROOT
HETATM    1  C1  UNL     1     -33.698  17.098  -3.699  1.00 20.00     0.131 C 
HETATM    2  C2  UNL     1     -34.075  16.461  -2.393  1.00 20.00     0.079 C 
HETATM    3  C3  UNL     1     -34.470  15.059  -2.826  1.00 20.00     0.013 C 
HETATM    4  C4  UNL     1     -33.862  16.182  -6.089  1.00 20.00     0.021 C 
HETATM    5  C5  UNL     1     -34.464  14.029  -5.180  1.00 20.00     0.014 C 
HETATM    6  C6  UNL     1     -33.226  16.079  -4.707  1.00 20.00     0.060 C 
HETATM    7  C7  UNL     1     -33.661  14.743  -4.090  1.00 20.00    -0.002 C 
HETATM    8  C8  UNL     1     -34.983  15.129  -6.127  1.00 20.00    -0.047 C 
HETATM    9  C9  UNL     1     -36.318  15.728  -5.661  1.00 20.00     0.015 C 
HETATM   10  C10 UNL     1     -35.175  14.575  -7.545  1.00 20.00     0.015 C 
HETATM   11  O11 UNL     1     -33.705  18.307  -3.893  1.00 20.00    -0.298 OA
ENDROOT
TORSDOF 0
ENDMDL
MODEL 5
REMARK VINA RESULT:      -4.7      1.491      3.769
REMARK  0 active torsions:
REMARK  status: ('A' for Active; 'I' for Inactive)
ROOT
HETATM    1  C1  UNL     1     -34.111  14.098  -3.436  1.00 20.00     0.131 C 
HETATM    2  C2  UNL     1     -34.321  15.342  -2.621  1.00 20.00     0.079 C 
HETATM    3  C3  UNL     1     -35.351  16.094  -3.448  1.00 20.00     0.013 C 
HETATM    4  C4  UNL     1     -35.052  13.453  -5.731  1.00 20.00     0.021 C 
HETATM    5  C5  UNL     1     -36.473  15.402  -5.652  1.00 20.00     0.014 C 
HETATM    6  C6  UNL     1     -35.325  13.757  -4.262  1.00 20.00     0.060 C 
HETATM    7  C7  UNL     1     -36.169  15.036  -4.198  1.00 20.00    -0.002 C 
HETATM    8  C8  UNL     1     -35.370  14.745  -6.505  1.00 20.00    -0.047 C 
HETATM    9  C9  UNL     1     -34.121  15.630  -6.637  1.00 20.00     0.015 C 
HETATM   10  C10 UNL     1     -35.888  14.435  -7.915  1.00 20.00     0.015 C 
HETATM   11  O11 UNL     1     -33.101  13.409  -3.376  1.00 20.00    -0.298 OA
ENDROOT
TORSDOF 0
ENDMDL
MODEL 6
REMARK VINA RESULT:      -4.6      1.805      2.687
REMARK  0 active torsions:
REMARK  status: ('A' for Active; 'I' for Inactive)
ROOT
HETATM    1  C1  UNL     1     -37.225  14.858  -4.414  1.00 20.00     0.131 C 
HETATM    2  C2  UNL     1     -37.604  16.230  -4.891  1.00 20.00     0.079 C 
HETATM    3  C3  UNL     1     -36.251  16.833  -5.232  1.00 20.00     0.013 C 
HETATM    4  C4  UNL     1     -34.908  13.822  -4.047  1.00 20.00     0.021 C 
HETATM    5  C5  UNL     1     -33.918  15.770  -5.070  1.00 20.00     0.014 C 
HETATM    6  C6  UNL     1     -35.929  14.388  -5.028  1.00 20.00     0.060 C 
HETATM    7  C7  UNL     1     -35.338  15.668  -5.632  1.00 20.00    -0.002 C 
HETATM    8  C8  UNL     1     -33.910  14.957  -3.760  1.00 20.00    -0.047 C 
HETATM    9  C9  UNL     1     -34.354  15.788  -2.547  1.00 20.00     0.015 C 
HETATM   10  C10 UNL     1     -32.508  14.404  -3.475  1.00 20.00     0.015 C 
HETATM   11  O11 UNL     1     -37.924  14.178  -3.674  1.00 20.00    -0.298 OA
ENDROOT
TORSDOF 0
ENDMDL
MODEL 7
REMARK VINA RESULT:      -4.5      1.379      2.455
REMARK  0 active torsions:
REMARK  status: ('A' for Active; 'I' for Inactive)
ROOT
HETATM    1  C1  UNL     1     -35.703  14.444  -5.041  1.00 20.00     0.131 C 
HETATM    2  C2  UNL     1     -34.747  13.290  -4.937  1.00 20.00     0.079 C 
HETATM    3  C3  UNL     1     -33.730  13.811  -3.934  1.00 20.00     0.013 C 
HETATM    4  C4  UNL     1     -35.586  16.781  -3.994  1.00 20.00     0.021 C 
HETATM    5  C5  UNL     1     -33.674  16.066  -2.707  1.00 20.00     0.014 C 
HETATM    6  C6  UNL     1     -35.717  15.277  -3.783  1.00 20.00     0.060 C 
HETATM    7  C7  UNL     1     -34.471  14.800  -3.027  1.00 20.00    -0.002 C 
HETATM    8  C8  UNL     1     -34.108  17.124  -3.740  1.00 20.00    -0.047 C 
HETATM    9  C9  UNL     1     -33.293  17.048  -5.039  1.00 20.00     0.015 C 
HETATM   10  C10 UNL     1     -33.957  18.538  -3.162  1.00 20.00     0.015 C 
HETATM   11  O11 UNL     1     -36.432  14.637  -6.005  1.00 20.00    -0.298 OA
ENDROOT
TORSDOF 0
ENDMDL
MODEL 8
REMARK VINA RESULT:      -4.5      1.610      2.390
REMARK  0 active torsions:
REMARK  status: ('A' for Active; 'I' for Inactive)
ROOT
HETATM    1  C1  UNL     1     -36.533  15.221  -5.682  1.00 20.00     0.131 C 
HETATM    2  C2  UNL     1     -35.577  14.492  -6.582  1.00 20.00     0.079 C 
HETATM    3  C3  UNL     1     -34.486  14.071  -5.611  1.00 20.00     0.013 C 
HETATM    4  C4  UNL     1     -36.329  15.817  -3.197  1.00 20.00     0.021 C 
HETATM    5  C5  UNL     1     -34.330  14.471  -3.079  1.00 20.00     0.014 C 
HETATM    6  C6  UNL     1     -36.451  14.729  -4.258  1.00 20.00     0.060 C 
HETATM    7  C7  UNL     1     -35.154  13.911  -4.240  1.00 20.00    -0.002 C 
HETATM    8  C8  UNL     1     -34.835  15.907  -2.842  1.00 20.00    -0.047 C 
HETATM    9  C9  UNL     1     -34.119  16.938  -3.728  1.00 20.00     0.015 C 
HETATM   10  C10 UNL     1     -34.636  16.316  -1.376  1.00 20.00     0.015 C 
HETATM   11  O11 UNL     1     -37.332  16.061  -6.076  1.00 20.00    -0.298 OA
ENDROOT
TORSDOF 0
ENDMDL
MODEL 9
REMARK VINA RESULT:      -4.5      1.833      2.683
REMARK  0 active torsions:
REMARK  status: ('A' for Active; 'I' for Inactive)
ROOT
HETATM    1  C1  UNL     1     -34.704  16.278  -6.543  1.00 20.00     0.131 C 
HETATM    2  C2  UNL     1     -34.630  14.913  -7.164  1.00 20.00     0.079 C 
HETATM    3  C3  UNL     1     -34.946  14.010  -5.983  1.00 20.00     0.013 C 
HETATM    4  C4  UNL     1     -35.055  16.960  -4.097  1.00 20.00     0.021 C 
HETATM    5  C5  UNL     1     -35.500  14.650  -3.558  1.00 20.00     0.014 C 
HETATM    6  C6  UNL     1     -35.625  16.304  -5.349  1.00 20.00     0.060 C 
HETATM    7  C7  UNL     1     -35.845  14.817  -5.039  1.00 20.00    -0.002 C 
HETATM    8  C8  UNL     1     -34.556  15.815  -3.199  1.00 20.00    -0.047 C 
HETATM    9  C9  UNL     1     -33.083  15.490  -3.486  1.00 20.00     0.015 C 
HETATM   10  C10 UNL     1     -34.685  16.177  -1.714  1.00 20.00     0.015 C 
HETATM   11  O11 UNL     1     -34.139  17.264  -7.000  1.00 20.00    -0.298 OA
ENDROOT
TORSDOF 0
ENDMDL
