MODEL 1
REMARK VINA RESULT:      -3.3      0.000      0.000
REMARK  0 active torsions:
REMARK  status: ('A' for Active; 'I' for Inactive)
ROOT
HETATM    1  C1  UNL     1     -35.108  15.286  -2.846  1.00 20.00     0.292 C 
HETATM    2  C2  UNL     1     -33.684  17.141  -3.107  1.00 20.00     0.346 C 
HETATM    3  C3  UNL     1     -34.402  14.798  -4.125  1.00 20.00     0.029 C 
HETATM    4  C4  UNL     1     -35.405  14.307  -5.167  1.00 20.00     0.028 C 
HETATM    5  C5  UNL     1     -33.355  13.718  -3.832  1.00 20.00     0.028 C 
HETATM    6  C6  UNL     1     -34.755  16.782  -0.966  1.00 20.00     0.310 C 
HETATM    7  N7  UNL     1     -34.158  16.153  -2.137  1.00 20.00     0.094 N 
HETATM    8  S8  UNL     1     -33.551  16.304  -4.715  1.00 20.00    -0.128 SA
ENDROOT
TORSDOF 0
ENDMDL
MODEL 2
REMARK VINA RESULT:      -3.3      2.259      3.625
REMARK  0 active torsions:
REMARK  status: ('A' for Active; 'I' for Inactive)
ROOT
HETATM    1  C1  UNL     1     -34.381  16.071  -4.942  1.00 20.00     0.292 C 
HETATM    2  C2  UNL     1     -35.107  14.102  -6.007  1.00 20.00     0.346 C 
HETATM    3  C3  UNL     1     -34.107  15.114  -3.767  1.00 20.00     0.029 C 
HETATM    4  C4  UNL     1     -34.668  15.662  -2.455  1.00 20.00     0.028 C 
HETATM    5  C5  UNL     1     -32.617  14.786  -3.623  1.00 20.00     0.028 C 
HETATM    6  C6  UNL     1     -34.619  16.050  -7.359  1.00 20.00     0.310 C 
HETATM    7  N7  UNL     1     -34.257  15.282  -6.175  1.00 20.00     0.094 N 
HETATM    8  S8  UNL     1     -35.002  13.599  -4.263  1.00 20.00    -0.128 SA
ENDROOT
TORSDOF 0
ENDMDL
MODEL 3
REMARK VINA RESULT:      -3.3      1.607      3.476
REMARK  0 active torsions:
REMARK  status: ('A' for Active; 'I' for Inactive)
ROOT
HETATM    1  C1  UNL     1     -33.665  15.886  -3.040  1.00 20.00     0.292 C 
HETATM    2  C2  UNL     1     -35.756  15.039  -3.707  1.00 20.00     0.346 C 
HETATM    3  C3  UNL     1     -34.529  16.923  -2.298  1.00 20.00     0.029 C 
HETATM    4  C4  UNL     1     -34.038  18.347  -2.550  1.00 20.00     0.028 C 
HETATM    5  C5  UNL     1     -34.612  16.638  -0.794  1.00 20.00     0.028 C 
HETATM    6  C6  UNL     1     -33.798  13.634  -3.936  1.00 20.00     0.310 C 
HETATM    7  N7  UNL     1     -34.462  14.657  -3.139  1.00 20.00     0.094 N 
HETATM    8  S8  UNL     1     -36.182  16.675  -3.040  1.00 20.00    -0.128 SA
ENDROOT
TORSDOF 0
ENDMDL
MODEL 4
REMARK VINA RESULT:      -3.2      2.299      3.775
REMARK  0 active torsions:
REMARK  status: ('A' for Active; 'I' for Inactive)
ROOT
HETATM    1  C1  UNL     1     -34.761  13.983  -5.734  1.00 20.00     0.292 C 
HETATM    2  C2  UNL     1     -34.319  16.109  -6.640  1.00 20.00     0.346 C 
HETATM    3  C3  UNL     1     -34.307  14.652  -4.423  1.00 20.00     0.029 C 
HETATM    4  C4  UNL     1     -33.294  13.788  -3.674  1.00 20.00     0.028 C 
HETATM    5  C5  UNL     1     -35.490  15.007  -3.515  1.00 20.00     0.028 C 
HETATM    6  C6  UNL     1     -35.671  14.554  -7.911  1.00 20.00     0.310 C 
HETATM    7  N7  UNL     1     -35.320  15.042  -6.584  1.00 20.00     0.094 N 
HETATM    8  S8  UNL     1     -33.524  16.196  -5.008  1.00 20.00    -0.128 SA
ENDROOT
TORSDOF 0
ENDMDL
MODEL 5
REMARK VINA RESULT:      -3.2      1.784      2.641
REMARK  0 active torsions:
REMARK  status: ('A' for Active; 'I' for Inactive)
ROOT
HETATM    1  C1  UNL     1     -34.301  15.955  -4.870  1.00 20.00     0.292 C 
HETATM    2  C2  UNL     1     -34.235  14.113  -3.408  1.00 20.00     0.346 C 
HETATM    3  C3  UNL     1     -35.033  14.962  -5.792  1.00 20.00     0.029 C 
HETATM    4  C4  UNL     1     -34.458  14.981  -7.207  1.00 20.00     0.028 C 
HETATM    5  C5  UNL     1     -36.546  15.206  -5.820  1.00 20.00     0.028 C 
HETATM    6  C6  UNL     1     -33.825  16.327  -2.519  1.00 20.00     0.310 C 
HETATM    7  N7  UNL     1     -34.570  15.535  -3.489  1.00 20.00     0.094 N 
HETATM    8  S8  UNL     1     -34.707  13.352  -4.990  1.00 20.00    -0.128 SA
ENDROOT
TORSDOF 0
ENDMDL
MODEL 6
REMARK VINA RESULT:      -3.2     12.936     13.865
REMARK  0 active torsions:
REMARK  status: ('A' for Active; 'I' for Inactive)
ROOT
HETATM    1  C1  UNL     1     -41.083   4.293  -1.635  1.00 20.00     0.292 C 
HETATM    2  C2  UNL     1     -43.007   4.452  -2.980  1.00 20.00     0.346 C 
HETATM    3  C3  UNL     1     -41.795   5.381  -0.810  1.00 20.00     0.029 C 
HETATM    4  C4  UNL     1     -40.856   6.539  -0.479  1.00 20.00     0.028 C 
HETATM    5  C5  UNL     1     -42.429   4.818   0.467  1.00 20.00     0.028 C 
HETATM    6  C6  UNL     1     -41.577   2.512  -3.210  1.00 20.00     0.310 C 
HETATM    7  N7  UNL     1     -42.130   3.502  -2.294  1.00 20.00     0.094 N 
HETATM    8  S8  UNL     1     -43.124   5.936  -1.936  1.00 20.00    -0.128 SA
ENDROOT
TORSDOF 0
ENDMDL
MODEL 7
REMARK VINA RESULT:      -3.1      2.022      2.693
REMARK  0 active torsions:
REMARK  status: ('A' for Active; 'I' for Inactive)
ROOT
HETATM    1  C1  UNL     1     -33.318  16.121  -4.620  1.00 20.00     0.292 C 
HETATM    2  C2  UNL     1     -35.295  17.170  -3.894  1.00 20.00     0.346 C 
HETATM    3  C3  UNL     1     -34.178  14.847  -4.526  1.00 20.00     0.029 C 
HETATM    4  C4  UNL     1     -33.450  13.732  -3.778  1.00 20.00     0.028 C 
HETATM    5  C5  UNL     1     -34.644  14.360  -5.902  1.00 20.00     0.028 C 
HETATM    6  C6  UNL     1     -33.550  18.523  -4.887  1.00 20.00     0.310 C 
HETATM    7  N7  UNL     1     -34.232  17.236  -4.899  1.00 20.00     0.094 N 
HETATM    8  S8  UNL     1     -35.632  15.413  -3.573  1.00 20.00    -0.128 SA
ENDROOT
TORSDOF 0
ENDMDL
MODEL 8
REMARK VINA RESULT:      -3.1      2.069      3.625
REMARK  0 active torsions:
REMARK  status: ('A' for Active; 'I' for Inactive)
ROOT
HETATM    1  C1  UNL     1     -35.687  15.741  -4.556  1.00 20.00     0.292 C 
HETATM    2  C2  UNL     1     -34.948  13.678  -5.413  1.00 20.00     0.346 C 
HETATM    3  C3  UNL     1     -34.448  15.600  -3.653  1.00 20.00     0.029 C 
HETATM    4  C4  UNL     1     -34.787  15.872  -2.189  1.00 20.00     0.028 C 
HETATM    5  C5  UNL     1     -33.290  16.492  -4.115  1.00 20.00     0.028 C 
HETATM    6  C6  UNL     1     -36.546  14.970  -6.692  1.00 20.00     0.310 C 
HETATM    7  N7  UNL     1     -35.395  15.017  -5.800  1.00 20.00     0.094 N 
HETATM    8  S8  UNL     1     -33.976  13.849  -3.886  1.00 20.00    -0.128 SA
ENDROOT
TORSDOF 0
ENDMDL
MODEL 9
REMARK VINA RESULT:      -3.1      2.236      2.790
REMARK  0 active torsions:
REMARK  status: ('A' for Active; 'I' for Inactive)
ROOT
HETATM    1  C1  UNL     1     -34.970  16.210  -4.368  1.00 20.00     0.292 C 
HETATM    2  C2  UNL     1     -34.142  15.855  -6.541  1.00 20.00     0.346 C 
HETATM    3  C3  UNL     1     -35.311  14.711  -4.453  1.00 20.00     0.029 C 
HETATM    4  C4  UNL     1     -36.745  14.435  -4.003  1.00 20.00     0.028 C 
HETATM    5  C5  UNL     1     -34.321  13.847  -3.663  1.00 20.00     0.028 C 
HETATM    6  C6  UNL     1     -33.466  17.848  -5.343  1.00 20.00     0.310 C 
HETATM    7  N7  UNL     1     -33.810  16.436  -5.239  1.00 20.00     0.094 N 
HETATM    8  S8  UNL     1     -35.119  14.354  -6.235  1.00 20.00    -0.128 SA
ENDROOT
TORSDOF 0
ENDMDL
