MODEL 1
REMARK VINA RESULT:      -4.2      0.000      0.000
REMARK  2 active torsions:
REMARK  status: ('A' for Active; 'I' for Inactive)
REMARK    1  A    between atoms: C1_1  and  C6_6 
REMARK    2  A    between atoms: C7_7  and  N8_8 
ROOT
HETATM    1  C3  UNL     1     -34.453   6.174   6.214  1.00 20.00     0.039 C 
HETATM    2  C4  UNL     1     -35.678   5.685   4.075  1.00 20.00     0.039 C 
HETATM    3  C5  UNL     1     -34.682   3.801   5.408  1.00 20.00     0.039 C 
HETATM    4  C7  UNL     1     -34.528   5.262   4.989  1.00 20.00     0.042 C 
ENDROOT
BRANCH   4   5
HETATM    5  N8  UNL     1     -33.276   5.399   4.231  1.00 20.00    -0.296 NA
HETATM    6  C1  UNL     1     -33.142   6.566   3.713  1.00 20.00     0.084 C 
BRANCH   6   7
HETATM    7  C6  UNL     1     -31.926   6.895   2.894  1.00 20.00     0.042 C 
HETATM    8  C2  UNL     1     -32.149   8.189   2.136  1.00 20.00     0.010 C 
ENDBRANCH   6   7
ENDBRANCH   4   5
TORSDOF 2
ENDMDL
MODEL 2
REMARK VINA RESULT:      -4.2      0.060      1.529
REMARK  2 active torsions:
REMARK  status: ('A' for Active; 'I' for Inactive)
REMARK    1  A    between atoms: C1_1  and  C6_6 
REMARK    2  A    between atoms: C7_7  and  N8_8 
ROOT
HETATM    1  C3  UNL     1     -34.589   3.803   5.430  1.00 20.00     0.039 C 
HETATM    2  C4  UNL     1     -34.421   6.191   6.195  1.00 20.00     0.039 C 
HETATM    3  C5  UNL     1     -35.642   5.639   4.069  1.00 20.00     0.039 C 
HETATM    4  C7  UNL     1     -34.478   5.261   4.983  1.00 20.00     0.042 C 
ENDROOT
BRANCH   4   5
HETATM    5  N8  UNL     1     -33.225   5.422   4.232  1.00 20.00    -0.296 NA
HETATM    6  C1  UNL     1     -33.141   6.568   3.659  1.00 20.00     0.084 C 
BRANCH   6   7
HETATM    7  C6  UNL     1     -31.932   6.918   2.838  1.00 20.00     0.042 C 
HETATM    8  C2  UNL     1     -32.165   8.225   2.106  1.00 20.00     0.010 C 
ENDBRANCH   6   7
ENDBRANCH   4   5
TORSDOF 2
ENDMDL
MODEL 3
REMARK VINA RESULT:      -3.6     11.353     12.325
REMARK  2 active torsions:
REMARK  status: ('A' for Active; 'I' for Inactive)
REMARK    1  A    between atoms: C1_1  and  C6_6 
REMARK    2  A    between atoms: C7_7  and  N8_8 
ROOT
HETATM    1  C3  UNL     1     -33.334  13.654  -3.748  1.00 20.00     0.039 C 
HETATM    2  C4  UNL     1     -35.792  13.981  -4.160  1.00 20.00     0.039 C 
HETATM    3  C5  UNL     1     -34.140  15.661  -5.036  1.00 20.00     0.039 C 
HETATM    4  C7  UNL     1     -34.456  14.680  -3.907  1.00 20.00     0.042 C 
ENDROOT
BRANCH   4   5
HETATM    5  N8  UNL     1     -34.574  15.437  -2.653  1.00 20.00    -0.296 NA
HETATM    6  C1  UNL     1     -33.725  16.397  -2.578  1.00 20.00     0.084 C 
BRANCH   6   7
HETATM    7  C6  UNL     1     -33.687  17.282  -1.364  1.00 20.00     0.042 C 
HETATM    8  C2  UNL     1     -34.778  16.874  -0.393  1.00 20.00     0.010 C 
ENDBRANCH   6   7
ENDBRANCH   4   5
TORSDOF 2
ENDMDL
MODEL 4
REMARK VINA RESULT:      -3.6     11.371     12.313
REMARK  2 active torsions:
REMARK  status: ('A' for Active; 'I' for Inactive)
REMARK    1  A    between atoms: C1_1  and  C6_6 
REMARK    2  A    between atoms: C7_7  and  N8_8 
ROOT
HETATM    1  C3  UNL     1     -35.821  14.004  -4.149  1.00 20.00     0.039 C 
HETATM    2  C4  UNL     1     -34.177  15.696  -5.016  1.00 20.00     0.039 C 
HETATM    3  C5  UNL     1     -33.358  13.688  -3.743  1.00 20.00     0.039 C 
HETATM    4  C7  UNL     1     -34.488  14.706  -3.892  1.00 20.00     0.042 C 
ENDROOT
BRANCH   4   5
HETATM    5  N8  UNL     1     -34.598  15.467  -2.640  1.00 20.00    -0.296 NA
HETATM    6  C1  UNL     1     -33.741  16.421  -2.569  1.00 20.00     0.084 C 
BRANCH   6   7
HETATM    7  C6  UNL     1     -33.694  17.309  -1.357  1.00 20.00     0.042 C 
HETATM    8  C2  UNL     1     -34.770  16.896  -0.373  1.00 20.00     0.010 C 
ENDBRANCH   6   7
ENDBRANCH   4   5
TORSDOF 2
ENDMDL
MODEL 5
REMARK VINA RESULT:      -3.6     11.381     12.342
REMARK  2 active torsions:
REMARK  status: ('A' for Active; 'I' for Inactive)
REMARK    1  A    between atoms: C1_1  and  C6_6 
REMARK    2  A    between atoms: C7_7  and  N8_8 
ROOT
HETATM    1  C3  UNL     1     -34.248  15.655  -5.070  1.00 20.00     0.039 C 
HETATM    2  C4  UNL     1     -33.417  13.661  -3.787  1.00 20.00     0.039 C 
HETATM    3  C5  UNL     1     -35.884  13.977  -4.154  1.00 20.00     0.039 C 
HETATM    4  C7  UNL     1     -34.547  14.681  -3.930  1.00 20.00     0.042 C 
ENDROOT
BRANCH   4   5
HETATM    5  N8  UNL     1     -34.627  15.444  -2.677  1.00 20.00    -0.296 NA
HETATM    6  C1  UNL     1     -33.761  16.391  -2.623  1.00 20.00     0.084 C 
BRANCH   6   7
HETATM    7  C6  UNL     1     -33.684  17.279  -1.413  1.00 20.00     0.042 C 
HETATM    8  C2  UNL     1     -34.763  16.893  -0.420  1.00 20.00     0.010 C 
ENDBRANCH   6   7
ENDBRANCH   4   5
TORSDOF 2
ENDMDL
MODEL 6
REMARK VINA RESULT:      -3.3     11.482     12.470
REMARK  2 active torsions:
REMARK  status: ('A' for Active; 'I' for Inactive)
REMARK    1  A    between atoms: C1_1  and  C6_6 
REMARK    2  A    between atoms: C7_7  and  N8_8 
ROOT
HETATM    1  C3  UNL     1     -36.257  17.474  -2.444  1.00 20.00     0.039 C 
HETATM    2  C4  UNL     1     -34.643  16.737  -0.665  1.00 20.00     0.039 C 
HETATM    3  C5  UNL     1     -33.779  17.596  -2.864  1.00 20.00     0.039 C 
HETATM    4  C7  UNL     1     -34.901  16.825  -2.169  1.00 20.00     0.042 C 
ENDROOT
BRANCH   4   5
HETATM    5  N8  UNL     1     -34.924  15.456  -2.703  1.00 20.00    -0.296 NA
HETATM    6  C1  UNL     1     -33.824  15.137  -3.282  1.00 20.00     0.084 C 
BRANCH   6   7
HETATM    7  C6  UNL     1     -33.659  13.776  -3.898  1.00 20.00     0.042 C 
HETATM    8  C2  UNL     1     -34.999  13.264  -4.387  1.00 20.00     0.010 C 
ENDBRANCH   6   7
ENDBRANCH   4   5
TORSDOF 2
ENDMDL
MODEL 7
REMARK VINA RESULT:      -3.3      1.112      4.105
REMARK  2 active torsions:
REMARK  status: ('A' for Active; 'I' for Inactive)
REMARK    1  A    between atoms: C1_1  and  C6_6 
REMARK    2  A    between atoms: C7_7  and  N8_8 
ROOT
HETATM    1  C3  UNL     1     -31.427   7.609   4.239  1.00 20.00     0.039 C 
HETATM    2  C4  UNL     1     -31.912   5.732   2.641  1.00 20.00     0.039 C 
HETATM    3  C5  UNL     1     -32.551   8.087   2.039  1.00 20.00     0.039 C 
HETATM    4  C7  UNL     1     -32.392   7.080   3.178  1.00 20.00     0.042 C 
ENDROOT
BRANCH   4   5
HETATM    5  N8  UNL     1     -33.705   6.875   3.804  1.00 20.00    -0.296 NA
HETATM    6  C1  UNL     1     -33.936   5.639   4.063  1.00 20.00     0.084 C 
BRANCH   6   7
HETATM    7  C6  UNL     1     -35.234   5.229   4.700  1.00 20.00     0.042 C 
HETATM    8  C2  UNL     1     -34.963   4.341   5.899  1.00 20.00     0.010 C 
ENDBRANCH   6   7
ENDBRANCH   4   5
TORSDOF 2
ENDMDL
MODEL 8
REMARK VINA RESULT:      -3.2      9.071     10.731
REMARK  2 active torsions:
REMARK  status: ('A' for Active; 'I' for Inactive)
REMARK    1  A    between atoms: C1_1  and  C6_6 
REMARK    2  A    between atoms: C7_7  and  N8_8 
ROOT
HETATM    1  C3  UNL     1     -43.026   5.225  -0.514  1.00 20.00     0.039 C 
HETATM    2  C4  UNL     1     -40.702   6.072  -0.068  1.00 20.00     0.039 C 
HETATM    3  C5  UNL     1     -41.831   6.600  -2.251  1.00 20.00     0.039 C 
HETATM    4  C7  UNL     1     -41.671   5.567  -1.136  1.00 20.00     0.042 C 
ENDROOT
BRANCH   4   5
HETATM    5  N8  UNL     1     -41.104   4.341  -1.716  1.00 20.00    -0.296 NA
HETATM    6  C1  UNL     1     -41.920   3.755  -2.516  1.00 20.00     0.084 C 
BRANCH   6   7
HETATM    7  C6  UNL     1     -41.521   2.479  -3.203  1.00 20.00     0.042 C 
HETATM    8  C2  UNL     1     -42.632   1.455  -3.077  1.00 20.00     0.010 C 
ENDBRANCH   6   7
ENDBRANCH   4   5
TORSDOF 2
ENDMDL
MODEL 9
REMARK VINA RESULT:      -3.2      1.100      4.111
REMARK  2 active torsions:
REMARK  status: ('A' for Active; 'I' for Inactive)
REMARK    1  A    between atoms: C1_1  and  C6_6 
REMARK    2  A    between atoms: C7_7  and  N8_8 
ROOT
HETATM    1  C3  UNL     1     -32.538   8.101   2.042  1.00 20.00     0.039 C 
HETATM    2  C4  UNL     1     -31.419   7.590   4.234  1.00 20.00     0.039 C 
HETATM    3  C5  UNL     1     -31.913   5.732   2.615  1.00 20.00     0.039 C 
HETATM    4  C7  UNL     1     -32.385   7.076   3.166  1.00 20.00     0.042 C 
ENDROOT
BRANCH   4   5
HETATM    5  N8  UNL     1     -33.697   6.883   3.801  1.00 20.00    -0.296 NA
HETATM    6  C1  UNL     1     -33.921   5.655   4.098  1.00 20.00     0.084 C 
BRANCH   6   7
HETATM    7  C6  UNL     1     -35.216   5.258   4.750  1.00 20.00     0.042 C 
HETATM    8  C2  UNL     1     -34.947   4.291   5.887  1.00 20.00     0.010 C 
ENDBRANCH   6   7
ENDBRANCH   4   5
TORSDOF 2
ENDMDL
