MODEL 1
REMARK VINA RESULT:      -4.0      0.000      0.000
REMARK  2 active torsions:
REMARK  status: ('A' for Active; 'I' for Inactive)
REMARK       I    between atoms: C1_1  and  N9_9 
REMARK    1  A    between atoms: C7_7  and  C8_8 
REMARK    2  A    between atoms: C7_7  and  N9_9 
ROOT
HETATM    1  C3  UNL     1     -34.657  16.010  -2.073  1.00 20.00     0.033 C 
HETATM    2  C7  UNL     1     -35.212  15.155  -3.213  1.00 20.00     0.087 C 
ENDROOT
BRANCH   2   3
HETATM    3  C8  UNL     1     -34.151  14.685  -4.262  1.00 20.00    -0.031 C 
HETATM    4  C4  UNL     1     -34.122  15.593  -5.505  1.00 20.00     0.016 C 
HETATM    5  C5  UNL     1     -32.742  14.674  -3.633  1.00 20.00     0.016 C 
HETATM    6  C6  UNL     1     -34.470  13.244  -4.717  1.00 20.00     0.016 C 
ENDBRANCH   2   3
BRANCH   2   7
HETATM    7  N9  UNL     1     -36.313  15.861  -3.835  1.00 20.00    -0.356 N 
HETATM    8  C1  UNL     1     -37.558  15.298  -4.022  1.00 20.00     0.213 C 
HETATM    9  C2  UNL     1     -38.542  16.208  -4.682  1.00 20.00     0.117 C 
HETATM   10  O10 UNL     1     -37.903  14.166  -3.702  1.00 20.00    -0.274 OA
HETATM   11  H27 UNL     1     -36.160  16.814  -4.149  1.00 20.00     0.162 HD
ENDBRANCH   2   7
TORSDOF 2
ENDMDL
MODEL 2
REMARK VINA RESULT:      -4.0      0.047      1.368
REMARK  2 active torsions:
REMARK  status: ('A' for Active; 'I' for Inactive)
REMARK       I    between atoms: C1_1  and  N9_9 
REMARK    1  A    between atoms: C7_7  and  C8_8 
REMARK    2  A    between atoms: C7_7  and  N9_9 
ROOT
HETATM    1  C3  UNL     1     -34.669  16.019  -2.058  1.00 20.00     0.033 C 
HETATM    2  C7  UNL     1     -35.195  15.154  -3.205  1.00 20.00     0.087 C 
ENDROOT
BRANCH   2   3
HETATM    3  C8  UNL     1     -34.108  14.675  -4.222  1.00 20.00    -0.031 C 
HETATM    4  C4  UNL     1     -32.695  14.683  -3.610  1.00 20.00     0.016 C 
HETATM    5  C5  UNL     1     -34.421  13.245  -4.709  1.00 20.00     0.016 C 
HETATM    6  C6  UNL     1     -34.109  15.600  -5.460  1.00 20.00     0.016 C 
ENDBRANCH   2   3
BRANCH   2   7
HETATM    7  N9  UNL     1     -36.279  15.856  -3.861  1.00 20.00    -0.356 N 
HETATM    8  C1  UNL     1     -37.529  15.302  -4.050  1.00 20.00     0.213 C 
HETATM    9  C2  UNL     1     -38.492  16.205  -4.747  1.00 20.00     0.117 C 
HETATM   10  O10 UNL     1     -37.891  14.182  -3.705  1.00 20.00    -0.274 OA
HETATM   11  H27 UNL     1     -36.112  16.798  -4.197  1.00 20.00     0.162 HD
ENDBRANCH   2   7
TORSDOF 2
ENDMDL
MODEL 3
REMARK VINA RESULT:      -3.9      2.046      3.038
REMARK  2 active torsions:
REMARK  status: ('A' for Active; 'I' for Inactive)
REMARK       I    between atoms: C1_1  and  N9_9 
REMARK    1  A    between atoms: C7_7  and  C8_8 
REMARK    2  A    between atoms: C7_7  and  N9_9 
ROOT
HETATM    1  C3  UNL     1     -36.805  14.687  -3.827  1.00 20.00     0.033 C 
HETATM    2  C7  UNL     1     -35.545  15.546  -3.714  1.00 20.00     0.087 C 
ENDROOT
BRANCH   2   3
HETATM    3  C8  UNL     1     -34.310  15.014  -4.513  1.00 20.00    -0.031 C 
HETATM    4  C4  UNL     1     -33.266  16.117  -4.770  1.00 20.00     0.016 C 
HETATM    5  C5  UNL     1     -33.627  13.865  -3.744  1.00 20.00     0.016 C 
HETATM    6  C6  UNL     1     -34.773  14.453  -5.876  1.00 20.00     0.016 C 
ENDBRANCH   2   3
BRANCH   2   7
HETATM    7  N9  UNL     1     -35.238  15.745  -2.313  1.00 20.00    -0.356 N 
HETATM    8  C1  UNL     1     -35.092  16.993  -1.744  1.00 20.00     0.213 C 
HETATM    9  C2  UNL     1     -34.779  16.961  -0.284  1.00 20.00     0.117 C 
HETATM   10  O10 UNL     1     -35.195  18.073  -2.316  1.00 20.00    -0.274 OA
HETATM   11  H27 UNL     1     -35.125  14.928  -1.722  1.00 20.00     0.162 HD
ENDBRANCH   2   7
TORSDOF 2
ENDMDL
MODEL 4
REMARK VINA RESULT:      -3.8      1.915      3.275
REMARK  2 active torsions:
REMARK  status: ('A' for Active; 'I' for Inactive)
REMARK       I    between atoms: C1_1  and  N9_9 
REMARK    1  A    between atoms: C7_7  and  C8_8 
REMARK    2  A    between atoms: C7_7  and  N9_9 
ROOT
HETATM    1  C3  UNL     1     -36.883  14.859  -3.687  1.00 20.00     0.033 C 
HETATM    2  C7  UNL     1     -35.521  15.550  -3.615  1.00 20.00     0.087 C 
ENDROOT
BRANCH   2   3
HETATM    3  C8  UNL     1     -34.370  14.822  -4.384  1.00 20.00    -0.031 C 
HETATM    4  C4  UNL     1     -34.595  13.300  -4.463  1.00 20.00     0.016 C 
HETATM    5  C5  UNL     1     -34.251  15.373  -5.820  1.00 20.00     0.016 C 
HETATM    6  C6  UNL     1     -33.023  15.079  -3.673  1.00 20.00     0.016 C 
ENDBRANCH   2   3
BRANCH   2   7
HETATM    7  N9  UNL     1     -35.184  15.777  -2.225  1.00 20.00    -0.356 N 
HETATM    8  C1  UNL     1     -35.145  17.032  -1.655  1.00 20.00     0.213 C 
HETATM    9  C2  UNL     1     -34.777  17.030  -0.208  1.00 20.00     0.117 C 
HETATM   10  O10 UNL     1     -35.381  18.097  -2.217  1.00 20.00    -0.274 OA
HETATM   11  H27 UNL     1     -34.966  14.975  -1.643  1.00 20.00     0.162 HD
ENDBRANCH   2   7
TORSDOF 2
ENDMDL
MODEL 5
REMARK VINA RESULT:      -3.8      2.235      4.215
REMARK  2 active torsions:
REMARK  status: ('A' for Active; 'I' for Inactive)
REMARK       I    between atoms: C1_1  and  N9_9 
REMARK    1  A    between atoms: C7_7  and  C8_8 
REMARK    2  A    between atoms: C7_7  and  N9_9 
ROOT
HETATM    1  C3  UNL     1     -34.685  14.962  -7.802  1.00 20.00     0.033 C 
HETATM    2  C7  UNL     1     -35.304  14.743  -6.421  1.00 20.00     0.087 C 
ENDROOT
BRANCH   2   3
HETATM    3  C8  UNL     1     -36.374  15.803  -6.002  1.00 20.00    -0.031 C 
HETATM    4  C4  UNL     1     -35.770  16.933  -5.148  1.00 20.00     0.016 C 
HETATM    5  C5  UNL     1     -37.027  16.430  -7.251  1.00 20.00     0.016 C 
HETATM    6  C6  UNL     1     -37.494  15.120  -5.185  1.00 20.00     0.016 C 
ENDBRANCH   2   3
BRANCH   2   7
HETATM    7  N9  UNL     1     -34.241  14.631  -5.444  1.00 20.00    -0.356 N 
HETATM    8  C1  UNL     1     -34.186  13.624  -4.503  1.00 20.00     0.213 C 
HETATM    9  C2  UNL     1     -33.000  13.704  -3.598  1.00 20.00     0.117 C 
HETATM   10  O10 UNL     1     -34.994  12.713  -4.360  1.00 20.00    -0.274 OA
HETATM   11  H27 UNL     1     -33.502  15.327  -5.452  1.00 20.00     0.162 HD
ENDBRANCH   2   7
TORSDOF 2
ENDMDL
MODEL 6
REMARK VINA RESULT:      -3.8      2.012      3.205
REMARK  2 active torsions:
REMARK  status: ('A' for Active; 'I' for Inactive)
REMARK       I    between atoms: C1_1  and  N9_9 
REMARK    1  A    between atoms: C7_7  and  C8_8 
REMARK    2  A    between atoms: C7_7  and  N9_9 
ROOT
HETATM    1  C3  UNL     1     -34.860  13.421  -4.474  1.00 20.00     0.033 C 
HETATM    2  C7  UNL     1     -35.110  14.925  -4.361  1.00 20.00     0.087 C 
ENDROOT
BRANCH   2   3
HETATM    3  C8  UNL     1     -34.589  15.773  -5.568  1.00 20.00    -0.031 C 
HETATM    4  C4  UNL     1     -34.392  14.921  -6.835  1.00 20.00     0.016 C 
HETATM    5  C5  UNL     1     -35.580  16.910  -5.893  1.00 20.00     0.016 C 
HETATM    6  C6  UNL     1     -33.237  16.425  -5.203  1.00 20.00     0.016 C 
ENDBRANCH   2   3
BRANCH   2   7
HETATM    7  N9  UNL     1     -34.577  15.396  -3.099  1.00 20.00    -0.356 N 
HETATM    8  C1  UNL     1     -35.253  16.274  -2.277  1.00 20.00     0.213 C 
HETATM    9  C2  UNL     1     -34.517  16.621  -1.025  1.00 20.00     0.117 C 
HETATM   10  O10 UNL     1     -36.358  16.765  -2.484  1.00 20.00    -0.274 OA
HETATM   11  H27 UNL     1     -33.664  15.064  -2.806  1.00 20.00     0.162 HD
ENDBRANCH   2   7
TORSDOF 2
ENDMDL
MODEL 7
REMARK VINA RESULT:      -3.7      2.494      3.671
REMARK  2 active torsions:
REMARK  status: ('A' for Active; 'I' for Inactive)
REMARK       I    between atoms: C1_1  and  N9_9 
REMARK    1  A    between atoms: C7_7  and  C8_8 
REMARK    2  A    between atoms: C7_7  and  N9_9 
ROOT
HETATM    1  C3  UNL     1     -34.549  16.535  -1.042  1.00 20.00     0.033 C 
HETATM    2  C7  UNL     1     -34.096  16.461  -2.500  1.00 20.00     0.087 C 
ENDROOT
BRANCH   2   3
HETATM    3  C8  UNL     1     -34.225  17.798  -3.300  1.00 20.00    -0.031 C 
HETATM    4  C4  UNL     1     -33.583  18.984  -2.557  1.00 20.00     0.016 C 
HETATM    5  C5  UNL     1     -33.550  17.665  -4.681  1.00 20.00     0.016 C 
HETATM    6  C6  UNL     1     -35.716  18.121  -3.540  1.00 20.00     0.016 C 
ENDBRANCH   2   3
BRANCH   2   7
HETATM    7  N9  UNL     1     -34.792  15.371  -3.152  1.00 20.00    -0.356 N 
HETATM    8  C1  UNL     1     -34.145  14.268  -3.672  1.00 20.00     0.213 C 
HETATM    9  C2  UNL     1     -35.061  13.267  -4.297  1.00 20.00     0.117 C 
HETATM   10  O10 UNL     1     -32.938  14.057  -3.659  1.00 20.00    -0.274 OA
HETATM   11  H27 UNL     1     -35.802  15.420  -3.231  1.00 20.00     0.162 HD
ENDBRANCH   2   7
TORSDOF 2
ENDMDL
MODEL 8
REMARK VINA RESULT:      -3.7      2.118      3.463
REMARK  2 active torsions:
REMARK  status: ('A' for Active; 'I' for Inactive)
REMARK       I    between atoms: C1_1  and  N9_9 
REMARK    1  A    between atoms: C7_7  and  C8_8 
REMARK    2  A    between atoms: C7_7  and  N9_9 
ROOT
HETATM    1  C3  UNL     1     -32.681  14.174  -3.524  1.00 20.00     0.033 C 
HETATM    2  C7  UNL     1     -33.999  14.888  -3.219  1.00 20.00     0.087 C 
ENDROOT
BRANCH   2   3
HETATM    3  C8  UNL     1     -35.101  14.737  -4.317  1.00 20.00    -0.031 C 
HETATM    4  C4  UNL     1     -36.522  14.820  -3.730  1.00 20.00     0.016 C 
HETATM    5  C5  UNL     1     -34.949  15.839  -5.386  1.00 20.00     0.016 C 
HETATM    6  C6  UNL     1     -34.947  13.374  -5.028  1.00 20.00     0.016 C 
ENDBRANCH   2   3
BRANCH   2   7
HETATM    7  N9  UNL     1     -33.720  16.278  -2.920  1.00 20.00    -0.356 N 
HETATM    8  C1  UNL     1     -34.068  16.875  -1.726  1.00 20.00     0.213 C 
HETATM    9  C2  UNL     1     -33.681  18.315  -1.633  1.00 20.00     0.117 C 
HETATM   10  O10 UNL     1     -34.641  16.342  -0.782  1.00 20.00    -0.274 OA
HETATM   11  H27 UNL     1     -33.246  16.837  -3.621  1.00 20.00     0.162 HD
ENDBRANCH   2   7
TORSDOF 2
ENDMDL
MODEL 9
REMARK VINA RESULT:      -3.7      1.893      2.978
REMARK  2 active torsions:
REMARK  status: ('A' for Active; 'I' for Inactive)
REMARK       I    between atoms: C1_1  and  N9_9 
REMARK    1  A    between atoms: C7_7  and  C8_8 
REMARK    2  A    between atoms: C7_7  and  N9_9 
ROOT
HETATM    1  C3  UNL     1     -36.595  16.109  -3.280  1.00 20.00     0.033 C 
HETATM    2  C7  UNL     1     -35.317  15.439  -3.785  1.00 20.00     0.087 C 
ENDROOT
BRANCH   2   3
HETATM    3  C8  UNL     1     -33.987  16.107  -3.304  1.00 20.00    -0.031 C 
HETATM    4  C4  UNL     1     -34.047  16.520  -1.822  1.00 20.00     0.016 C 
HETATM    5  C5  UNL     1     -32.801  15.140  -3.494  1.00 20.00     0.016 C 
HETATM    6  C6  UNL     1     -33.700  17.368  -4.150  1.00 20.00     0.016 C 
ENDBRANCH   2   3
BRANCH   2   7
HETATM    7  N9  UNL     1     -35.380  15.338  -5.229  1.00 20.00    -0.356 N 
HETATM    8  C1  UNL     1     -35.216  14.149  -5.908  1.00 20.00     0.213 C 
HETATM    9  C2  UNL     1     -35.323  14.278  -7.392  1.00 20.00     0.117 C 
HETATM   10  O10 UNL     1     -35.000  13.048  -5.412  1.00 20.00    -0.274 OA
HETATM   11  H27 UNL     1     -35.554  16.181  -5.765  1.00 20.00     0.162 HD
ENDBRANCH   2   7
TORSDOF 2
ENDMDL
