MODEL 1
REMARK VINA RESULT:      -4.5      0.000      0.000
REMARK  3 active torsions:
REMARK  status: ('A' for Active; 'I' for Inactive)
REMARK    1  A    between atoms: C2_2  and  C7_7 
REMARK    2  A    between atoms: C5_5  and  C8_8 
REMARK    3  A    between atoms: C7_7  and  C8_8 
ROOT
HETATM    1  C3  UNL     1     -34.342  15.521  -5.856  1.00 20.00     0.281 C 
HETATM    2  C4  UNL     1     -34.686  14.084  -5.499  1.00 20.00     0.106 C 
HETATM    3  C5  UNL     1     -33.113  15.395  -3.838  1.00 20.00     0.282 C 
HETATM    4  N9  UNL     1     -33.050  15.851  -5.235  1.00 20.00     0.098 N 
HETATM    5  S10 UNL     1     -34.207  13.943  -3.764  1.00 20.00    -0.132 SA
HETATM    6  H25 UNL     1     -32.289  15.388  -5.726  1.00 20.00     0.317 HD
ENDROOT
BRANCH   3   7
HETATM    7  C8  UNL     1     -33.635  16.501  -2.926  1.00 20.00     0.050 C 
BRANCH   7   8
HETATM    8  C7  UNL     1     -34.756  15.994  -2.018  1.00 20.00     0.030 C 
BRANCH   8   9
HETATM    9  C2  UNL     1     -34.720  16.672  -0.679  1.00 20.00    -0.031 C 
HETATM   10  C1  UNL     1     -33.914  17.703  -0.386  1.00 20.00    -0.035 C 
HETATM   11  C6  UNL     1     -33.874  18.373   0.947  1.00 20.00     0.036 C 
ENDBRANCH   8   9
ENDBRANCH   7   8
ENDBRANCH   3   7
TORSDOF 3
ENDMDL
MODEL 2
REMARK VINA RESULT:      -4.4     11.496     12.279
REMARK  3 active torsions:
REMARK  status: ('A' for Active; 'I' for Inactive)
REMARK    1  A    between atoms: C2_2  and  C7_7 
REMARK    2  A    between atoms: C5_5  and  C8_8 
REMARK    3  A    between atoms: C7_7  and  C8_8 
ROOT
HETATM    1  C3  UNL     1     -33.919   5.204   6.330  1.00 20.00     0.281 C 
HETATM    2  C4  UNL     1     -35.230   4.586   5.870  1.00 20.00     0.106 C 
HETATM    3  C5  UNL     1     -34.081   6.317   4.248  1.00 20.00     0.282 C 
HETATM    4  N9  UNL     1     -33.775   6.512   5.674  1.00 20.00     0.098 N 
HETATM    5  S10 UNL     1     -35.296   4.971   4.108  1.00 20.00    -0.132 SA
HETATM    6  H25 UNL     1     -34.411   7.191   6.084  1.00 20.00     0.317 HD
ENDROOT
BRANCH   3   7
HETATM    7  C8  UNL     1     -32.820   5.979   3.460  1.00 20.00     0.050 C 
BRANCH   7   8
HETATM    8  C7  UNL     1     -31.824   7.139   3.474  1.00 20.00     0.030 C 
BRANCH   8   9
HETATM    9  C2  UNL     1     -32.262   8.243   2.555  1.00 20.00    -0.031 C 
HETATM   10  C1  UNL     1     -31.877   8.346   1.275  1.00 20.00    -0.035 C 
HETATM   11  C6  UNL     1     -32.308   9.446   0.363  1.00 20.00     0.036 C 
ENDBRANCH   8   9
ENDBRANCH   7   8
ENDBRANCH   3   7
TORSDOF 3
ENDMDL
MODEL 3
REMARK VINA RESULT:      -4.3      1.004      1.103
REMARK  3 active torsions:
REMARK  status: ('A' for Active; 'I' for Inactive)
REMARK    1  A    between atoms: C2_2  and  C7_7 
REMARK    2  A    between atoms: C5_5  and  C8_8 
REMARK    3  A    between atoms: C7_7  and  C8_8 
ROOT
HETATM    1  C3  UNL     1     -34.027  16.225  -5.881  1.00 20.00     0.281 C 
HETATM    2  C4  UNL     1     -34.414  14.958  -6.627  1.00 20.00     0.106 C 
HETATM    3  C5  UNL     1     -33.700  14.699  -4.102  1.00 20.00     0.282 C 
HETATM    4  N9  UNL     1     -33.108  15.854  -4.794  1.00 20.00     0.098 N 
HETATM    5  S10 UNL     1     -34.659  13.741  -5.316  1.00 20.00    -0.132 SA
HETATM    6  H25 UNL     1     -32.192  15.614  -5.166  1.00 20.00     0.317 HD
ENDROOT
BRANCH   3   7
HETATM    7  C8  UNL     1     -34.596  15.151  -2.954  1.00 20.00     0.050 C 
BRANCH   7   8
HETATM    8  C7  UNL     1     -33.993  16.343  -2.210  1.00 20.00     0.030 C 
BRANCH   8   9
HETATM    9  C2  UNL     1     -34.703  16.591  -0.911  1.00 20.00    -0.031 C 
HETATM   10  C1  UNL     1     -34.334  17.528  -0.026  1.00 20.00    -0.035 C 
HETATM   11  C6  UNL     1     -35.036  17.770   1.269  1.00 20.00     0.036 C 
ENDBRANCH   8   9
ENDBRANCH   7   8
ENDBRANCH   3   7
TORSDOF 3
ENDMDL
MODEL 4
REMARK VINA RESULT:      -4.1      1.751      1.929
REMARK  3 active torsions:
REMARK  status: ('A' for Active; 'I' for Inactive)
REMARK    1  A    between atoms: C2_2  and  C7_7 
REMARK    2  A    between atoms: C5_5  and  C8_8 
REMARK    3  A    between atoms: C7_7  and  C8_8 
ROOT
HETATM    1  C3  UNL     1     -34.682  13.167  -5.241  1.00 20.00     0.281 C 
HETATM    2  C4  UNL     1     -35.193  14.233  -6.196  1.00 20.00     0.106 C 
HETATM    3  C5  UNL     1     -35.210  14.812  -3.624  1.00 20.00     0.282 C 
HETATM    4  N9  UNL     1     -35.322  13.378  -3.934  1.00 20.00     0.098 N 
HETATM    5  S10 UNL     1     -35.226  15.733  -5.193  1.00 20.00    -0.132 SA
HETATM    6  H25 UNL     1     -36.300  13.096  -3.964  1.00 20.00     0.317 HD
ENDROOT
BRANCH   3   7
HETATM    7  C8  UNL     1     -33.930  15.104  -2.848  1.00 20.00     0.050 C 
BRANCH   7   8
HETATM    8  C7  UNL     1     -33.936  16.522  -2.275  1.00 20.00     0.030 C 
BRANCH   8   9
HETATM    9  C2  UNL     1     -34.716  16.587  -0.993  1.00 20.00    -0.031 C 
HETATM   10  C1  UNL     1     -34.496  17.494  -0.031  1.00 20.00    -0.035 C 
HETATM   11  C6  UNL     1     -35.266  17.556   1.245  1.00 20.00     0.036 C 
ENDBRANCH   8   9
ENDBRANCH   7   8
ENDBRANCH   3   7
TORSDOF 3
ENDMDL
MODEL 5
REMARK VINA RESULT:      -4.1      1.499      2.169
REMARK  3 active torsions:
REMARK  status: ('A' for Active; 'I' for Inactive)
REMARK    1  A    between atoms: C2_2  and  C7_7 
REMARK    2  A    between atoms: C5_5  and  C8_8 
REMARK    3  A    between atoms: C7_7  and  C8_8 
ROOT
HETATM    1  C3  UNL     1     -34.336  16.572  -6.453  1.00 20.00     0.281 C 
HETATM    2  C4  UNL     1     -35.854  16.515  -6.514  1.00 20.00     0.106 C 
HETATM    3  C5  UNL     1     -34.601  14.358  -5.663  1.00 20.00     0.282 C 
HETATM    4  N9  UNL     1     -33.821  15.201  -6.582  1.00 20.00     0.098 N 
HETATM    5  S10 UNL     1     -36.272  15.063  -5.528  1.00 20.00    -0.132 SA
HETATM    6  H25 UNL     1     -33.920  14.869  -7.539  1.00 20.00     0.317 HD
ENDROOT
BRANCH   3   7
HETATM    7  C8  UNL     1     -33.940  14.290  -4.290  1.00 20.00     0.050 C 
BRANCH   7   8
HETATM    8  C7  UNL     1     -34.856  14.849  -3.201  1.00 20.00     0.030 C 
BRANCH   8   9
HETATM    9  C2  UNL     1     -34.188  15.962  -2.445  1.00 20.00    -0.031 C 
HETATM   10  C1  UNL     1     -34.629  16.438  -1.273  1.00 20.00    -0.035 C 
HETATM   11  C6  UNL     1     -33.969  17.548  -0.525  1.00 20.00     0.036 C 
ENDBRANCH   8   9
ENDBRANCH   7   8
ENDBRANCH   3   7
TORSDOF 3
ENDMDL
MODEL 6
REMARK VINA RESULT:      -3.9      1.832      2.264
REMARK  3 active torsions:
REMARK  status: ('A' for Active; 'I' for Inactive)
REMARK    1  A    between atoms: C2_2  and  C7_7 
REMARK    2  A    between atoms: C5_5  and  C8_8 
REMARK    3  A    between atoms: C7_7  and  C8_8 
ROOT
HETATM    1  C3  UNL     1     -36.885  16.204  -4.268  1.00 20.00     0.281 C 
HETATM    2  C4  UNL     1     -37.074  14.728  -3.958  1.00 20.00     0.106 C 
HETATM    3  C5  UNL     1     -34.925  15.405  -5.327  1.00 20.00     0.282 C 
HETATM    4  N9  UNL     1     -36.070  16.315  -5.487  1.00 20.00     0.098 N 
HETATM    5  S10 UNL     1     -35.456  14.003  -4.295  1.00 20.00    -0.132 SA
HETATM    6  H25 UNL     1     -36.615  16.059  -6.307  1.00 20.00     0.317 HD
ENDROOT
BRANCH   3   7
HETATM    7  C8  UNL     1     -33.744  16.122  -4.683  1.00 20.00     0.050 C 
BRANCH   7   8
HETATM    8  C7  UNL     1     -33.432  15.552  -3.298  1.00 20.00     0.030 C 
BRANCH   8   9
HETATM    9  C2  UNL     1     -33.722  16.555  -2.219  1.00 20.00    -0.031 C 
HETATM   10  C1  UNL     1     -34.616  16.358  -1.239  1.00 20.00    -0.035 C 
HETATM   11  C6  UNL     1     -34.910  17.357  -0.169  1.00 20.00     0.036 C 
ENDBRANCH   8   9
ENDBRANCH   7   8
ENDBRANCH   3   7
TORSDOF 3
ENDMDL
MODEL 7
REMARK VINA RESULT:      -3.8     12.448     13.525
REMARK  3 active torsions:
REMARK  status: ('A' for Active; 'I' for Inactive)
REMARK    1  A    between atoms: C2_2  and  C7_7 
REMARK    2  A    between atoms: C5_5  and  C8_8 
REMARK    3  A    between atoms: C7_7  and  C8_8 
ROOT
HETATM    1  C3  UNL     1     -42.035   3.738  -2.321  1.00 20.00     0.281 C 
HETATM    2  C4  UNL     1     -43.181   3.422  -1.374  1.00 20.00     0.106 C 
HETATM    3  C5  UNL     1     -41.160   4.808  -0.400  1.00 20.00     0.282 C 
HETATM    4  N9  UNL     1     -40.815   3.918  -1.520  1.00 20.00     0.098 N 
HETATM    5  S10 UNL     1     -42.909   4.535   0.021  1.00 20.00    -0.132 SA
HETATM    6  H25 UNL     1     -40.479   3.023  -1.172  1.00 20.00     0.317 HD
ENDROOT
BRANCH   3   7
HETATM    7  C8  UNL     1     -40.924   6.268  -0.769  1.00 20.00     0.050 C 
BRANCH   7   8
HETATM    8  C7  UNL     1     -42.194   7.101  -0.596  1.00 20.00     0.030 C 
BRANCH   8   9
HETATM    9  C2  UNL     1     -42.527   7.853  -1.853  1.00 20.00    -0.031 C 
HETATM   10  C1  UNL     1     -42.293   7.385  -3.087  1.00 20.00    -0.035 C 
HETATM   11  C6  UNL     1     -42.618   8.135  -4.336  1.00 20.00     0.036 C 
ENDBRANCH   8   9
ENDBRANCH   7   8
ENDBRANCH   3   7
TORSDOF 3
ENDMDL
MODEL 8
REMARK VINA RESULT:      -3.8     13.338     15.158
REMARK  3 active torsions:
REMARK  status: ('A' for Active; 'I' for Inactive)
REMARK    1  A    between atoms: C2_2  and  C7_7 
REMARK    2  A    between atoms: C5_5  and  C8_8 
REMARK    3  A    between atoms: C7_7  and  C8_8 
ROOT
HETATM    1  C3  UNL     1     -42.724   5.413   0.726  1.00 20.00     0.281 C 
HETATM    2  C4  UNL     1     -43.417   6.397  -0.202  1.00 20.00     0.106 C 
HETATM    3  C5  UNL     1     -41.007   5.583  -0.893  1.00 20.00     0.282 C 
HETATM    4  N9  UNL     1     -41.271   5.567   0.554  1.00 20.00     0.098 N 
HETATM    5  S10 UNL     1     -42.453   6.308  -1.725  1.00 20.00    -0.132 SA
HETATM    6  H25 UNL     1     -40.949   6.431   0.984  1.00 20.00     0.317 HD
ENDROOT
BRANCH   3   7
HETATM    7  C8  UNL     1     -40.743   4.175  -1.416  1.00 20.00     0.050 C 
BRANCH   7   8
HETATM    8  C7  UNL     1     -41.814   3.741  -2.417  1.00 20.00     0.030 C 
BRANCH   8   9
HETATM    9  C2  UNL     1     -41.387   2.516  -3.174  1.00 20.00    -0.031 C 
HETATM   10  C1  UNL     1     -42.181   1.459  -3.391  1.00 20.00    -0.035 C 
HETATM   11  C6  UNL     1     -41.755   0.239  -4.138  1.00 20.00     0.036 C 
ENDBRANCH   8   9
ENDBRANCH   7   8
ENDBRANCH   3   7
TORSDOF 3
ENDMDL
MODEL 9
REMARK VINA RESULT:      -3.7      1.841      2.394
REMARK  3 active torsions:
REMARK  status: ('A' for Active; 'I' for Inactive)
REMARK    1  A    between atoms: C2_2  and  C7_7 
REMARK    2  A    between atoms: C5_5  and  C8_8 
REMARK    3  A    between atoms: C7_7  and  C8_8 
ROOT
HETATM    1  C3  UNL     1     -32.998  15.158  -3.682  1.00 20.00     0.281 C 
HETATM    2  C4  UNL     1     -33.200  16.300  -4.665  1.00 20.00     0.106 C 
HETATM    3  C5  UNL     1     -34.961  16.062  -2.718  1.00 20.00     0.282 C 
HETATM    4  N9  UNL     1     -34.309  14.805  -3.116  1.00 20.00     0.098 N 
HETATM    5  S10 UNL     1     -34.393  17.375  -3.841  1.00 20.00    -0.132 SA
HETATM    6  H25 UNL     1     -34.875  14.312  -3.803  1.00 20.00     0.317 HD
ENDROOT
BRANCH   3   7
HETATM    7  C8  UNL     1     -34.628  16.416  -1.273  1.00 20.00     0.050 C 
BRANCH   7   8
HETATM    8  C7  UNL     1     -33.943  17.780  -1.176  1.00 20.00     0.030 C 
BRANCH   8   9
HETATM    9  C2  UNL     1     -33.624  18.129   0.250  1.00 20.00    -0.031 C 
HETATM   10  C1  UNL     1     -34.531  18.134   1.237  1.00 20.00    -0.035 C 
HETATM   11  C6  UNL     1     -34.216  18.487   2.653  1.00 20.00     0.036 C 
ENDBRANCH   8   9
ENDBRANCH   7   8
ENDBRANCH   3   7
TORSDOF 3
ENDMDL
