MODEL 1
REMARK VINA RESULT:      -4.5      0.000      0.000
REMARK  0 active torsions:
REMARK  status: ('A' for Active; 'I' for Inactive)
ROOT
HETATM    1  C1  UNL     1     -33.832  17.817  -3.037  1.00 20.00     0.143 A 
HETATM    2  C2  UNL     1     -34.143  16.742  -5.002  1.00 20.00     0.059 A 
HETATM    3  C3  UNL     1     -34.650  15.646  -4.326  1.00 20.00     0.063 A 
HETATM    4  C4  UNL     1     -34.345  16.721  -2.359  1.00 20.00     0.048 A 
HETATM    5  C5  UNL     1     -34.178  16.533  -6.485  1.00 20.00     0.062 C 
HETATM    6  C6  UNL     1     -34.317  15.003  -6.555  1.00 20.00     0.016 C 
HETATM    7  C7  UNL     1     -35.092  14.576  -5.289  1.00 20.00     0.036 C 
HETATM    8  C8  UNL     1     -34.444  16.742  -0.872  1.00 20.00     0.072 C 
HETATM    9  C9  UNL     1     -34.754  13.163  -4.844  1.00 20.00     0.016 C 
HETATM   10  N10 UNL     1     -33.724  17.855  -4.384  1.00 20.00    -0.261 NA
HETATM   11  N11 UNL     1     -34.775  15.607  -2.993  1.00 20.00    -0.254 NA
ENDROOT
TORSDOF 0
ENDMDL
MODEL 2
REMARK VINA RESULT:      -4.5      1.024      3.693
REMARK  0 active torsions:
REMARK  status: ('A' for Active; 'I' for Inactive)
ROOT
HETATM    1  C1  UNL     1     -34.155  15.561  -5.554  1.00 20.00     0.143 A 
HETATM    2  C2  UNL     1     -33.827  17.271  -4.111  1.00 20.00     0.059 A 
HETATM    3  C3  UNL     1     -33.947  16.399  -3.045  1.00 20.00     0.063 A 
HETATM    4  C4  UNL     1     -34.271  14.685  -4.485  1.00 20.00     0.048 A 
HETATM    5  C5  UNL     1     -33.529  18.664  -3.647  1.00 20.00     0.062 C 
HETATM    6  C6  UNL     1     -33.969  18.575  -2.176  1.00 20.00     0.016 C 
HETATM    7  C7  UNL     1     -33.734  17.113  -1.736  1.00 20.00     0.036 C 
HETATM    8  C8  UNL     1     -34.521  13.237  -4.732  1.00 20.00     0.072 C 
HETATM    9  C9  UNL     1     -34.677  16.676  -0.628  1.00 20.00     0.016 C 
HETATM   10  N10 UNL     1     -33.922  16.883  -5.390  1.00 20.00    -0.261 NA
HETATM   11  N11 UNL     1     -34.162  15.086  -3.199  1.00 20.00    -0.254 NA
ENDROOT
TORSDOF 0
ENDMDL
MODEL 3
REMARK VINA RESULT:      -4.4      1.276      2.667
REMARK  0 active torsions:
REMARK  status: ('A' for Active; 'I' for Inactive)
ROOT
HETATM    1  C1  UNL     1     -33.692  17.313  -3.133  1.00 20.00     0.143 A 
HETATM    2  C2  UNL     1     -34.132  15.177  -3.728  1.00 20.00     0.059 A 
HETATM    3  C3  UNL     1     -34.199  15.557  -5.057  1.00 20.00     0.063 A 
HETATM    4  C4  UNL     1     -33.754  17.695  -4.466  1.00 20.00     0.048 A 
HETATM    5  C5  UNL     1     -34.330  13.700  -3.571  1.00 20.00     0.062 C 
HETATM    6  C6  UNL     1     -34.993  13.356  -4.916  1.00 20.00     0.016 C 
HETATM    7  C7  UNL     1     -34.443  14.367  -5.947  1.00 20.00     0.036 C 
HETATM    8  C8  UNL     1     -33.537  19.119  -4.845  1.00 20.00     0.072 C 
HETATM    9  C9  UNL     1     -35.414  14.630  -7.085  1.00 20.00     0.016 C 
HETATM   10  N10 UNL     1     -33.876  16.036  -2.732  1.00 20.00    -0.261 NA
HETATM   11  N11 UNL     1     -34.004  16.818  -5.464  1.00 20.00    -0.254 NA
ENDROOT
TORSDOF 0
ENDMDL
MODEL 4
REMARK VINA RESULT:      -4.3      1.695      3.943
REMARK  0 active torsions:
REMARK  status: ('A' for Active; 'I' for Inactive)
ROOT
HETATM    1  C1  UNL     1     -34.791  15.620  -7.573  1.00 20.00     0.143 A 
HETATM    2  C2  UNL     1     -34.754  14.407  -5.665  1.00 20.00     0.059 A 
HETATM    3  C3  UNL     1     -34.666  15.571  -4.923  1.00 20.00     0.063 A 
HETATM    4  C4  UNL     1     -34.708  16.788  -6.829  1.00 20.00     0.048 A 
HETATM    5  C5  UNL     1     -34.814  13.198  -4.782  1.00 20.00     0.062 C 
HETATM    6  C6  UNL     1     -34.268  13.779  -3.467  1.00 20.00     0.016 C 
HETATM    7  C7  UNL     1     -34.666  15.271  -3.447  1.00 20.00     0.036 C 
HETATM    8  C8  UNL     1     -34.683  18.110  -7.517  1.00 20.00     0.072 C 
HETATM    9  C9  UNL     1     -33.703  16.124  -2.640  1.00 20.00     0.016 C 
HETATM   10  N10 UNL     1     -34.822  14.395  -7.004  1.00 20.00    -0.261 NA
HETATM   11  N11 UNL     1     -34.651  16.789  -5.479  1.00 20.00    -0.254 NA
ENDROOT
TORSDOF 0
ENDMDL
MODEL 5
REMARK VINA RESULT:      -4.3     12.386     13.857
REMARK  0 active torsions:
REMARK  status: ('A' for Active; 'I' for Inactive)
ROOT
HETATM    1  C1  UNL     1     -43.174   4.083  -3.551  1.00 20.00     0.143 A 
HETATM    2  C2  UNL     1     -42.604   6.044  -2.579  1.00 20.00     0.059 A 
HETATM    3  C3  UNL     1     -41.595   5.408  -1.879  1.00 20.00     0.063 A 
HETATM    4  C4  UNL     1     -42.158   3.445  -2.853  1.00 20.00     0.048 A 
HETATM    5  C5  UNL     1     -42.625   7.515  -2.295  1.00 20.00     0.062 C 
HETATM    6  C6  UNL     1     -41.817   7.563  -0.986  1.00 20.00     0.016 C 
HETATM    7  C7  UNL     1     -40.814   6.390  -1.047  1.00 20.00     0.036 C 
HETATM    8  C8  UNL     1     -41.935   1.983  -3.031  1.00 20.00     0.072 C 
HETATM    9  C9  UNL     1     -40.433   5.873   0.330  1.00 20.00     0.016 C 
HETATM   10  N10 UNL     1     -43.417   5.407  -3.433  1.00 20.00    -0.261 NA
HETATM   11  N11 UNL     1     -41.336   4.100  -2.002  1.00 20.00    -0.254 NA
ENDROOT
TORSDOF 0
ENDMDL
MODEL 6
REMARK VINA RESULT:      -4.3     12.163     13.993
REMARK  0 active torsions:
REMARK  status: ('A' for Active; 'I' for Inactive)
ROOT
HETATM    1  C1  UNL     1     -41.653   3.182  -2.580  1.00 20.00     0.143 A 
HETATM    2  C2  UNL     1     -41.522   5.269  -1.720  1.00 20.00     0.059 A 
HETATM    3  C3  UNL     1     -42.566   5.673  -2.533  1.00 20.00     0.063 A 
HETATM    4  C4  UNL     1     -42.702   3.585  -3.392  1.00 20.00     0.048 A 
HETATM    5  C5  UNL     1     -41.058   6.383  -0.832  1.00 20.00     0.062 C 
HETATM    6  C6  UNL     1     -41.639   7.599  -1.573  1.00 20.00     0.016 C 
HETATM    7  C7  UNL     1     -42.926   7.112  -2.274  1.00 20.00     0.036 C 
HETATM    8  C8  UNL     1     -43.342   2.612  -4.322  1.00 20.00     0.072 C 
HETATM    9  C9  UNL     1     -43.248   7.908  -3.528  1.00 20.00     0.016 C 
HETATM   10  N10 UNL     1     -41.039   4.020  -1.715  1.00 20.00    -0.261 NA
HETATM   11  N11 UNL     1     -43.189   4.846  -3.382  1.00 20.00    -0.254 NA
ENDROOT
TORSDOF 0
ENDMDL
MODEL 7
REMARK VINA RESULT:      -4.2      1.839      1.965
REMARK  0 active torsions:
REMARK  status: ('A' for Active; 'I' for Inactive)
ROOT
HETATM    1  C1  UNL     1     -35.967  17.681  -2.235  1.00 20.00     0.143 A 
HETATM    2  C2  UNL     1     -36.081  16.083  -3.831  1.00 20.00     0.059 A 
HETATM    3  C3  UNL     1     -35.148  15.327  -3.145  1.00 20.00     0.063 A 
HETATM    4  C4  UNL     1     -35.035  16.921  -1.543  1.00 20.00     0.048 A 
HETATM    5  C5  UNL     1     -36.558  15.378  -5.063  1.00 20.00     0.062 C 
HETATM    6  C6  UNL     1     -35.435  14.344  -5.253  1.00 20.00     0.016 C 
HETATM    7  C7  UNL     1     -34.900  14.015  -3.841  1.00 20.00     0.036 C 
HETATM    8  C8  UNL     1     -34.467  17.422  -0.261  1.00 20.00     0.072 C 
HETATM    9  C9  UNL     1     -33.443  13.584  -3.853  1.00 20.00     0.016 C 
HETATM   10  N10 UNL     1     -36.519  17.274  -3.399  1.00 20.00    -0.261 NA
HETATM   11  N11 UNL     1     -34.608  15.716  -1.983  1.00 20.00    -0.254 NA
ENDROOT
TORSDOF 0
ENDMDL
MODEL 8
REMARK VINA RESULT:      -4.2      1.165      4.317
REMARK  0 active torsions:
REMARK  status: ('A' for Active; 'I' for Inactive)
ROOT
HETATM    1  C1  UNL     1     -34.428  14.147  -4.700  1.00 20.00     0.143 A 
HETATM    2  C2  UNL     1     -34.439  15.657  -3.017  1.00 20.00     0.059 A 
HETATM    3  C3  UNL     1     -34.438  16.689  -3.937  1.00 20.00     0.063 A 
HETATM    4  C4  UNL     1     -34.431  15.182  -5.625  1.00 20.00     0.048 A 
HETATM    5  C5  UNL     1     -34.495  16.176  -1.613  1.00 20.00     0.062 C 
HETATM    6  C6  UNL     1     -34.041  17.630  -1.828  1.00 20.00     0.016 C 
HETATM    7  C7  UNL     1     -34.501  18.027  -3.249  1.00 20.00     0.036 C 
HETATM    8  C8  UNL     1     -34.426  14.879  -7.084  1.00 20.00     0.072 C 
HETATM    9  C9  UNL     1     -33.616  19.091  -3.875  1.00 20.00     0.016 C 
HETATM   10  N10 UNL     1     -34.438  14.363  -3.366  1.00 20.00    -0.261 NA
HETATM   11  N11 UNL     1     -34.444  16.484  -5.261  1.00 20.00    -0.254 NA
ENDROOT
TORSDOF 0
ENDMDL
MODEL 9
REMARK VINA RESULT:      -4.2      0.931      2.484
REMARK  0 active torsions:
REMARK  status: ('A' for Active; 'I' for Inactive)
ROOT
HETATM    1  C1  UNL     1     -34.370  15.925  -2.471  1.00 20.00     0.143 A 
HETATM    2  C2  UNL     1     -34.559  14.868  -4.461  1.00 20.00     0.059 A 
HETATM    3  C3  UNL     1     -34.175  16.025  -5.115  1.00 20.00     0.063 A 
HETATM    4  C4  UNL     1     -33.979  17.084  -3.126  1.00 20.00     0.048 A 
HETATM    5  C5  UNL     1     -34.783  13.743  -5.424  1.00 20.00     0.062 C 
HETATM    6  C6  UNL     1     -34.947  14.523  -6.740  1.00 20.00     0.016 C 
HETATM    7  C7  UNL     1     -34.089  15.800  -6.602  1.00 20.00     0.036 C 
HETATM    8  C8  UNL     1     -33.660  18.311  -2.344  1.00 20.00     0.072 C 
HETATM    9  C9  UNL     1     -34.618  16.954  -7.436  1.00 20.00     0.016 C 
HETATM   10  N10 UNL     1     -34.665  14.781  -3.128  1.00 20.00    -0.261 NA
HETATM   11  N11 UNL     1     -33.865  17.157  -4.471  1.00 20.00    -0.254 NA
ENDROOT
TORSDOF 0
ENDMDL
