MODEL 1
REMARK VINA RESULT:      -5.1      0.000      0.000
REMARK  1 active torsions:
REMARK  status: ('A' for Active; 'I' for Inactive)
REMARK    1  A    between atoms: C1_1  and  C5_5 
ROOT
HETATM    1  C2  UNL     1     -33.540  13.624  -3.826  1.00 20.00     0.006 C 
HETATM    2  C3  UNL     1     -32.725  14.898  -3.557  1.00 20.00     0.006 C 
HETATM    3  C4  UNL     1     -34.267  15.356  -5.277  1.00 20.00     0.011 C 
HETATM    4  C5  UNL     1     -35.688  14.846  -3.402  1.00 20.00     0.059 C 
HETATM    5  C6  UNL     1     -34.819  14.168  -4.489  1.00 20.00    -0.003 C 
HETATM    6  C7  UNL     1     -33.668  16.022  -4.032  1.00 20.00    -0.006 C 
HETATM    7  C8  UNL     1     -34.920  16.173  -3.105  1.00 20.00    -0.034 C 
HETATM    8  C9  UNL     1     -35.696  17.455  -3.478  1.00 20.00     0.016 C 
HETATM    9  C10 UNL     1     -34.567  16.280  -1.613  1.00 20.00     0.016 C 
ENDROOT
BRANCH   4  10
HETATM   10  C1  UNL     1     -37.098  15.021  -3.882  1.00 20.00     0.236 C 
HETATM   11  O11 UNL     1     -37.967  14.166  -3.752  1.00 20.00    -0.306 OA
ENDBRANCH   4  10
TORSDOF 1
ENDMDL
MODEL 2
REMARK VINA RESULT:      -5.0      1.544      2.677
REMARK  1 active torsions:
REMARK  status: ('A' for Active; 'I' for Inactive)
REMARK    1  A    between atoms: C1_1  and  C5_5 
ROOT
HETATM    1  C2  UNL     1     -34.525  16.036  -2.133  1.00 20.00     0.006 C 
HETATM    2  C3  UNL     1     -33.912  17.219  -2.897  1.00 20.00     0.006 C 
HETATM    3  C4  UNL     1     -32.902  15.237  -3.670  1.00 20.00     0.011 C 
HETATM    4  C5  UNL     1     -35.211  14.937  -4.279  1.00 20.00     0.059 C 
HETATM    5  C6  UNL     1     -34.251  14.843  -3.068  1.00 20.00    -0.003 C 
HETATM    6  C7  UNL     1     -33.428  16.573  -4.210  1.00 20.00    -0.006 C 
HETATM    7  C8  UNL     1     -34.618  16.114  -5.117  1.00 20.00    -0.034 C 
HETATM    8  C9  UNL     1     -34.089  15.703  -6.508  1.00 20.00     0.016 C 
HETATM    9  C10 UNL     1     -35.672  17.211  -5.343  1.00 20.00     0.016 C 
ENDROOT
BRANCH   4  10
HETATM   10  C1  UNL     1     -35.290  13.623  -4.997  1.00 20.00     0.236 C 
HETATM   11  O11 UNL     1     -35.012  12.549  -4.474  1.00 20.00    -0.306 OA
ENDBRANCH   4  10
TORSDOF 1
ENDMDL
MODEL 3
REMARK VINA RESULT:      -4.8      1.458      3.156
REMARK  1 active torsions:
REMARK  status: ('A' for Active; 'I' for Inactive)
REMARK    1  A    between atoms: C1_1  and  C5_5 
ROOT
HETATM    1  C2  UNL     1     -36.312  16.982  -3.472  1.00 20.00     0.006 C 
HETATM    2  C3  UNL     1     -35.035  17.828  -3.363  1.00 20.00     0.006 C 
HETATM    3  C4  UNL     1     -34.812  15.969  -1.936  1.00 20.00     0.011 C 
HETATM    4  C5  UNL     1     -34.977  14.959  -4.114  1.00 20.00     0.059 C 
HETATM    5  C6  UNL     1     -35.844  15.592  -2.999  1.00 20.00    -0.003 C 
HETATM    6  C7  UNL     1     -33.974  16.804  -2.911  1.00 20.00    -0.006 C 
HETATM    7  C8  UNL     1     -33.642  15.765  -4.033  1.00 20.00    -0.034 C 
HETATM    8  C9  UNL     1     -32.415  14.924  -3.621  1.00 20.00     0.016 C 
HETATM    9  C10 UNL     1     -33.310  16.412  -5.388  1.00 20.00     0.016 C 
ENDROOT
BRANCH   4  10
HETATM   10  C1  UNL     1     -34.841  13.480  -3.904  1.00 20.00     0.236 C 
HETATM   11  O11 UNL     1     -34.832  12.665  -4.820  1.00 20.00    -0.306 OA
ENDBRANCH   4  10
TORSDOF 1
ENDMDL
MODEL 4
REMARK VINA RESULT:      -4.7      1.088      2.448
REMARK  1 active torsions:
REMARK  status: ('A' for Active; 'I' for Inactive)
REMARK    1  A    between atoms: C1_1  and  C5_5 
ROOT
HETATM    1  C2  UNL     1     -34.092  15.738  -2.687  1.00 20.00     0.006 C 
HETATM    2  C3  UNL     1     -33.041  15.520  -3.785  1.00 20.00     0.006 C 
HETATM    3  C4  UNL     1     -34.489  13.662  -3.769  1.00 20.00     0.011 C 
HETATM    4  C5  UNL     1     -35.954  15.483  -4.346  1.00 20.00     0.059 C 
HETATM    5  C6  UNL     1     -35.250  14.826  -3.134  1.00 20.00    -0.003 C 
HETATM    6  C7  UNL     1     -33.753  14.566  -4.766  1.00 20.00    -0.006 C 
HETATM    7  C8  UNL     1     -34.938  15.266  -5.512  1.00 20.00    -0.034 C 
HETATM    8  C9  UNL     1     -35.455  14.353  -6.645  1.00 20.00     0.016 C 
HETATM    9  C10 UNL     1     -34.550  16.606  -6.157  1.00 20.00     0.016 C 
ENDROOT
BRANCH   4  10
HETATM   10  C1  UNL     1     -37.310  14.879  -4.563  1.00 20.00     0.236 C 
HETATM   11  O11 UNL     1     -37.945  14.309  -3.682  1.00 20.00    -0.306 OA
ENDBRANCH   4  10
TORSDOF 1
ENDMDL
MODEL 5
REMARK VINA RESULT:      -4.6      2.166      3.386
REMARK  1 active torsions:
REMARK  status: ('A' for Active; 'I' for Inactive)
REMARK    1  A    between atoms: C1_1  and  C5_5 
ROOT
HETATM    1  C2  UNL     1     -33.522  13.685  -3.830  1.00 20.00     0.006 C 
HETATM    2  C3  UNL     1     -34.690  13.198  -4.701  1.00 20.00     0.006 C 
HETATM    3  C4  UNL     1     -35.435  15.030  -3.423  1.00 20.00     0.011 C 
HETATM    4  C5  UNL     1     -33.703  15.995  -4.787  1.00 20.00     0.059 C 
HETATM    5  C6  UNL     1     -33.913  15.141  -3.514  1.00 20.00    -0.003 C 
HETATM    6  C7  UNL     1     -35.571  14.456  -4.839  1.00 20.00    -0.006 C 
HETATM    7  C8  UNL     1     -34.888  15.563  -5.709  1.00 20.00    -0.034 C 
HETATM    8  C9  UNL     1     -35.900  16.688  -6.014  1.00 20.00     0.016 C 
HETATM    9  C10 UNL     1     -34.370  15.046  -7.061  1.00 20.00     0.016 C 
ENDROOT
BRANCH   4  10
HETATM   10  C1  UNL     1     -33.662  17.455  -4.446  1.00 20.00     0.236 C 
HETATM   11  O11 UNL     1     -33.606  17.879  -3.297  1.00 20.00    -0.306 OA
ENDBRANCH   4  10
TORSDOF 1
ENDMDL
MODEL 6
REMARK VINA RESULT:      -4.6      1.333      2.425
REMARK  1 active torsions:
REMARK  status: ('A' for Active; 'I' for Inactive)
REMARK    1  A    between atoms: C1_1  and  C5_5 
ROOT
HETATM    1  C2  UNL     1     -35.552  14.724  -7.126  1.00 20.00     0.006 C 
HETATM    2  C3  UNL     1     -34.104  15.083  -6.763  1.00 20.00     0.006 C 
HETATM    3  C4  UNL     1     -35.535  16.616  -5.692  1.00 20.00     0.011 C 
HETATM    4  C5  UNL     1     -36.162  14.513  -4.703  1.00 20.00     0.059 C 
HETATM    5  C6  UNL     1     -36.362  15.363  -5.982  1.00 20.00    -0.003 C 
HETATM    6  C7  UNL     1     -34.253  15.820  -5.417  1.00 20.00    -0.006 C 
HETATM    7  C8  UNL     1     -34.703  14.860  -4.266  1.00 20.00    -0.034 C 
HETATM    8  C9  UNL     1     -34.603  15.587  -2.908  1.00 20.00     0.016 C 
HETATM    9  C10 UNL     1     -33.846  13.588  -4.159  1.00 20.00     0.016 C 
ENDROOT
BRANCH   4  10
HETATM   10  C1  UNL     1     -37.221  14.824  -3.689  1.00 20.00     0.236 C 
HETATM   11  O11 UNL     1     -38.311  14.261  -3.654  1.00 20.00    -0.306 OA
ENDBRANCH   4  10
TORSDOF 1
ENDMDL
MODEL 7
REMARK VINA RESULT:      -4.5      1.038      2.896
REMARK  1 active torsions:
REMARK  status: ('A' for Active; 'I' for Inactive)
REMARK    1  A    between atoms: C1_1  and  C5_5 
ROOT
HETATM    1  C2  UNL     1     -34.545  17.671  -4.450  1.00 20.00     0.006 C 
HETATM    2  C3  UNL     1     -33.321  16.979  -5.067  1.00 20.00     0.006 C 
HETATM    3  C4  UNL     1     -33.838  15.897  -3.040  1.00 20.00     0.011 C 
HETATM    4  C5  UNL     1     -35.800  15.502  -4.377  1.00 20.00     0.059 C 
HETATM    5  C6  UNL     1     -35.116  16.589  -3.514  1.00 20.00    -0.003 C 
HETATM    6  C7  UNL     1     -33.381  15.560  -4.465  1.00 20.00    -0.006 C 
HETATM    7  C8  UNL     1     -34.595  14.738  -5.013  1.00 20.00    -0.034 C 
HETATM    8  C9  UNL     1     -34.471  13.264  -4.572  1.00 20.00     0.016 C 
HETATM    9  C10 UNL     1     -34.693  14.741  -6.548  1.00 20.00     0.016 C 
ENDROOT
BRANCH   4  10
HETATM   10  C1  UNL     1     -36.716  14.659  -3.541  1.00 20.00     0.236 C 
HETATM   11  O11 UNL     1     -37.790  14.223  -3.944  1.00 20.00    -0.306 OA
ENDBRANCH   4  10
TORSDOF 1
ENDMDL
MODEL 8
REMARK VINA RESULT:      -4.5      1.879      2.966
REMARK  1 active torsions:
REMARK  status: ('A' for Active; 'I' for Inactive)
REMARK    1  A    between atoms: C1_1  and  C5_5 
ROOT
HETATM    1  C2  UNL     1     -34.440  15.132  -7.599  1.00 20.00     0.006 C 
HETATM    2  C3  UNL     1     -34.868  16.581  -7.323  1.00 20.00     0.006 C 
HETATM    3  C4  UNL     1     -36.364  15.144  -6.208  1.00 20.00     0.011 C 
HETATM    4  C5  UNL     1     -34.260  14.663  -5.143  1.00 20.00     0.059 C 
HETATM    5  C6  UNL     1     -35.070  14.358  -6.426  1.00 20.00    -0.003 C 
HETATM    6  C7  UNL     1     -35.630  16.471  -5.986  1.00 20.00    -0.006 C 
HETATM    7  C8  UNL     1     -34.678  16.126  -4.792  1.00 20.00    -0.034 C 
HETATM    8  C9  UNL     1     -35.441  16.267  -3.457  1.00 20.00     0.016 C 
HETATM    9  C10 UNL     1     -33.447  17.043  -4.706  1.00 20.00     0.016 C 
ENDROOT
BRANCH   4  10
HETATM   10  C1  UNL     1     -34.549  13.646  -4.078  1.00 20.00     0.236 C 
HETATM   11  O11 UNL     1     -35.040  12.546  -4.309  1.00 20.00    -0.306 OA
ENDBRANCH   4  10
TORSDOF 1
ENDMDL
MODEL 9
REMARK VINA RESULT:      -4.5      2.122      3.003
REMARK  1 active torsions:
REMARK  status: ('A' for Active; 'I' for Inactive)
REMARK    1  A    between atoms: C1_1  and  C5_5 
ROOT
HETATM    1  C2  UNL     1     -34.451  14.444  -5.768  1.00 20.00     0.006 C 
HETATM    2  C3  UNL     1     -34.894  13.532  -4.615  1.00 20.00     0.006 C 
HETATM    3  C4  UNL     1     -33.043  14.793  -3.889  1.00 20.00     0.011 C 
HETATM    4  C5  UNL     1     -34.705  16.478  -4.325  1.00 20.00     0.059 C 
HETATM    5  C6  UNL     1     -33.682  15.565  -5.043  1.00 20.00    -0.003 C 
HETATM    6  C7  UNL     1     -34.389  14.279  -3.364  1.00 20.00    -0.006 C 
HETATM    7  C8  UNL     1     -35.174  15.610  -3.115  1.00 20.00    -0.034 C 
HETATM    8  C9  UNL     1     -34.799  16.188  -1.733  1.00 20.00     0.016 C 
HETATM    9  C10 UNL     1     -36.701  15.431  -3.128  1.00 20.00     0.016 C 
ENDROOT
BRANCH   4  10
HETATM   10  C1  UNL     1     -34.078  17.791  -3.960  1.00 20.00     0.236 C 
HETATM   11  O11 UNL     1     -33.389  18.449  -4.732  1.00 20.00    -0.306 OA
ENDBRANCH   4  10
TORSDOF 1
ENDMDL
