MODEL 1
REMARK VINA RESULT:      -4.8      0.000      0.000
REMARK  0 active torsions:
REMARK  status: ('A' for Active; 'I' for Inactive)
ROOT
HETATM    1  C1  UNL     1     -33.571   6.181   5.033  1.00 20.00     0.011 C 
HETATM    2  C2  UNL     1     -34.210   6.145   6.394  1.00 20.00     0.054 C 
HETATM    3  C3  UNL     1     -35.135   4.933   6.278  1.00 20.00     0.006 C 
HETATM    4  C4  UNL     1     -32.619   5.988   2.420  1.00 20.00     0.022 C 
HETATM    5  C5  UNL     1     -35.396   4.767   4.779  1.00 20.00     0.011 C 
HETATM    6  C6  UNL     1     -34.018   5.461   2.707  1.00 20.00     0.012 C 
HETATM    7  C7  UNL     1     -32.291   7.192   3.300  1.00 20.00     0.148 C 
HETATM    8  C8  UNL     1     -34.034   5.053   4.161  1.00 20.00     0.033 C 
HETATM    9  N9  UNL     1     -32.755   7.111   4.691  1.00 20.00    -0.298 NA
ENDROOT
TORSDOF 0
ENDMDL
MODEL 2
REMARK VINA RESULT:      -4.3      0.882      3.184
REMARK  0 active torsions:
REMARK  status: ('A' for Active; 'I' for Inactive)
ROOT
HETATM    1  C1  UNL     1     -33.344   6.574   4.713  1.00 20.00     0.011 C 
HETATM    2  C2  UNL     1     -32.256   7.438   4.136  1.00 20.00     0.054 C 
HETATM    3  C3  UNL     1     -32.350   7.114   2.645  1.00 20.00     0.006 C 
HETATM    4  C4  UNL     1     -35.391   4.833   5.452  1.00 20.00     0.022 C 
HETATM    5  C5  UNL     1     -33.011   5.735   2.574  1.00 20.00     0.011 C 
HETATM    6  C6  UNL     1     -34.592   4.500   4.201  1.00 20.00     0.012 C 
HETATM    7  C7  UNL     1     -34.518   5.525   6.497  1.00 20.00     0.148 C 
HETATM    8  C8  UNL     1     -34.081   5.811   3.654  1.00 20.00     0.033 C 
HETATM    9  N9  UNL     1     -33.557   6.506   5.977  1.00 20.00    -0.298 NA
ENDROOT
TORSDOF 0
ENDMDL
MODEL 3
REMARK VINA RESULT:      -4.1      1.209      3.690
REMARK  0 active torsions:
REMARK  status: ('A' for Active; 'I' for Inactive)
ROOT
HETATM    1  C1  UNL     1     -33.657   5.891   3.726  1.00 20.00     0.011 C 
HETATM    2  C2  UNL     1     -32.885   6.495   2.585  1.00 20.00     0.054 C 
HETATM    3  C3  UNL     1     -31.809   7.296   3.318  1.00 20.00     0.006 C 
HETATM    4  C4  UNL     1     -34.884   4.978   6.056  1.00 20.00     0.022 C 
HETATM    5  C5  UNL     1     -32.387   7.569   4.708  1.00 20.00     0.011 C 
HETATM    6  C6  UNL     1     -34.151   6.310   6.115  1.00 20.00     0.012 C 
HETATM    7  C7  UNL     1     -35.516   4.754   4.684  1.00 20.00     0.148 C 
HETATM    8  C8  UNL     1     -33.074   6.255   5.058  1.00 20.00     0.033 C 
HETATM    9  N9  UNL     1     -34.707   5.180   3.533  1.00 20.00    -0.298 NA
ENDROOT
TORSDOF 0
ENDMDL
MODEL 4
REMARK VINA RESULT:      -4.1      1.135      2.072
REMARK  0 active torsions:
REMARK  status: ('A' for Active; 'I' for Inactive)
ROOT
HETATM    1  C1  UNL     1     -34.319   5.314   4.119  1.00 20.00     0.011 C 
HETATM    2  C2  UNL     1     -35.168   4.360   4.914  1.00 20.00     0.054 C 
HETATM    3  C3  UNL     1     -35.168   5.013   6.297  1.00 20.00     0.006 C 
HETATM    4  C4  UNL     1     -32.681   7.247   2.957  1.00 20.00     0.022 C 
HETATM    5  C5  UNL     1     -33.907   5.881   6.332  1.00 20.00     0.011 C 
HETATM    6  C6  UNL     1     -32.532   6.994   4.450  1.00 20.00     0.012 C 
HETATM    7  C7  UNL     1     -33.050   5.966   2.213  1.00 20.00     0.148 C 
HETATM    8  C8  UNL     1     -33.868   6.487   4.936  1.00 20.00     0.033 C 
HETATM    9  N9  UNL     1     -34.015   5.090   2.892  1.00 20.00    -0.298 NA
ENDROOT
TORSDOF 0
ENDMDL
MODEL 5
REMARK VINA RESULT:      -4.1     12.072     13.021
REMARK  0 active torsions:
REMARK  status: ('A' for Active; 'I' for Inactive)
ROOT
HETATM    1  C1  UNL     1     -33.993  16.127  -4.230  1.00 20.00     0.011 C 
HETATM    2  C2  UNL     1     -33.715  17.450  -3.572  1.00 20.00     0.054 C 
HETATM    3  C3  UNL     1     -33.864  17.105  -2.090  1.00 20.00     0.006 C 
HETATM    4  C4  UNL     1     -34.599  13.556  -5.121  1.00 20.00     0.022 C 
HETATM    5  C5  UNL     1     -34.758  15.864  -2.053  1.00 20.00     0.011 C 
HETATM    6  C6  UNL     1     -35.194  14.007  -3.795  1.00 20.00     0.012 C 
HETATM    7  C7  UNL     1     -34.469  14.726  -6.094  1.00 20.00     0.148 C 
HETATM    8  C8  UNL     1     -34.250  15.040  -3.229  1.00 20.00     0.033 C 
HETATM    9  N9  UNL     1     -34.030  15.998  -5.506  1.00 20.00    -0.298 NA
ENDROOT
TORSDOF 0
ENDMDL
MODEL 6
REMARK VINA RESULT:      -4.1     12.269     13.860
REMARK  0 active torsions:
REMARK  status: ('A' for Active; 'I' for Inactive)
ROOT
HETATM    1  C1  UNL     1     -34.163  15.707  -5.687  1.00 20.00     0.011 C 
HETATM    2  C2  UNL     1     -34.316  16.551  -6.922  1.00 20.00     0.054 C 
HETATM    3  C3  UNL     1     -35.382  15.781  -7.703  1.00 20.00     0.006 C 
HETATM    4  C4  UNL     1     -34.095  13.907  -3.560  1.00 20.00     0.022 C 
HETATM    5  C5  UNL     1     -35.302  14.344  -7.181  1.00 20.00     0.011 C 
HETATM    6  C6  UNL     1     -34.489  13.374  -4.930  1.00 20.00     0.012 C 
HETATM    7  C7  UNL     1     -33.075  15.037  -3.679  1.00 20.00     0.148 C 
HETATM    8  C8  UNL     1     -35.094  14.532  -5.685  1.00 20.00     0.033 C 
HETATM    9  N9  UNL     1     -33.297  15.983  -4.780  1.00 20.00    -0.298 NA
ENDROOT
TORSDOF 0
ENDMDL
MODEL 7
REMARK VINA RESULT:      -4.1     12.255     14.034
REMARK  0 active torsions:
REMARK  status: ('A' for Active; 'I' for Inactive)
ROOT
HETATM    1  C1  UNL     1     -34.152  15.589  -5.749  1.00 20.00     0.011 C 
HETATM    2  C2  UNL     1     -34.458  16.705  -6.709  1.00 20.00     0.054 C 
HETATM    3  C3  UNL     1     -33.751  17.891  -6.052  1.00 20.00     0.006 C 
HETATM    4  C4  UNL     1     -33.445  13.771  -3.757  1.00 20.00     0.022 C 
HETATM    5  C5  UNL     1     -33.639  17.522  -4.570  1.00 20.00     0.011 C 
HETATM    6  C6  UNL     1     -33.579  15.237  -3.368  1.00 20.00     0.012 C 
HETATM    7  C7  UNL     1     -34.437  13.400  -4.858  1.00 20.00     0.148 C 
HETATM    8  C8  UNL     1     -33.287  16.041  -4.612  1.00 20.00     0.033 C 
HETATM    9  N9  UNL     1     -34.629  14.407  -5.910  1.00 20.00    -0.298 NA
ENDROOT
TORSDOF 0
ENDMDL
MODEL 8
REMARK VINA RESULT:      -4.1     11.837     12.611
REMARK  0 active torsions:
REMARK  status: ('A' for Active; 'I' for Inactive)
ROOT
HETATM    1  C1  UNL     1     -35.800  15.275  -3.317  1.00 20.00     0.011 C 
HETATM    2  C2  UNL     1     -36.266  14.213  -4.274  1.00 20.00     0.054 C 
HETATM    3  C3  UNL     1     -35.048  13.291  -4.344  1.00 20.00     0.006 C 
HETATM    4  C4  UNL     1     -34.613  17.085  -1.561  1.00 20.00     0.022 C 
HETATM    5  C5  UNL     1     -33.858  14.166  -3.943  1.00 20.00     0.011 C 
HETATM    6  C6  UNL     1     -33.702  16.298  -2.493  1.00 20.00     0.012 C 
HETATM    7  C7  UNL     1     -35.956  17.383  -2.223  1.00 20.00     0.148 C 
HETATM    8  C8  UNL     1     -34.418  15.005  -2.802  1.00 20.00     0.033 C 
HETATM    9  N9  UNL     1     -36.524  16.295  -3.030  1.00 20.00    -0.298 NA
ENDROOT
TORSDOF 0
ENDMDL
MODEL 9
REMARK VINA RESULT:      -4.0     12.319     13.203
REMARK  0 active torsions:
REMARK  status: ('A' for Active; 'I' for Inactive)
ROOT
HETATM    1  C1  UNL     1     -33.730  17.306  -3.041  1.00 20.00     0.011 C 
HETATM    2  C2  UNL     1     -33.653  18.463  -2.083  1.00 20.00     0.054 C 
HETATM    3  C3  UNL     1     -33.899  17.778  -0.738  1.00 20.00     0.006 C 
HETATM    4  C4  UNL     1     -33.977  14.965  -4.534  1.00 20.00     0.022 C 
HETATM    5  C5  UNL     1     -34.657  16.492  -1.074  1.00 20.00     0.011 C 
HETATM    6  C6  UNL     1     -34.734  15.051  -3.216  1.00 20.00     0.012 C 
HETATM    7  C7  UNL     1     -33.884  16.333  -5.207  1.00 20.00     0.148 C 
HETATM    8  C8  UNL     1     -33.960  16.002  -2.336  1.00 20.00     0.033 C 
HETATM    9  N9  UNL     1     -33.636  17.469  -4.310  1.00 20.00    -0.298 NA
ENDROOT
TORSDOF 0
ENDMDL
