MODEL 1
REMARK VINA RESULT:      -3.9      0.000      0.000
REMARK  3 active torsions:
REMARK  status: ('A' for Active; 'I' for Inactive)
REMARK    1  A    between atoms: C1_1  and  C7_7 
REMARK    2  A    between atoms: C6_6  and  C7_7 
REMARK    3  A    between atoms: C6_6  and  C8_8 
ROOT
HETATM    1  C6  UNL     1     -33.794   6.970   3.941  1.00 20.00     0.019 C 
ENDROOT
BRANCH   1   2
HETATM    2  C7  UNL     1     -34.091   5.673   4.716  1.00 20.00     0.043 C 
HETATM    3  C2  UNL     1     -35.395   5.044   4.225  1.00 20.00     0.017 C 
BRANCH   2   4
HETATM    4  C1  UNL     1     -34.262   5.947   6.195  1.00 20.00     0.235 C 
HETATM    5  O9  UNL     1     -33.889   6.984   6.734  1.00 20.00    -0.306 OA
ENDBRANCH   2   4
ENDBRANCH   1   2
BRANCH   1   6
HETATM    6  C8  UNL     1     -32.390   7.097   3.282  1.00 20.00    -0.051 C 
HETATM    7  C3  UNL     1     -32.409   7.995   2.036  1.00 20.00     0.014 C 
HETATM    8  C4  UNL     1     -31.358   7.648   4.283  1.00 20.00     0.014 C 
HETATM    9  C5  UNL     1     -31.938   5.686   2.854  1.00 20.00     0.014 C 
ENDBRANCH   1   6
TORSDOF 3
ENDMDL
MODEL 2
REMARK VINA RESULT:      -3.8      0.051      1.439
REMARK  3 active torsions:
REMARK  status: ('A' for Active; 'I' for Inactive)
REMARK    1  A    between atoms: C1_1  and  C7_7 
REMARK    2  A    between atoms: C6_6  and  C7_7 
REMARK    3  A    between atoms: C6_6  and  C8_8 
ROOT
HETATM    1  C6  UNL     1     -33.793   6.927   3.935  1.00 20.00     0.019 C 
ENDROOT
BRANCH   1   2
HETATM    2  C7  UNL     1     -34.110   5.642   4.723  1.00 20.00     0.043 C 
HETATM    3  C2  UNL     1     -35.425   5.030   4.241  1.00 20.00     0.017 C 
BRANCH   2   4
HETATM    4  C1  UNL     1     -34.273   5.933   6.199  1.00 20.00     0.235 C 
HETATM    5  O9  UNL     1     -33.924   6.988   6.720  1.00 20.00    -0.306 OA
ENDBRANCH   2   4
ENDBRANCH   1   2
BRANCH   1   6
HETATM    6  C8  UNL     1     -32.375   7.041   3.304  1.00 20.00    -0.051 C 
HETATM    7  C3  UNL     1     -31.351   7.647   4.275  1.00 20.00     0.014 C 
HETATM    8  C4  UNL     1     -31.869   5.666   2.833  1.00 20.00     0.014 C 
HETATM    9  C5  UNL     1     -32.478   7.964   2.072  1.00 20.00     0.014 C 
ENDBRANCH   1   6
TORSDOF 3
ENDMDL
MODEL 3
REMARK VINA RESULT:      -3.8     11.418     12.325
REMARK  3 active torsions:
REMARK  status: ('A' for Active; 'I' for Inactive)
REMARK    1  A    between atoms: C1_1  and  C7_7 
REMARK    2  A    between atoms: C6_6  and  C7_7 
REMARK    3  A    between atoms: C6_6  and  C8_8 
ROOT
HETATM    1  C6  UNL     1     -34.883  15.614  -2.892  1.00 20.00     0.019 C 
ENDROOT
BRANCH   1   2
HETATM    2  C7  UNL     1     -34.079  16.632  -2.062  1.00 20.00     0.043 C 
HETATM    3  C2  UNL     1     -34.620  16.704  -0.634  1.00 20.00     0.017 C 
BRANCH   2   4
HETATM    4  C1  UNL     1     -34.192  18.024  -2.647  1.00 20.00     0.235 C 
HETATM    5  O9  UNL     1     -33.536  18.404  -3.612  1.00 20.00    -0.306 OA
ENDBRANCH   2   4
ENDBRANCH   1   2
BRANCH   1   6
HETATM    6  C8  UNL     1     -34.107  14.812  -3.976  1.00 20.00    -0.051 C 
HETATM    7  C3  UNL     1     -34.247  15.433  -5.374  1.00 20.00     0.014 C 
HETATM    8  C4  UNL     1     -32.613  14.706  -3.620  1.00 20.00     0.014 C 
HETATM    9  C5  UNL     1     -34.694  13.386  -4.020  1.00 20.00     0.014 C 
ENDBRANCH   1   6
TORSDOF 3
ENDMDL
MODEL 4
REMARK VINA RESULT:      -3.7     11.449     12.407
REMARK  3 active torsions:
REMARK  status: ('A' for Active; 'I' for Inactive)
REMARK    1  A    between atoms: C1_1  and  C7_7 
REMARK    2  A    between atoms: C6_6  and  C7_7 
REMARK    3  A    between atoms: C6_6  and  C8_8 
ROOT
HETATM    1  C6  UNL     1     -34.953  15.610  -2.991  1.00 20.00     0.019 C 
ENDROOT
BRANCH   1   2
HETATM    2  C7  UNL     1     -34.094  16.583  -2.162  1.00 20.00     0.043 C 
HETATM    3  C2  UNL     1     -34.607  16.656  -0.723  1.00 20.00     0.017 C 
BRANCH   2   4
HETATM    4  C1  UNL     1     -34.161  17.986  -2.726  1.00 20.00     0.235 C 
HETATM    5  O9  UNL     1     -33.558  18.335  -3.736  1.00 20.00    -0.306 OA
ENDBRANCH   2   4
ENDBRANCH   1   2
BRANCH   1   6
HETATM    6  C8  UNL     1     -34.214  14.728  -4.039  1.00 20.00    -0.051 C 
HETATM    7  C3  UNL     1     -34.793  13.309  -4.121  1.00 20.00     0.014 C 
HETATM    8  C4  UNL     1     -34.264  15.374  -5.436  1.00 20.00     0.014 C 
HETATM    9  C5  UNL     1     -32.736  14.622  -3.611  1.00 20.00     0.014 C 
ENDBRANCH   1   6
TORSDOF 3
ENDMDL
MODEL 5
REMARK VINA RESULT:      -3.7     11.580     12.608
REMARK  3 active torsions:
REMARK  status: ('A' for Active; 'I' for Inactive)
REMARK    1  A    between atoms: C1_1  and  C7_7 
REMARK    2  A    between atoms: C6_6  and  C7_7 
REMARK    3  A    between atoms: C6_6  and  C8_8 
ROOT
HETATM    1  C6  UNL     1     -34.903  15.816  -4.780  1.00 20.00     0.019 C 
ENDROOT
BRANCH   1   2
HETATM    2  C7  UNL     1     -34.386  14.638  -5.628  1.00 20.00     0.043 C 
HETATM    3  C2  UNL     1     -34.566  14.932  -7.118  1.00 20.00     0.017 C 
BRANCH   2   4
HETATM    4  C1  UNL     1     -35.160  13.371  -5.332  1.00 20.00     0.235 C 
HETATM    5  O9  UNL     1     -34.969  12.685  -4.332  1.00 20.00    -0.306 OA
ENDBRANCH   2   4
ENDBRANCH   1   2
BRANCH   1   6
HETATM    6  C8  UNL     1     -34.077  16.199  -3.519  1.00 20.00    -0.051 C 
HETATM    7  C3  UNL     1     -33.738  17.696  -3.475  1.00 20.00     0.014 C 
HETATM    8  C4  UNL     1     -34.827  15.815  -2.230  1.00 20.00     0.014 C 
HETATM    9  C5  UNL     1     -32.755  15.405  -3.560  1.00 20.00     0.014 C 
ENDBRANCH   1   6
TORSDOF 3
ENDMDL
MODEL 6
REMARK VINA RESULT:      -3.6     11.099     13.109
REMARK  3 active torsions:
REMARK  status: ('A' for Active; 'I' for Inactive)
REMARK    1  A    between atoms: C1_1  and  C7_7 
REMARK    2  A    between atoms: C6_6  and  C7_7 
REMARK    3  A    between atoms: C6_6  and  C8_8 
ROOT
HETATM    1  C6  UNL     1     -33.967  15.677  -5.060  1.00 20.00     0.019 C 
ENDROOT
BRANCH   1   2
HETATM    2  C7  UNL     1     -34.725  15.064  -3.868  1.00 20.00     0.043 C 
HETATM    3  C2  UNL     1     -34.306  15.742  -2.563  1.00 20.00     0.017 C 
BRANCH   2   4
HETATM    4  C1  UNL     1     -34.412  13.590  -3.721  1.00 20.00     0.235 C 
HETATM    5  O9  UNL     1     -34.983  12.714  -4.362  1.00 20.00    -0.306 OA
ENDBRANCH   2   4
ENDBRANCH   1   2
BRANCH   1   6
HETATM    6  C8  UNL     1     -34.791  15.981  -6.345  1.00 20.00    -0.051 C 
HETATM    7  C3  UNL     1     -34.449  17.352  -6.946  1.00 20.00     0.014 C 
HETATM    8  C4  UNL     1     -34.571  14.894  -7.412  1.00 20.00     0.014 C 
HETATM    9  C5  UNL     1     -36.285  15.981  -5.959  1.00 20.00     0.014 C 
ENDBRANCH   1   6
TORSDOF 3
ENDMDL
MODEL 7
REMARK VINA RESULT:      -3.6     11.326     12.358
REMARK  3 active torsions:
REMARK  status: ('A' for Active; 'I' for Inactive)
REMARK    1  A    between atoms: C1_1  and  C7_7 
REMARK    2  A    between atoms: C6_6  and  C7_7 
REMARK    3  A    between atoms: C6_6  and  C8_8 
ROOT
HETATM    1  C6  UNL     1     -35.193  15.243  -2.971  1.00 20.00     0.019 C 
ENDROOT
BRANCH   1   2
HETATM    2  C7  UNL     1     -34.634  14.965  -4.379  1.00 20.00     0.043 C 
HETATM    3  C2  UNL     1     -35.724  15.161  -5.434  1.00 20.00     0.017 C 
BRANCH   2   4
HETATM    4  C1  UNL     1     -34.151  13.536  -4.503  1.00 20.00     0.235 C 
HETATM    5  O9  UNL     1     -34.909  12.574  -4.575  1.00 20.00    -0.306 OA
ENDBRANCH   2   4
ENDBRANCH   1   2
BRANCH   1   6
HETATM    6  C8  UNL     1     -34.932  16.655  -2.370  1.00 20.00    -0.051 C 
HETATM    7  C3  UNL     1     -34.600  16.599  -0.872  1.00 20.00     0.014 C 
HETATM    8  C4  UNL     1     -33.786  17.367  -3.113  1.00 20.00     0.014 C 
HETATM    9  C5  UNL     1     -36.215  17.491  -2.551  1.00 20.00     0.014 C 
ENDBRANCH   1   6
TORSDOF 3
ENDMDL
MODEL 8
REMARK VINA RESULT:      -3.5     11.037     12.299
REMARK  3 active torsions:
REMARK  status: ('A' for Active; 'I' for Inactive)
REMARK    1  A    between atoms: C1_1  and  C7_7 
REMARK    2  A    between atoms: C6_6  and  C7_7 
REMARK    3  A    between atoms: C6_6  and  C8_8 
ROOT
HETATM    1  C6  UNL     1     -34.430  16.071  -3.685  1.00 20.00     0.019 C 
ENDROOT
BRANCH   1   2
HETATM    2  C7  UNL     1     -34.830  14.609  -3.412  1.00 20.00     0.043 C 
HETATM    3  C2  UNL     1     -33.697  13.662  -3.812  1.00 20.00     0.017 C 
BRANCH   2   4
HETATM    4  C1  UNL     1     -36.043  14.214  -4.227  1.00 20.00     0.235 C 
HETATM    5  O9  UNL     1     -37.170  14.119  -3.752  1.00 20.00    -0.306 OA
ENDBRANCH   2   4
ENDBRANCH   1   2
BRANCH   1   6
HETATM    6  C8  UNL     1     -34.748  17.112  -2.572  1.00 20.00    -0.051 C 
HETATM    7  C3  UNL     1     -33.782  18.306  -2.596  1.00 20.00     0.014 C 
HETATM    8  C4  UNL     1     -36.192  17.631  -2.699  1.00 20.00     0.014 C 
HETATM    9  C5  UNL     1     -34.609  16.405  -1.209  1.00 20.00     0.014 C 
ENDBRANCH   1   6
TORSDOF 3
ENDMDL
MODEL 9
REMARK VINA RESULT:      -3.5     11.106     12.600
REMARK  3 active torsions:
REMARK  status: ('A' for Active; 'I' for Inactive)
REMARK    1  A    between atoms: C1_1  and  C7_7 
REMARK    2  A    between atoms: C6_6  and  C7_7 
REMARK    3  A    between atoms: C6_6  and  C8_8 
ROOT
HETATM    1  C6  UNL     1     -35.425  15.872  -4.729  1.00 20.00     0.019 C 
ENDROOT
BRANCH   1   2
HETATM    2  C7  UNL     1     -36.499  14.906  -5.263  1.00 20.00     0.043 C 
HETATM    3  C2  UNL     1     -36.815  15.215  -6.727  1.00 20.00     0.017 C 
BRANCH   2   4
HETATM    4  C1  UNL     1     -37.794  15.049  -4.493  1.00 20.00     0.235 C 
HETATM    5  O9  UNL     1     -38.206  14.203  -3.706  1.00 20.00    -0.306 OA
ENDBRANCH   2   4
ENDBRANCH   1   2
BRANCH   1   6
HETATM    6  C8  UNL     1     -34.419  15.307  -3.685  1.00 20.00    -0.051 C 
HETATM    7  C3  UNL     1     -34.697  15.824  -2.267  1.00 20.00     0.014 C 
HETATM    8  C4  UNL     1     -34.443  13.767  -3.674  1.00 20.00     0.014 C 
HETATM    9  C5  UNL     1     -33.004  15.762  -4.097  1.00 20.00     0.014 C 
ENDBRANCH   1   6
TORSDOF 3
ENDMDL
