MODEL 1
REMARK VINA RESULT:      -5.1      0.000      0.000
REMARK  0 active torsions:
REMARK  status: ('A' for Active; 'I' for Inactive)
ROOT
HETATM    1  C1  UNL     1     -34.610  16.581  -0.933  1.00 20.00     0.015 C 
HETATM    2  C2  UNL     1     -34.368  16.084  -1.999  1.00 20.00    -0.071 C 
HETATM    3  C3  UNL     1     -36.382  14.626  -3.805  1.00 20.00     0.039 C 
HETATM    4  C4  UNL     1     -34.413  13.582  -4.873  1.00 20.00     0.039 C 
HETATM    5  C5  UNL     1     -36.445  15.597  -4.996  1.00 20.00     0.273 C 
HETATM    6  C6  UNL     1     -34.485  14.625  -6.000  1.00 20.00     0.273 C 
HETATM    7  C7  UNL     1     -34.266  16.470  -4.461  1.00 20.00     0.329 C 
HETATM    8  C8  UNL     1     -34.919  14.212  -3.563  1.00 20.00     0.043 C 
HETATM    9  C9  UNL     1     -34.073  15.473  -3.302  1.00 20.00     0.195 C 
HETATM   10  N10 UNL     1     -35.100  15.890  -5.541  1.00 20.00     0.092 N 
HETATM   11  F11 UNL     1     -32.760  15.104  -3.266  1.00 20.00    -0.227 F 
ENDROOT
TORSDOF 0
ENDMDL
MODEL 2
REMARK VINA RESULT:      -4.9      1.552      2.398
REMARK  0 active torsions:
REMARK  status: ('A' for Active; 'I' for Inactive)
ROOT
HETATM    1  C1  UNL     1     -34.617  16.680  -0.700  1.00 20.00     0.015 C 
HETATM    2  C2  UNL     1     -34.740  16.444  -1.871  1.00 20.00    -0.071 C 
HETATM    3  C3  UNL     1     -32.760  14.859  -3.606  1.00 20.00     0.039 C 
HETATM    4  C4  UNL     1     -33.829  15.965  -5.541  1.00 20.00     0.039 C 
HETATM    5  C5  UNL     1     -33.601  13.612  -3.924  1.00 20.00     0.273 C 
HETATM    6  C6  UNL     1     -34.694  14.714  -5.765  1.00 20.00     0.273 C 
HETATM    7  C7  UNL     1     -35.642  14.833  -3.549  1.00 20.00     0.329 C 
HETATM    8  C8  UNL     1     -33.534  16.118  -4.037  1.00 20.00     0.043 C 
HETATM    9  C9  UNL     1     -34.888  16.155  -3.304  1.00 20.00     0.195 C 
HETATM   10  N10 UNL     1     -34.915  13.965  -4.508  1.00 20.00     0.092 N 
HETATM   11  F11 UNL     1     -35.627  17.174  -3.828  1.00 20.00    -0.227 F 
ENDROOT
TORSDOF 0
ENDMDL
MODEL 3
REMARK VINA RESULT:      -4.6      1.677      2.854
REMARK  0 active torsions:
REMARK  status: ('A' for Active; 'I' for Inactive)
ROOT
HETATM    1  C1  UNL     1     -33.604  18.455  -5.723  1.00 20.00     0.015 C 
HETATM    2  C2  UNL     1     -33.861  17.295  -5.548  1.00 20.00    -0.071 C 
HETATM    3  C3  UNL     1     -33.981  15.868  -2.829  1.00 20.00     0.039 C 
HETATM    4  C4  UNL     1     -33.695  13.771  -4.106  1.00 20.00     0.039 C 
HETATM    5  C5  UNL     1     -35.482  15.548  -2.746  1.00 20.00     0.273 C 
HETATM    6  C6  UNL     1     -35.214  13.543  -4.051  1.00 20.00     0.273 C 
HETATM    7  C7  UNL     1     -35.684  15.642  -5.143  1.00 20.00     0.329 C 
HETATM    8  C8  UNL     1     -33.408  15.283  -4.133  1.00 20.00     0.043 C 
HETATM    9  C9  UNL     1     -34.173  15.876  -5.332  1.00 20.00     0.195 C 
HETATM   10  N10 UNL     1     -35.959  14.817  -3.942  1.00 20.00     0.092 N 
HETATM   11  F11 UNL     1     -33.774  15.218  -6.458  1.00 20.00    -0.227 F 
ENDROOT
TORSDOF 0
ENDMDL
MODEL 4
REMARK VINA RESULT:      -4.5      1.850      3.643
REMARK  0 active torsions:
REMARK  status: ('A' for Active; 'I' for Inactive)
ROOT
HETATM    1  C1  UNL     1     -35.113  14.759  -7.866  1.00 20.00     0.015 C 
HETATM    2  C2  UNL     1     -35.039  15.181  -6.744  1.00 20.00    -0.071 C 
HETATM    3  C3  UNL     1     -34.789  13.483  -4.195  1.00 20.00     0.039 C 
HETATM    4  C4  UNL     1     -35.609  15.478  -2.987  1.00 20.00     0.039 C 
HETATM    5  C5  UNL     1     -33.368  13.862  -3.744  1.00 20.00     0.273 C 
HETATM    6  C6  UNL     1     -34.159  15.843  -2.628  1.00 20.00     0.273 C 
HETATM    7  C7  UNL     1     -33.491  15.946  -4.944  1.00 20.00     0.329 C 
HETATM    8  C8  UNL     1     -35.631  14.763  -4.351  1.00 20.00     0.043 C 
HETATM    9  C9  UNL     1     -34.950  15.695  -5.371  1.00 20.00     0.195 C 
HETATM   10  N10 UNL     1     -33.198  15.328  -3.627  1.00 20.00     0.092 N 
HETATM   11  F11 UNL     1     -35.611  16.888  -5.363  1.00 20.00    -0.227 F 
ENDROOT
TORSDOF 0
ENDMDL
MODEL 5
REMARK VINA RESULT:      -4.5      1.714      2.574
REMARK  0 active torsions:
REMARK  status: ('A' for Active; 'I' for Inactive)
ROOT
HETATM    1  C1  UNL     1     -38.355  14.754  -3.861  1.00 20.00     0.015 C 
HETATM    2  C2  UNL     1     -37.182  14.973  -3.736  1.00 20.00    -0.071 C 
HETATM    3  C3  UNL     1     -34.934  13.779  -5.458  1.00 20.00     0.039 C 
HETATM    4  C4  UNL     1     -33.422  14.361  -3.590  1.00 20.00     0.039 C 
HETATM    5  C5  UNL     1     -34.435  15.040  -6.182  1.00 20.00     0.273 C 
HETATM    6  C6  UNL     1     -33.016  15.644  -4.333  1.00 20.00     0.273 C 
HETATM    7  C7  UNL     1     -35.290  16.446  -4.425  1.00 20.00     0.329 C 
HETATM    8  C8  UNL     1     -34.882  14.012  -3.937  1.00 20.00     0.043 C 
HETATM    9  C9  UNL     1     -35.745  15.238  -3.584  1.00 20.00     0.195 C 
HETATM   10  N10 UNL     1     -34.089  16.122  -5.233  1.00 20.00     0.092 N 
HETATM   11  F11 UNL     1     -35.545  15.533  -2.267  1.00 20.00    -0.227 F 
ENDROOT
TORSDOF 0
ENDMDL
MODEL 6
REMARK VINA RESULT:      -4.5      1.509      1.948
REMARK  0 active torsions:
REMARK  status: ('A' for Active; 'I' for Inactive)
ROOT
HETATM    1  C1  UNL     1     -34.758  17.005  -0.120  1.00 20.00     0.015 C 
HETATM    2  C2  UNL     1     -34.526  17.053  -1.296  1.00 20.00    -0.071 C 
HETATM    3  C3  UNL     1     -34.475  14.658  -3.222  1.00 20.00     0.039 C 
HETATM    4  C4  UNL     1     -33.126  16.098  -4.710  1.00 20.00     0.039 C 
HETATM    5  C5  UNL     1     -35.692  14.981  -4.104  1.00 20.00     0.273 C 
HETATM    6  C6  UNL     1     -34.393  16.439  -5.511  1.00 20.00     0.273 C 
HETATM    7  C7  UNL     1     -35.520  17.322  -3.569  1.00 20.00     0.329 C 
HETATM    8  C8  UNL     1     -33.504  15.853  -3.238  1.00 20.00     0.043 C 
HETATM    9  C9  UNL     1     -34.241  17.110  -2.736  1.00 20.00     0.195 C 
HETATM   10  N10 UNL     1     -35.612  16.342  -4.679  1.00 20.00     0.092 N 
HETATM   11  F11 UNL     1     -33.422  18.185  -2.925  1.00 20.00    -0.227 F 
ENDROOT
TORSDOF 0
ENDMDL
MODEL 7
REMARK VINA RESULT:      -4.5      1.431      2.161
REMARK  0 active torsions:
REMARK  status: ('A' for Active; 'I' for Inactive)
ROOT
HETATM    1  C1  UNL     1     -33.707  18.974  -3.895  1.00 20.00     0.015 C 
HETATM    2  C2  UNL     1     -33.683  17.809  -4.183  1.00 20.00    -0.071 C 
HETATM    3  C3  UNL     1     -34.853  15.515  -2.507  1.00 20.00     0.039 C 
HETATM    4  C4  UNL     1     -33.351  14.032  -3.793  1.00 20.00     0.039 C 
HETATM    5  C5  UNL     1     -36.000  15.056  -3.421  1.00 20.00     0.273 C 
HETATM    6  C6  UNL     1     -34.523  13.666  -4.719  1.00 20.00     0.273 C 
HETATM    7  C7  UNL     1     -34.888  15.965  -5.353  1.00 20.00     0.329 C 
HETATM    8  C8  UNL     1     -33.530  15.477  -3.293  1.00 20.00     0.043 C 
HETATM    9  C9  UNL     1     -33.653  16.383  -4.533  1.00 20.00     0.195 C 
HETATM   10  N10 UNL     1     -35.527  14.751  -4.790  1.00 20.00     0.092 N 
HETATM   11  F11 UNL     1     -32.543  16.199  -5.304  1.00 20.00    -0.227 F 
ENDROOT
TORSDOF 0
ENDMDL
MODEL 8
REMARK VINA RESULT:      -4.3      1.546      3.603
REMARK  0 active torsions:
REMARK  status: ('A' for Active; 'I' for Inactive)
ROOT
HETATM    1  C1  UNL     1     -35.570  14.432  -7.878  1.00 20.00     0.015 C 
HETATM    2  C2  UNL     1     -35.210  14.465  -6.733  1.00 20.00    -0.071 C 
HETATM    3  C3  UNL     1     -34.627  17.001  -5.099  1.00 20.00     0.039 C 
HETATM    4  C4  UNL     1     -33.309  15.535  -3.608  1.00 20.00     0.039 C 
HETATM    5  C5  UNL     1     -35.764  16.937  -4.066  1.00 20.00     0.273 C 
HETATM    6  C6  UNL     1     -34.507  15.452  -2.648  1.00 20.00     0.273 C 
HETATM    7  C7  UNL     1     -35.958  14.555  -4.355  1.00 20.00     0.329 C 
HETATM    8  C8  UNL     1     -33.823  15.689  -5.051  1.00 20.00     0.043 C 
HETATM    9  C9  UNL     1     -34.768  14.506  -5.333  1.00 20.00     0.195 C 
HETATM   10  N10 UNL     1     -35.793  15.639  -3.355  1.00 20.00     0.092 N 
HETATM   11  F11 UNL     1     -34.078  13.350  -5.113  1.00 20.00    -0.227 F 
ENDROOT
TORSDOF 0
ENDMDL
MODEL 9
REMARK VINA RESULT:      -4.2      1.864      2.204
REMARK  0 active torsions:
REMARK  status: ('A' for Active; 'I' for Inactive)
ROOT
HETATM    1  C1  UNL     1     -37.190  17.734  -2.708  1.00 20.00     0.015 C 
HETATM    2  C2  UNL     1     -36.223  17.023  -2.724  1.00 20.00    -0.071 C 
HETATM    3  C3  UNL     1     -35.322  15.260  -5.073  1.00 20.00     0.039 C 
HETATM    4  C4  UNL     1     -34.028  13.981  -3.400  1.00 20.00     0.039 C 
HETATM    5  C5  UNL     1     -34.012  15.964  -5.467  1.00 20.00     0.273 C 
HETATM    6  C6  UNL     1     -32.767  14.770  -3.788  1.00 20.00     0.273 C 
HETATM    7  C7  UNL     1     -33.789  16.889  -3.255  1.00 20.00     0.329 C 
HETATM    8  C8  UNL     1     -35.266  14.879  -3.583  1.00 20.00     0.043 C 
HETATM    9  C9  UNL     1     -35.041  16.151  -2.743  1.00 20.00     0.195 C 
HETATM   10  N10 UNL     1     -33.097  16.113  -4.313  1.00 20.00     0.092 N 
HETATM   11  F11 UNL     1     -34.819  15.773  -1.452  1.00 20.00    -0.227 F 
ENDROOT
TORSDOF 0
ENDMDL
