MODEL 1
REMARK VINA RESULT:      -5.4      0.000      0.000
REMARK  1 active torsions:
REMARK  status: ('A' for Active; 'I' for Inactive)
REMARK    1  A    between atoms: C10_10  and  O11_11 
ROOT
HETATM    1  C1  UNL     1     -35.738  16.619  -3.917  1.00 20.00    -0.025 C 
HETATM    2  C2  UNL     1     -35.892  15.540  -3.135  1.00 20.00    -0.025 C 
HETATM    3  C3  UNL     1     -34.236  15.377  -6.253  1.00 20.00     0.008 C 
HETATM    4  C4  UNL     1     -35.129  14.169  -5.991  1.00 20.00     0.032 C 
HETATM    5  C5  UNL     1     -33.826  16.425  -2.655  1.00 20.00     0.018 C 
HETATM    6  C6  UNL     1     -34.255  16.855  -4.067  1.00 20.00     0.013 C 
HETATM    7  C7  UNL     1     -34.513  15.054  -2.763  1.00 20.00     0.015 C 
HETATM    8  C8  UNL     1     -33.597  15.731  -4.912  1.00 20.00     0.000 C 
HETATM    9  C9  UNL     1     -33.767  14.478  -3.997  1.00 20.00     0.027 C 
HETATM   10  C10 UNL     1     -34.430  13.412  -4.866  1.00 20.00     0.123 C 
ENDROOT
BRANCH  10  11
HETATM   11  O11 UNL     1     -35.339  12.598  -4.153  1.00 20.00    -0.395 OA
HETATM   12  H25 UNL     1     -35.266  11.698  -4.515  1.00 20.00     0.210 HD
ENDBRANCH  10  11
TORSDOF 1
ENDMDL
MODEL 2
REMARK VINA RESULT:      -5.0      1.142      2.695
REMARK  1 active torsions:
REMARK  status: ('A' for Active; 'I' for Inactive)
REMARK    1  A    between atoms: C10_10  and  O11_11 
ROOT
HETATM    1  C1  UNL     1     -34.084  15.501  -6.762  1.00 20.00    -0.025 C 
HETATM    2  C2  UNL     1     -34.962  14.489  -6.695  1.00 20.00    -0.025 C 
HETATM    3  C3  UNL     1     -33.191  15.625  -3.855  1.00 20.00     0.008 C 
HETATM    4  C4  UNL     1     -33.319  14.106  -3.907  1.00 20.00     0.032 C 
HETATM    5  C5  UNL     1     -36.101  16.402  -6.122  1.00 20.00     0.018 C 
HETATM    6  C6  UNL     1     -34.599  16.600  -5.864  1.00 20.00     0.013 C 
HETATM    7  C7  UNL     1     -36.063  14.910  -5.754  1.00 20.00     0.015 C 
HETATM    8  C8  UNL     1     -34.517  16.181  -4.371  1.00 20.00     0.000 C 
HETATM    9  C9  UNL     1     -35.547  15.010  -4.292  1.00 20.00     0.027 C 
HETATM   10  C10 UNL     1     -34.800  13.837  -3.660  1.00 20.00     0.123 C 
ENDROOT
BRANCH  10  11
HETATM   11  O11 UNL     1     -35.188  12.583  -4.183  1.00 20.00    -0.395 OA
HETATM   12  H25 UNL     1     -35.585  12.745  -5.056  1.00 20.00     0.210 HD
ENDBRANCH  10  11
TORSDOF 1
ENDMDL
MODEL 3
REMARK VINA RESULT:      -4.8     11.836     12.780
REMARK  1 active torsions:
REMARK  status: ('A' for Active; 'I' for Inactive)
REMARK    1  A    between atoms: C10_10  and  O11_11 
ROOT
HETATM    1  C1  UNL     1     -43.041   6.427  -0.045  1.00 20.00    -0.025 C 
HETATM    2  C2  UNL     1     -42.780   5.173   0.349  1.00 20.00    -0.025 C 
HETATM    3  C3  UNL     1     -42.785   6.106  -3.060  1.00 20.00     0.008 C 
HETATM    4  C4  UNL     1     -43.417   4.740  -2.818  1.00 20.00     0.032 C 
HETATM    5  C5  UNL     1     -40.755   6.235   0.115  1.00 20.00     0.018 C 
HETATM    6  C6  UNL     1     -41.810   6.940  -0.753  1.00 20.00     0.013 C 
HETATM    7  C7  UNL     1     -41.376   4.844  -0.095  1.00 20.00     0.015 C 
HETATM    8  C8  UNL     1     -41.598   6.201  -2.103  1.00 20.00     0.000 C 
HETATM    9  C9  UNL     1     -41.284   4.742  -1.642  1.00 20.00     0.027 C 
HETATM   10  C10 UNL     1     -42.251   3.844  -2.412  1.00 20.00     0.123 C 
ENDROOT
BRANCH  10  11
HETATM   11  O11 UNL     1     -42.695   2.732  -1.660  1.00 20.00    -0.395 OA
HETATM   12  H25 UNL     1     -42.129   1.978  -1.899  1.00 20.00     0.210 HD
ENDBRANCH  10  11
TORSDOF 1
ENDMDL
MODEL 4
REMARK VINA RESULT:      -4.8      1.652      3.159
REMARK  1 active torsions:
REMARK  status: ('A' for Active; 'I' for Inactive)
REMARK    1  A    between atoms: C10_10  and  O11_11 
ROOT
HETATM    1  C1  UNL     1     -35.415  16.796  -5.398  1.00 20.00    -0.025 C 
HETATM    2  C2  UNL     1     -34.260  16.361  -5.922  1.00 20.00    -0.025 C 
HETATM    3  C3  UNL     1     -35.161  15.705  -2.568  1.00 20.00     0.008 C 
HETATM    4  C4  UNL     1     -33.682  16.042  -2.731  1.00 20.00     0.032 C 
HETATM    5  C5  UNL     1     -35.778  14.648  -6.135  1.00 20.00     0.018 C 
HETATM    6  C6  UNL     1     -36.207  15.578  -4.988  1.00 20.00     0.013 C 
HETATM    7  C7  UNL     1     -34.279  14.853  -5.865  1.00 20.00     0.015 C 
HETATM    8  C8  UNL     1     -35.540  14.860  -3.784  1.00 20.00     0.000 C 
HETATM    9  C9  UNL     1     -34.200  14.345  -4.399  1.00 20.00     0.027 C 
HETATM   10  C10 UNL     1     -33.094  14.845  -3.471  1.00 20.00     0.123 C 
ENDROOT
BRANCH  10  11
HETATM   11  O11 UNL     1     -31.909  15.197  -4.157  1.00 20.00    -0.395 OA
HETATM   12  H25 UNL     1     -32.101  16.000  -4.670  1.00 20.00     0.210 HD
ENDBRANCH  10  11
TORSDOF 1
ENDMDL
MODEL 5
REMARK VINA RESULT:      -4.8     11.447     12.690
REMARK  1 active torsions:
REMARK  status: ('A' for Active; 'I' for Inactive)
REMARK    1  A    between atoms: C10_10  and  O11_11 
ROOT
HETATM    1  C1  UNL     1     -41.311   4.170  -1.678  1.00 20.00    -0.025 C 
HETATM    2  C2  UNL     1     -40.683   4.971  -0.806  1.00 20.00    -0.025 C 
HETATM    3  C3  UNL     1     -43.190   6.174  -2.987  1.00 20.00     0.008 C 
HETATM    4  C4  UNL     1     -42.024   7.143  -2.832  1.00 20.00     0.032 C 
HETATM    5  C5  UNL     1     -42.618   4.262   0.212  1.00 20.00     0.018 C 
HETATM    6  C6  UNL     1     -42.776   4.174  -1.314  1.00 20.00     0.013 C 
HETATM    7  C7  UNL     1     -41.726   5.512   0.141  1.00 20.00     0.015 C 
HETATM    8  C8  UNL     1     -43.417   5.558  -1.607  1.00 20.00     0.000 C 
HETATM    9  C9  UNL     1     -42.692   6.488  -0.584  1.00 20.00     0.027 C 
HETATM   10  C10 UNL     1     -42.137   7.654  -1.399  1.00 20.00     0.123 C 
ENDROOT
BRANCH  10  11
HETATM   11  O11 UNL     1     -40.891   8.124  -0.922  1.00 20.00    -0.395 OA
HETATM   12  H25 UNL     1     -41.051   8.534  -0.054  1.00 20.00     0.210 HD
ENDBRANCH  10  11
TORSDOF 1
ENDMDL
MODEL 6
REMARK VINA RESULT:      -4.7      1.271      1.793
REMARK  1 active torsions:
REMARK  status: ('A' for Active; 'I' for Inactive)
REMARK    1  A    between atoms: C10_10  and  O11_11 
ROOT
HETATM    1  C1  UNL     1     -33.953  16.616  -3.169  1.00 20.00    -0.025 C 
HETATM    2  C2  UNL     1     -34.565  15.577  -2.582  1.00 20.00    -0.025 C 
HETATM    3  C3  UNL     1     -35.239  16.507  -5.925  1.00 20.00     0.008 C 
HETATM    4  C4  UNL     1     -36.491  16.093  -5.160  1.00 20.00     0.032 C 
HETATM    5  C5  UNL     1     -32.752  14.733  -3.715  1.00 20.00     0.018 C 
HETATM    6  C6  UNL     1     -33.172  16.072  -4.341  1.00 20.00     0.013 C 
HETATM    7  C7  UNL     1     -34.195  14.339  -3.360  1.00 20.00     0.015 C 
HETATM    8  C8  UNL     1     -34.127  15.569  -5.458  1.00 20.00     0.000 C 
HETATM    9  C9  UNL     1     -34.831  14.353  -4.777  1.00 20.00     0.027 C 
HETATM   10  C10 UNL     1     -36.330  14.591  -4.944  1.00 20.00     0.123 C 
ENDROOT
BRANCH  10  11
HETATM   11  O11 UNL     1     -37.091  14.147  -3.838  1.00 20.00    -0.395 OA
HETATM   12  H25 UNL     1     -37.786  14.809  -3.682  1.00 20.00     0.210 HD
ENDBRANCH  10  11
TORSDOF 1
ENDMDL
MODEL 7
REMARK VINA RESULT:      -4.7      1.556      2.791
REMARK  1 active torsions:
REMARK  status: ('A' for Active; 'I' for Inactive)
REMARK    1  A    between atoms: C10_10  and  O11_11 
ROOT
HETATM    1  C1  UNL     1     -35.662  14.620  -6.051  1.00 20.00    -0.025 C 
HETATM    2  C2  UNL     1     -34.905  13.752  -5.365  1.00 20.00    -0.025 C 
HETATM    3  C3  UNL     1     -34.512  17.249  -5.038  1.00 20.00     0.008 C 
HETATM    4  C4  UNL     1     -33.183  16.501  -5.053  1.00 20.00     0.032 C 
HETATM    5  C5  UNL     1     -36.662  14.331  -4.000  1.00 20.00     0.018 C 
HETATM    6  C6  UNL     1     -36.432  15.437  -5.042  1.00 20.00     0.013 C 
HETATM    7  C7  UNL     1     -35.167  13.988  -3.897  1.00 20.00     0.015 C 
HETATM    8  C8  UNL     1     -35.483  16.375  -4.247  1.00 20.00     0.000 C 
HETATM    9  C9  UNL     1     -34.609  15.363  -3.440  1.00 20.00     0.027 C 
HETATM   10  C10 UNL     1     -33.158  15.739  -3.732  1.00 20.00     0.123 C 
ENDROOT
BRANCH  10  11
HETATM   11  O11 UNL     1     -32.296  14.620  -3.802  1.00 20.00    -0.395 OA
HETATM   12  H25 UNL     1     -32.013  14.417  -2.894  1.00 20.00     0.210 HD
ENDBRANCH  10  11
TORSDOF 1
ENDMDL
MODEL 8
REMARK VINA RESULT:      -4.7      1.232      1.953
REMARK  1 active torsions:
REMARK  status: ('A' for Active; 'I' for Inactive)
REMARK    1  A    between atoms: C10_10  and  O11_11 
ROOT
HETATM    1  C1  UNL     1     -34.785  16.576  -2.896  1.00 20.00    -0.025 C 
HETATM    2  C2  UNL     1     -33.594  15.969  -2.994  1.00 20.00    -0.025 C 
HETATM    3  C3  UNL     1     -36.459  14.759  -4.673  1.00 20.00     0.008 C 
HETATM    4  C4  UNL     1     -35.598  13.644  -4.088  1.00 20.00     0.032 C 
HETATM    5  C5  UNL     1     -33.766  17.395  -4.788  1.00 20.00     0.018 C 
HETATM    6  C6  UNL     1     -35.171  17.030  -4.283  1.00 20.00     0.013 C 
HETATM    7  C7  UNL     1     -33.182  16.015  -4.445  1.00 20.00     0.015 C 
HETATM    8  C8  UNL     1     -35.487  15.815  -5.197  1.00 20.00     0.000 C 
HETATM    9  C9  UNL     1     -34.097  15.114  -5.318  1.00 20.00     0.027 C 
HETATM   10  C10 UNL     1     -34.329  13.654  -4.935  1.00 20.00     0.123 C 
ENDROOT
BRANCH  10  11
HETATM   11  O11 UNL     1     -33.241  13.082  -4.236  1.00 20.00    -0.395 OA
HETATM   12  H25 UNL     1     -32.731  12.558  -4.877  1.00 20.00     0.210 HD
ENDBRANCH  10  11
TORSDOF 1
ENDMDL
MODEL 9
REMARK VINA RESULT:      -4.6      1.401      2.230
REMARK  1 active torsions:
REMARK  status: ('A' for Active; 'I' for Inactive)
REMARK    1  A    between atoms: C10_10  and  O11_11 
ROOT
HETATM    1  C1  UNL     1     -33.175  16.208  -4.578  1.00 20.00    -0.025 C 
HETATM    2  C2  UNL     1     -34.312  16.919  -4.548  1.00 20.00    -0.025 C 
HETATM    3  C3  UNL     1     -34.312  13.391  -4.760  1.00 20.00     0.008 C 
HETATM    4  C4  UNL     1     -35.377  14.039  -5.638  1.00 20.00     0.032 C 
HETATM    5  C5  UNL     1     -33.864  16.285  -2.385  1.00 20.00     0.018 C 
HETATM    6  C6  UNL     1     -33.173  15.317  -3.359  1.00 20.00     0.013 C 
HETATM    7  C7  UNL     1     -35.071  16.505  -3.311  1.00 20.00     0.015 C 
HETATM    8  C8  UNL     1     -34.262  14.216  -3.475  1.00 20.00     0.000 C 
HETATM    9  C9  UNL     1     -35.585  15.044  -3.430  1.00 20.00     0.027 C 
HETATM   10  C10 UNL     1     -36.392  14.611  -4.652  1.00 20.00     0.123 C 
ENDROOT
BRANCH  10  11
HETATM   11  O11 UNL     1     -37.133  15.666  -5.233  1.00 20.00    -0.395 OA
HETATM   12  H25 UNL     1     -36.698  15.897  -6.071  1.00 20.00     0.210 HD
ENDBRANCH  10  11
TORSDOF 1
ENDMDL
