MODEL 1
REMARK VINA RESULT:      -4.7      0.000      0.000
REMARK  2 active torsions:
REMARK  status: ('A' for Active; 'I' for Inactive)
REMARK    1  A    between atoms: C7_7  and  C10_10 
REMARK    2  A    between atoms: C7_7  and  O11_11 
ROOT
HETATM    1  C1  UNL     1     -34.057  13.494  -4.494  1.00 20.00     0.000 C 
HETATM    2  C2  UNL     1     -35.527  13.579  -4.101  1.00 20.00     0.000 C 
HETATM    3  C3  UNL     1     -33.109  14.365  -3.671  1.00 20.00     0.003 C 
HETATM    4  C4  UNL     1     -36.125  14.986  -4.103  1.00 20.00     0.003 C 
HETATM    5  C5  UNL     1     -33.261  15.851  -3.984  1.00 20.00     0.038 C 
HETATM    6  C6  UNL     1     -35.641  15.834  -2.925  1.00 20.00     0.038 C 
HETATM    7  C7  UNL     1     -34.323  16.596  -3.159  1.00 20.00     0.061 C 
ENDROOT
BRANCH   7   8
HETATM    8  C10 UNL     1     -33.748  17.030  -1.803  1.00 20.00     0.012 C 
HETATM    9  C8  UNL     1     -33.491  18.533  -1.796  1.00 20.00     0.012 C 
HETATM   10  C9  UNL     1     -34.695  16.634  -0.676  1.00 20.00     0.012 C 
ENDBRANCH   7   8
BRANCH   7  11
HETATM   11  O11 UNL     1     -34.627  17.813  -3.859  1.00 20.00    -0.389 OA
HETATM   12  H31 UNL     1     -34.873  18.455  -3.181  1.00 20.00     0.210 HD
ENDBRANCH   7  11
TORSDOF 2
ENDMDL
MODEL 2
REMARK VINA RESULT:      -4.5      1.742      4.079
REMARK  2 active torsions:
REMARK  status: ('A' for Active; 'I' for Inactive)
REMARK    1  A    between atoms: C7_7  and  C10_10 
REMARK    2  A    between atoms: C7_7  and  O11_11 
ROOT
HETATM    1  C1  UNL     1     -33.816  18.773  -3.467  1.00 20.00     0.000 C 
HETATM    2  C2  UNL     1     -34.238  18.177  -2.129  1.00 20.00     0.000 C 
HETATM    3  C3  UNL     1     -34.166  17.933  -4.694  1.00 20.00     0.003 C 
HETATM    4  C4  UNL     1     -33.719  16.768  -1.847  1.00 20.00     0.003 C 
HETATM    5  C5  UNL     1     -33.302  16.680  -4.811  1.00 20.00     0.038 C 
HETATM    6  C6  UNL     1     -34.432  15.699  -2.678  1.00 20.00     0.038 C 
HETATM    7  C7  UNL     1     -33.832  15.440  -4.073  1.00 20.00     0.061 C 
ENDROOT
BRANCH   7   8
HETATM    8  C10 UNL     1     -34.866  14.700  -4.933  1.00 20.00     0.012 C 
HETATM    9  C8  UNL     1     -34.453  14.732  -6.400  1.00 20.00     0.012 C 
HETATM   10  C9  UNL     1     -35.030  13.265  -4.445  1.00 20.00     0.012 C 
ENDBRANCH   7   8
BRANCH   7  11
HETATM   11  O11 UNL     1     -32.730  14.531  -3.924  1.00 20.00    -0.389 OA
HETATM   12  H31 UNL     1     -33.048  13.674  -4.235  1.00 20.00     0.210 HD
ENDBRANCH   7  11
TORSDOF 2
ENDMDL
MODEL 3
REMARK VINA RESULT:      -4.5      1.664      4.061
REMARK  2 active torsions:
REMARK  status: ('A' for Active; 'I' for Inactive)
REMARK    1  A    between atoms: C7_7  and  C10_10 
REMARK    2  A    between atoms: C7_7  and  O11_11 
ROOT
HETATM    1  C1  UNL     1     -36.032  17.672  -2.907  1.00 20.00     0.000 C 
HETATM    2  C2  UNL     1     -35.263  17.030  -1.758  1.00 20.00     0.000 C 
HETATM    3  C3  UNL     1     -36.131  16.829  -4.177  1.00 20.00     0.003 C 
HETATM    4  C4  UNL     1     -33.839  16.587  -2.091  1.00 20.00     0.003 C 
HETATM    5  C5  UNL     1     -34.801  16.737  -4.922  1.00 20.00     0.038 C 
HETATM    6  C6  UNL     1     -33.801  15.334  -2.968  1.00 20.00     0.038 C 
HETATM    7  C7  UNL     1     -33.876  15.589  -4.485  1.00 20.00     0.061 C 
ENDROOT
BRANCH   7   8
HETATM    8  C10 UNL     1     -34.263  14.284  -5.194  1.00 20.00     0.012 C 
HETATM    9  C8  UNL     1     -35.214  13.472  -4.323  1.00 20.00     0.012 C 
HETATM   10  C9  UNL     1     -34.889  14.585  -6.551  1.00 20.00     0.012 C 
ENDBRANCH   7   8
BRANCH   7  11
HETATM   11  O11 UNL     1     -32.556  15.908  -4.952  1.00 20.00    -0.389 OA
HETATM   12  H31 UNL     1     -32.302  15.187  -5.543  1.00 20.00     0.210 HD
ENDBRANCH   7  11
TORSDOF 2
ENDMDL
MODEL 4
REMARK VINA RESULT:      -4.4      2.611      4.052
REMARK  2 active torsions:
REMARK  status: ('A' for Active; 'I' for Inactive)
REMARK    1  A    between atoms: C7_7  and  C10_10 
REMARK    2  A    between atoms: C7_7  and  O11_11 
ROOT
HETATM    1  C1  UNL     1     -37.533  15.713  -6.297  1.00 20.00     0.000 C 
HETATM    2  C2  UNL     1     -36.539  15.595  -7.447  1.00 20.00     0.000 C 
HETATM    3  C3  UNL     1     -36.914  15.750  -4.901  1.00 20.00     0.003 C 
HETATM    4  C4  UNL     1     -35.585  14.404  -7.368  1.00 20.00     0.003 C 
HETATM    5  C5  UNL     1     -36.353  14.396  -4.474  1.00 20.00     0.038 C 
HETATM    6  C6  UNL     1     -34.504  14.584  -6.299  1.00 20.00     0.038 C 
HETATM    7  C7  UNL     1     -34.896  14.125  -4.882  1.00 20.00     0.061 C 
ENDROOT
BRANCH   7   8
HETATM    8  C10 UNL     1     -33.926  14.748  -3.868  1.00 20.00     0.012 C 
HETATM    9  C8  UNL     1     -32.864  13.733  -3.462  1.00 20.00     0.012 C 
HETATM   10  C9  UNL     1     -33.285  16.002  -4.451  1.00 20.00     0.012 C 
ENDBRANCH   7   8
BRANCH   7  11
HETATM   11  O11 UNL     1     -34.688  12.707  -4.797  1.00 20.00    -0.389 OA
HETATM   12  H31 UNL     1     -33.962  12.582  -4.172  1.00 20.00     0.210 HD
ENDBRANCH   7  11
TORSDOF 2
ENDMDL
MODEL 5
REMARK VINA RESULT:      -4.4      1.805      4.076
REMARK  2 active torsions:
REMARK  status: ('A' for Active; 'I' for Inactive)
REMARK    1  A    between atoms: C7_7  and  C10_10 
REMARK    2  A    between atoms: C7_7  and  O11_11 
ROOT
HETATM    1  C1  UNL     1     -33.987  18.535  -3.819  1.00 20.00     0.000 C 
HETATM    2  C2  UNL     1     -34.407  18.046  -2.438  1.00 20.00     0.000 C 
HETATM    3  C3  UNL     1     -34.201  17.538  -4.957  1.00 20.00     0.003 C 
HETATM    4  C4  UNL     1     -33.768  16.733  -1.986  1.00 20.00     0.003 C 
HETATM    5  C5  UNL     1     -33.216  16.373  -4.906  1.00 20.00     0.038 C 
HETATM    6  C6  UNL     1     -34.339  15.516  -2.717  1.00 20.00     0.038 C 
HETATM    7  C7  UNL     1     -33.656  15.171  -4.054  1.00 20.00     0.061 C 
ENDROOT
BRANCH   7   8
HETATM    8  C10 UNL     1     -34.576  14.244  -4.861  1.00 20.00     0.012 C 
HETATM    9  C8  UNL     1     -35.998  14.304  -4.314  1.00 20.00     0.012 C 
HETATM   10  C9  UNL     1     -34.544  14.622  -6.337  1.00 20.00     0.012 C 
ENDBRANCH   7   8
BRANCH   7  11
HETATM   11  O11 UNL     1     -32.479  14.399  -3.770  1.00 20.00    -0.389 OA
HETATM   12  H31 UNL     1     -31.817  14.677  -4.416  1.00 20.00     0.210 HD
ENDBRANCH   7  11
TORSDOF 2
ENDMDL
MODEL 6
REMARK VINA RESULT:      -4.4      1.486      1.773
REMARK  2 active torsions:
REMARK  status: ('A' for Active; 'I' for Inactive)
REMARK    1  A    between atoms: C7_7  and  C10_10 
REMARK    2  A    between atoms: C7_7  and  O11_11 
ROOT
HETATM    1  C1  UNL     1     -34.542  14.897  -6.324  1.00 20.00     0.000 C 
HETATM    2  C2  UNL     1     -34.623  13.618  -5.498  1.00 20.00     0.000 C 
HETATM    3  C3  UNL     1     -34.078  16.137  -5.563  1.00 20.00     0.003 C 
HETATM    4  C4  UNL     1     -35.493  13.703  -4.245  1.00 20.00     0.003 C 
HETATM    5  C5  UNL     1     -35.135  16.655  -4.591  1.00 20.00     0.038 C 
HETATM    6  C6  UNL     1     -34.840  14.520  -3.128  1.00 20.00     0.038 C 
HETATM    7  C7  UNL     1     -35.099  16.037  -3.183  1.00 20.00     0.061 C 
ENDROOT
BRANCH   7   8
HETATM    8  C10 UNL     1     -34.065  16.754  -2.304  1.00 20.00     0.012 C 
HETATM    9  C8  UNL     1     -33.905  18.202  -2.752  1.00 20.00     0.012 C 
HETATM   10  C9  UNL     1     -34.476  16.680  -0.838  1.00 20.00     0.012 C 
ENDBRANCH   7   8
BRANCH   7  11
HETATM   11  O11 UNL     1     -36.373  16.296  -2.574  1.00 20.00    -0.389 OA
HETATM   12  H31 UNL     1     -36.851  15.457  -2.590  1.00 20.00     0.210 HD
ENDBRANCH   7  11
TORSDOF 2
ENDMDL
MODEL 7
REMARK VINA RESULT:      -4.3      1.896      3.891
REMARK  2 active torsions:
REMARK  status: ('A' for Active; 'I' for Inactive)
REMARK    1  A    between atoms: C7_7  and  C10_10 
REMARK    2  A    between atoms: C7_7  and  O11_11 
ROOT
HETATM    1  C1  UNL     1     -33.293  13.990  -3.766  1.00 20.00     0.000 C 
HETATM    2  C2  UNL     1     -33.310  15.391  -3.165  1.00 20.00     0.000 C 
HETATM    3  C3  UNL     1     -34.365  13.719  -4.820  1.00 20.00     0.003 C 
HETATM    4  C4  UNL     1     -34.640  15.822  -2.547  1.00 20.00     0.003 C 
HETATM    5  C5  UNL     1     -35.762  13.604  -4.216  1.00 20.00     0.038 C 
HETATM    6  C6  UNL     1     -35.706  16.135  -3.599  1.00 20.00     0.038 C 
HETATM    7  C7  UNL     1     -36.534  14.927  -4.078  1.00 20.00     0.061 C 
ENDROOT
BRANCH   7   8
HETATM    8  C10 UNL     1     -37.229  15.289  -5.397  1.00 20.00     0.012 C 
HETATM    9  C8  UNL     1     -38.723  15.489  -5.169  1.00 20.00     0.012 C 
HETATM   10  C9  UNL     1     -36.599  16.538  -6.002  1.00 20.00     0.012 C 
ENDBRANCH   7   8
BRANCH   7  11
HETATM   11  O11 UNL     1     -37.590  14.705  -3.131  1.00 20.00    -0.389 OA
HETATM   12  H31 UNL     1     -38.388  15.075  -3.530  1.00 20.00     0.210 HD
ENDBRANCH   7  11
TORSDOF 2
ENDMDL
MODEL 8
REMARK VINA RESULT:      -4.3      1.243      2.565
REMARK  2 active torsions:
REMARK  status: ('A' for Active; 'I' for Inactive)
REMARK    1  A    between atoms: C7_7  and  C10_10 
REMARK    2  A    between atoms: C7_7  and  O11_11 
ROOT
HETATM    1  C1  UNL     1     -35.599  13.538  -4.220  1.00 20.00     0.000 C 
HETATM    2  C2  UNL     1     -34.131  13.318  -4.564  1.00 20.00     0.000 C 
HETATM    3  C3  UNL     1     -36.041  14.999  -4.152  1.00 20.00     0.003 C 
HETATM    4  C4  UNL     1     -33.131  14.027  -3.651  1.00 20.00     0.003 C 
HETATM    5  C5  UNL     1     -35.492  15.719  -2.923  1.00 20.00     0.038 C 
HETATM    6  C6  UNL     1     -33.080  15.538  -3.892  1.00 20.00     0.038 C 
HETATM    7  C7  UNL     1     -34.108  16.366  -3.100  1.00 20.00     0.061 C 
ENDROOT
BRANCH   7   8
HETATM    8  C10 UNL     1     -34.239  17.753  -3.745  1.00 20.00     0.012 C 
HETATM    9  C8  UNL     1     -33.754  18.831  -2.783  1.00 20.00     0.012 C 
HETATM   10  C9  UNL     1     -33.459  17.802  -5.054  1.00 20.00     0.012 C 
ENDBRANCH   7   8
BRANCH   7  11
HETATM   11  O11 UNL     1     -33.578  16.599  -1.785  1.00 20.00    -0.389 OA
HETATM   12  H31 UNL     1     -33.902  17.469  -1.519  1.00 20.00     0.210 HD
ENDBRANCH   7  11
TORSDOF 2
ENDMDL
MODEL 9
REMARK VINA RESULT:      -4.3      2.684      3.832
REMARK  2 active torsions:
REMARK  status: ('A' for Active; 'I' for Inactive)
REMARK    1  A    between atoms: C7_7  and  C10_10 
REMARK    2  A    between atoms: C7_7  and  O11_11 
ROOT
HETATM    1  C1  UNL     1     -35.083  17.164  -7.689  1.00 20.00     0.000 C 
HETATM    2  C2  UNL     1     -34.761  18.413  -6.877  1.00 20.00     0.000 C 
HETATM    3  C3  UNL     1     -35.349  15.903  -6.868  1.00 20.00     0.003 C 
HETATM    4  C4  UNL     1     -33.589  18.278  -5.906  1.00 20.00     0.003 C 
HETATM    5  C5  UNL     1     -34.080  15.343  -6.231  1.00 20.00     0.038 C 
HETATM    6  C6  UNL     1     -33.934  17.430  -4.679  1.00 20.00     0.038 C 
HETATM    7  C7  UNL     1     -33.726  15.913  -4.848  1.00 20.00     0.061 C 
ENDROOT
BRANCH   7   8
HETATM    8  C10 UNL     1     -34.500  15.177  -3.745  1.00 20.00     0.012 C 
HETATM    9  C8  UNL     1     -34.031  13.729  -3.648  1.00 20.00     0.012 C 
HETATM   10  C9  UNL     1     -34.331  15.894  -2.411  1.00 20.00     0.012 C 
ENDBRANCH   7   8
BRANCH   7  11
HETATM   11  O11 UNL     1     -32.340  15.621  -4.611  1.00 20.00    -0.389 OA
HETATM   12  H31 UNL     1     -32.088  14.970  -5.278  1.00 20.00     0.210 HD
ENDBRANCH   7  11
TORSDOF 2
ENDMDL
