MODEL 1
REMARK VINA RESULT:      -3.5      0.000      0.000
REMARK  2 active torsions:
REMARK  status: ('A' for Active; 'I' for Inactive)
REMARK    1  A    between atoms: C1_1  and  S9_9 
REMARK    2  A    between atoms: C2_2  and  N7_7 
ROOT
HETATM    1  C1  UNL     1     -34.710  14.982  -3.332  1.00 20.00     0.102 C 
HETATM    2  C2  UNL     1     -34.062  16.159  -3.226  1.00 20.00     0.011 C 
HETATM    3  C3  UNL     1     -33.264  16.660  -4.405  1.00 20.00     0.068 C 
ENDROOT
BRANCH   2   4
HETATM    4  N7  UNL     1     -34.037  16.986  -2.136  1.00 20.00    -0.393 N 
HETATM    5  C4  UNL     1     -33.654  18.384  -2.257  1.00 20.00     0.148 C 
HETATM    6  C5  UNL     1     -34.623  16.583  -0.866  1.00 20.00     0.148 C 
ENDBRANCH   2   4
BRANCH   1   7
HETATM    7  S9  UNL     1     -34.654  14.002  -4.825  1.00 20.00     0.036 S 
HETATM    8  C6  UNL     1     -36.126  14.707  -5.600  1.00 20.00     0.132 C 
HETATM    9  O8  UNL     1     -34.976  12.601  -4.401  1.00 20.00    -0.254 OA
ENDBRANCH   1   7
TORSDOF 2
ENDMDL
MODEL 2
REMARK VINA RESULT:      -3.5      1.197      1.446
REMARK  2 active torsions:
REMARK  status: ('A' for Active; 'I' for Inactive)
REMARK    1  A    between atoms: C1_1  and  S9_9 
REMARK    2  A    between atoms: C2_2  and  N7_7 
ROOT
HETATM    1  C1  UNL     1     -35.410  14.923  -3.749  1.00 20.00     0.102 C 
HETATM    2  C2  UNL     1     -34.742  15.774  -2.945  1.00 20.00     0.011 C 
HETATM    3  C3  UNL     1     -33.240  15.862  -3.065  1.00 20.00     0.068 C 
ENDROOT
BRANCH   2   4
HETATM    4  N7  UNL     1     -35.282  16.599  -1.995  1.00 20.00    -0.393 N 
HETATM    5  C4  UNL     1     -34.660  16.756  -0.690  1.00 20.00     0.148 C 
HETATM    6  C5  UNL     1     -36.345  17.537  -2.323  1.00 20.00     0.148 C 
ENDBRANCH   2   4
BRANCH   1   7
HETATM    7  S9  UNL     1     -34.571  13.901  -4.951  1.00 20.00     0.036 S 
HETATM    8  C6  UNL     1     -35.496  14.466  -6.397  1.00 20.00     0.132 C 
HETATM    9  O8  UNL     1     -34.991  12.494  -4.648  1.00 20.00    -0.254 OA
ENDBRANCH   1   7
TORSDOF 2
ENDMDL
MODEL 3
REMARK VINA RESULT:      -3.4      3.153      4.416
REMARK  2 active torsions:
REMARK  status: ('A' for Active; 'I' for Inactive)
REMARK    1  A    between atoms: C1_1  and  S9_9 
REMARK    2  A    between atoms: C2_2  and  N7_7 
ROOT
HETATM    1  C1  UNL     1     -34.942  15.973  -2.279  1.00 20.00     0.102 C 
HETATM    2  C2  UNL     1     -34.519  15.122  -3.235  1.00 20.00     0.011 C 
HETATM    3  C3  UNL     1     -33.053  15.097  -3.592  1.00 20.00     0.068 C 
ENDROOT
BRANCH   2   4
HETATM    4  N7  UNL     1     -35.288  14.243  -3.949  1.00 20.00    -0.393 N 
HETATM    5  C4  UNL     1     -36.726  14.427  -4.075  1.00 20.00     0.148 C 
HETATM    6  C5  UNL     1     -34.686  13.236  -4.810  1.00 20.00     0.148 C 
ENDBRANCH   2   4
BRANCH   1   7
HETATM    7  S9  UNL     1     -33.819  17.070  -1.425  1.00 20.00     0.036 S 
HETATM    8  C6  UNL     1     -34.818  17.279   0.067  1.00 20.00     0.132 C 
HETATM    9  O8  UNL     1     -33.849  18.357  -2.192  1.00 20.00    -0.254 OA
ENDBRANCH   1   7
TORSDOF 2
ENDMDL
MODEL 4
REMARK VINA RESULT:      -3.3      1.612      1.671
REMARK  2 active torsions:
REMARK  status: ('A' for Active; 'I' for Inactive)
REMARK    1  A    between atoms: C1_1  and  S9_9 
REMARK    2  A    between atoms: C2_2  and  N7_7 
ROOT
HETATM    1  C1  UNL     1     -36.085  15.847  -2.998  1.00 20.00     0.102 C 
HETATM    2  C2  UNL     1     -34.796  16.071  -2.674  1.00 20.00     0.011 C 
HETATM    3  C3  UNL     1     -33.728  15.197  -3.287  1.00 20.00     0.068 C 
ENDROOT
BRANCH   2   4
HETATM    4  N7  UNL     1     -34.318  17.032  -1.824  1.00 20.00    -0.393 N 
HETATM    5  C4  UNL     1     -33.715  18.255  -2.330  1.00 20.00     0.148 C 
HETATM    6  C5  UNL     1     -34.610  16.994  -0.399  1.00 20.00     0.148 C 
ENDBRANCH   2   4
BRANCH   1   7
HETATM    7  S9  UNL     1     -36.565  14.549  -4.129  1.00 20.00     0.036 S 
HETATM    8  C6  UNL     1     -36.630  15.574  -5.616  1.00 20.00     0.132 C 
HETATM    9  O8  UNL     1     -37.969  14.184  -3.752  1.00 20.00    -0.254 OA
ENDBRANCH   1   7
TORSDOF 2
ENDMDL
MODEL 5
REMARK VINA RESULT:      -3.2      1.002      1.532
REMARK  2 active torsions:
REMARK  status: ('A' for Active; 'I' for Inactive)
REMARK    1  A    between atoms: C1_1  and  S9_9 
REMARK    2  A    between atoms: C2_2  and  N7_7 
ROOT
HETATM    1  C1  UNL     1     -34.557  15.550  -2.671  1.00 20.00     0.102 C 
HETATM    2  C2  UNL     1     -34.094  16.807  -2.820  1.00 20.00     0.011 C 
HETATM    3  C3  UNL     1     -33.642  17.259  -4.188  1.00 20.00     0.068 C 
ENDROOT
BRANCH   2   4
HETATM    4  N7  UNL     1     -33.978  17.760  -1.844  1.00 20.00    -0.393 N 
HETATM    5  C4  UNL     1     -34.177  17.432  -0.441  1.00 20.00     0.148 C 
HETATM    6  C5  UNL     1     -33.415  19.071  -2.130  1.00 20.00     0.148 C 
ENDBRANCH   2   4
BRANCH   1   7
HETATM    7  S9  UNL     1     -34.653  14.407  -4.041  1.00 20.00     0.036 S 
HETATM    8  C6  UNL     1     -36.456  14.355  -4.151  1.00 20.00     0.132 C 
HETATM    9  O8  UNL     1     -34.180  13.091  -3.503  1.00 20.00    -0.254 OA
ENDBRANCH   1   7
TORSDOF 2
ENDMDL
MODEL 6
REMARK VINA RESULT:      -3.2      2.453      2.941
REMARK  2 active torsions:
REMARK  status: ('A' for Active; 'I' for Inactive)
REMARK    1  A    between atoms: C1_1  and  S9_9 
REMARK    2  A    between atoms: C2_2  and  N7_7 
ROOT
HETATM    1  C1  UNL     1     -36.441  15.702  -3.841  1.00 20.00     0.102 C 
HETATM    2  C2  UNL     1     -35.315  14.978  -3.691  1.00 20.00     0.011 C 
HETATM    3  C3  UNL     1     -35.262  13.585  -4.271  1.00 20.00     0.068 C 
ENDROOT
BRANCH   2   4
HETATM    4  N7  UNL     1     -34.168  15.366  -3.051  1.00 20.00    -0.393 N 
HETATM    5  C4  UNL     1     -32.856  15.057  -3.599  1.00 20.00     0.148 C 
HETATM    6  C5  UNL     1     -34.202  16.307  -1.942  1.00 20.00     0.148 C 
ENDBRANCH   2   4
BRANCH   1   7
HETATM    7  S9  UNL     1     -37.869  15.065  -4.705  1.00 20.00     0.036 S 
HETATM    8  C6  UNL     1     -38.711  16.648  -4.926  1.00 20.00     0.132 C 
HETATM    9  O8  UNL     1     -38.633  14.268  -3.691  1.00 20.00    -0.254 OA
ENDBRANCH   1   7
TORSDOF 2
ENDMDL
MODEL 7
REMARK VINA RESULT:      -3.1      3.014      4.288
REMARK  2 active torsions:
REMARK  status: ('A' for Active; 'I' for Inactive)
REMARK    1  A    between atoms: C1_1  and  S9_9 
REMARK    2  A    between atoms: C2_2  and  N7_7 
ROOT
HETATM    1  C1  UNL     1     -34.645  15.873  -3.296  1.00 20.00     0.102 C 
HETATM    2  C2  UNL     1     -34.223  15.638  -4.554  1.00 20.00     0.011 C 
HETATM    3  C3  UNL     1     -33.257  16.607  -5.191  1.00 20.00     0.068 C 
ENDROOT
BRANCH   2   4
HETATM    4  N7  UNL     1     -34.579  14.587  -5.356  1.00 20.00    -0.393 N 
HETATM    5  C4  UNL     1     -34.639  14.728  -6.803  1.00 20.00     0.148 C 
HETATM    6  C5  UNL     1     -34.671  13.233  -4.833  1.00 20.00     0.148 C 
ENDBRANCH   2   4
BRANCH   1   7
HETATM    7  S9  UNL     1     -34.095  17.293  -2.362  1.00 20.00     0.036 S 
HETATM    8  C6  UNL     1     -34.598  16.688  -0.735  1.00 20.00     0.132 C 
HETATM    9  O8  UNL     1     -35.013  18.412  -2.748  1.00 20.00    -0.254 OA
ENDBRANCH   1   7
TORSDOF 2
ENDMDL
MODEL 8
REMARK VINA RESULT:      -3.0      2.540      4.498
REMARK  2 active torsions:
REMARK  status: ('A' for Active; 'I' for Inactive)
REMARK    1  A    between atoms: C1_1  and  S9_9 
REMARK    2  A    between atoms: C2_2  and  N7_7 
ROOT
HETATM    1  C1  UNL     1     -34.864  14.364  -5.242  1.00 20.00     0.102 C 
HETATM    2  C2  UNL     1     -36.149  14.722  -5.437  1.00 20.00     0.011 C 
HETATM    3  C3  UNL     1     -37.075  14.787  -4.248  1.00 20.00     0.068 C 
ENDROOT
BRANCH   2   4
HETATM    4  N7  UNL     1     -36.738  15.046  -6.630  1.00 20.00    -0.393 N 
HETATM    5  C4  UNL     1     -37.906  15.911  -6.684  1.00 20.00     0.148 C 
HETATM    6  C5  UNL     1     -36.090  14.751  -7.899  1.00 20.00     0.148 C 
ENDBRANCH   2   4
BRANCH   1   7
HETATM    7  S9  UNL     1     -34.228  13.967  -3.620  1.00 20.00     0.036 S 
HETATM    8  C6  UNL     1     -33.596  15.614  -3.228  1.00 20.00     0.132 C 
HETATM    9  O8  UNL     1     -33.057  13.062  -3.856  1.00 20.00    -0.254 OA
ENDBRANCH   1   7
TORSDOF 2
ENDMDL
MODEL 9
REMARK VINA RESULT:      -3.0      2.570      3.163
REMARK  2 active torsions:
REMARK  status: ('A' for Active; 'I' for Inactive)
REMARK    1  A    between atoms: C1_1  and  S9_9 
REMARK    2  A    between atoms: C2_2  and  N7_7 
ROOT
HETATM    1  C1  UNL     1     -36.381  14.547  -4.402  1.00 20.00     0.102 C 
HETATM    2  C2  UNL     1     -36.671  15.517  -3.513  1.00 20.00     0.011 C 
HETATM    3  C3  UNL     1     -35.547  16.140  -2.721  1.00 20.00     0.068 C 
ENDROOT
BRANCH   2   4
HETATM    4  N7  UNL     1     -37.910  16.026  -3.228  1.00 20.00    -0.393 N 
HETATM    5  C4  UNL     1     -38.095  17.436  -2.921  1.00 20.00     0.148 C 
HETATM    6  C5  UNL     1     -39.118  15.248  -3.458  1.00 20.00     0.148 C 
ENDBRANCH   2   4
BRANCH   1   7
HETATM    7  S9  UNL     1     -34.708  13.980  -4.673  1.00 20.00     0.036 S 
HETATM    8  C6  UNL     1     -34.510  14.677  -6.327  1.00 20.00     0.132 C 
HETATM    9  O8  UNL     1     -34.803  12.490  -4.802  1.00 20.00    -0.254 OA
ENDBRANCH   1   7
TORSDOF 2
ENDMDL
