MODEL 1
REMARK VINA RESULT:      -5.0      0.000      0.000
REMARK  2 active torsions:
REMARK  status: ('A' for Active; 'I' for Inactive)
REMARK    1  A    between atoms: C6_6  and  C10_10 
REMARK    2  A    between atoms: C7_7  and  C11_11 
ROOT
HETATM    1  C1  UNL     1     -32.356  18.811   0.071  1.00 20.00     0.059 C 
HETATM    2  C10 UNL     1     -33.702  18.264  -0.045  1.00 20.00     0.128 C 
HETATM    3  N12 UNL     1     -31.294  19.262   0.191  1.00 20.00    -0.197 NA
ENDROOT
BRANCH   2   4
HETATM    4  C6  UNL     1     -33.646  17.395  -1.299  1.00 20.00    -0.002 C 
HETATM    5  C2  UNL     1     -34.748  16.328  -1.269  1.00 20.00     0.006 C 
HETATM    6  C4  UNL     1     -34.746  15.477  -2.538  1.00 20.00     0.005 C 
HETATM    7  C7  UNL     1     -34.859  16.342  -3.800  1.00 20.00    -0.011 C 
HETATM    8  C5  UNL     1     -33.757  17.408  -3.831  1.00 20.00     0.005 C 
HETATM    9  C3  UNL     1     -33.760  18.259  -2.562  1.00 20.00     0.006 C 
BRANCH   7  10
HETATM   10  C11 UNL     1     -34.804  15.474  -5.056  1.00 20.00    -0.019 C 
HETATM   11  C8  UNL     1     -33.934  16.131  -6.125  1.00 20.00     0.010 C 
HETATM   12  C9  UNL     1     -34.284  14.078  -4.720  1.00 20.00     0.010 C 
ENDBRANCH   7  10
ENDBRANCH   2   4
TORSDOF 2
ENDMDL
MODEL 2
REMARK VINA RESULT:      -5.0      2.686      5.218
REMARK  2 active torsions:
REMARK  status: ('A' for Active; 'I' for Inactive)
REMARK    1  A    between atoms: C6_6  and  C10_10 
REMARK    2  A    between atoms: C7_7  and  C11_11 
ROOT
HETATM    1  C1  UNL     1     -34.628  13.701  -5.034  1.00 20.00     0.059 C 
HETATM    2  C10 UNL     1     -34.321  15.041  -5.519  1.00 20.00     0.128 C 
HETATM    3  N12 UNL     1     -34.864  12.623  -4.677  1.00 20.00    -0.197 NA
ENDROOT
BRANCH   2   4
HETATM    4  C6  UNL     1     -34.583  15.943  -4.316  1.00 20.00    -0.002 C 
HETATM    5  C2  UNL     1     -34.502  15.142  -3.010  1.00 20.00     0.006 C 
HETATM    6  C4  UNL     1     -34.708  16.033  -1.786  1.00 20.00     0.005 C 
HETATM    7  C7  UNL     1     -33.722  17.208  -1.767  1.00 20.00    -0.011 C 
HETATM    8  C5  UNL     1     -33.804  18.009  -3.072  1.00 20.00     0.005 C 
HETATM    9  C3  UNL     1     -33.596  17.118  -4.295  1.00 20.00     0.006 C 
BRANCH   7  10
HETATM   10  C11 UNL     1     -33.981  18.111  -0.563  1.00 20.00    -0.019 C 
HETATM   11  C8  UNL     1     -34.870  17.404   0.458  1.00 20.00     0.010 C 
HETATM   12  C9  UNL     1     -32.663  18.541   0.078  1.00 20.00     0.010 C 
ENDBRANCH   7  10
ENDBRANCH   2   4
TORSDOF 2
ENDMDL
MODEL 3
REMARK VINA RESULT:      -4.9      0.580      1.118
REMARK  2 active torsions:
REMARK  status: ('A' for Active; 'I' for Inactive)
REMARK    1  A    between atoms: C6_6  and  C10_10 
REMARK    2  A    between atoms: C7_7  and  C11_11 
ROOT
HETATM    1  C1  UNL     1     -32.546  18.806  -0.131  1.00 20.00     0.059 C 
HETATM    2  C10 UNL     1     -33.886  18.296  -0.391  1.00 20.00     0.128 C 
HETATM    3  N12 UNL     1     -31.491  19.231   0.100  1.00 20.00    -0.197 NA
ENDROOT
BRANCH   2   4
HETATM    4  C6  UNL     1     -33.696  17.321  -1.551  1.00 20.00    -0.002 C 
HETATM    5  C2  UNL     1     -34.753  16.210  -1.504  1.00 20.00     0.006 C 
HETATM    6  C4  UNL     1     -34.617  15.250  -2.684  1.00 20.00     0.005 C 
HETATM    7  C7  UNL     1     -34.665  15.991  -4.027  1.00 20.00    -0.011 C 
HETATM    8  C5  UNL     1     -33.608  17.101  -4.074  1.00 20.00     0.005 C 
HETATM    9  C3  UNL     1     -33.745  18.061  -2.894  1.00 20.00     0.006 C 
BRANCH   7  10
HETATM   10  C11 UNL     1     -34.477  15.017  -5.188  1.00 20.00    -0.019 C 
HETATM   11  C8  UNL     1     -34.279  13.594  -4.670  1.00 20.00     0.010 C 
HETATM   12  C9  UNL     1     -35.670  15.082  -6.140  1.00 20.00     0.010 C 
ENDBRANCH   7  10
ENDBRANCH   2   4
TORSDOF 2
ENDMDL
MODEL 4
REMARK VINA RESULT:      -4.8      2.798      5.348
REMARK  2 active torsions:
REMARK  status: ('A' for Active; 'I' for Inactive)
REMARK    1  A    between atoms: C6_6  and  C10_10 
REMARK    2  A    between atoms: C7_7  and  C11_11 
ROOT
HETATM    1  C1  UNL     1     -36.667  14.887  -4.002  1.00 20.00     0.059 C 
HETATM    2  C10 UNL     1     -35.430  15.581  -4.336  1.00 20.00     0.128 C 
HETATM    3  N12 UNL     1     -37.649  14.318  -3.763  1.00 20.00    -0.197 NA
ENDROOT
BRANCH   2   4
HETATM    4  C6  UNL     1     -35.225  16.558  -3.180  1.00 20.00    -0.002 C 
HETATM    5  C2  UNL     1     -34.849  15.807  -1.896  1.00 20.00     0.006 C 
HETATM    6  C4  UNL     1     -34.587  16.766  -0.736  1.00 20.00     0.005 C 
HETATM    7  C7  UNL     1     -33.518  17.807  -1.091  1.00 20.00    -0.011 C 
HETATM    8  C5  UNL     1     -33.894  18.559  -2.375  1.00 20.00     0.005 C 
HETATM    9  C3  UNL     1     -34.155  17.599  -3.534  1.00 20.00     0.006 C 
BRANCH   7  10
HETATM   10  C11 UNL     1     -33.311  18.784   0.064  1.00 20.00    -0.019 C 
HETATM   11  C8  UNL     1     -34.109  18.344   1.289  1.00 20.00     0.010 C 
HETATM   12  C9  UNL     1     -31.826  18.905   0.404  1.00 20.00     0.010 C 
ENDBRANCH   7  10
ENDBRANCH   2   4
TORSDOF 2
ENDMDL
MODEL 5
REMARK VINA RESULT:      -4.7      3.189      5.561
REMARK  2 active torsions:
REMARK  status: ('A' for Active; 'I' for Inactive)
REMARK    1  A    between atoms: C6_6  and  C10_10 
REMARK    2  A    between atoms: C7_7  and  C11_11 
ROOT
HETATM    1  C1  UNL     1     -35.168  14.109  -6.515  1.00 20.00     0.059 C 
HETATM    2  C10 UNL     1     -34.748  13.650  -5.198  1.00 20.00     0.128 C 
HETATM    3  N12 UNL     1     -35.501  14.444  -7.576  1.00 20.00    -0.197 NA
ENDROOT
BRANCH   2   4
HETATM    4  C6  UNL     1     -34.721  14.921  -4.351  1.00 20.00    -0.002 C 
HETATM    5  C2  UNL     1     -35.949  14.986  -3.433  1.00 20.00     0.006 C 
HETATM    6  C4  UNL     1     -35.919  16.223  -2.537  1.00 20.00     0.005 C 
HETATM    7  C7  UNL     1     -34.623  16.301  -1.720  1.00 20.00    -0.011 C 
HETATM    8  C5  UNL     1     -33.395  16.236  -2.637  1.00 20.00     0.005 C 
HETATM    9  C3  UNL     1     -33.426  14.998  -3.533  1.00 20.00     0.006 C 
BRANCH   7  10
HETATM   10  C11 UNL     1     -34.595  17.570  -0.871  1.00 20.00    -0.019 C 
HETATM   11  C8  UNL     1     -35.163  17.298   0.521  1.00 20.00     0.010 C 
HETATM   12  C9  UNL     1     -33.173  18.119  -0.775  1.00 20.00     0.010 C 
ENDBRANCH   7  10
ENDBRANCH   2   4
TORSDOF 2
ENDMDL
MODEL 6
REMARK VINA RESULT:      -4.7      0.894      2.005
REMARK  2 active torsions:
REMARK  status: ('A' for Active; 'I' for Inactive)
REMARK    1  A    between atoms: C6_6  and  C10_10 
REMARK    2  A    between atoms: C7_7  and  C11_11 
ROOT
HETATM    1  C1  UNL     1     -32.871  19.216  -0.403  1.00 20.00     0.059 C 
HETATM    2  C10 UNL     1     -34.303  19.263  -0.671  1.00 20.00     0.128 C 
HETATM    3  N12 UNL     1     -31.735  19.203  -0.168  1.00 20.00    -0.197 NA
ENDROOT
BRANCH   2   4
HETATM    4  C6  UNL     1     -34.523  18.172  -1.718  1.00 20.00    -0.002 C 
HETATM    5  C2  UNL     1     -33.596  18.383  -2.922  1.00 20.00     0.006 C 
HETATM    6  C4  UNL     1     -33.760  17.275  -3.961  1.00 20.00     0.005 C 
HETATM    7  C7  UNL     1     -33.548  15.885  -3.347  1.00 20.00    -0.011 C 
HETATM    8  C5  UNL     1     -34.475  15.675  -2.143  1.00 20.00     0.005 C 
HETATM    9  C3  UNL     1     -34.310  16.783  -1.104  1.00 20.00     0.006 C 
BRANCH   7  10
HETATM   10  C11 UNL     1     -33.766  14.793  -4.393  1.00 20.00    -0.019 C 
HETATM   11  C8  UNL     1     -34.645  13.679  -3.830  1.00 20.00     0.010 C 
HETATM   12  C9  UNL     1     -34.386  15.380  -5.659  1.00 20.00     0.010 C 
ENDBRANCH   7  10
ENDBRANCH   2   4
TORSDOF 2
ENDMDL
MODEL 7
REMARK VINA RESULT:      -4.6      1.396      2.594
REMARK  2 active torsions:
REMARK  status: ('A' for Active; 'I' for Inactive)
REMARK    1  A    between atoms: C6_6  and  C10_10 
REMARK    2  A    between atoms: C7_7  and  C11_11 
ROOT
HETATM    1  C1  UNL     1     -33.796  17.525  -0.755  1.00 20.00     0.059 C 
HETATM    2  C10 UNL     1     -34.639  16.400  -1.139  1.00 20.00     0.128 C 
HETATM    3  N12 UNL     1     -33.128  18.413  -0.418  1.00 20.00    -0.197 NA
ENDROOT
BRANCH   2   4
HETATM    4  C6  UNL     1     -34.680  16.468  -2.664  1.00 20.00    -0.002 C 
HETATM    5  C2  UNL     1     -33.289  16.207  -3.256  1.00 20.00     0.006 C 
HETATM    6  C4  UNL     1     -33.313  16.217  -4.783  1.00 20.00     0.005 C 
HETATM    7  C7  UNL     1     -34.339  15.222  -5.341  1.00 20.00    -0.011 C 
HETATM    8  C5  UNL     1     -35.730  15.483  -4.750  1.00 20.00     0.005 C 
HETATM    9  C3  UNL     1     -35.704  15.472  -3.222  1.00 20.00     0.006 C 
BRANCH   7  10
HETATM   10  C11 UNL     1     -34.380  15.287  -6.867  1.00 20.00    -0.019 C 
HETATM   11  C8  UNL     1     -35.534  14.446  -7.409  1.00 20.00     0.010 C 
HETATM   12  C9  UNL     1     -34.501  16.734  -7.338  1.00 20.00     0.010 C 
ENDBRANCH   7  10
ENDBRANCH   2   4
TORSDOF 2
ENDMDL
MODEL 8
REMARK VINA RESULT:      -4.5      2.678      5.976
REMARK  2 active torsions:
REMARK  status: ('A' for Active; 'I' for Inactive)
REMARK    1  A    between atoms: C6_6  and  C10_10 
REMARK    2  A    between atoms: C7_7  and  C11_11 
ROOT
HETATM    1  C1  UNL     1     -34.062  15.722  -2.947  1.00 20.00     0.059 C 
HETATM    2  C10 UNL     1     -33.888  17.154  -2.739  1.00 20.00     0.128 C 
HETATM    3  N12 UNL     1     -34.205  14.588  -3.145  1.00 20.00    -0.197 NA
ENDROOT
BRANCH   2   4
HETATM    4  C6  UNL     1     -33.710  17.293  -1.228  1.00 20.00    -0.002 C 
HETATM    5  C2  UNL     1     -32.924  18.567  -0.891  1.00 20.00     0.006 C 
HETATM    6  C4  UNL     1     -32.776  18.757   0.618  1.00 20.00     0.005 C 
HETATM    7  C7  UNL     1     -34.138  18.753   1.326  1.00 20.00    -0.011 C 
HETATM    8  C5  UNL     1     -34.924  17.479   0.988  1.00 20.00     0.005 C 
HETATM    9  C3  UNL     1     -35.071  17.291  -0.521  1.00 20.00     0.006 C 
BRANCH   7  10
HETATM   10  C11 UNL     1     -33.962  18.894   2.836  1.00 20.00    -0.019 C 
HETATM   11  C8  UNL     1     -34.974  18.024   3.578  1.00 20.00     0.010 C 
HETATM   12  C9  UNL     1     -32.536  18.530   3.246  1.00 20.00     0.010 C 
ENDBRANCH   7  10
ENDBRANCH   2   4
TORSDOF 2
ENDMDL
MODEL 9
REMARK VINA RESULT:      -4.4      1.912      2.094
REMARK  2 active torsions:
REMARK  status: ('A' for Active; 'I' for Inactive)
REMARK    1  A    between atoms: C6_6  and  C10_10 
REMARK    2  A    between atoms: C7_7  and  C11_11 
ROOT
HETATM    1  C1  UNL     1     -34.905  17.612   0.680  1.00 20.00     0.059 C 
HETATM    2  C10 UNL     1     -34.060  17.819  -0.489  1.00 20.00     0.128 C 
HETATM    3  N12 UNL     1     -35.564  17.473   1.624  1.00 20.00    -0.197 NA
ENDROOT
BRANCH   2   4
HETATM    4  C6  UNL     1     -34.447  16.685  -1.436  1.00 20.00    -0.002 C 
HETATM    5  C2  UNL     1     -35.763  17.006  -2.156  1.00 20.00     0.006 C 
HETATM    6  C4  UNL     1     -36.147  15.910  -3.149  1.00 20.00     0.005 C 
HETATM    7  C7  UNL     1     -35.024  15.642  -4.159  1.00 20.00    -0.011 C 
HETATM    8  C5  UNL     1     -33.708  15.320  -3.439  1.00 20.00     0.005 C 
HETATM    9  C3  UNL     1     -33.325  16.418  -2.447  1.00 20.00     0.006 C 
BRANCH   7  10
HETATM   10  C11 UNL     1     -35.410  14.509  -5.108  1.00 20.00    -0.019 C 
HETATM   11  C8  UNL     1     -34.749  14.701  -6.471  1.00 20.00     0.010 C 
HETATM   12  C9  UNL     1     -35.029  13.156  -4.511  1.00 20.00     0.010 C 
ENDBRANCH   7  10
ENDBRANCH   2   4
TORSDOF 2
ENDMDL
