MODEL 1
REMARK VINA RESULT:      -3.5      0.000      0.000
REMARK  0 active torsions:
REMARK  status: ('A' for Active; 'I' for Inactive)
ROOT
HETATM    1  C1  UNL     1     -36.531  14.981  -3.555  1.00 20.00     0.135 C 
HETATM    2  C2  UNL     1     -34.647  15.655  -2.222  1.00 20.00     0.092 C 
HETATM    3  C3  UNL     1     -33.922  14.999  -3.406  1.00 20.00     0.073 C 
HETATM    4  C4  UNL     1     -34.031  16.955  -1.723  1.00 20.00     0.033 C 
HETATM    5  C5  UNL     1     -33.364  15.957  -4.452  1.00 20.00     0.024 C 
HETATM    6  N6  UNL     1     -36.033  15.839  -2.606  1.00 20.00    -0.370 N 
HETATM    7  S7  UNL     1     -38.121  14.917  -4.030  1.00 20.00    -0.053 SA
HETATM    8  S8  UNL     1     -35.234  13.979  -4.178  1.00 20.00    -0.094 SA
HETATM    9  H17 UNL     1     -36.583  16.611  -2.248  1.00 20.00     0.161 HD
ENDROOT
TORSDOF 0
ENDMDL
MODEL 2
REMARK VINA RESULT:      -3.4      2.138      3.174
REMARK  0 active torsions:
REMARK  status: ('A' for Active; 'I' for Inactive)
ROOT
HETATM    1  C1  UNL     1     -34.915  16.295  -2.057  1.00 20.00     0.135 C 
HETATM    2  C2  UNL     1     -36.290  15.541  -3.880  1.00 20.00     0.092 C 
HETATM    3  C3  UNL     1     -34.936  14.948  -4.296  1.00 20.00     0.073 C 
HETATM    4  C4  UNL     1     -37.489  14.625  -4.079  1.00 20.00     0.033 C 
HETATM    5  C5  UNL     1     -34.745  13.466  -3.995  1.00 20.00     0.024 C 
HETATM    6  N6  UNL     1     -36.174  15.970  -2.500  1.00 20.00    -0.370 N 
HETATM    7  S7  UNL     1     -34.576  16.947  -0.568  1.00 20.00    -0.053 SA
HETATM    8  S8  UNL     1     -33.740  15.914  -3.301  1.00 20.00    -0.094 SA
HETATM    9  H17 UNL     1     -36.968  15.955  -1.873  1.00 20.00     0.161 HD
ENDROOT
TORSDOF 0
ENDMDL
MODEL 3
REMARK VINA RESULT:      -3.4      2.878      3.697
REMARK  0 active torsions:
REMARK  status: ('A' for Active; 'I' for Inactive)
ROOT
HETATM    1  C1  UNL     1     -33.682  17.241  -5.113  1.00 20.00     0.135 C 
HETATM    2  C2  UNL     1     -33.016  15.339  -3.801  1.00 20.00     0.092 C 
HETATM    3  C3  UNL     1     -33.745  16.166  -2.732  1.00 20.00     0.073 C 
HETATM    4  C4  UNL     1     -33.297  13.843  -3.768  1.00 20.00     0.033 C 
HETATM    5  C5  UNL     1     -35.171  15.725  -2.415  1.00 20.00     0.024 C 
HETATM    6  N6  UNL     1     -33.342  15.911  -5.092  1.00 20.00    -0.370 N 
HETATM    7  S7  UNL     1     -33.945  18.129  -6.491  1.00 20.00    -0.053 SA
HETATM    8  S8  UNL     1     -33.794  17.842  -3.469  1.00 20.00    -0.094 SA
HETATM    9  H17 UNL     1     -33.392  15.339  -5.927  1.00 20.00     0.161 HD
ENDROOT
TORSDOF 0
ENDMDL
MODEL 4
REMARK VINA RESULT:      -3.4      1.891      2.476
REMARK  0 active torsions:
REMARK  status: ('A' for Active; 'I' for Inactive)
ROOT
HETATM    1  C1  UNL     1     -34.280  14.984  -4.234  1.00 20.00     0.135 C 
HETATM    2  C2  UNL     1     -33.878  16.311  -2.269  1.00 20.00     0.092 C 
HETATM    3  C3  UNL     1     -33.797  17.396  -3.352  1.00 20.00     0.073 C 
HETATM    4  C4  UNL     1     -34.633  16.708  -1.008  1.00 20.00     0.033 C 
HETATM    5  C5  UNL     1     -35.046  18.254  -3.522  1.00 20.00     0.024 C 
HETATM    6  N6  UNL     1     -34.451  15.127  -2.879  1.00 20.00    -0.370 N 
HETATM    7  S7  UNL     1     -34.720  13.642  -5.106  1.00 20.00    -0.053 SA
HETATM    8  S8  UNL     1     -33.531  16.430  -4.885  1.00 20.00    -0.094 SA
HETATM    9  H17 UNL     1     -35.017  14.478  -2.345  1.00 20.00     0.161 HD
ENDROOT
TORSDOF 0
ENDMDL
MODEL 5
REMARK VINA RESULT:      -3.3      1.604      1.668
REMARK  0 active torsions:
REMARK  status: ('A' for Active; 'I' for Inactive)
ROOT
HETATM    1  C1  UNL     1     -35.802  14.963  -5.294  1.00 20.00     0.135 C 
HETATM    2  C2  UNL     1     -35.223  15.107  -2.964  1.00 20.00     0.092 C 
HETATM    3  C3  UNL     1     -34.128  14.151  -3.459  1.00 20.00     0.073 C 
HETATM    4  C4  UNL     1     -34.759  16.176  -1.986  1.00 20.00     0.033 C 
HETATM    5  C5  UNL     1     -32.763  14.782  -3.706  1.00 20.00     0.024 C 
HETATM    6  N6  UNL     1     -35.851  15.693  -4.132  1.00 20.00    -0.370 N 
HETATM    7  S7  UNL     1     -36.579  15.374  -6.703  1.00 20.00    -0.053 SA
HETATM    8  S8  UNL     1     -34.798  13.546  -5.053  1.00 20.00    -0.094 SA
HETATM    9  H17 UNL     1     -36.237  16.629  -4.111  1.00 20.00     0.161 HD
ENDROOT
TORSDOF 0
ENDMDL
MODEL 6
REMARK VINA RESULT:      -3.3     10.708     11.572
REMARK  0 active torsions:
REMARK  status: ('A' for Active; 'I' for Inactive)
ROOT
HETATM    1  C1  UNL     1     -42.393   7.314  -3.066  1.00 20.00     0.135 C 
HETATM    2  C2  UNL     1     -41.803   6.465  -0.894  1.00 20.00     0.092 C 
HETATM    3  C3  UNL     1     -42.454   5.217  -1.507  1.00 20.00     0.073 C 
HETATM    4  C4  UNL     1     -40.533   6.210  -0.095  1.00 20.00     0.033 C 
HETATM    5  C5  UNL     1     -41.488   4.164  -2.041  1.00 20.00     0.024 C 
HETATM    6  N6  UNL     1     -41.571   7.410  -1.969  1.00 20.00    -0.370 N 
HETATM    7  S7  UNL     1     -42.401   8.381  -4.337  1.00 20.00    -0.053 SA
HETATM    8  S8  UNL     1     -43.417   5.900  -2.908  1.00 20.00    -0.094 SA
HETATM    9  H17 UNL     1     -40.792   8.057  -1.947  1.00 20.00     0.161 HD
ENDROOT
TORSDOF 0
ENDMDL
MODEL 7
REMARK VINA RESULT:      -3.3      2.231      2.394
REMARK  0 active torsions:
REMARK  status: ('A' for Active; 'I' for Inactive)
ROOT
HETATM    1  C1  UNL     1     -36.822  14.706  -4.586  1.00 20.00     0.135 C 
HETATM    2  C2  UNL     1     -34.617  13.752  -4.695  1.00 20.00     0.092 C 
HETATM    3  C3  UNL     1     -34.536  14.759  -5.852  1.00 20.00     0.073 C 
HETATM    4  C4  UNL     1     -33.379  13.679  -3.811  1.00 20.00     0.033 C 
HETATM    5  C5  UNL     1     -33.817  16.067  -5.541  1.00 20.00     0.024 C 
HETATM    6  N6  UNL     1     -35.802  14.070  -3.922  1.00 20.00    -0.370 N 
HETATM    7  S7  UNL     1     -38.316  15.027  -3.938  1.00 20.00    -0.053 SA
HETATM    8  S8  UNL     1     -36.297  15.121  -6.207  1.00 20.00    -0.094 SA
HETATM    9  H17 UNL     1     -35.844  13.900  -2.925  1.00 20.00     0.161 HD
ENDROOT
TORSDOF 0
ENDMDL
MODEL 8
REMARK VINA RESULT:      -3.2      2.371      3.149
REMARK  0 active torsions:
REMARK  status: ('A' for Active; 'I' for Inactive)
ROOT
HETATM    1  C1  UNL     1     -34.936  16.125  -2.584  1.00 20.00     0.135 C 
HETATM    2  C2  UNL     1     -35.289  14.427  -4.249  1.00 20.00     0.092 C 
HETATM    3  C3  UNL     1     -35.309  15.683  -5.132  1.00 20.00     0.073 C 
HETATM    4  C4  UNL     1     -34.526  13.241  -4.824  1.00 20.00     0.033 C 
HETATM    5  C5  UNL     1     -34.020  15.979  -5.890  1.00 20.00     0.024 C 
HETATM    6  N6  UNL     1     -34.768  14.813  -2.953  1.00 20.00    -0.370 N 
HETATM    7  S7  UNL     1     -34.552  16.744  -1.092  1.00 20.00    -0.053 SA
HETATM    8  S8  UNL     1     -35.610  17.029  -3.927  1.00 20.00    -0.094 SA
HETATM    9  H17 UNL     1     -34.238  14.166  -2.381  1.00 20.00     0.161 HD
ENDROOT
TORSDOF 0
ENDMDL
MODEL 9
REMARK VINA RESULT:      -3.2      1.623      2.335
REMARK  0 active torsions:
REMARK  status: ('A' for Active; 'I' for Inactive)
ROOT
HETATM    1  C1  UNL     1     -37.152  15.186  -4.003  1.00 20.00     0.135 C 
HETATM    2  C2  UNL     1     -34.789  14.770  -4.174  1.00 20.00     0.092 C 
HETATM    3  C3  UNL     1     -34.776  16.132  -3.465  1.00 20.00     0.073 C 
HETATM    4  C4  UNL     1     -33.786  13.753  -3.646  1.00 20.00     0.033 C 
HETATM    5  C5  UNL     1     -34.545  16.090  -1.958  1.00 20.00     0.024 C 
HETATM    6  N6  UNL     1     -36.144  14.258  -4.111  1.00 20.00    -0.370 N 
HETATM    7  S7  UNL     1     -38.773  14.833  -4.066  1.00 20.00    -0.053 SA
HETATM    8  S8  UNL     1     -36.457  16.782  -3.789  1.00 20.00    -0.094 SA
HETATM    9  H17 UNL     1     -36.334  13.264  -4.071  1.00 20.00     0.161 HD
ENDROOT
TORSDOF 0
ENDMDL
