MODEL 1
REMARK VINA RESULT:      -4.3      0.000      0.000
REMARK  0 active torsions:
REMARK  status: ('A' for Active; 'I' for Inactive)
ROOT
HETATM    1  C1  UNL     1     -34.688  13.665  -4.759  1.00 20.00     0.134 C 
HETATM    2  C2  UNL     1     -34.764  14.500  -6.024  1.00 20.00     0.109 C 
HETATM    3  C3  UNL     1     -32.994  15.124  -3.662  1.00 20.00     0.044 C 
HETATM    4  C4  UNL     1     -35.245  15.927  -5.728  1.00 20.00     0.280 C 
HETATM    5  C5  UNL     1     -33.365  16.479  -4.271  1.00 20.00     0.273 C 
HETATM    6  C6  UNL     1     -35.303  15.577  -3.352  1.00 20.00     0.284 C 
HETATM    7  C7  UNL     1     -34.334  14.419  -3.488  1.00 20.00     0.085 C 
HETATM    8  N8  UNL     1     -34.836  16.485  -4.420  1.00 20.00     0.089 N 
HETATM    9  O9  UNL     1     -34.831  12.445  -4.776  1.00 20.00    -0.297 OA
ENDROOT
TORSDOF 0
ENDMDL
MODEL 2
REMARK VINA RESULT:      -4.2      1.291      1.728
REMARK  0 active torsions:
REMARK  status: ('A' for Active; 'I' for Inactive)
ROOT
HETATM    1  C1  UNL     1     -33.658  13.808  -3.816  1.00 20.00     0.134 C 
HETATM    2  C2  UNL     1     -35.008  13.523  -4.447  1.00 20.00     0.109 C 
HETATM    3  C3  UNL     1     -33.511  16.129  -4.707  1.00 20.00     0.044 C 
HETATM    4  C4  UNL     1     -36.088  14.478  -3.921  1.00 20.00     0.280 C 
HETATM    5  C5  UNL     1     -34.997  16.499  -4.754  1.00 20.00     0.273 C 
HETATM    6  C6  UNL     1     -34.535  15.748  -2.600  1.00 20.00     0.284 C 
HETATM    7  C7  UNL     1     -33.386  15.261  -3.461  1.00 20.00     0.085 C 
HETATM    8  N8  UNL     1     -35.629  15.845  -3.588  1.00 20.00     0.089 N 
HETATM    9  O9  UNL     1     -32.809  12.932  -3.670  1.00 20.00    -0.297 OA
ENDROOT
TORSDOF 0
ENDMDL
MODEL 3
REMARK VINA RESULT:      -4.2      1.171      2.086
REMARK  0 active torsions:
REMARK  status: ('A' for Active; 'I' for Inactive)
ROOT
HETATM    1  C1  UNL     1     -34.586  13.685  -4.055  1.00 20.00     0.134 C 
HETATM    2  C2  UNL     1     -33.149  13.719  -3.571  1.00 20.00     0.109 C 
HETATM    3  C3  UNL     1     -35.330  15.560  -2.594  1.00 20.00     0.044 C 
HETATM    4  C4  UNL     1     -32.484  15.068  -3.875  1.00 20.00     0.280 C 
HETATM    5  C5  UNL     1     -34.035  16.373  -2.512  1.00 20.00     0.273 C 
HETATM    6  C6  UNL     1     -34.497  16.030  -4.767  1.00 20.00     0.284 C 
HETATM    7  C7  UNL     1     -35.330  15.010  -4.016  1.00 20.00     0.085 C 
HETATM    8  N8  UNL     1     -33.376  16.248  -3.830  1.00 20.00     0.089 N 
HETATM    9  O9  UNL     1     -35.136  12.638  -4.388  1.00 20.00    -0.297 OA
ENDROOT
TORSDOF 0
ENDMDL
MODEL 4
REMARK VINA RESULT:      -4.1      1.470      2.436
REMARK  0 active torsions:
REMARK  status: ('A' for Active; 'I' for Inactive)
ROOT
HETATM    1  C1  UNL     1     -35.983  14.524  -3.840  1.00 20.00     0.134 C 
HETATM    2  C2  UNL     1     -35.716  15.746  -2.981  1.00 20.00     0.109 C 
HETATM    3  C3  UNL     1     -34.387  15.191  -5.632  1.00 20.00     0.044 C 
HETATM    4  C4  UNL     1     -34.248  15.812  -2.537  1.00 20.00     0.280 C 
HETATM    5  C5  UNL     1     -33.355  15.963  -4.805  1.00 20.00     0.273 C 
HETATM    6  C6  UNL     1     -33.618  13.875  -3.811  1.00 20.00     0.284 C 
HETATM    7  C7  UNL     1     -34.826  14.060  -4.709  1.00 20.00     0.085 C 
HETATM    8  N8  UNL     1     -33.261  15.275  -3.499  1.00 20.00     0.089 N 
HETATM    9  O9  UNL     1     -37.088  13.989  -3.885  1.00 20.00    -0.297 OA
ENDROOT
TORSDOF 0
ENDMDL
MODEL 5
REMARK VINA RESULT:      -4.1      1.430      2.015
REMARK  0 active torsions:
REMARK  status: ('A' for Active; 'I' for Inactive)
ROOT
HETATM    1  C1  UNL     1     -34.158  14.487  -3.422  1.00 20.00     0.134 C 
HETATM    2  C2  UNL     1     -32.935  15.198  -3.971  1.00 20.00     0.109 C 
HETATM    3  C3  UNL     1     -34.631  16.217  -1.694  1.00 20.00     0.044 C 
HETATM    4  C4  UNL     1     -33.292  16.581  -4.533  1.00 20.00     0.280 C 
HETATM    5  C5  UNL     1     -34.097  17.465  -2.403  1.00 20.00     0.273 C 
HETATM    6  C6  UNL     1     -35.592  16.429  -3.855  1.00 20.00     0.284 C 
HETATM    7  C7  UNL     1     -35.229  15.382  -2.820  1.00 20.00     0.085 C 
HETATM    8  N8  UNL     1     -34.392  17.290  -3.842  1.00 20.00     0.089 N 
HETATM    9  O9  UNL     1     -34.243  13.261  -3.399  1.00 20.00    -0.297 OA
ENDROOT
TORSDOF 0
ENDMDL
MODEL 6
REMARK VINA RESULT:      -4.0      2.040      2.751
REMARK  0 active torsions:
REMARK  status: ('A' for Active; 'I' for Inactive)
ROOT
HETATM    1  C1  UNL     1     -33.708  15.810  -4.814  1.00 20.00     0.134 C 
HETATM    2  C2  UNL     1     -34.476  15.326  -6.029  1.00 20.00     0.109 C 
HETATM    3  C3  UNL     1     -35.622  15.529  -3.245  1.00 20.00     0.044 C 
HETATM    4  C4  UNL     1     -34.952  13.877  -5.854  1.00 20.00     0.280 C 
HETATM    5  C5  UNL     1     -36.346  14.353  -3.906  1.00 20.00     0.273 C 
HETATM    6  C6  UNL     1     -34.128  13.719  -3.603  1.00 20.00     0.284 C 
HETATM    7  C7  UNL     1     -34.146  15.230  -3.479  1.00 20.00     0.085 C 
HETATM    8  N8  UNL     1     -35.298  13.477  -4.472  1.00 20.00     0.089 N 
HETATM    9  O9  UNL     1     -32.836  16.672  -4.896  1.00 20.00    -0.297 OA
ENDROOT
TORSDOF 0
ENDMDL
MODEL 7
REMARK VINA RESULT:      -4.0      0.974      2.320
REMARK  0 active torsions:
REMARK  status: ('A' for Active; 'I' for Inactive)
ROOT
HETATM    1  C1  UNL     1     -34.600  13.738  -4.782  1.00 20.00     0.134 C 
HETATM    2  C2  UNL     1     -33.807  14.465  -3.713  1.00 20.00     0.109 C 
HETATM    3  C3  UNL     1     -36.176  15.626  -5.176  1.00 20.00     0.044 C 
HETATM    4  C4  UNL     1     -33.152  15.738  -4.266  1.00 20.00     0.280 C 
HETATM    5  C5  UNL     1     -35.264  16.814  -4.857  1.00 20.00     0.273 C 
HETATM    6  C6  UNL     1     -34.165  15.500  -6.431  1.00 20.00     0.284 C 
HETATM    7  C7  UNL     1     -35.247  14.617  -5.840  1.00 20.00     0.085 C 
HETATM    8  N8  UNL     1     -33.910  16.443  -5.323  1.00 20.00     0.089 N 
HETATM    9  O9  UNL     1     -34.771  12.521  -4.752  1.00 20.00    -0.297 OA
ENDROOT
TORSDOF 0
ENDMDL
MODEL 8
REMARK VINA RESULT:      -4.0      1.926      2.713
REMARK  0 active torsions:
REMARK  status: ('A' for Active; 'I' for Inactive)
ROOT
HETATM    1  C1  UNL     1     -34.644  15.704  -2.558  1.00 20.00     0.134 C 
HETATM    2  C2  UNL     1     -36.006  15.484  -3.189  1.00 20.00     0.109 C 
HETATM    3  C3  UNL     1     -33.565  13.800  -3.747  1.00 20.00     0.044 C 
HETATM    4  C4  UNL     1     -35.949  15.633  -4.715  1.00 20.00     0.280 C 
HETATM    5  C5  UNL     1     -34.379  13.792  -5.044  1.00 20.00     0.273 C 
HETATM    6  C6  UNL     1     -33.569  15.953  -4.747  1.00 20.00     0.284 C 
HETATM    7  C7  UNL     1     -33.449  15.279  -3.395  1.00 20.00     0.085 C 
HETATM    8  N8  UNL     1     -34.687  15.204  -5.357  1.00 20.00     0.089 N 
HETATM    9  O9  UNL     1     -34.519  16.131  -1.412  1.00 20.00    -0.297 OA
ENDROOT
TORSDOF 0
ENDMDL
MODEL 9
REMARK VINA RESULT:      -3.8      1.606      2.747
REMARK  0 active torsions:
REMARK  status: ('A' for Active; 'I' for Inactive)
ROOT
HETATM    1  C1  UNL     1     -33.381  14.919  -3.700  1.00 20.00     0.134 C 
HETATM    2  C2  UNL     1     -34.177  15.741  -2.704  1.00 20.00     0.109 C 
HETATM    3  C3  UNL     1     -35.282  13.419  -4.281  1.00 20.00     0.044 C 
HETATM    4  C4  UNL     1     -35.364  16.445  -3.376  1.00 20.00     0.280 C 
HETATM    5  C5  UNL     1     -36.459  14.377  -4.075  1.00 20.00     0.273 C 
HETATM    6  C6  UNL     1     -34.956  15.423  -5.511  1.00 20.00     0.284 C 
HETATM    7  C7  UNL     1     -34.178  14.307  -4.841  1.00 20.00     0.085 C 
HETATM    8  N8  UNL     1     -35.992  15.714  -4.499  1.00 20.00     0.089 N 
HETATM    9  O9  UNL     1     -32.180  14.701  -3.553  1.00 20.00    -0.297 OA
ENDROOT
TORSDOF 0
ENDMDL
