MODEL 1
REMARK VINA RESULT:      -4.3      0.000      0.000
REMARK  2 active torsions:
REMARK  status: ('A' for Active; 'I' for Inactive)
REMARK    1  A    between atoms: C1_1  and  C3_3 
REMARK    2  A    between atoms: C1_1  and  C8_8 
ROOT
HETATM    1  C1  UNL     1     -34.015   6.070   3.785  1.00 20.00     0.134 C 
HETATM    2  O9  UNL     1     -34.663   5.446   2.946  1.00 20.00    -0.297 OA
ENDROOT
BRANCH   1   3
HETATM    3  C3  UNL     1     -34.623   6.433   5.117  1.00 20.00     0.060 A 
HETATM    4  C2  UNL     1     -33.746   6.400   6.318  1.00 20.00     0.017 A 
HETATM    5  C4  UNL     1     -34.830   5.375   6.144  1.00 20.00    -0.007 A 
HETATM    6  C5  UNL     1     -34.475   3.942   5.934  1.00 20.00     0.011 C 
ENDBRANCH   1   3
BRANCH   1   7
HETATM    7  C8  UNL     1     -32.564   6.483   3.555  1.00 20.00     0.048 C 
HETATM    8  C6  UNL     1     -31.773   5.310   2.988  1.00 20.00     0.017 C 
HETATM    9  C7  UNL     1     -32.481   7.693   2.627  1.00 20.00     0.017 C 
ENDBRANCH   1   7
TORSDOF 2
ENDMDL
MODEL 2
REMARK VINA RESULT:      -4.2     11.660     12.681
REMARK  2 active torsions:
REMARK  status: ('A' for Active; 'I' for Inactive)
REMARK    1  A    between atoms: C1_1  and  C3_3 
REMARK    2  A    between atoms: C1_1  and  C8_8 
ROOT
HETATM    1  C1  UNL     1     -35.238  15.349  -3.068  1.00 20.00     0.134 C 
HETATM    2  O9  UNL     1     -36.379  15.774  -3.250  1.00 20.00    -0.297 OA
ENDROOT
BRANCH   1   3
HETATM    3  C3  UNL     1     -34.835  13.984  -3.566  1.00 20.00     0.060 A 
HETATM    4  C2  UNL     1     -33.400  13.750  -3.879  1.00 20.00     0.017 A 
HETATM    5  C4  UNL     1     -34.415  13.813  -4.984  1.00 20.00    -0.007 A 
HETATM    6  C5  UNL     1     -34.375  14.929  -5.972  1.00 20.00     0.011 C 
ENDBRANCH   1   3
BRANCH   1   7
HETATM    7  C8  UNL     1     -34.161  16.173  -2.367  1.00 20.00     0.048 C 
HETATM    8  C6  UNL     1     -33.830  17.408  -3.196  1.00 20.00     0.017 C 
HETATM    9  C7  UNL     1     -34.604  16.567  -0.960  1.00 20.00     0.017 C 
ENDBRANCH   1   7
TORSDOF 2
ENDMDL
MODEL 3
REMARK VINA RESULT:      -4.1     11.861     12.901
REMARK  2 active torsions:
REMARK  status: ('A' for Active; 'I' for Inactive)
REMARK    1  A    between atoms: C1_1  and  C3_3 
REMARK    2  A    between atoms: C1_1  and  C8_8 
ROOT
HETATM    1  C1  UNL     1     -33.469  15.150  -3.357  1.00 20.00     0.134 C 
HETATM    2  O9  UNL     1     -32.363  14.686  -3.634  1.00 20.00    -0.297 OA
ENDROOT
BRANCH   1   3
HETATM    3  C3  UNL     1     -34.731  14.446  -3.788  1.00 20.00     0.060 A 
HETATM    4  C2  UNL     1     -34.597  13.226  -4.630  1.00 20.00     0.017 A 
HETATM    5  C4  UNL     1     -35.150  14.495  -5.216  1.00 20.00    -0.007 A 
HETATM    6  C5  UNL     1     -34.389  15.221  -6.273  1.00 20.00     0.011 C 
ENDBRANCH   1   3
BRANCH   1   7
HETATM    7  C8  UNL     1     -33.638  16.431  -2.544  1.00 20.00     0.048 C 
HETATM    8  C6  UNL     1     -33.908  17.606  -3.476  1.00 20.00     0.017 C 
HETATM    9  C7  UNL     1     -34.759  16.283  -1.518  1.00 20.00     0.017 C 
ENDBRANCH   1   7
TORSDOF 2
ENDMDL
MODEL 4
REMARK VINA RESULT:      -4.1      1.414      1.762
REMARK  2 active torsions:
REMARK  status: ('A' for Active; 'I' for Inactive)
REMARK    1  A    between atoms: C1_1  and  C3_3 
REMARK    2  A    between atoms: C1_1  and  C8_8 
ROOT
HETATM    1  C1  UNL     1     -33.471   6.306   4.164  1.00 20.00     0.134 C 
HETATM    2  O9  UNL     1     -33.675   6.915   5.214  1.00 20.00    -0.297 OA
ENDROOT
BRANCH   1   3
HETATM    3  C3  UNL     1     -34.501   5.352   3.613  1.00 20.00     0.060 A 
HETATM    4  C2  UNL     1     -35.927   5.582   3.969  1.00 20.00     0.017 A 
HETATM    5  C4  UNL     1     -35.187   4.400   4.528  1.00 20.00    -0.007 A 
HETATM    6  C5  UNL     1     -34.910   4.319   5.991  1.00 20.00     0.011 C 
ENDBRANCH   1   3
BRANCH   1   7
HETATM    7  C8  UNL     1     -32.197   6.495   3.345  1.00 20.00     0.048 C 
HETATM    8  C6  UNL     1     -32.046   5.353   2.348  1.00 20.00     0.017 C 
HETATM    9  C7  UNL     1     -32.204   7.843   2.628  1.00 20.00     0.017 C 
ENDBRANCH   1   7
TORSDOF 2
ENDMDL
MODEL 5
REMARK VINA RESULT:      -4.0     11.793     13.239
REMARK  2 active torsions:
REMARK  status: ('A' for Active; 'I' for Inactive)
REMARK    1  A    between atoms: C1_1  and  C3_3 
REMARK    2  A    between atoms: C1_1  and  C8_8 
ROOT
HETATM    1  C1  UNL     1     -34.608  13.790  -4.830  1.00 20.00     0.134 C 
HETATM    2  O9  UNL     1     -35.030  12.763  -4.298  1.00 20.00    -0.297 OA
ENDROOT
BRANCH   1   3
HETATM    3  C3  UNL     1     -34.756  14.007  -6.314  1.00 20.00     0.060 A 
HETATM    4  C2  UNL     1     -34.540  15.381  -6.845  1.00 20.00     0.017 A 
HETATM    5  C4  UNL     1     -35.918  14.782  -6.833  1.00 20.00    -0.007 A 
HETATM    6  C5  UNL     1     -36.976  15.363  -5.959  1.00 20.00     0.011 C 
ENDBRANCH   1   3
BRANCH   1   7
HETATM    7  C8  UNL     1     -33.948  14.911  -4.031  1.00 20.00     0.048 C 
HETATM    8  C6  UNL     1     -34.830  15.297  -2.850  1.00 20.00     0.017 C 
HETATM    9  C7  UNL     1     -32.557  14.499  -3.557  1.00 20.00     0.017 C 
ENDBRANCH   1   7
TORSDOF 2
ENDMDL
MODEL 6
REMARK VINA RESULT:      -4.0     11.731     12.898
REMARK  2 active torsions:
REMARK  status: ('A' for Active; 'I' for Inactive)
REMARK    1  A    between atoms: C1_1  and  C3_3 
REMARK    2  A    between atoms: C1_1  and  C8_8 
ROOT
HETATM    1  C1  UNL     1     -34.621  13.878  -5.020  1.00 20.00     0.134 C 
HETATM    2  O9  UNL     1     -34.799  12.828  -4.403  1.00 20.00    -0.297 OA
ENDROOT
BRANCH   1   3
HETATM    3  C3  UNL     1     -33.521  14.830  -4.623  1.00 20.00     0.060 A 
HETATM    4  C2  UNL     1     -32.693  14.485  -3.436  1.00 20.00     0.017 A 
HETATM    5  C4  UNL     1     -33.658  15.635  -3.378  1.00 20.00    -0.007 A 
HETATM    6  C5  UNL     1     -34.846  15.567  -2.480  1.00 20.00     0.011 C 
ENDBRANCH   1   3
BRANCH   1   7
HETATM    7  C8  UNL     1     -35.466  14.267  -6.230  1.00 20.00     0.048 C 
HETATM    8  C6  UNL     1     -36.607  15.179  -5.795  1.00 20.00     0.017 C 
HETATM    9  C7  UNL     1     -34.612  14.941  -7.300  1.00 20.00     0.017 C 
ENDBRANCH   1   7
TORSDOF 2
ENDMDL
MODEL 7
REMARK VINA RESULT:      -3.9      0.897      3.702
REMARK  2 active torsions:
REMARK  status: ('A' for Active; 'I' for Inactive)
REMARK    1  A    between atoms: C1_1  and  C3_3 
REMARK    2  A    between atoms: C1_1  and  C8_8 
ROOT
HETATM    1  C1  UNL     1     -34.525   5.623   3.902  1.00 20.00     0.134 C 
HETATM    2  O9  UNL     1     -35.659   6.026   3.644  1.00 20.00    -0.297 OA
ENDROOT
BRANCH   1   3
HETATM    3  C3  UNL     1     -33.477   5.525   2.823  1.00 20.00     0.060 A 
HETATM    4  C2  UNL     1     -32.048   5.492   3.237  1.00 20.00     0.017 A 
HETATM    5  C4  UNL     1     -32.605   6.697   2.534  1.00 20.00    -0.007 A 
HETATM    6  C5  UNL     1     -32.709   7.998   3.255  1.00 20.00     0.011 C 
ENDBRANCH   1   3
BRANCH   1   7
HETATM    7  C8  UNL     1     -34.098   5.234   5.315  1.00 20.00     0.048 C 
HETATM    8  C6  UNL     1     -34.147   6.454   6.227  1.00 20.00     0.017 C 
HETATM    9  C7  UNL     1     -34.976   4.112   5.863  1.00 20.00     0.017 C 
ENDBRANCH   1   7
TORSDOF 2
ENDMDL
MODEL 8
REMARK VINA RESULT:      -3.8      1.684      3.855
REMARK  2 active torsions:
REMARK  status: ('A' for Active; 'I' for Inactive)
REMARK    1  A    between atoms: C1_1  and  C3_3 
REMARK    2  A    between atoms: C1_1  and  C8_8 
ROOT
HETATM    1  C1  UNL     1     -33.720   6.282   4.924  1.00 20.00     0.134 C 
HETATM    2  O9  UNL     1     -33.355   7.009   5.847  1.00 20.00    -0.297 OA
ENDROOT
BRANCH   1   3
HETATM    3  C3  UNL     1     -33.442   6.658   3.490  1.00 20.00     0.060 A 
HETATM    4  C2  UNL     1     -32.369   5.921   2.769  1.00 20.00     0.017 A 
HETATM    5  C4  UNL     1     -32.176   7.362   3.146  1.00 20.00    -0.007 A 
HETATM    6  C5  UNL     1     -31.142   7.737   4.153  1.00 20.00     0.011 C 
ENDBRANCH   1   3
BRANCH   1   7
HETATM    7  C8  UNL     1     -34.436   4.955   5.162  1.00 20.00     0.048 C 
HETATM    8  C6  UNL     1     -34.917   4.876   6.605  1.00 20.00     0.017 C 
HETATM    9  C7  UNL     1     -35.601   4.781   4.191  1.00 20.00     0.017 C 
ENDBRANCH   1   7
TORSDOF 2
ENDMDL
MODEL 9
REMARK VINA RESULT:      -3.8     11.763     12.813
REMARK  2 active torsions:
REMARK  status: ('A' for Active; 'I' for Inactive)
REMARK    1  A    between atoms: C1_1  and  C3_3 
REMARK    2  A    between atoms: C1_1  and  C8_8 
ROOT
HETATM    1  C1  UNL     1     -33.785  16.132  -3.235  1.00 20.00     0.134 C 
HETATM    2  O9  UNL     1     -33.400  16.639  -4.289  1.00 20.00    -0.297 OA
ENDROOT
BRANCH   1   3
HETATM    3  C3  UNL     1     -33.719  16.901  -1.940  1.00 20.00     0.060 A 
HETATM    4  C2  UNL     1     -34.670  16.528  -0.857  1.00 20.00     0.017 A 
HETATM    5  C4  UNL     1     -34.822  17.835  -1.582  1.00 20.00    -0.007 A 
HETATM    6  C5  UNL     1     -36.013  18.073  -2.447  1.00 20.00     0.011 C 
ENDBRANCH   1   3
BRANCH   1   7
HETATM    7  C8  UNL     1     -34.376  14.726  -3.173  1.00 20.00     0.048 C 
HETATM    8  C6  UNL     1     -35.714  14.692  -3.903  1.00 20.00     0.017 C 
HETATM    9  C7  UNL     1     -33.411  13.700  -3.762  1.00 20.00     0.017 C 
ENDBRANCH   1   7
TORSDOF 2
ENDMDL
