MODEL 1
REMARK VINA RESULT:      -4.3      0.000      0.000
REMARK  0 active torsions:
REMARK  status: ('A' for Active; 'I' for Inactive)
ROOT
HETATM    1  C1  UNL     1     -32.546   6.619   2.632  1.00 20.00     0.047 A 
HETATM    2  C2  UNL     1     -31.767   7.495   3.416  1.00 20.00     0.141 A 
HETATM    3  C3  UNL     1     -33.437   6.058   3.518  1.00 20.00     0.032 A 
HETATM    4  C4  UNL     1     -34.517   5.047   3.360  1.00 20.00     0.059 C 
HETATM    5  C5  UNL     1     -35.496   5.076   4.537  1.00 20.00     0.008 C 
HETATM    6  C6  UNL     1     -34.748   5.120   5.872  1.00 20.00     0.022 C 
HETATM    7  C7  UNL     1     -33.865   6.365   5.963  1.00 20.00     0.151 C 
HETATM    8  N8  UNL     1     -32.128   7.498   4.703  1.00 20.00    -0.185 NA
HETATM    9  N9  UNL     1     -33.138   6.611   4.735  1.00 20.00    -0.274 N 
ENDROOT
TORSDOF 0
ENDMDL
MODEL 2
REMARK VINA RESULT:      -4.3      9.924     11.073
REMARK  0 active torsions:
REMARK  status: ('A' for Active; 'I' for Inactive)
ROOT
HETATM    1  C1  UNL     1     -42.122   3.256  -2.614  1.00 20.00     0.047 A 
HETATM    2  C2  UNL     1     -43.151   3.694  -3.472  1.00 20.00     0.141 A 
HETATM    3  C3  UNL     1     -41.701   4.396  -1.968  1.00 20.00     0.032 A 
HETATM    4  C4  UNL     1     -40.642   4.649  -0.954  1.00 20.00     0.059 C 
HETATM    5  C5  UNL     1     -40.850   5.987  -0.239  1.00 20.00     0.008 C 
HETATM    6  C6  UNL     1     -41.161   7.102  -1.242  1.00 20.00     0.022 C 
HETATM    7  C7  UNL     1     -42.431   6.788  -2.032  1.00 20.00     0.151 C 
HETATM    8  N8  UNL     1     -43.375   5.008  -3.386  1.00 20.00    -0.185 NA
HETATM    9  N9  UNL     1     -42.475   5.407  -2.471  1.00 20.00    -0.274 N 
ENDROOT
TORSDOF 0
ENDMDL
MODEL 3
REMARK VINA RESULT:      -4.2      1.151      2.065
REMARK  0 active torsions:
REMARK  status: ('A' for Active; 'I' for Inactive)
ROOT
HETATM    1  C1  UNL     1     -32.293   7.442   4.290  1.00 20.00     0.047 A 
HETATM    2  C2  UNL     1     -32.188   7.077   2.933  1.00 20.00     0.141 A 
HETATM    3  C3  UNL     1     -33.255   6.601   4.803  1.00 20.00     0.032 A 
HETATM    4  C4  UNL     1     -33.859   6.464   6.155  1.00 20.00     0.059 C 
HETATM    5  C5  UNL     1     -34.564   5.116   6.326  1.00 20.00     0.008 C 
HETATM    6  C6  UNL     1     -35.446   4.801   5.115  1.00 20.00     0.022 C 
HETATM    7  C7  UNL     1     -34.612   4.737   3.834  1.00 20.00     0.151 C 
HETATM    8  N8  UNL     1     -33.015   6.082   2.598  1.00 20.00    -0.185 NA
HETATM    9  N9  UNL     1     -33.654   5.820   3.751  1.00 20.00    -0.274 N 
ENDROOT
TORSDOF 0
ENDMDL
MODEL 4
REMARK VINA RESULT:      -4.1      1.137      3.086
REMARK  0 active torsions:
REMARK  status: ('A' for Active; 'I' for Inactive)
ROOT
HETATM    1  C1  UNL     1     -35.218   4.696   5.077  1.00 20.00     0.047 A 
HETATM    2  C2  UNL     1     -34.993   5.263   6.348  1.00 20.00     0.141 A 
HETATM    3  C3  UNL     1     -34.347   5.358   4.243  1.00 20.00     0.032 A 
HETATM    4  C4  UNL     1     -34.082   5.266   2.781  1.00 20.00     0.059 C 
HETATM    5  C5  UNL     1     -32.736   5.895   2.409  1.00 20.00     0.008 C 
HETATM    6  C6  UNL     1     -32.564   7.259   3.083  1.00 20.00     0.022 C 
HETATM    7  C7  UNL     1     -32.617   7.128   4.605  1.00 20.00     0.151 C 
HETATM    8  N8  UNL     1     -34.053   6.212   6.334  1.00 20.00    -0.185 NA
HETATM    9  N9  UNL     1     -33.686   6.253   5.041  1.00 20.00    -0.274 N 
ENDROOT
TORSDOF 0
ENDMDL
MODEL 5
REMARK VINA RESULT:      -4.1     11.295     12.318
REMARK  0 active torsions:
REMARK  status: ('A' for Active; 'I' for Inactive)
ROOT
HETATM    1  C1  UNL     1     -36.726  16.155  -3.049  1.00 20.00     0.047 A 
HETATM    2  C2  UNL     1     -37.679  15.242  -3.544  1.00 20.00     0.141 A 
HETATM    3  C3  UNL     1     -35.513  15.539  -3.260  1.00 20.00     0.032 A 
HETATM    4  C4  UNL     1     -34.112  15.937  -2.957  1.00 20.00     0.059 C 
HETATM    5  C5  UNL     1     -33.103  15.117  -3.766  1.00 20.00     0.008 C 
HETATM    6  C6  UNL     1     -33.448  13.626  -3.723  1.00 20.00     0.022 C 
HETATM    7  C7  UNL     1     -34.837  13.369  -4.305  1.00 20.00     0.151 C 
HETATM    8  N8  UNL     1     -37.126  14.129  -4.035  1.00 20.00    -0.185 NA
HETATM    9  N9  UNL     1     -35.812  14.335  -3.841  1.00 20.00    -0.274 N 
ENDROOT
TORSDOF 0
ENDMDL
MODEL 6
REMARK VINA RESULT:      -4.1     12.092     13.216
REMARK  0 active torsions:
REMARK  status: ('A' for Active; 'I' for Inactive)
ROOT
HETATM    1  C1  UNL     1     -34.592  16.487  -6.616  1.00 20.00     0.047 A 
HETATM    2  C2  UNL     1     -33.806  17.529  -6.083  1.00 20.00     0.141 A 
HETATM    3  C3  UNL     1     -34.406  15.434  -5.749  1.00 20.00     0.032 A 
HETATM    4  C4  UNL     1     -34.922  14.039  -5.730  1.00 20.00     0.059 C 
HETATM    5  C5  UNL     1     -34.776  13.400  -4.346  1.00 20.00     0.008 C 
HETATM    6  C6  UNL     1     -33.381  13.654  -3.770  1.00 20.00     0.022 C 
HETATM    7  C7  UNL     1     -33.113  15.152  -3.627  1.00 20.00     0.151 C 
HETATM    8  N8  UNL     1     -33.167  17.177  -4.963  1.00 20.00    -0.185 NA
HETATM    9  N9  UNL     1     -33.545  15.899  -4.791  1.00 20.00    -0.274 N 
ENDROOT
TORSDOF 0
ENDMDL
MODEL 7
REMARK VINA RESULT:      -4.1     12.194     13.375
REMARK  0 active torsions:
REMARK  status: ('A' for Active; 'I' for Inactive)
ROOT
HETATM    1  C1  UNL     1     -35.353  14.385  -7.142  1.00 20.00     0.047 A 
HETATM    2  C2  UNL     1     -35.045  15.653  -7.674  1.00 20.00     0.141 A 
HETATM    3  C3  UNL     1     -34.723  14.358  -5.919  1.00 20.00     0.032 A 
HETATM    4  C4  UNL     1     -34.622  13.321  -4.857  1.00 20.00     0.059 C 
HETATM    5  C5  UNL     1     -34.179  13.920  -3.520  1.00 20.00     0.008 C 
HETATM    6  C6  UNL     1     -32.991  14.867  -3.710  1.00 20.00     0.022 C 
HETATM    7  C7  UNL     1     -33.355  16.021  -4.645  1.00 20.00     0.151 C 
HETATM    8  N8  UNL     1     -34.280  16.385  -6.859  1.00 20.00    -0.185 NA
HETATM    9  N9  UNL     1     -34.095  15.570  -5.807  1.00 20.00    -0.274 N 
ENDROOT
TORSDOF 0
ENDMDL
MODEL 8
REMARK VINA RESULT:      -4.1     12.203     13.430
REMARK  0 active torsions:
REMARK  status: ('A' for Active; 'I' for Inactive)
ROOT
HETATM    1  C1  UNL     1     -34.351  16.239  -7.018  1.00 20.00     0.047 A 
HETATM    2  C2  UNL     1     -35.101  15.307  -7.763  1.00 20.00     0.141 A 
HETATM    3  C3  UNL     1     -34.098  15.606  -5.822  1.00 20.00     0.032 A 
HETATM    4  C4  UNL     1     -33.380  16.027  -4.589  1.00 20.00     0.059 C 
HETATM    5  C5  UNL     1     -33.004  14.827  -3.715  1.00 20.00     0.008 C 
HETATM    6  C6  UNL     1     -34.188  13.869  -3.561  1.00 20.00     0.022 C 
HETATM    7  C7  UNL     1     -34.642  13.337  -4.921  1.00 20.00     0.151 C 
HETATM    8  N8  UNL     1     -35.314  14.166  -7.101  1.00 20.00    -0.185 NA
HETATM    9  N9  UNL     1     -34.700  14.381  -5.925  1.00 20.00    -0.274 N 
ENDROOT
TORSDOF 0
ENDMDL
MODEL 9
REMARK VINA RESULT:      -4.0     11.997     13.407
REMARK  0 active torsions:
REMARK  status: ('A' for Active; 'I' for Inactive)
ROOT
HETATM    1  C1  UNL     1     -33.558  14.611  -3.665  1.00 20.00     0.047 A 
HETATM    2  C2  UNL     1     -34.108  13.314  -3.614  1.00 20.00     0.141 A 
HETATM    3  C3  UNL     1     -33.915  15.092  -4.904  1.00 20.00     0.032 A 
HETATM    4  C4  UNL     1     -33.646  16.376  -5.605  1.00 20.00     0.059 C 
HETATM    5  C5  UNL     1     -34.609  16.596  -6.774  1.00 20.00     0.008 C 
HETATM    6  C6  UNL     1     -34.736  15.330  -7.626  1.00 20.00     0.022 C 
HETATM    7  C7  UNL     1     -35.265  14.162  -6.793  1.00 20.00     0.151 C 
HETATM    8  N8  UNL     1     -34.768  12.987  -4.729  1.00 20.00    -0.185 NA
HETATM    9  N9  UNL     1     -34.626  14.082  -5.495  1.00 20.00    -0.274 N 
ENDROOT
TORSDOF 0
ENDMDL
