MODEL 1
REMARK VINA RESULT:      -4.4      0.000      0.000
REMARK  0 active torsions:
REMARK  status: ('A' for Active; 'I' for Inactive)
ROOT
HETATM    1  C1  UNL     1     -32.945   6.770   3.405  1.00 20.00     0.124 C 
HETATM    2  C2  UNL     1     -33.816   6.184   5.595  1.00 20.00     0.024 C 
HETATM    3  C3  UNL     1     -33.781   6.033   4.274  1.00 20.00     0.145 C 
HETATM    4  C4  UNL     1     -34.845   5.277   6.147  1.00 20.00     0.057 C 
HETATM    5  C5  UNL     1     -35.178   4.430   4.924  1.00 20.00     0.180 C 
HETATM    6  N6  UNL     1     -32.260   7.375   2.692  1.00 20.00    -0.189 NA
HETATM    7  O7  UNL     1     -34.667   5.099   3.754  1.00 20.00    -0.341 OA
ENDROOT
TORSDOF 0
ENDMDL
MODEL 2
REMARK VINA RESULT:      -3.7      2.146      2.524
REMARK  0 active torsions:
REMARK  status: ('A' for Active; 'I' for Inactive)
ROOT
HETATM    1  C1  UNL     1     -33.648   6.972   6.519  1.00 20.00     0.124 C 
HETATM    2  C2  UNL     1     -34.734   4.881   5.929  1.00 20.00     0.024 C 
HETATM    3  C3  UNL     1     -34.218   6.061   5.600  1.00 20.00     0.145 C 
HETATM    4  C4  UNL     1     -35.275   4.244   4.709  1.00 20.00     0.057 C 
HETATM    5  C5  UNL     1     -34.733   5.172   3.628  1.00 20.00     0.180 C 
HETATM    6  N6  UNL     1     -33.181   7.719   7.272  1.00 20.00    -0.189 NA
HETATM    7  O7  UNL     1     -34.296   6.395   4.254  1.00 20.00    -0.341 OA
ENDROOT
TORSDOF 0
ENDMDL
MODEL 3
REMARK VINA RESULT:      -3.6     11.806     12.193
REMARK  0 active torsions:
REMARK  status: ('A' for Active; 'I' for Inactive)
ROOT
HETATM    1  C1  UNL     1     -34.683  13.637  -4.184  1.00 20.00     0.124 C 
HETATM    2  C2  UNL     1     -33.396  15.432  -3.176  1.00 20.00     0.024 C 
HETATM    3  C3  UNL     1     -34.545  14.801  -3.395  1.00 20.00     0.145 C 
HETATM    4  C4  UNL     1     -33.663  16.629  -2.349  1.00 20.00     0.057 C 
HETATM    5  C5  UNL     1     -35.115  16.393  -1.951  1.00 20.00     0.180 C 
HETATM    6  N6  UNL     1     -34.796  12.682  -4.832  1.00 20.00    -0.189 NA
HETATM    7  O7  UNL     1     -35.666  15.382  -2.817  1.00 20.00    -0.341 OA
ENDROOT
TORSDOF 0
ENDMDL
MODEL 4
REMARK VINA RESULT:      -3.5     11.709     12.236
REMARK  0 active torsions:
REMARK  status: ('A' for Active; 'I' for Inactive)
ROOT
HETATM    1  C1  UNL     1     -36.820  14.424  -3.830  1.00 20.00     0.124 C 
HETATM    2  C2  UNL     1     -34.693  15.582  -3.645  1.00 20.00     0.024 C 
HETATM    3  C3  UNL     1     -35.410  14.466  -3.743  1.00 20.00     0.145 C 
HETATM    4  C4  UNL     1     -33.265  15.218  -3.525  1.00 20.00     0.057 C 
HETATM    5  C5  UNL     1     -33.315  13.725  -3.828  1.00 20.00     0.180 C 
HETATM    6  N6  UNL     1     -37.977  14.389  -3.901  1.00 20.00    -0.189 NA
HETATM    7  O7  UNL     1     -34.683  13.283  -3.718  1.00 20.00    -0.341 OA
ENDROOT
TORSDOF 0
ENDMDL
MODEL 5
REMARK VINA RESULT:      -3.5      9.936     10.334
REMARK  0 active torsions:
REMARK  status: ('A' for Active; 'I' for Inactive)
ROOT
HETATM    1  C1  UNL     1     -42.686   6.798  -3.253  1.00 20.00     0.124 C 
HETATM    2  C2  UNL     1     -41.364   6.983  -1.225  1.00 20.00     0.024 C 
HETATM    3  C3  UNL     1     -41.925   6.261  -2.190  1.00 20.00     0.145 C 
HETATM    4  C4  UNL     1     -40.698   6.067  -0.274  1.00 20.00     0.057 C 
HETATM    5  C5  UNL     1     -40.782   4.746  -1.031  1.00 20.00     0.180 C 
HETATM    6  N6  UNL     1     -43.311   7.237  -4.125  1.00 20.00    -0.189 NA
HETATM    7  O7  UNL     1     -41.753   4.887  -2.087  1.00 20.00    -0.341 OA
ENDROOT
TORSDOF 0
ENDMDL
MODEL 6
REMARK VINA RESULT:      -3.5     11.916     12.427
REMARK  0 active torsions:
REMARK  status: ('A' for Active; 'I' for Inactive)
ROOT
HETATM    1  C1  UNL     1     -36.900  14.486  -3.816  1.00 20.00     0.124 C 
HETATM    2  C2  UNL     1     -34.659  13.552  -3.854  1.00 20.00     0.024 C 
HETATM    3  C3  UNL     1     -35.492  14.584  -3.756  1.00 20.00     0.145 C 
HETATM    4  C4  UNL     1     -33.270  14.057  -3.798  1.00 20.00     0.057 C 
HETATM    5  C5  UNL     1     -33.502  15.510  -3.399  1.00 20.00     0.180 C 
HETATM    6  N6  UNL     1     -38.056  14.407  -3.864  1.00 20.00    -0.189 NA
HETATM    7  O7  UNL     1     -34.890  15.829  -3.623  1.00 20.00    -0.341 OA
ENDROOT
TORSDOF 0
ENDMDL
MODEL 7
REMARK VINA RESULT:      -3.3      9.626     10.207
REMARK  0 active torsions:
REMARK  status: ('A' for Active; 'I' for Inactive)
ROOT
HETATM    1  C1  UNL     1     -41.723   3.395  -2.573  1.00 20.00     0.124 C 
HETATM    2  C2  UNL     1     -40.846   4.766  -0.771  1.00 20.00     0.024 C 
HETATM    3  C3  UNL     1     -41.506   4.628  -1.917  1.00 20.00     0.145 C 
HETATM    4  C4  UNL     1     -40.783   6.204  -0.431  1.00 20.00     0.057 C 
HETATM    5  C5  UNL     1     -41.742   6.791  -1.460  1.00 20.00     0.180 C 
HETATM    6  N6  UNL     1     -41.902   2.384  -3.112  1.00 20.00    -0.189 NA
HETATM    7  O7  UNL     1     -41.965   5.807  -2.489  1.00 20.00    -0.341 OA
ENDROOT
TORSDOF 0
ENDMDL
MODEL 8
REMARK VINA RESULT:      -3.3     12.729     14.140
REMARK  0 active torsions:
REMARK  status: ('A' for Active; 'I' for Inactive)
ROOT
HETATM    1  C1  UNL     1     -34.678  13.676  -5.011  1.00 20.00     0.124 C 
HETATM    2  C2  UNL     1     -34.624  15.176  -6.919  1.00 20.00     0.024 C 
HETATM    3  C3  UNL     1     -34.475  14.934  -5.621  1.00 20.00     0.145 C 
HETATM    4  C4  UNL     1     -34.376  16.612  -7.165  1.00 20.00     0.057 C 
HETATM    5  C5  UNL     1     -33.820  17.050  -5.815  1.00 20.00     0.180 C 
HETATM    6  N6  UNL     1     -34.843  12.643  -4.510  1.00 20.00    -0.189 NA
HETATM    7  O7  UNL     1     -34.130  16.032  -4.843  1.00 20.00    -0.341 OA
ENDROOT
TORSDOF 0
ENDMDL
MODEL 9
REMARK VINA RESULT:      -3.3      1.640      2.037
REMARK  0 active torsions:
REMARK  status: ('A' for Active; 'I' for Inactive)
ROOT
HETATM    1  C1  UNL     1     -34.165   5.348   3.021  1.00 20.00     0.124 C 
HETATM    2  C2  UNL     1     -35.015   4.679   5.195  1.00 20.00     0.024 C 
HETATM    3  C3  UNL     1     -34.286   5.479   4.423  1.00 20.00     0.145 C 
HETATM    4  C4  UNL     1     -34.851   5.101   6.603  1.00 20.00     0.057 C 
HETATM    5  C5  UNL     1     -34.110   6.422   6.429  1.00 20.00     0.180 C 
HETATM    6  N6  UNL     1     -34.066   5.241   1.871  1.00 20.00    -0.189 NA
HETATM    7  O7  UNL     1     -33.586   6.478   5.088  1.00 20.00    -0.341 OA
ENDROOT
TORSDOF 0
ENDMDL
