MODEL 1
REMARK VINA RESULT:      -5.1      0.000      0.000
REMARK  1 active torsions:
REMARK  status: ('A' for Active; 'I' for Inactive)
REMARK    1  A    between atoms: C3_3  and  C4_4 
ROOT
HETATM    1  C1  UNL     1     -34.841   4.650   4.836  1.00 20.00     0.065 A 
HETATM    2  C2  UNL     1     -35.185   4.798   6.154  1.00 20.00     0.172 A 
HETATM    3  C3  UNL     1     -33.969   5.724   4.595  1.00 20.00     0.169 A 
HETATM    4  N5  UNL     1     -33.785   6.481   5.681  1.00 20.00    -0.124 NA
HETATM    5  O6  UNL     1     -34.560   5.888   6.669  1.00 20.00    -0.225 OA
ENDROOT
BRANCH   3   6
HETATM    6  C4  UNL     1     -33.286   6.066   3.337  1.00 20.00     0.436 C 
HETATM    7  F7  UNL     1     -33.301   7.405   3.029  1.00 20.00    -0.164 F 
HETATM    8  F8  UNL     1     -31.955   5.726   3.305  1.00 20.00    -0.164 F 
HETATM    9  F9  UNL     1     -33.829   5.449   2.237  1.00 20.00    -0.164 F 
ENDBRANCH   3   6
TORSDOF 1
ENDMDL
MODEL 2
REMARK VINA RESULT:      -5.1      0.024      1.256
REMARK  1 active torsions:
REMARK  status: ('A' for Active; 'I' for Inactive)
REMARK    1  A    between atoms: C3_3  and  C4_4 
ROOT
HETATM    1  C1  UNL     1     -34.863   4.677   4.846  1.00 20.00     0.065 A 
HETATM    2  C2  UNL     1     -35.198   4.833   6.166  1.00 20.00     0.172 A 
HETATM    3  C3  UNL     1     -33.972   5.735   4.600  1.00 20.00     0.169 A 
HETATM    4  N5  UNL     1     -33.769   6.490   5.684  1.00 20.00    -0.124 NA
HETATM    5  O6  UNL     1     -34.551   5.912   6.676  1.00 20.00    -0.225 OA
ENDROOT
BRANCH   3   6
HETATM    6  C4  UNL     1     -33.288   6.063   3.339  1.00 20.00     0.436 C 
HETATM    7  F7  UNL     1     -33.816   5.447   2.231  1.00 20.00    -0.164 F 
HETATM    8  F8  UNL     1     -33.298   7.399   3.020  1.00 20.00    -0.164 F 
HETATM    9  F9  UNL     1     -31.960   5.714   3.334  1.00 20.00    -0.164 F 
ENDBRANCH   3   6
TORSDOF 1
ENDMDL
MODEL 3
REMARK VINA RESULT:      -4.9      1.500      1.675
REMARK  1 active torsions:
REMARK  status: ('A' for Active; 'I' for Inactive)
REMARK    1  A    between atoms: C3_3  and  C4_4 
ROOT
HETATM    1  C1  UNL     1     -33.944   5.855   5.657  1.00 20.00     0.065 A 
HETATM    2  C2  UNL     1     -35.091   5.115   5.789  1.00 20.00     0.172 A 
HETATM    3  C3  UNL     1     -33.760   5.941   4.267  1.00 20.00     0.169 A 
HETATM    4  N5  UNL     1     -34.719   5.305   3.588  1.00 20.00    -0.124 NA
HETATM    5  O6  UNL     1     -35.562   4.782   4.560  1.00 20.00    -0.225 OA
ENDROOT
BRANCH   3   6
HETATM    6  C4  UNL     1     -32.677   6.625   3.542  1.00 20.00     0.436 C 
HETATM    7  F7  UNL     1     -33.105   7.587   2.659  1.00 20.00    -0.164 F 
HETATM    8  F8  UNL     1     -31.781   7.282   4.350  1.00 20.00    -0.164 F 
HETATM    9  F9  UNL     1     -31.906   5.776   2.786  1.00 20.00    -0.164 F 
ENDBRANCH   3   6
TORSDOF 1
ENDMDL
MODEL 4
REMARK VINA RESULT:      -4.9      3.009      3.666
REMARK  1 active torsions:
REMARK  status: ('A' for Active; 'I' for Inactive)
REMARK    1  A    between atoms: C3_3  and  C4_4 
ROOT
HETATM    1  C1  UNL     1     -33.049   6.336   4.273  1.00 20.00     0.065 A 
HETATM    2  C2  UNL     1     -33.160   6.187   2.915  1.00 20.00     0.172 A 
HETATM    3  C3  UNL     1     -34.114   5.574   4.781  1.00 20.00     0.169 A 
HETATM    4  N5  UNL     1     -34.830   4.995   3.813  1.00 20.00    -0.124 NA
HETATM    5  O6  UNL     1     -34.220   5.388   2.629  1.00 20.00    -0.225 OA
ENDROOT
BRANCH   3   6
HETATM    6  C4  UNL     1     -34.483   5.369   6.191  1.00 20.00     0.436 C 
HETATM    7  F7  UNL     1     -35.723   4.809   6.376  1.00 20.00    -0.164 F 
HETATM    8  F8  UNL     1     -33.632   4.544   6.886  1.00 20.00    -0.164 F 
HETATM    9  F9  UNL     1     -34.512   6.532   6.921  1.00 20.00    -0.164 F 
ENDBRANCH   3   6
TORSDOF 1
ENDMDL
MODEL 5
REMARK VINA RESULT:      -4.9      2.476      3.269
REMARK  1 active torsions:
REMARK  status: ('A' for Active; 'I' for Inactive)
REMARK    1  A    between atoms: C3_3  and  C4_4 
ROOT
HETATM    1  C1  UNL     1     -33.437   5.748   2.929  1.00 20.00     0.065 A 
HETATM    2  C2  UNL     1     -32.396   6.633   3.032  1.00 20.00     0.172 A 
HETATM    3  C3  UNL     1     -33.995   5.736   4.218  1.00 20.00     0.169 A 
HETATM    4  N5  UNL     1     -33.351   6.552   5.057  1.00 20.00    -0.124 NA
HETATM    5  O6  UNL     1     -32.336   7.120   4.298  1.00 20.00    -0.225 OA
ENDROOT
BRANCH   3   6
HETATM    6  C4  UNL     1     -35.150   4.957   4.693  1.00 20.00     0.436 C 
HETATM    7  F7  UNL     1     -35.025   3.599   4.527  1.00 20.00    -0.164 F 
HETATM    8  F8  UNL     1     -35.425   5.110   6.030  1.00 20.00    -0.164 F 
HETATM    9  F9  UNL     1     -36.323   5.280   4.058  1.00 20.00    -0.164 F 
ENDBRANCH   3   6
TORSDOF 1
ENDMDL
MODEL 6
REMARK VINA RESULT:      -4.4     11.930     12.348
REMARK  1 active torsions:
REMARK  status: ('A' for Active; 'I' for Inactive)
REMARK    1  A    between atoms: C3_3  and  C4_4 
ROOT
HETATM    1  C1  UNL     1     -35.407  14.837  -4.183  1.00 20.00     0.065 A 
HETATM    2  C2  UNL     1     -36.051  13.655  -4.442  1.00 20.00     0.172 A 
HETATM    3  C3  UNL     1     -34.076  14.450  -3.955  1.00 20.00     0.169 A 
HETATM    4  N5  UNL     1     -33.906  13.129  -4.065  1.00 20.00    -0.124 NA
HETATM    5  O6  UNL     1     -35.164  12.629  -4.375  1.00 20.00    -0.225 OA
ENDROOT
BRANCH   3   6
HETATM    6  C4  UNL     1     -32.930  15.313  -3.630  1.00 20.00     0.436 C 
HETATM    7  F7  UNL     1     -31.757  14.636  -3.400  1.00 20.00    -0.164 F 
HETATM    8  F8  UNL     1     -32.609  16.222  -4.609  1.00 20.00    -0.164 F 
HETATM    9  F9  UNL     1     -33.122  16.071  -2.501  1.00 20.00    -0.164 F 
ENDBRANCH   3   6
TORSDOF 1
ENDMDL
MODEL 7
REMARK VINA RESULT:      -4.4     11.925     12.319
REMARK  1 active torsions:
REMARK  status: ('A' for Active; 'I' for Inactive)
REMARK    1  A    between atoms: C3_3  and  C4_4 
ROOT
HETATM    1  C1  UNL     1     -35.417  14.833  -4.179  1.00 20.00     0.065 A 
HETATM    2  C2  UNL     1     -36.057  13.649  -4.439  1.00 20.00     0.172 A 
HETATM    3  C3  UNL     1     -34.084  14.450  -3.952  1.00 20.00     0.169 A 
HETATM    4  N5  UNL     1     -33.910  13.130  -4.064  1.00 20.00    -0.124 NA
HETATM    5  O6  UNL     1     -35.166  12.626  -4.373  1.00 20.00    -0.225 OA
ENDROOT
BRANCH   3   6
HETATM    6  C4  UNL     1     -32.940  15.317  -3.626  1.00 20.00     0.436 C 
HETATM    7  F7  UNL     1     -32.624  16.230  -4.602  1.00 20.00    -0.164 F 
HETATM    8  F8  UNL     1     -33.110  16.077  -2.494  1.00 20.00    -0.164 F 
HETATM    9  F9  UNL     1     -31.776  14.622  -3.407  1.00 20.00    -0.164 F 
ENDBRANCH   3   6
TORSDOF 1
ENDMDL
MODEL 8
REMARK VINA RESULT:      -4.4      1.996      2.503
REMARK  1 active torsions:
REMARK  status: ('A' for Active; 'I' for Inactive)
REMARK    1  A    between atoms: C3_3  and  C4_4 
ROOT
HETATM    1  C1  UNL     1     -34.444   5.996   6.297  1.00 20.00     0.065 A 
HETATM    2  C2  UNL     1     -33.480   6.896   6.672  1.00 20.00     0.172 A 
HETATM    3  C3  UNL     1     -34.259   5.868   4.910  1.00 20.00     0.169 A 
HETATM    4  N5  UNL     1     -33.257   6.629   4.459  1.00 20.00    -0.124 NA
HETATM    5  O6  UNL     1     -32.766   7.280   5.583  1.00 20.00    -0.225 OA
ENDROOT
BRANCH   3   6
HETATM    6  C4  UNL     1     -35.020   5.025   3.974  1.00 20.00     0.436 C 
HETATM    7  F7  UNL     1     -34.424   4.861   2.747  1.00 20.00    -0.164 F 
HETATM    8  F8  UNL     1     -35.241   3.744   4.416  1.00 20.00    -0.164 F 
HETATM    9  F9  UNL     1     -36.271   5.517   3.692  1.00 20.00    -0.164 F 
ENDBRANCH   3   6
TORSDOF 1
ENDMDL
MODEL 9
REMARK VINA RESULT:      -4.1     10.047     10.516
REMARK  1 active torsions:
REMARK  status: ('A' for Active; 'I' for Inactive)
REMARK    1  A    between atoms: C3_3  and  C4_4 
ROOT
HETATM    1  C1  UNL     1     -41.863   7.003  -2.303  1.00 20.00     0.065 A 
HETATM    2  C2  UNL     1     -42.748   7.039  -3.349  1.00 20.00     0.172 A 
HETATM    3  C3  UNL     1     -41.795   5.640  -1.970  1.00 20.00     0.169 A 
HETATM    4  N5  UNL     1     -42.577   4.887  -2.749  1.00 20.00    -0.124 NA
HETATM    5  O6  UNL     1     -43.181   5.781  -3.624  1.00 20.00    -0.225 OA
ENDROOT
BRANCH   3   6
HETATM    6  C4  UNL     1     -40.992   5.011  -0.909  1.00 20.00     0.436 C 
HETATM    7  F7  UNL     1     -40.160   5.875  -0.239  1.00 20.00    -0.164 F 
HETATM    8  F8  UNL     1     -41.731   4.414   0.083  1.00 20.00    -0.164 F 
HETATM    9  F9  UNL     1     -40.163   4.017  -1.371  1.00 20.00    -0.164 F 
ENDBRANCH   3   6
TORSDOF 1
ENDMDL
