MODEL 1
REMARK VINA RESULT:      -4.1      0.000      0.000
REMARK  5 active torsions:
REMARK  status: ('A' for Active; 'I' for Inactive)
REMARK    1  A    between atoms: C2_2  and  C3_3 
REMARK    2  A    between atoms: C2_2  and  C4_4 
REMARK    3  A    between atoms: C3_3  and  C5_5 
REMARK    4  A    between atoms: C4_4  and  C6_6 
REMARK    5  A    between atoms: C5_5  and  S7_7 
ROOT
HETATM    1  C2  UNL     1     -32.626   6.304   3.059  1.00 20.00     0.002 C 
ENDROOT
BRANCH   1   2
HETATM    2  C3  UNL     1     -33.924   6.438   3.862  1.00 20.00     0.010 C 
BRANCH   2   3
HETATM    3  C5  UNL     1     -34.792   5.181   3.840  1.00 20.00     0.073 C 
BRANCH   3   4
HETATM    4  S7  UNL     1     -34.986   4.426   5.482  1.00 20.00    -0.173 SA
HETATM    5  C1  UNL     1     -34.416   5.821   6.481  1.00 20.00     0.089 C 
ENDBRANCH   3   4
ENDBRANCH   2   3
ENDBRANCH   1   2
BRANCH   1   6
HETATM    6  C4  UNL     1     -31.863   7.631   3.013  1.00 20.00     0.015 C 
BRANCH   6   7
HETATM    7  C6  UNL     1     -31.920   8.249   1.623  1.00 20.00     0.114 C 
HETATM    8 CL8  UNL     1     -32.588   9.895   1.701  1.00 20.00    -0.130 Cl
ENDBRANCH   6   7
ENDBRANCH   1   6
TORSDOF 5
ENDMDL
MODEL 2
REMARK VINA RESULT:      -3.9      3.495      5.053
REMARK  5 active torsions:
REMARK  status: ('A' for Active; 'I' for Inactive)
REMARK    1  A    between atoms: C2_2  and  C3_3 
REMARK    2  A    between atoms: C2_2  and  C4_4 
REMARK    3  A    between atoms: C3_3  and  C5_5 
REMARK    4  A    between atoms: C4_4  and  C6_6 
REMARK    5  A    between atoms: C5_5  and  S7_7 
ROOT
HETATM    1  C2  UNL     1     -33.742   6.377   4.078  1.00 20.00     0.002 C 
ENDROOT
BRANCH   1   2
HETATM    2  C3  UNL     1     -32.574   6.344   3.086  1.00 20.00     0.010 C 
BRANCH   2   3
HETATM    3  C5  UNL     1     -31.833   7.675   2.967  1.00 20.00     0.073 C 
BRANCH   3   4
HETATM    4  S7  UNL     1     -31.893   8.372   1.289  1.00 20.00    -0.173 SA
HETATM    5  C1  UNL     1     -32.629   9.972   1.697  1.00 20.00     0.089 C 
ENDBRANCH   3   4
ENDBRANCH   2   3
ENDBRANCH   1   2
BRANCH   1   6
HETATM    6  C4  UNL     1     -34.822   5.362   3.693  1.00 20.00     0.015 C 
BRANCH   6   7
HETATM    7  C6  UNL     1     -35.236   4.522   4.894  1.00 20.00     0.114 C 
HETATM    8 CL8  UNL     1     -34.649   5.261   6.402  1.00 20.00    -0.130 Cl
ENDBRANCH   6   7
ENDBRANCH   1   6
TORSDOF 5
ENDMDL
MODEL 3
REMARK VINA RESULT:      -3.9      2.835      4.585
REMARK  5 active torsions:
REMARK  status: ('A' for Active; 'I' for Inactive)
REMARK    1  A    between atoms: C2_2  and  C3_3 
REMARK    2  A    between atoms: C2_2  and  C4_4 
REMARK    3  A    between atoms: C3_3  and  C5_5 
REMARK    4  A    between atoms: C4_4  and  C6_6 
REMARK    5  A    between atoms: C5_5  and  S7_7 
ROOT
HETATM    1  C2  UNL     1     -34.709   5.999   3.921  1.00 20.00     0.002 C 
ENDROOT
BRANCH   1   2
HETATM    2  C3  UNL     1     -33.738   5.627   2.796  1.00 20.00     0.010 C 
BRANCH   2   3
HETATM    3  C5  UNL     1     -32.269   5.841   3.157  1.00 20.00     0.073 C 
BRANCH   3   4
HETATM    4  S7  UNL     1     -31.874   7.578   3.522  1.00 20.00    -0.173 SA
HETATM    5  C1  UNL     1     -32.081   8.248   1.856  1.00 20.00     0.089 C 
ENDBRANCH   3   4
ENDBRANCH   2   3
ENDBRANCH   1   2
BRANCH   1   6
HETATM    6  C4  UNL     1     -35.099   4.768   4.745  1.00 20.00     0.015 C 
BRANCH   6   7
HETATM    7  C6  UNL     1     -34.789   4.976   6.221  1.00 20.00     0.114 C 
HETATM    8 CL8  UNL     1     -34.001   6.551   6.474  1.00 20.00    -0.130 Cl
ENDBRANCH   6   7
ENDBRANCH   1   6
TORSDOF 5
ENDMDL
MODEL 4
REMARK VINA RESULT:      -3.3     10.931     11.712
REMARK  5 active torsions:
REMARK  status: ('A' for Active; 'I' for Inactive)
REMARK    1  A    between atoms: C2_2  and  C3_3 
REMARK    2  A    between atoms: C2_2  and  C4_4 
REMARK    3  A    between atoms: C3_3  and  C5_5 
REMARK    4  A    between atoms: C4_4  and  C6_6 
REMARK    5  A    between atoms: C5_5  and  S7_7 
ROOT
HETATM    1  C2  UNL     1     -33.407  15.201  -3.580  1.00 20.00     0.002 C 
ENDROOT
BRANCH   1   2
HETATM    2  C3  UNL     1     -33.533  13.693  -3.817  1.00 20.00     0.010 C 
BRANCH   2   3
HETATM    3  C5  UNL     1     -34.715  13.307  -4.706  1.00 20.00     0.073 C 
BRANCH   3   4
HETATM    4  S7  UNL     1     -34.919  14.414  -6.133  1.00 20.00    -0.173 SA
HETATM    5  C1  UNL     1     -36.533  15.104  -5.701  1.00 20.00     0.089 C 
ENDBRANCH   3   4
ENDBRANCH   2   3
ENDBRANCH   1   2
BRANCH   1   6
HETATM    6  C4  UNL     1     -34.453  15.693  -2.576  1.00 20.00     0.015 C 
BRANCH   6   7
HETATM    7  C6  UNL     1     -33.900  16.824  -1.719  1.00 20.00     0.114 C 
HETATM    8 CL8  UNL     1     -34.765  16.906  -0.167  1.00 20.00    -0.130 Cl
ENDBRANCH   6   7
ENDBRANCH   1   6
TORSDOF 5
ENDMDL
MODEL 5
REMARK VINA RESULT:      -3.2     11.125     11.692
REMARK  5 active torsions:
REMARK  status: ('A' for Active; 'I' for Inactive)
REMARK    1  A    between atoms: C2_2  and  C3_3 
REMARK    2  A    between atoms: C2_2  and  C4_4 
REMARK    3  A    between atoms: C3_3  and  C5_5 
REMARK    4  A    between atoms: C4_4  and  C6_6 
REMARK    5  A    between atoms: C5_5  and  S7_7 
ROOT
HETATM    1  C2  UNL     1     -34.752  16.562  -0.789  1.00 20.00     0.002 C 
ENDROOT
BRANCH   1   2
HETATM    2  C3  UNL     1     -34.027  16.390  -2.128  1.00 20.00     0.010 C 
BRANCH   2   3
HETATM    3  C5  UNL     1     -34.706  15.396  -3.070  1.00 20.00     0.073 C 
BRANCH   3   4
HETATM    4  S7  UNL     1     -33.553  14.173  -3.760  1.00 20.00    -0.173 SA
HETATM    5  C1  UNL     1     -34.722  13.270  -4.803  1.00 20.00     0.089 C 
ENDBRANCH   3   4
ENDBRANCH   2   3
ENDBRANCH   1   2
BRANCH   1   6
HETATM    6  C4  UNL     1     -34.197  17.758  -0.009  1.00 20.00     0.015 C 
BRANCH   6   7
HETATM    7  C6  UNL     1     -33.153  18.507  -0.826  1.00 20.00     0.114 C 
HETATM    8 CL8  UNL     1     -31.822  19.055   0.220  1.00 20.00    -0.130 Cl
ENDBRANCH   6   7
ENDBRANCH   1   6
TORSDOF 5
ENDMDL
MODEL 6
REMARK VINA RESULT:      -3.2     10.985     11.695
REMARK  5 active torsions:
REMARK  status: ('A' for Active; 'I' for Inactive)
REMARK    1  A    between atoms: C2_2  and  C3_3 
REMARK    2  A    between atoms: C2_2  and  C4_4 
REMARK    3  A    between atoms: C3_3  and  C5_5 
REMARK    4  A    between atoms: C4_4  and  C6_6 
REMARK    5  A    between atoms: C5_5  and  S7_7 
ROOT
HETATM    1  C2  UNL     1     -34.784  15.841  -2.192  1.00 20.00     0.002 C 
ENDROOT
BRANCH   1   2
HETATM    2  C3  UNL     1     -33.598  15.775  -3.159  1.00 20.00     0.010 C 
BRANCH   2   3
HETATM    3  C5  UNL     1     -33.329  14.374  -3.707  1.00 20.00     0.073 C 
BRANCH   3   4
HETATM    4  S7  UNL     1     -34.839  13.529  -4.265  1.00 20.00    -0.173 SA
HETATM    5  C1  UNL     1     -34.927  14.224  -5.931  1.00 20.00     0.089 C 
ENDBRANCH   3   4
ENDBRANCH   2   3
ENDBRANCH   1   2
BRANCH   1   6
HETATM    6  C4  UNL     1     -34.463  16.721  -0.981  1.00 20.00     0.015 C 
BRANCH   6   7
HETATM    7  C6  UNL     1     -33.639  17.935  -1.389  1.00 20.00     0.114 C 
HETATM    8 CL8  UNL     1     -32.620  18.479  -0.036  1.00 20.00    -0.130 Cl
ENDBRANCH   6   7
ENDBRANCH   1   6
TORSDOF 5
ENDMDL
MODEL 7
REMARK VINA RESULT:      -3.2     11.151     12.366
REMARK  5 active torsions:
REMARK  status: ('A' for Active; 'I' for Inactive)
REMARK    1  A    between atoms: C2_2  and  C3_3 
REMARK    2  A    between atoms: C2_2  and  C4_4 
REMARK    3  A    between atoms: C3_3  and  C5_5 
REMARK    4  A    between atoms: C4_4  and  C6_6 
REMARK    5  A    between atoms: C5_5  and  S7_7 
ROOT
HETATM    1  C2  UNL     1     -34.204  13.939  -3.557  1.00 20.00     0.002 C 
ENDROOT
BRANCH   1   2
HETATM    2  C3  UNL     1     -34.549  13.403  -4.950  1.00 20.00     0.010 C 
BRANCH   2   3
HETATM    3  C5  UNL     1     -35.418  14.352  -5.774  1.00 20.00     0.073 C 
BRANCH   3   4
HETATM    4  S7  UNL     1     -34.560  15.010  -7.236  1.00 20.00    -0.173 SA
HETATM    5  C1  UNL     1     -34.541  16.755  -6.764  1.00 20.00     0.089 C 
ENDBRANCH   3   4
ENDBRANCH   2   3
ENDBRANCH   1   2
BRANCH   1   6
HETATM    6  C4  UNL     1     -33.156  15.052  -3.635  1.00 20.00     0.015 C 
BRANCH   6   7
HETATM    7  C6  UNL     1     -33.718  16.371  -3.123  1.00 20.00     0.114 C 
HETATM    8 CL8  UNL     1     -34.572  16.126  -1.582  1.00 20.00    -0.130 Cl
ENDBRANCH   6   7
ENDBRANCH   1   6
TORSDOF 5
ENDMDL
MODEL 8
REMARK VINA RESULT:      -3.0     10.703     11.729
REMARK  5 active torsions:
REMARK  status: ('A' for Active; 'I' for Inactive)
REMARK    1  A    between atoms: C2_2  and  C3_3 
REMARK    2  A    between atoms: C2_2  and  C4_4 
REMARK    3  A    between atoms: C3_3  and  C5_5 
REMARK    4  A    between atoms: C4_4  and  C6_6 
REMARK    5  A    between atoms: C5_5  and  S7_7 
ROOT
HETATM    1  C2  UNL     1     -34.528  13.364  -4.587  1.00 20.00     0.002 C 
ENDROOT
BRANCH   1   2
HETATM    2  C3  UNL     1     -34.788  14.426  -5.660  1.00 20.00     0.010 C 
BRANCH   2   3
HETATM    3  C5  UNL     1     -36.214  14.975  -5.647  1.00 20.00     0.073 C 
BRANCH   3   4
HETATM    4  S7  UNL     1     -37.056  14.725  -4.056  1.00 20.00    -0.173 SA
HETATM    5  C1  UNL     1     -37.311  16.460  -3.619  1.00 20.00     0.089 C 
ENDBRANCH   3   4
ENDBRANCH   2   3
ENDBRANCH   1   2
BRANCH   1   6
HETATM    6  C4  UNL     1     -33.329  13.742  -3.713  1.00 20.00     0.015 C 
BRANCH   6   7
HETATM    7  C6  UNL     1     -33.066  15.242  -3.763  1.00 20.00     0.114 C 
HETATM    8 CL8  UNL     1     -33.886  16.060  -2.412  1.00 20.00    -0.130 Cl
ENDBRANCH   6   7
ENDBRANCH   1   6
TORSDOF 5
ENDMDL
MODEL 9
REMARK VINA RESULT:      -3.0     10.868     11.633
REMARK  5 active torsions:
REMARK  status: ('A' for Active; 'I' for Inactive)
REMARK    1  A    between atoms: C2_2  and  C3_3 
REMARK    2  A    between atoms: C2_2  and  C4_4 
REMARK    3  A    between atoms: C3_3  and  C5_5 
REMARK    4  A    between atoms: C4_4  and  C6_6 
REMARK    5  A    between atoms: C5_5  and  S7_7 
ROOT
HETATM    1  C2  UNL     1     -34.683  16.549  -0.801  1.00 20.00     0.002 C 
ENDROOT
BRANCH   1   2
HETATM    2  C3  UNL     1     -34.906  16.062  -2.236  1.00 20.00     0.010 C 
BRANCH   2   3
HETATM    3  C5  UNL     1     -33.660  16.156  -3.116  1.00 20.00     0.073 C 
BRANCH   3   4
HETATM    4  S7  UNL     1     -33.161  14.553  -3.812  1.00 20.00    -0.173 SA
HETATM    5  C1  UNL     1     -34.788  13.766  -3.849  1.00 20.00     0.089 C 
ENDBRANCH   3   4
ENDBRANCH   2   3
ENDBRANCH   1   2
BRANCH   1   6
HETATM    6  C4  UNL     1     -33.665  17.692  -0.756  1.00 20.00     0.015 C 
BRANCH   6   7
HETATM    7  C6  UNL     1     -33.767  18.465   0.553  1.00 20.00     0.114 C 
HETATM    8 CL8  UNL     1     -35.024  17.759   1.595  1.00 20.00    -0.130 Cl
ENDBRANCH   6   7
ENDBRANCH   1   6
TORSDOF 5
ENDMDL
