MODEL 1
REMARK VINA RESULT:      -4.7      0.000      0.000
REMARK  2 active torsions:
REMARK  status: ('A' for Active; 'I' for Inactive)
REMARK    1  A    between atoms: C3_3  and  C7_7 
REMARK    2  A    between atoms: C3_3  and  O11_11 
ROOT
HETATM    1  C1  UNL     1     -34.355  16.472  -2.802  1.00 20.00    -0.070 C 
HETATM    2  C2  UNL     1     -34.625  16.173  -1.525  1.00 20.00    -0.027 C 
HETATM    3  C4  UNL     1     -33.948  17.838  -3.279  1.00 20.00     0.034 C 
HETATM    4  C5  UNL     1     -33.417  17.574  -4.681  1.00 20.00     0.005 C 
HETATM    5  C6  UNL     1     -34.250  16.396  -5.181  1.00 20.00     0.019 C 
HETATM    6  C7  UNL     1     -34.429  15.506  -3.953  1.00 20.00     0.114 C 
HETATM    7  C8  UNL     1     -34.559  17.158  -0.407  1.00 20.00     0.036 C 
ENDROOT
BRANCH   6   8
HETATM    8  C3  UNL     1     -33.313  14.512  -3.830  1.00 20.00     0.266 C 
HETATM    9  O10 UNL     1     -32.158  14.808  -3.555  1.00 20.00    -0.265 OA
BRANCH   8  10
HETATM   10  O11 UNL     1     -33.790  13.258  -4.071  1.00 20.00    -0.326 OA
HETATM   11  C9  UNL     1     -35.193  13.176  -4.346  1.00 20.00     0.213 C 
ENDBRANCH   8  10
ENDBRANCH   6   8
TORSDOF 2
ENDMDL
MODEL 2
REMARK VINA RESULT:      -4.5      2.561      3.634
REMARK  2 active torsions:
REMARK  status: ('A' for Active; 'I' for Inactive)
REMARK    1  A    between atoms: C3_3  and  C7_7 
REMARK    2  A    between atoms: C3_3  and  O11_11 
ROOT
HETATM    1  C1  UNL     1     -35.180  15.349  -3.541  1.00 20.00    -0.070 C 
HETATM    2  C2  UNL     1     -35.357  16.296  -2.611  1.00 20.00    -0.027 C 
HETATM    3  C4  UNL     1     -34.198  14.218  -3.412  1.00 20.00     0.034 C 
HETATM    4  C5  UNL     1     -34.629  13.255  -4.510  1.00 20.00     0.005 C 
HETATM    5  C6  UNL     1     -35.183  14.162  -5.606  1.00 20.00     0.019 C 
HETATM    6  C7  UNL     1     -35.911  15.273  -4.853  1.00 20.00     0.114 C 
HETATM    7  C8  UNL     1     -34.604  16.355  -1.326  1.00 20.00     0.036 C 
ENDROOT
BRANCH   6   8
HETATM    8  C3  UNL     1     -37.343  14.910  -4.594  1.00 20.00     0.266 C 
HETATM    9  O10 UNL     1     -37.709  14.153  -3.706  1.00 20.00    -0.265 OA
BRANCH   8  10
HETATM   10  O11 UNL     1     -38.145  15.551  -5.492  1.00 20.00    -0.326 OA
HETATM   11  C9  UNL     1     -37.768  16.896  -5.804  1.00 20.00     0.213 C 
ENDBRANCH   8  10
ENDBRANCH   6   8
TORSDOF 2
ENDMDL
MODEL 3
REMARK VINA RESULT:      -4.4      1.877      2.298
REMARK  2 active torsions:
REMARK  status: ('A' for Active; 'I' for Inactive)
REMARK    1  A    between atoms: C3_3  and  C7_7 
REMARK    2  A    between atoms: C3_3  and  O11_11 
ROOT
HETATM    1  C1  UNL     1     -34.941  16.173  -3.227  1.00 20.00    -0.070 C 
HETATM    2  C2  UNL     1     -35.275  16.306  -1.938  1.00 20.00    -0.027 C 
HETATM    3  C4  UNL     1     -33.585  16.508  -3.784  1.00 20.00     0.034 C 
HETATM    4  C5  UNL     1     -33.603  15.856  -5.160  1.00 20.00     0.005 C 
HETATM    5  C6  UNL     1     -35.064  15.941  -5.595  1.00 20.00     0.019 C 
HETATM    6  C7  UNL     1     -35.859  15.689  -4.316  1.00 20.00     0.114 C 
HETATM    7  C8  UNL     1     -34.346  16.805  -0.883  1.00 20.00     0.036 C 
ENDROOT
BRANCH   6   8
HETATM    8  C3  UNL     1     -36.126  14.227  -4.117  1.00 20.00     0.266 C 
HETATM    9  O10 UNL     1     -35.296  13.347  -4.302  1.00 20.00    -0.265 OA
BRANCH   8  10
HETATM   10  O11 UNL     1     -37.414  14.050  -3.705  1.00 20.00    -0.326 OA
HETATM   11  C9  UNL     1     -38.358  14.996  -4.216  1.00 20.00     0.213 C 
ENDBRANCH   8  10
ENDBRANCH   6   8
TORSDOF 2
ENDMDL
MODEL 4
REMARK VINA RESULT:      -4.4     12.459     13.726
REMARK  2 active torsions:
REMARK  status: ('A' for Active; 'I' for Inactive)
REMARK    1  A    between atoms: C3_3  and  C7_7 
REMARK    2  A    between atoms: C3_3  and  O11_11 
ROOT
HETATM    1  C1  UNL     1     -41.920   6.053  -2.165  1.00 20.00    -0.070 C 
HETATM    2  C2  UNL     1     -42.686   6.491  -3.172  1.00 20.00    -0.027 C 
HETATM    3  C4  UNL     1     -41.235   6.954  -1.176  1.00 20.00     0.034 C 
HETATM    4  C5  UNL     1     -40.820   6.000  -0.064  1.00 20.00     0.005 C 
HETATM    5  C6  UNL     1     -40.542   4.684  -0.786  1.00 20.00     0.019 C 
HETATM    6  C7  UNL     1     -41.613   4.610  -1.873  1.00 20.00     0.114 C 
HETATM    7  C8  UNL     1     -42.959   7.930  -3.447  1.00 20.00     0.036 C 
ENDROOT
BRANCH   6   8
HETATM    8  C3  UNL     1     -42.855   3.936  -1.372  1.00 20.00     0.266 C 
HETATM    9  O10 UNL     1     -43.417   4.227  -0.324  1.00 20.00    -0.265 OA
BRANCH   8  10
HETATM   10  O11 UNL     1     -43.240   2.973  -2.256  1.00 20.00    -0.326 OA
HETATM   11  C9  UNL     1     -42.191   2.417  -3.055  1.00 20.00     0.213 C 
ENDBRANCH   8  10
ENDBRANCH   6   8
TORSDOF 2
ENDMDL
MODEL 5
REMARK VINA RESULT:      -4.3      2.679      4.079
REMARK  2 active torsions:
REMARK  status: ('A' for Active; 'I' for Inactive)
REMARK    1  A    between atoms: C3_3  and  C7_7 
REMARK    2  A    between atoms: C3_3  and  O11_11 
ROOT
HETATM    1  C1  UNL     1     -34.881  14.872  -5.279  1.00 20.00    -0.070 C 
HETATM    2  C2  UNL     1     -35.440  14.452  -6.422  1.00 20.00    -0.027 C 
HETATM    3  C4  UNL     1     -33.701  15.800  -5.212  1.00 20.00     0.034 C 
HETATM    4  C5  UNL     1     -33.691  16.245  -3.756  1.00 20.00     0.005 C 
HETATM    5  C6  UNL     1     -34.236  15.041  -2.993  1.00 20.00     0.019 C 
HETATM    6  C7  UNL     1     -35.328  14.475  -3.899  1.00 20.00     0.114 C 
HETATM    7  C8  UNL     1     -34.964  14.849  -7.777  1.00 20.00     0.036 C 
ENDROOT
BRANCH   6   8
HETATM    8  C3  UNL     1     -36.657  15.107  -3.614  1.00 20.00     0.266 C 
HETATM    9  O10 UNL     1     -36.804  16.279  -3.291  1.00 20.00    -0.265 OA
BRANCH   8  10
HETATM   10  O11 UNL     1     -37.646  14.182  -3.771  1.00 20.00    -0.326 OA
HETATM   11  C9  UNL     1     -38.920  14.703  -4.160  1.00 20.00     0.213 C 
ENDBRANCH   8  10
ENDBRANCH   6   8
TORSDOF 2
ENDMDL
MODEL 6
REMARK VINA RESULT:      -4.3      1.943      3.649
REMARK  2 active torsions:
REMARK  status: ('A' for Active; 'I' for Inactive)
REMARK    1  A    between atoms: C3_3  and  C7_7 
REMARK    2  A    between atoms: C3_3  and  O11_11 
ROOT
HETATM    1  C1  UNL     1     -35.597  14.750  -3.606  1.00 20.00    -0.070 C 
HETATM    2  C2  UNL     1     -36.706  15.445  -3.322  1.00 20.00    -0.027 C 
HETATM    3  C4  UNL     1     -35.580  13.496  -4.435  1.00 20.00     0.034 C 
HETATM    4  C5  UNL     1     -34.103  13.315  -4.760  1.00 20.00     0.005 C 
HETATM    5  C6  UNL     1     -33.380  13.883  -3.542  1.00 20.00     0.019 C 
HETATM    6  C7  UNL     1     -34.212  15.097  -3.134  1.00 20.00     0.114 C 
HETATM    7  C8  UNL     1     -38.070  15.066  -3.790  1.00 20.00     0.036 C 
ENDROOT
BRANCH   6   8
HETATM    8  C3  UNL     1     -33.751  16.338  -3.839  1.00 20.00     0.266 C 
HETATM    9  O10 UNL     1     -33.320  16.356  -4.984  1.00 20.00    -0.265 OA
BRANCH   8  10
HETATM   10  O11 UNL     1     -33.892  17.411  -3.011  1.00 20.00    -0.326 OA
HETATM   11  C9  UNL     1     -33.744  17.135  -1.614  1.00 20.00     0.213 C 
ENDBRANCH   8  10
ENDBRANCH   6   8
TORSDOF 2
ENDMDL
MODEL 7
REMARK VINA RESULT:      -4.2      1.440      3.883
REMARK  2 active torsions:
REMARK  status: ('A' for Active; 'I' for Inactive)
REMARK    1  A    between atoms: C3_3  and  C7_7 
REMARK    2  A    between atoms: C3_3  and  O11_11 
ROOT
HETATM    1  C1  UNL     1     -34.795  15.613  -5.457  1.00 20.00    -0.070 C 
HETATM    2  C2  UNL     1     -34.636  16.824  -6.006  1.00 20.00    -0.027 C 
HETATM    3  C4  UNL     1     -34.914  14.340  -6.248  1.00 20.00     0.034 C 
HETATM    4  C5  UNL     1     -34.710  13.257  -5.197  1.00 20.00     0.005 C 
HETATM    5  C6  UNL     1     -35.289  13.861  -3.921  1.00 20.00     0.019 C 
HETATM    6  C7  UNL     1     -34.897  15.336  -3.983  1.00 20.00     0.114 C 
HETATM    7  C8  UNL     1     -34.556  17.069  -7.475  1.00 20.00     0.036 C 
ENDROOT
BRANCH   6   8
HETATM    8  C3  UNL     1     -33.559  15.573  -3.347  1.00 20.00     0.266 C 
HETATM    9  O10 UNL     1     -32.562  14.904  -3.579  1.00 20.00    -0.265 OA
BRANCH   8  10
HETATM   10  O11 UNL     1     -33.643  16.631  -2.491  1.00 20.00    -0.326 OA
HETATM   11  C9  UNL     1     -34.506  16.445  -1.365  1.00 20.00     0.213 C 
ENDBRANCH   8  10
ENDBRANCH   6   8
TORSDOF 2
ENDMDL
MODEL 8
REMARK VINA RESULT:      -4.2      2.030      4.343
REMARK  2 active torsions:
REMARK  status: ('A' for Active; 'I' for Inactive)
REMARK    1  A    between atoms: C3_3  and  C7_7 
REMARK    2  A    between atoms: C3_3  and  O11_11 
ROOT
HETATM    1  C1  UNL     1     -35.027  14.961  -5.418  1.00 20.00    -0.070 C 
HETATM    2  C2  UNL     1     -35.411  15.358  -6.637  1.00 20.00    -0.027 C 
HETATM    3  C4  UNL     1     -34.691  13.539  -5.064  1.00 20.00     0.034 C 
HETATM    4  C5  UNL     1     -33.984  13.672  -3.722  1.00 20.00     0.005 C 
HETATM    5  C6  UNL     1     -34.650  14.880  -3.067  1.00 20.00     0.019 C 
HETATM    6  C7  UNL     1     -34.887  15.856  -4.218  1.00 20.00     0.114 C 
HETATM    7  C8  UNL     1     -35.557  14.443  -7.805  1.00 20.00     0.036 C 
ENDROOT
BRANCH   6   8
HETATM    8  C3  UNL     1     -33.709  16.762  -4.418  1.00 20.00     0.266 C 
HETATM    9  O10 UNL     1     -32.694  16.444  -5.022  1.00 20.00    -0.265 OA
BRANCH   8  10
HETATM   10  O11 UNL     1     -33.955  17.967  -3.829  1.00 20.00    -0.326 OA
HETATM   11  C9  UNL     1     -35.268  18.497  -4.036  1.00 20.00     0.213 C 
ENDBRANCH   8  10
ENDBRANCH   6   8
TORSDOF 2
ENDMDL
MODEL 9
REMARK VINA RESULT:      -4.2      1.310      2.956
REMARK  2 active torsions:
REMARK  status: ('A' for Active; 'I' for Inactive)
REMARK    1  A    between atoms: C3_3  and  C7_7 
REMARK    2  A    between atoms: C3_3  and  O11_11 
ROOT
HETATM    1  C1  UNL     1     -34.029  17.098  -3.563  1.00 20.00    -0.070 C 
HETATM    2  C2  UNL     1     -33.542  17.115  -4.810  1.00 20.00    -0.027 C 
HETATM    3  C4  UNL     1     -34.661  18.285  -2.891  1.00 20.00     0.034 C 
HETATM    4  C5  UNL     1     -35.356  17.672  -1.683  1.00 20.00     0.005 C 
HETATM    5  C6  UNL     1     -34.470  16.487  -1.303  1.00 20.00     0.019 C 
HETATM    6  C7  UNL     1     -34.009  15.911  -2.640  1.00 20.00     0.114 C 
HETATM    7  C8  UNL     1     -33.562  18.313  -5.697  1.00 20.00     0.036 C 
ENDROOT
BRANCH   6   8
HETATM    8  C3  UNL     1     -34.968  14.877  -3.150  1.00 20.00     0.266 C 
HETATM    9  O10 UNL     1     -36.176  15.052  -3.248  1.00 20.00    -0.265 OA
BRANCH   8  10
HETATM   10  O11 UNL     1     -34.286  13.743  -3.477  1.00 20.00    -0.326 OA
HETATM   11  C9  UNL     1     -34.535  13.232  -4.790  1.00 20.00     0.213 C 
ENDBRANCH   8  10
ENDBRANCH   6   8
TORSDOF 2
ENDMDL
