MODEL 1
REMARK VINA RESULT:      -4.7      0.000      0.000
REMARK  0 active torsions:
REMARK  status: ('A' for Active; 'I' for Inactive)
ROOT
HETATM    1  C1  UNL     1     -40.658   5.932  -0.109  1.00 20.00     0.004 C 
HETATM    2  C2  UNL     1     -40.607   4.603  -0.850  1.00 20.00     0.027 C 
HETATM    3  C3  UNL     1     -40.886   7.058  -1.109  1.00 20.00     0.027 C 
HETATM    4  C4  UNL     1     -41.867   4.342  -1.702  1.00 20.00     0.037 C 
HETATM    5  C5  UNL     1     -42.153   6.852  -1.966  1.00 20.00     0.037 C 
HETATM    6  C6  UNL     1     -43.041   3.893  -0.812  1.00 20.00     0.034 C 
HETATM    7  C7  UNL     1     -41.551   3.179  -2.669  1.00 20.00     0.034 C 
HETATM    8  C8  UNL     1     -42.081   7.832  -3.159  1.00 20.00     0.034 C 
HETATM    9  C9  UNL     1     -43.417   7.202  -1.161  1.00 20.00     0.034 C 
HETATM   10  N10 UNL     1     -42.206   5.500  -2.545  1.00 20.00    -0.137 NA
HETATM   11  F11 UNL     1     -43.351   5.292  -3.280  1.00 20.00    -0.132 F 
ENDROOT
TORSDOF 0
ENDMDL
MODEL 2
REMARK VINA RESULT:      -4.6     11.958     12.802
REMARK  0 active torsions:
REMARK  status: ('A' for Active; 'I' for Inactive)
ROOT
HETATM    1  C1  UNL     1     -33.769  17.169  -5.372  1.00 20.00     0.004 C 
HETATM    2  C2  UNL     1     -33.078  16.124  -4.505  1.00 20.00     0.027 C 
HETATM    3  C3  UNL     1     -34.255  16.514  -6.659  1.00 20.00     0.027 C 
HETATM    4  C4  UNL     1     -33.977  14.906  -4.203  1.00 20.00     0.037 C 
HETATM    5  C5  UNL     1     -35.180  15.305  -6.405  1.00 20.00     0.037 C 
HETATM    6  C6  UNL     1     -35.007  15.248  -3.111  1.00 20.00     0.034 C 
HETATM    7  C7  UNL     1     -33.075  13.780  -3.649  1.00 20.00     0.034 C 
HETATM    8  C8  UNL     1     -35.305  14.520  -7.729  1.00 20.00     0.034 C 
HETATM    9  C9  UNL     1     -36.593  15.774  -6.013  1.00 20.00     0.034 C 
HETATM   10  N10 UNL     1     -34.601  14.372  -5.424  1.00 20.00    -0.137 NA
HETATM   11  F11 UNL     1     -35.434  13.309  -5.161  1.00 20.00    -0.132 F 
ENDROOT
TORSDOF 0
ENDMDL
MODEL 3
REMARK VINA RESULT:      -4.4     11.217     12.759
REMARK  0 active torsions:
REMARK  status: ('A' for Active; 'I' for Inactive)
ROOT
HETATM    1  C1  UNL     1     -34.347  15.354  -6.526  1.00 20.00     0.004 C 
HETATM    2  C2  UNL     1     -35.747  14.969  -6.066  1.00 20.00     0.027 C 
HETATM    3  C3  UNL     1     -33.850  16.530  -5.695  1.00 20.00     0.027 C 
HETATM    4  C4  UNL     1     -35.817  14.651  -4.557  1.00 20.00     0.037 C 
HETATM    5  C5  UNL     1     -33.878  16.247  -4.178  1.00 20.00     0.037 C 
HETATM    6  C6  UNL     1     -35.249  13.249  -4.270  1.00 20.00     0.034 C 
HETATM    7  C7  UNL     1     -37.307  14.638  -4.146  1.00 20.00     0.034 C 
HETATM    8  C8  UNL     1     -33.711  17.596  -3.443  1.00 20.00     0.034 C 
HETATM    9  C9  UNL     1     -32.692  15.353  -3.770  1.00 20.00     0.034 C 
HETATM   10  N10 UNL     1     -35.174  15.699  -3.748  1.00 20.00    -0.137 NA
HETATM   11  F11 UNL     1     -35.198  15.407  -2.404  1.00 20.00    -0.132 F 
ENDROOT
TORSDOF 0
ENDMDL
MODEL 4
REMARK VINA RESULT:      -4.4     11.827     13.063
REMARK  0 active torsions:
REMARK  status: ('A' for Active; 'I' for Inactive)
ROOT
HETATM    1  C1  UNL     1     -36.769  14.861  -4.670  1.00 20.00     0.004 C 
HETATM    2  C2  UNL     1     -35.996  15.234  -3.412  1.00 20.00     0.027 C 
HETATM    3  C3  UNL     1     -36.476  15.881  -5.762  1.00 20.00     0.027 C 
HETATM    4  C4  UNL     1     -34.478  15.365  -3.656  1.00 20.00     0.037 C 
HETATM    5  C5  UNL     1     -34.969  16.026  -6.059  1.00 20.00     0.037 C 
HETATM    6  C6  UNL     1     -33.821  13.976  -3.745  1.00 20.00     0.034 C 
HETATM    7  C7  UNL     1     -33.864  16.088  -2.436  1.00 20.00     0.034 C 
HETATM    8  C8  UNL     1     -34.773  17.313  -6.891  1.00 20.00     0.034 C 
HETATM    9  C9  UNL     1     -34.467  14.847  -6.913  1.00 20.00     0.034 C 
HETATM   10  N10 UNL     1     -34.184  16.207  -4.827  1.00 20.00    -0.137 NA
HETATM   11  F11 UNL     1     -32.834  16.299  -5.076  1.00 20.00    -0.132 F 
ENDROOT
TORSDOF 0
ENDMDL
MODEL 5
REMARK VINA RESULT:      -4.4     11.179     12.775
REMARK  0 active torsions:
REMARK  status: ('A' for Active; 'I' for Inactive)
ROOT
HETATM    1  C1  UNL     1     -33.699  13.735  -4.138  1.00 20.00     0.004 C 
HETATM    2  C2  UNL     1     -33.280  14.996  -3.394  1.00 20.00     0.027 C 
HETATM    3  C3  UNL     1     -35.211  13.575  -4.047  1.00 20.00     0.027 C 
HETATM    4  C4  UNL     1     -34.003  16.261  -3.903  1.00 20.00     0.037 C 
HETATM    5  C5  UNL     1     -35.977  14.808  -4.571  1.00 20.00     0.037 C 
HETATM    6  C6  UNL     1     -33.387  16.742  -5.230  1.00 20.00     0.034 C 
HETATM    7  C7  UNL     1     -33.784  17.381  -2.861  1.00 20.00     0.034 C 
HETATM    8  C8  UNL     1     -37.443  14.689  -4.099  1.00 20.00     0.034 C 
HETATM    9  C9  UNL     1     -35.990  14.827  -6.110  1.00 20.00     0.034 C 
HETATM   10  N10 UNL     1     -35.458  16.059  -3.994  1.00 20.00    -0.137 NA
HETATM   11  F11 UNL     1     -36.108  17.169  -4.483  1.00 20.00    -0.132 F 
ENDROOT
TORSDOF 0
ENDMDL
MODEL 6
REMARK VINA RESULT:      -4.4     11.207     12.578
REMARK  0 active torsions:
REMARK  status: ('A' for Active; 'I' for Inactive)
ROOT
HETATM    1  C1  UNL     1     -33.615  13.868  -3.870  1.00 20.00     0.004 C 
HETATM    2  C2  UNL     1     -34.522  13.899  -5.093  1.00 20.00     0.027 C 
HETATM    3  C3  UNL     1     -33.100  15.274  -3.589  1.00 20.00     0.027 C 
HETATM    4  C4  UNL     1     -35.689  14.899  -4.949  1.00 20.00     0.037 C 
HETATM    5  C5  UNL     1     -34.236  16.304  -3.411  1.00 20.00     0.037 C 
HETATM    6  C6  UNL     1     -36.792  14.318  -4.045  1.00 20.00     0.034 C 
HETATM    7  C7  UNL     1     -36.305  15.109  -6.350  1.00 20.00     0.034 C 
HETATM    8  C8  UNL     1     -33.612  17.715  -3.499  1.00 20.00     0.034 C 
HETATM    9  C9  UNL     1     -34.877  16.172  -2.017  1.00 20.00     0.034 C 
HETATM   10  N10 UNL     1     -35.224  16.220  -4.499  1.00 20.00    -0.137 NA
HETATM   11  F11 UNL     1     -36.262  17.108  -4.331  1.00 20.00    -0.132 F 
ENDROOT
TORSDOF 0
ENDMDL
MODEL 7
REMARK VINA RESULT:      -4.4     11.666     13.204
REMARK  0 active torsions:
REMARK  status: ('A' for Active; 'I' for Inactive)
ROOT
HETATM    1  C1  UNL     1     -36.235  14.346  -4.343  1.00 20.00     0.004 C 
HETATM    2  C2  UNL     1     -36.034  14.915  -5.741  1.00 20.00     0.027 C 
HETATM    3  C3  UNL     1     -34.889  13.919  -3.774  1.00 20.00     0.027 C 
HETATM    4  C4  UNL     1     -35.023  16.081  -5.774  1.00 20.00     0.037 C 
HETATM    5  C5  UNL     1     -33.852  15.063  -3.763  1.00 20.00     0.037 C 
HETATM    6  C6  UNL     1     -35.671  17.377  -5.252  1.00 20.00     0.034 C 
HETATM    7  C7  UNL     1     -34.631  16.324  -7.249  1.00 20.00     0.034 C 
HETATM    8  C8  UNL     1     -32.460  14.437  -3.521  1.00 20.00     0.034 C 
HETATM    9  C9  UNL     1     -34.127  16.035  -2.601  1.00 20.00     0.034 C 
HETATM   10  N10 UNL     1     -33.778  15.745  -5.065  1.00 20.00    -0.137 NA
HETATM   11  F11 UNL     1     -32.884  16.791  -5.057  1.00 20.00    -0.132 F 
ENDROOT
TORSDOF 0
ENDMDL
MODEL 8
REMARK VINA RESULT:      -4.3     11.915     13.144
REMARK  0 active torsions:
REMARK  status: ('A' for Active; 'I' for Inactive)
ROOT
HETATM    1  C1  UNL     1     -33.670  17.364  -5.554  1.00 20.00     0.004 C 
HETATM    2  C2  UNL     1     -35.041  16.953  -6.072  1.00 20.00     0.027 C 
HETATM    3  C3  UNL     1     -33.675  17.327  -4.031  1.00 20.00     0.027 C 
HETATM    4  C4  UNL     1     -35.490  15.571  -5.553  1.00 20.00     0.037 C 
HETATM    5  C5  UNL     1     -34.093  15.952  -3.466  1.00 20.00     0.037 C 
HETATM    6  C6  UNL     1     -34.773  14.444  -6.319  1.00 20.00     0.034 C 
HETATM    7  C7  UNL     1     -37.003  15.430  -5.834  1.00 20.00     0.034 C 
HETATM    8  C8  UNL     1     -34.413  16.136  -1.966  1.00 20.00     0.034 C 
HETATM    9  C9  UNL     1     -32.932  14.946  -3.568  1.00 20.00     0.034 C 
HETATM   10  N10 UNL     1     -35.328  15.457  -4.095  1.00 20.00    -0.137 NA
HETATM   11  F11 UNL     1     -35.690  14.214  -3.626  1.00 20.00    -0.132 F 
ENDROOT
TORSDOF 0
ENDMDL
MODEL 9
REMARK VINA RESULT:      -4.3     11.731     12.801
REMARK  0 active torsions:
REMARK  status: ('A' for Active; 'I' for Inactive)
ROOT
HETATM    1  C1  UNL     1     -34.479  13.200  -4.930  1.00 20.00     0.004 C 
HETATM    2  C2  UNL     1     -34.516  13.810  -3.535  1.00 20.00     0.027 C 
HETATM    3  C3  UNL     1     -35.503  13.901  -5.814  1.00 20.00     0.027 C 
HETATM    4  C4  UNL     1     -34.291  15.337  -3.542  1.00 20.00     0.037 C 
HETATM    5  C5  UNL     1     -35.300  15.430  -5.871  1.00 20.00     0.037 C 
HETATM    6  C6  UNL     1     -32.799  15.666  -3.734  1.00 20.00     0.034 C 
HETATM    7  C7  UNL     1     -34.708  15.881  -2.157  1.00 20.00     0.034 C 
HETATM    8  C8  UNL     1     -36.579  16.054  -6.475  1.00 20.00     0.034 C 
HETATM    9  C9  UNL     1     -34.130  15.788  -6.805  1.00 20.00     0.034 C 
HETATM   10  N10 UNL     1     -35.151  16.012  -4.527  1.00 20.00    -0.137 NA
HETATM   11  F11 UNL     1     -34.931  17.369  -4.568  1.00 20.00    -0.132 F 
ENDROOT
TORSDOF 0
ENDMDL
