MODEL 1
REMARK VINA RESULT:      -4.7      0.000      0.000
REMARK  0 active torsions:
REMARK  status: ('A' for Active; 'I' for Inactive)
ROOT
HETATM    1  C1  UNL     1     -34.415  13.547  -4.158  1.00 20.00     0.222 C 
HETATM    2  C2  UNL     1     -35.615  16.363  -2.417  1.00 20.00     0.001 C 
HETATM    3  C3  UNL     1     -36.061  15.360  -3.478  1.00 20.00     0.014 C 
HETATM    4  C4  UNL     1     -34.151  16.031  -2.181  1.00 20.00     0.007 C 
HETATM    5  C5  UNL     1     -32.467  14.791  -3.658  1.00 20.00     0.128 C 
HETATM    6  C6  UNL     1     -34.804  15.009  -4.271  1.00 20.00     0.083 C 
HETATM    7  C7  UNL     1     -33.640  15.747  -3.592  1.00 20.00     0.016 C 
HETATM    8  N8  UNL     1     -33.073  13.495  -3.799  1.00 20.00    -0.360 N 
HETATM    9  O9  UNL     1     -35.153  12.598  -4.370  1.00 20.00    -0.273 OA
HETATM   10  H20 UNL     1     -32.570  12.626  -3.652  1.00 20.00     0.162 HD
ENDROOT
TORSDOF 0
ENDMDL
MODEL 2
REMARK VINA RESULT:      -4.4     12.071     12.654
REMARK  0 active torsions:
REMARK  status: ('A' for Active; 'I' for Inactive)
ROOT
HETATM    1  C1  UNL     1     -33.321   6.494   4.037  1.00 20.00     0.222 C 
HETATM    2  C2  UNL     1     -35.132   3.862   5.517  1.00 20.00     0.001 C 
HETATM    3  C3  UNL     1     -35.016   4.606   4.190  1.00 20.00     0.014 C 
HETATM    4  C4  UNL     1     -34.229   4.638   6.462  1.00 20.00     0.007 C 
HETATM    5  C5  UNL     1     -33.366   7.045   6.336  1.00 20.00     0.128 C 
HETATM    6  C6  UNL     1     -34.677   6.050   4.554  1.00 20.00     0.083 C 
HETATM    7  C7  UNL     1     -34.513   6.089   6.081  1.00 20.00     0.016 C 
HETATM    8  N8  UNL     1     -32.623   7.045   5.105  1.00 20.00    -0.360 N 
HETATM    9  O9  UNL     1     -32.935   6.398   2.882  1.00 20.00    -0.273 OA
HETATM   10  H20 UNL     1     -31.681   7.412   5.024  1.00 20.00     0.162 HD
ENDROOT
TORSDOF 0
ENDMDL
MODEL 3
REMARK VINA RESULT:      -4.3      2.008      3.168
REMARK  0 active torsions:
REMARK  status: ('A' for Active; 'I' for Inactive)
ROOT
HETATM    1  C1  UNL     1     -33.230  14.459  -3.866  1.00 20.00     0.222 C 
HETATM    2  C2  UNL     1     -34.340  15.946  -6.859  1.00 20.00     0.001 C 
HETATM    3  C3  UNL     1     -33.546  16.290  -5.601  1.00 20.00     0.014 C 
HETATM    4  C4  UNL     1     -34.865  14.544  -6.598  1.00 20.00     0.007 C 
HETATM    5  C5  UNL     1     -35.206  13.276  -4.401  1.00 20.00     0.128 C 
HETATM    6  C6  UNL     1     -34.180  15.473  -4.476  1.00 20.00     0.083 C 
HETATM    7  C7  UNL     1     -35.268  14.604  -5.127  1.00 20.00     0.016 C 
HETATM    8  N8  UNL     1     -33.875  13.229  -3.860  1.00 20.00    -0.360 N 
HETATM    9  O9  UNL     1     -32.111  14.702  -3.440  1.00 20.00    -0.273 OA
HETATM   10  H20 UNL     1     -33.448  12.379  -3.507  1.00 20.00     0.162 HD
ENDROOT
TORSDOF 0
ENDMDL
MODEL 4
REMARK VINA RESULT:      -4.3     11.606     12.362
REMARK  0 active torsions:
REMARK  status: ('A' for Active; 'I' for Inactive)
ROOT
HETATM    1  C1  UNL     1     -34.027   6.302   5.808  1.00 20.00     0.222 C 
HETATM    2  C2  UNL     1     -32.455   6.096   2.663  1.00 20.00     0.001 C 
HETATM    3  C3  UNL     1     -32.617   7.062   3.834  1.00 20.00     0.014 C 
HETATM    4  C4  UNL     1     -33.383   4.940   3.001  1.00 20.00     0.007 C 
HETATM    5  C5  UNL     1     -35.404   4.832   4.569  1.00 20.00     0.128 C 
HETATM    6  C6  UNL     1     -34.022   6.817   4.380  1.00 20.00     0.083 C 
HETATM    7  C7  UNL     1     -34.609   5.650   3.572  1.00 20.00     0.016 C 
HETATM    8  N8  UNL     1     -34.827   5.167   5.842  1.00 20.00    -0.360 N 
HETATM    9  O9  UNL     1     -33.446   6.818   6.750  1.00 20.00    -0.273 OA
HETATM   10  H20 UNL     1     -34.989   4.627   6.686  1.00 20.00     0.162 HD
ENDROOT
TORSDOF 0
ENDMDL
MODEL 5
REMARK VINA RESULT:      -4.3      1.506      2.542
REMARK  0 active torsions:
REMARK  status: ('A' for Active; 'I' for Inactive)
ROOT
HETATM    1  C1  UNL     1     -35.226  13.598  -4.163  1.00 20.00     0.222 C 
HETATM    2  C2  UNL     1     -33.340  16.570  -4.046  1.00 20.00     0.001 C 
HETATM    3  C3  UNL     1     -33.160  15.059  -3.919  1.00 20.00     0.014 C 
HETATM    4  C4  UNL     1     -34.844  16.761  -4.140  1.00 20.00     0.007 C 
HETATM    5  C5  UNL     1     -36.765  15.231  -3.417  1.00 20.00     0.128 C 
HETATM    6  C6  UNL     1     -34.444  14.544  -3.270  1.00 20.00     0.083 C 
HETATM    7  C7  UNL     1     -35.375  15.756  -3.121  1.00 20.00     0.016 C 
HETATM    8  N8  UNL     1     -36.538  14.053  -4.208  1.00 20.00    -0.360 N 
HETATM    9  O9  UNL     1     -34.774  12.608  -4.717  1.00 20.00    -0.273 OA
HETATM   10  H20 UNL     1     -37.266  13.596  -4.747  1.00 20.00     0.162 HD
ENDROOT
TORSDOF 0
ENDMDL
MODEL 6
REMARK VINA RESULT:      -4.3      1.537      2.032
REMARK  0 active torsions:
REMARK  status: ('A' for Active; 'I' for Inactive)
ROOT
HETATM    1  C1  UNL     1     -34.751  13.858  -5.121  1.00 20.00     0.222 C 
HETATM    2  C2  UNL     1     -33.790  16.306  -2.779  1.00 20.00     0.001 C 
HETATM    3  C3  UNL     1     -34.617  15.026  -2.868  1.00 20.00     0.014 C 
HETATM    4  C4  UNL     1     -33.388  16.591  -4.217  1.00 20.00     0.007 C 
HETATM    5  C5  UNL     1     -34.424  15.805  -6.422  1.00 20.00     0.128 C 
HETATM    6  C6  UNL     1     -35.223  15.022  -4.270  1.00 20.00     0.083 C 
HETATM    7  C7  UNL     1     -34.658  16.253  -4.994  1.00 20.00     0.016 C 
HETATM    8  N8  UNL     1     -34.302  14.376  -6.330  1.00 20.00    -0.360 N 
HETATM    9  O9  UNL     1     -34.787  12.681  -4.797  1.00 20.00    -0.273 OA
HETATM   10  H20 UNL     1     -33.927  13.800  -7.076  1.00 20.00     0.162 HD
ENDROOT
TORSDOF 0
ENDMDL
MODEL 7
REMARK VINA RESULT:      -4.2      2.162      2.731
REMARK  0 active torsions:
REMARK  status: ('A' for Active; 'I' for Inactive)
ROOT
HETATM    1  C1  UNL     1     -33.359  16.209  -4.988  1.00 20.00     0.222 C 
HETATM    2  C2  UNL     1     -34.912  16.066  -1.830  1.00 20.00     0.001 C 
HETATM    3  C3  UNL     1     -33.743  16.750  -2.534  1.00 20.00     0.014 C 
HETATM    4  C4  UNL     1     -35.442  15.079  -2.858  1.00 20.00     0.007 C 
HETATM    5  C5  UNL     1     -34.312  14.046  -4.910  1.00 20.00     0.128 C 
HETATM    6  C6  UNL     1     -33.223  15.736  -3.552  1.00 20.00     0.083 C 
HETATM    7  C7  UNL     1     -34.163  14.523  -3.479  1.00 20.00     0.016 C 
HETATM    8  N8  UNL     1     -33.994  15.202  -5.704  1.00 20.00    -0.360 N 
HETATM    9  O9  UNL     1     -32.957  17.277  -5.424  1.00 20.00    -0.273 OA
HETATM   10  H20 UNL     1     -34.210  15.274  -6.692  1.00 20.00     0.162 HD
ENDROOT
TORSDOF 0
ENDMDL
MODEL 8
REMARK VINA RESULT:      -4.2      1.487      1.710
REMARK  0 active torsions:
REMARK  status: ('A' for Active; 'I' for Inactive)
ROOT
HETATM    1  C1  UNL     1     -36.128  14.153  -4.065  1.00 20.00     0.222 C 
HETATM    2  C2  UNL     1     -34.317  16.997  -3.049  1.00 20.00     0.001 C 
HETATM    3  C3  UNL     1     -35.661  16.619  -3.667  1.00 20.00     0.014 C 
HETATM    4  C4  UNL     1     -33.550  15.686  -2.992  1.00 20.00     0.007 C 
HETATM    5  C5  UNL     1     -33.865  13.516  -4.313  1.00 20.00     0.128 C 
HETATM    6  C6  UNL     1     -35.387  15.391  -4.533  1.00 20.00     0.083 C 
HETATM    7  C7  UNL     1     -33.909  15.030  -4.323  1.00 20.00     0.016 C 
HETATM    8  N8  UNL     1     -35.201  13.125  -3.954  1.00 20.00    -0.360 N 
HETATM    9  O9  UNL     1     -37.329  14.083  -3.851  1.00 20.00    -0.273 OA
HETATM   10  H20 UNL     1     -35.443  12.188  -3.650  1.00 20.00     0.162 HD
ENDROOT
TORSDOF 0
ENDMDL
MODEL 9
REMARK VINA RESULT:      -4.1     11.648     12.492
REMARK  0 active torsions:
REMARK  status: ('A' for Active; 'I' for Inactive)
ROOT
HETATM    1  C1  UNL     1     -41.200   4.519  -0.770  1.00 20.00     0.222 C 
HETATM    2  C2  UNL     1     -42.395   7.828  -0.947  1.00 20.00     0.001 C 
HETATM    3  C3  UNL     1     -41.093   7.041  -1.071  1.00 20.00     0.014 C 
HETATM    4  C4  UNL     1     -43.415   6.793  -0.499  1.00 20.00     0.007 C 
HETATM    5  C5  UNL     1     -43.094   4.526   0.646  1.00 20.00     0.128 C 
HETATM    6  C6  UNL     1     -41.218   5.876  -0.091  1.00 20.00     0.083 C 
HETATM    7  C7  UNL     1     -42.629   5.962   0.511  1.00 20.00     0.016 C 
HETATM    8  N8  UNL     1     -42.300   3.805  -0.310  1.00 20.00    -0.360 N 
HETATM    9  O9  UNL     1     -40.353   4.132  -1.559  1.00 20.00    -0.273 OA
HETATM   10  H20 UNL     1     -42.520   2.864  -0.620  1.00 20.00     0.162 HD
ENDROOT
TORSDOF 0
ENDMDL
