MODEL 1
REMARK VINA RESULT:      -4.7      0.000      0.000
REMARK  2 active torsions:
REMARK  status: ('A' for Active; 'I' for Inactive)
REMARK    1  A    between atoms: C3_3  and  C7_7 
REMARK    2  A    between atoms: C3_3  and  O11_11 
ROOT
HETATM    1  C1  UNL     1     -34.165  16.683  -2.103  1.00 20.00    -0.070 C 
HETATM    2  C2  UNL     1     -34.548  16.568  -0.826  1.00 20.00    -0.027 C 
HETATM    3  C4  UNL     1     -34.099  17.987  -2.848  1.00 20.00     0.034 C 
HETATM    4  C5  UNL     1     -33.965  17.554  -4.302  1.00 20.00     0.005 C 
HETATM    5  C6  UNL     1     -33.187  16.243  -4.231  1.00 20.00     0.019 C 
HETATM    6  C7  UNL     1     -33.723  15.545  -2.983  1.00 20.00     0.114 C 
HETATM    7  C8  UNL     1     -34.949  17.720   0.031  1.00 20.00     0.036 C 
ENDROOT
BRANCH   6   8
HETATM    8  C3  UNL     1     -34.909  14.686  -3.305  1.00 20.00     0.266 C 
HETATM    9  O10 UNL     1     -36.067  15.083  -3.290  1.00 20.00    -0.265 OA
BRANCH   8  10
HETATM   10  O11 UNL     1     -34.489  13.424  -3.606  1.00 20.00    -0.326 OA
HETATM   11  C9  UNL     1     -34.685  13.021  -4.966  1.00 20.00     0.213 C 
ENDBRANCH   8  10
ENDBRANCH   6   8
TORSDOF 2
ENDMDL
MODEL 2
REMARK VINA RESULT:      -4.6      1.724      2.380
REMARK  2 active torsions:
REMARK  status: ('A' for Active; 'I' for Inactive)
REMARK    1  A    between atoms: C3_3  and  C7_7 
REMARK    2  A    between atoms: C3_3  and  O11_11 
ROOT
HETATM    1  C1  UNL     1     -34.516  15.709  -2.738  1.00 20.00    -0.070 C 
HETATM    2  C2  UNL     1     -34.766  16.244  -1.537  1.00 20.00    -0.027 C 
HETATM    3  C4  UNL     1     -33.350  16.093  -3.605  1.00 20.00     0.034 C 
HETATM    4  C5  UNL     1     -33.706  15.491  -4.957  1.00 20.00     0.005 C 
HETATM    5  C6  UNL     1     -34.501  14.236  -4.611  1.00 20.00     0.019 C 
HETATM    6  C7  UNL     1     -35.338  14.635  -3.398  1.00 20.00     0.114 C 
HETATM    7  C8  UNL     1     -33.913  17.283  -0.894  1.00 20.00     0.036 C 
ENDROOT
BRANCH   6   8
HETATM    8  C3  UNL     1     -36.659  15.214  -3.811  1.00 20.00     0.266 C 
HETATM    9  O10 UNL     1     -36.813  16.368  -4.187  1.00 20.00    -0.265 OA
BRANCH   8  10
HETATM   10  O11 UNL     1     -37.628  14.261  -3.698  1.00 20.00    -0.326 OA
HETATM   11  C9  UNL     1     -38.954  14.694  -4.021  1.00 20.00     0.213 C 
ENDBRANCH   8  10
ENDBRANCH   6   8
TORSDOF 2
ENDMDL
MODEL 3
REMARK VINA RESULT:      -4.6      1.325      2.968
REMARK  2 active torsions:
REMARK  status: ('A' for Active; 'I' for Inactive)
REMARK    1  A    between atoms: C3_3  and  C7_7 
REMARK    2  A    between atoms: C3_3  and  O11_11 
ROOT
HETATM    1  C1  UNL     1     -34.081  16.810  -4.054  1.00 20.00    -0.070 C 
HETATM    2  C2  UNL     1     -33.952  17.038  -5.366  1.00 20.00    -0.027 C 
HETATM    3  C4  UNL     1     -33.867  17.853  -2.992  1.00 20.00     0.034 C 
HETATM    4  C5  UNL     1     -33.780  17.037  -1.711  1.00 20.00     0.005 C 
HETATM    5  C6  UNL     1     -34.697  15.844  -1.964  1.00 20.00     0.019 C 
HETATM    6  C7  UNL     1     -34.477  15.497  -3.435  1.00 20.00     0.114 C 
HETATM    7  C8  UNL     1     -33.591  18.361  -5.951  1.00 20.00     0.036 C 
ENDROOT
BRANCH   6   8
HETATM    8  C3  UNL     1     -33.353  14.518  -3.604  1.00 20.00     0.266 C 
HETATM    9  O10 UNL     1     -32.169  14.820  -3.556  1.00 20.00    -0.265 OA
BRANCH   8  10
HETATM   10  O11 UNL     1     -33.863  13.271  -3.814  1.00 20.00    -0.326 OA
HETATM   11  C9  UNL     1     -34.837  13.174  -4.858  1.00 20.00     0.213 C 
ENDBRANCH   8  10
ENDBRANCH   6   8
TORSDOF 2
ENDMDL
MODEL 4
REMARK VINA RESULT:      -4.5      1.629      4.064
REMARK  2 active torsions:
REMARK  status: ('A' for Active; 'I' for Inactive)
REMARK    1  A    between atoms: C3_3  and  C7_7 
REMARK    2  A    between atoms: C3_3  and  O11_11 
ROOT
HETATM    1  C1  UNL     1     -34.049  15.576  -5.161  1.00 20.00    -0.070 C 
HETATM    2  C2  UNL     1     -34.026  16.817  -5.660  1.00 20.00    -0.027 C 
HETATM    3  C4  UNL     1     -34.539  14.373  -5.918  1.00 20.00     0.034 C 
HETATM    4  C5  UNL     1     -34.694  13.316  -4.832  1.00 20.00     0.005 C 
HETATM    5  C6  UNL     1     -33.605  13.657  -3.820  1.00 20.00     0.019 C 
HETATM    6  C7  UNL     1     -33.576  15.184  -3.788  1.00 20.00     0.114 C 
HETATM    7  C8  UNL     1     -34.472  17.170  -7.039  1.00 20.00     0.036 C 
ENDROOT
BRANCH   6   8
HETATM    8  C3  UNL     1     -34.530  15.728  -2.767  1.00 20.00     0.266 C 
HETATM    9  O10 UNL     1     -35.739  15.539  -2.790  1.00 20.00    -0.265 OA
BRANCH   8  10
HETATM   10  O11 UNL     1     -33.840  16.448  -1.837  1.00 20.00    -0.326 OA
HETATM   11  C9  UNL     1     -34.572  16.785  -0.654  1.00 20.00     0.213 C 
ENDBRANCH   8  10
ENDBRANCH   6   8
TORSDOF 2
ENDMDL
MODEL 5
REMARK VINA RESULT:      -4.5      2.743      3.803
REMARK  2 active torsions:
REMARK  status: ('A' for Active; 'I' for Inactive)
REMARK    1  A    between atoms: C3_3  and  C7_7 
REMARK    2  A    between atoms: C3_3  and  O11_11 
ROOT
HETATM    1  C1  UNL     1     -36.209  14.920  -5.033  1.00 20.00    -0.070 C 
HETATM    2  C2  UNL     1     -36.925  14.962  -3.903  1.00 20.00    -0.027 C 
HETATM    3  C4  UNL     1     -36.809  14.938  -6.412  1.00 20.00     0.034 C 
HETATM    4  C5  UNL     1     -35.649  14.521  -7.304  1.00 20.00     0.005 C 
HETATM    5  C6  UNL     1     -34.414  15.069  -6.594  1.00 20.00     0.019 C 
HETATM    6  C7  UNL     1     -34.707  14.869  -5.108  1.00 20.00     0.114 C 
HETATM    7  C8  UNL     1     -38.413  15.045  -3.862  1.00 20.00     0.036 C 
ENDROOT
BRANCH   6   8
HETATM    8  C3  UNL     1     -34.238  13.526  -4.634  1.00 20.00     0.266 C 
HETATM    9  O10 UNL     1     -34.778  12.469  -4.929  1.00 20.00    -0.265 OA
BRANCH   8  10
HETATM   10  O11 UNL     1     -33.140  13.682  -3.841  1.00 20.00    -0.326 OA
HETATM   11  C9  UNL     1     -32.808  15.034  -3.511  1.00 20.00     0.213 C 
ENDBRANCH   8  10
ENDBRANCH   6   8
TORSDOF 2
ENDMDL
MODEL 6
REMARK VINA RESULT:      -4.4      1.946      3.745
REMARK  2 active torsions:
REMARK  status: ('A' for Active; 'I' for Inactive)
REMARK    1  A    between atoms: C3_3  and  C7_7 
REMARK    2  A    between atoms: C3_3  and  O11_11 
ROOT
HETATM    1  C1  UNL     1     -34.776  15.903  -5.093  1.00 20.00    -0.070 C 
HETATM    2  C2  UNL     1     -35.355  16.196  -6.263  1.00 20.00    -0.027 C 
HETATM    3  C4  UNL     1     -33.302  16.036  -4.826  1.00 20.00     0.034 C 
HETATM    4  C5  UNL     1     -33.111  15.266  -3.526  1.00 20.00     0.005 C 
HETATM    5  C6  UNL     1     -34.425  15.464  -2.777  1.00 20.00     0.019 C 
HETATM    6  C7  UNL     1     -35.497  15.419  -3.864  1.00 20.00     0.114 C 
HETATM    7  C8  UNL     1     -34.618  16.706  -7.454  1.00 20.00     0.036 C 
ENDROOT
BRANCH   6   8
HETATM    8  C3  UNL     1     -35.979  14.018  -4.099  1.00 20.00     0.266 C 
HETATM    9  O10 UNL     1     -35.265  13.104  -4.485  1.00 20.00    -0.265 OA
BRANCH   8  10
HETATM   10  O11 UNL     1     -37.311  13.943  -3.817  1.00 20.00    -0.326 OA
HETATM   11  C9  UNL     1     -37.984  15.199  -3.689  1.00 20.00     0.213 C 
ENDBRANCH   8  10
ENDBRANCH   6   8
TORSDOF 2
ENDMDL
MODEL 7
REMARK VINA RESULT:      -4.3      1.637      2.418
REMARK  2 active torsions:
REMARK  status: ('A' for Active; 'I' for Inactive)
REMARK    1  A    between atoms: C3_3  and  C7_7 
REMARK    2  A    between atoms: C3_3  and  O11_11 
ROOT
HETATM    1  C1  UNL     1     -34.476  15.695  -2.905  1.00 20.00    -0.070 C 
HETATM    2  C2  UNL     1     -34.674  16.141  -1.659  1.00 20.00    -0.027 C 
HETATM    3  C4  UNL     1     -33.470  16.278  -3.859  1.00 20.00     0.034 C 
HETATM    4  C5  UNL     1     -33.875  15.683  -5.201  1.00 20.00     0.005 C 
HETATM    5  C6  UNL     1     -34.445  14.312  -4.846  1.00 20.00     0.019 C 
HETATM    6  C7  UNL     1     -35.201  14.539  -3.539  1.00 20.00     0.114 C 
HETATM    7  C8  UNL     1     -33.915  17.269  -1.048  1.00 20.00     0.036 C 
ENDROOT
BRANCH   6   8
HETATM    8  C3  UNL     1     -36.626  14.934  -3.792  1.00 20.00     0.266 C 
HETATM    9  O10 UNL     1     -37.570  14.157  -3.748  1.00 20.00    -0.265 OA
BRANCH   8  10
HETATM   10  O11 UNL     1     -36.685  16.267  -4.072  1.00 20.00    -0.326 OA
HETATM   11  C9  UNL     1     -37.624  16.639  -5.087  1.00 20.00     0.213 C 
ENDBRANCH   8  10
ENDBRANCH   6   8
TORSDOF 2
ENDMDL
MODEL 8
REMARK VINA RESULT:      -4.3     11.718     12.801
REMARK  2 active torsions:
REMARK  status: ('A' for Active; 'I' for Inactive)
REMARK    1  A    between atoms: C3_3  and  C7_7 
REMARK    2  A    between atoms: C3_3  and  O11_11 
ROOT
HETATM    1  C1  UNL     1     -34.225   6.220   5.544  1.00 20.00    -0.070 C 
HETATM    2  C2  UNL     1     -33.607   7.320   5.990  1.00 20.00    -0.027 C 
HETATM    3  C4  UNL     1     -34.540   5.025   6.401  1.00 20.00     0.034 C 
HETATM    4  C5  UNL     1     -34.896   3.950   5.384  1.00 20.00     0.005 C 
HETATM    5  C6  UNL     1     -35.530   4.721   4.230  1.00 20.00     0.019 C 
HETATM    6  C7  UNL     1     -34.716   6.010   4.138  1.00 20.00     0.114 C 
HETATM    7  C8  UNL     1     -33.161   7.512   7.400  1.00 20.00     0.036 C 
ENDROOT
BRANCH   6   8
HETATM    8  C3  UNL     1     -33.537   5.848   3.225  1.00 20.00     0.266 C 
HETATM    9  O10 UNL     1     -33.490   5.047   2.302  1.00 20.00    -0.265 OA
BRANCH   8  10
HETATM   10  O11 UNL     1     -32.555   6.721   3.592  1.00 20.00    -0.326 OA
HETATM   11  C9  UNL     1     -32.141   7.641   2.576  1.00 20.00     0.213 C 
ENDBRANCH   8  10
ENDBRANCH   6   8
TORSDOF 2
ENDMDL
MODEL 9
REMARK VINA RESULT:      -4.3     11.691     13.201
REMARK  2 active torsions:
REMARK  status: ('A' for Active; 'I' for Inactive)
REMARK    1  A    between atoms: C3_3  and  C7_7 
REMARK    2  A    between atoms: C3_3  and  O11_11 
ROOT
HETATM    1  C1  UNL     1     -42.177   6.371  -1.931  1.00 20.00    -0.070 C 
HETATM    2  C2  UNL     1     -42.664   6.686  -3.137  1.00 20.00    -0.027 C 
HETATM    3  C4  UNL     1     -41.342   7.298  -1.091  1.00 20.00     0.034 C 
HETATM    4  C5  UNL     1     -40.761   6.378  -0.026  1.00 20.00     0.005 C 
HETATM    5  C6  UNL     1     -41.838   5.316   0.179  1.00 20.00     0.019 C 
HETATM    6  C7  UNL     1     -42.399   5.064  -1.219  1.00 20.00     0.114 C 
HETATM    7  C8  UNL     1     -42.455   8.003  -3.802  1.00 20.00     0.036 C 
ENDROOT
BRANCH   6   8
HETATM    8  C3  UNL     1     -41.637   3.985  -1.928  1.00 20.00     0.266 C 
HETATM    9  O10 UNL     1     -40.418   3.888  -1.918  1.00 20.00    -0.265 OA
BRANCH   8  10
HETATM   10  O11 UNL     1     -42.511   3.155  -2.566  1.00 20.00    -0.326 OA
HETATM   11  C9  UNL     1     -41.913   2.172  -3.418  1.00 20.00     0.213 C 
ENDBRANCH   8  10
ENDBRANCH   6   8
TORSDOF 2
ENDMDL
