MODEL 1
REMARK VINA RESULT:      -4.4      0.000      0.000
REMARK  5 active torsions:
REMARK  status: ('A' for Active; 'I' for Inactive)
REMARK    1  A    between atoms: C5_5  and  C6_6 
REMARK    2  A    between atoms: C5_5  and  C7_7 
REMARK    3  A    between atoms: C6_6  and  C8_8 
REMARK    4  A    between atoms: C7_7  and  C9_9 
REMARK    5  A    between atoms: C8_8  and  O10_10 
ROOT
HETATM    1  C5  UNL     1     -34.475  15.098  -3.042  1.00 20.00     0.003 C 
ENDROOT
BRANCH   1   2
HETATM    2  C6  UNL     1     -33.594  14.079  -3.777  1.00 20.00     0.031 C 
BRANCH   2   3
HETATM    3  C8  UNL     1     -34.388  13.264  -4.804  1.00 20.00     0.114 C 
HETATM    4  C1  UNL     1     -35.008  14.159  -5.868  1.00 20.00     0.039 C 
BRANCH   3   5
HETATM    5  O10 UNL     1     -35.427  12.537  -4.154  1.00 20.00    -0.396 OA
HETATM    6  H30 UNL     1     -36.178  13.144  -4.070  1.00 20.00     0.210 HD
ENDBRANCH   3   5
ENDBRANCH   2   3
ENDBRANCH   1   2
BRANCH   1   7
HETATM    7  C7  UNL     1     -33.633  16.257  -2.495  1.00 20.00     0.008 C 
BRANCH   7   8
HETATM    8  C9  UNL     1     -34.419  17.372  -1.752  1.00 20.00    -0.051 C 
HETATM    9  C2  UNL     1     -33.648  18.702  -1.770  1.00 20.00     0.014 C 
HETATM   10  C3  UNL     1     -35.762  17.577  -2.480  1.00 20.00     0.014 C 
HETATM   11  C4  UNL     1     -34.708  16.974  -0.296  1.00 20.00     0.014 C 
ENDBRANCH   7   8
ENDBRANCH   1   7
TORSDOF 5
ENDMDL
MODEL 2
REMARK VINA RESULT:      -4.2      1.259      2.131
REMARK  5 active torsions:
REMARK  status: ('A' for Active; 'I' for Inactive)
REMARK    1  A    between atoms: C5_5  and  C6_6 
REMARK    2  A    between atoms: C5_5  and  C7_7 
REMARK    3  A    between atoms: C6_6  and  C8_8 
REMARK    4  A    between atoms: C7_7  and  C9_9 
REMARK    5  A    between atoms: C8_8  and  O10_10 
ROOT
HETATM    1  C5  UNL     1     -34.413  15.037  -3.015  1.00 20.00     0.003 C 
ENDROOT
BRANCH   1   2
HETATM    2  C6  UNL     1     -33.567  14.019  -3.790  1.00 20.00     0.031 C 
BRANCH   2   3
HETATM    3  C8  UNL     1     -34.397  13.238  -4.814  1.00 20.00     0.114 C 
HETATM    4  C1  UNL     1     -35.011  14.161  -5.857  1.00 20.00     0.039 C 
BRANCH   3   5
HETATM    5  O10 UNL     1     -35.445  12.529  -4.156  1.00 20.00    -0.396 OA
HETATM    6  H30 UNL     1     -35.306  12.651  -3.204  1.00 20.00     0.210 HD
ENDBRANCH   3   5
ENDBRANCH   2   3
ENDBRANCH   1   2
BRANCH   1   7
HETATM    7  C7  UNL     1     -33.660  16.363  -2.848  1.00 20.00     0.008 C 
BRANCH   7   8
HETATM    8  C9  UNL     1     -34.149  17.535  -3.741  1.00 20.00    -0.051 C 
HETATM    9  C2  UNL     1     -35.675  17.491  -3.930  1.00 20.00     0.014 C 
HETATM   10  C3  UNL     1     -33.782  18.857  -3.039  1.00 20.00     0.014 C 
HETATM   11  C4  UNL     1     -33.467  17.508  -5.118  1.00 20.00     0.014 C 
ENDBRANCH   7   8
ENDBRANCH   1   7
TORSDOF 5
ENDMDL
MODEL 3
REMARK VINA RESULT:      -4.2     10.573     11.675
REMARK  5 active torsions:
REMARK  status: ('A' for Active; 'I' for Inactive)
REMARK    1  A    between atoms: C5_5  and  C6_6 
REMARK    2  A    between atoms: C5_5  and  C7_7 
REMARK    3  A    between atoms: C6_6  and  C8_8 
REMARK    4  A    between atoms: C7_7  and  C9_9 
REMARK    5  A    between atoms: C8_8  and  O10_10 
ROOT
HETATM    1  C5  UNL     1     -33.030   6.436   2.873  1.00 20.00     0.003 C 
ENDROOT
BRANCH   1   2
HETATM    2  C6  UNL     1     -32.128   7.676   2.818  1.00 20.00     0.031 C 
BRANCH   2   3
HETATM    3  C8  UNL     1     -32.500   8.610   1.662  1.00 20.00     0.114 C 
HETATM    4  C1  UNL     1     -31.457   8.572   0.554  1.00 20.00     0.039 C 
BRANCH   3   5
HETATM    5  O10 UNL     1     -32.618   9.950   2.134  1.00 20.00    -0.396 OA
HETATM    6  H30 UNL     1     -33.261  10.391   1.557  1.00 20.00     0.210 HD
ENDBRANCH   3   5
ENDBRANCH   2   3
ENDBRANCH   1   2
BRANCH   1   7
HETATM    7  C7  UNL     1     -32.919   5.738   4.234  1.00 20.00     0.008 C 
BRANCH   7   8
HETATM    8  C9  UNL     1     -34.260   5.479   4.972  1.00 20.00    -0.051 C 
HETATM    9  C2  UNL     1     -34.346   4.029   5.479  1.00 20.00     0.014 C 
HETATM   10  C3  UNL     1     -34.329   6.425   6.188  1.00 20.00     0.014 C 
HETATM   11  C4  UNL     1     -35.463   5.769   4.060  1.00 20.00     0.014 C 
ENDBRANCH   7   8
ENDBRANCH   1   7
TORSDOF 5
ENDMDL
MODEL 4
REMARK VINA RESULT:      -4.2     10.568     11.595
REMARK  5 active torsions:
REMARK  status: ('A' for Active; 'I' for Inactive)
REMARK    1  A    between atoms: C5_5  and  C6_6 
REMARK    2  A    between atoms: C5_5  and  C7_7 
REMARK    3  A    between atoms: C6_6  and  C8_8 
REMARK    4  A    between atoms: C7_7  and  C9_9 
REMARK    5  A    between atoms: C8_8  and  O10_10 
ROOT
HETATM    1  C5  UNL     1     -33.146   6.505   2.879  1.00 20.00     0.003 C 
ENDROOT
BRANCH   1   2
HETATM    2  C6  UNL     1     -32.142   7.660   2.771  1.00 20.00     0.031 C 
BRANCH   2   3
HETATM    3  C8  UNL     1     -32.488   8.621   1.629  1.00 20.00     0.114 C 
HETATM    4  C1  UNL     1     -31.429   8.596   0.536  1.00 20.00     0.039 C 
BRANCH   3   5
HETATM    5  O10 UNL     1     -32.601   9.952   2.126  1.00 20.00    -0.396 OA
HETATM    6  H30 UNL     1     -32.893  10.502   1.383  1.00 20.00     0.210 HD
ENDBRANCH   3   5
ENDBRANCH   2   3
ENDBRANCH   1   2
BRANCH   1   7
HETATM    7  C7  UNL     1     -32.963   5.740   4.196  1.00 20.00     0.008 C 
BRANCH   7   8
HETATM    8  C9  UNL     1     -34.256   5.489   5.018  1.00 20.00    -0.051 C 
HETATM    9  C2  UNL     1     -34.327   6.418   6.241  1.00 20.00     0.014 C 
HETATM   10  C3  UNL     1     -35.465   5.786   4.110  1.00 20.00     0.014 C 
HETATM   11  C4  UNL     1     -34.344   4.028   5.486  1.00 20.00     0.014 C 
ENDBRANCH   7   8
ENDBRANCH   1   7
TORSDOF 5
ENDMDL
MODEL 5
REMARK VINA RESULT:      -4.1      1.930      2.583
REMARK  5 active torsions:
REMARK  status: ('A' for Active; 'I' for Inactive)
REMARK    1  A    between atoms: C5_5  and  C6_6 
REMARK    2  A    between atoms: C5_5  and  C7_7 
REMARK    3  A    between atoms: C6_6  and  C8_8 
REMARK    4  A    between atoms: C7_7  and  C9_9 
REMARK    5  A    between atoms: C8_8  and  O10_10 
ROOT
HETATM    1  C5  UNL     1     -33.779  16.497  -2.261  1.00 20.00     0.003 C 
ENDROOT
BRANCH   1   2
HETATM    2  C6  UNL     1     -34.588  16.011  -3.470  1.00 20.00     0.031 C 
BRANCH   2   3
HETATM    3  C8  UNL     1     -33.750  15.143  -4.415  1.00 20.00     0.114 C 
HETATM    4  C1  UNL     1     -33.474  13.771  -3.816  1.00 20.00     0.039 C 
BRANCH   3   5
HETATM    5  O10 UNL     1     -32.506  15.782  -4.691  1.00 20.00    -0.396 OA
HETATM    6  H30 UNL     1     -31.827  15.284  -4.210  1.00 20.00     0.210 HD
ENDBRANCH   3   5
ENDBRANCH   2   3
ENDBRANCH   1   2
BRANCH   1   7
HETATM    7  C7  UNL     1     -34.643  16.512  -0.993  1.00 20.00     0.008 C 
BRANCH   7   8
HETATM    8  C9  UNL     1     -34.631  17.836  -0.183  1.00 20.00    -0.051 C 
HETATM    9  C2  UNL     1     -35.507  18.907  -0.855  1.00 20.00     0.014 C 
HETATM   10  C3  UNL     1     -35.204  17.546   1.218  1.00 20.00     0.014 C 
HETATM   11  C4  UNL     1     -33.201  18.379  -0.023  1.00 20.00     0.014 C 
ENDBRANCH   7   8
ENDBRANCH   1   7
TORSDOF 5
ENDMDL
MODEL 6
REMARK VINA RESULT:      -4.0      2.214      4.432
REMARK  5 active torsions:
REMARK  status: ('A' for Active; 'I' for Inactive)
REMARK    1  A    between atoms: C5_5  and  C6_6 
REMARK    2  A    between atoms: C5_5  and  C7_7 
REMARK    3  A    between atoms: C6_6  and  C8_8 
REMARK    4  A    between atoms: C7_7  and  C9_9 
REMARK    5  A    between atoms: C8_8  and  O10_10 
ROOT
HETATM    1  C5  UNL     1     -35.035  13.923  -4.414  1.00 20.00     0.003 C 
ENDROOT
BRANCH   1   2
HETATM    2  C6  UNL     1     -33.602  13.680  -3.921  1.00 20.00     0.031 C 
BRANCH   2   3
HETATM    3  C8  UNL     1     -32.914  14.978  -3.486  1.00 20.00     0.114 C 
HETATM    4  C1  UNL     1     -33.907  15.963  -2.884  1.00 20.00     0.039 C 
BRANCH   3   5
HETATM    5  O10 UNL     1     -32.279  15.594  -4.603  1.00 20.00    -0.396 OA
HETATM    6  H30 UNL     1     -32.555  16.523  -4.601  1.00 20.00     0.210 HD
ENDBRANCH   3   5
ENDBRANCH   2   3
ENDBRANCH   1   2
BRANCH   1   7
HETATM    7  C7  UNL     1     -35.093  13.937  -5.947  1.00 20.00     0.008 C 
BRANCH   7   8
HETATM    8  C9  UNL     1     -35.640  15.239  -6.590  1.00 20.00    -0.051 C 
HETATM    9  C2  UNL     1     -34.495  16.141  -7.081  1.00 20.00     0.014 C 
HETATM   10  C3  UNL     1     -36.506  14.847  -7.804  1.00 20.00     0.014 C 
HETATM   11  C4  UNL     1     -36.516  16.025  -5.600  1.00 20.00     0.014 C 
ENDBRANCH   7   8
ENDBRANCH   1   7
TORSDOF 5
ENDMDL
MODEL 7
REMARK VINA RESULT:      -4.0      1.182      2.025
REMARK  5 active torsions:
REMARK  status: ('A' for Active; 'I' for Inactive)
REMARK    1  A    between atoms: C5_5  and  C6_6 
REMARK    2  A    between atoms: C5_5  and  C7_7 
REMARK    3  A    between atoms: C6_6  and  C8_8 
REMARK    4  A    between atoms: C7_7  and  C9_9 
REMARK    5  A    between atoms: C8_8  and  O10_10 
ROOT
HETATM    1  C5  UNL     1     -35.887  16.014  -4.438  1.00 20.00     0.003 C 
ENDROOT
BRANCH   1   2
HETATM    2  C6  UNL     1     -35.163  14.777  -4.985  1.00 20.00     0.031 C 
BRANCH   2   3
HETATM    3  C8  UNL     1     -34.789  13.788  -3.875  1.00 20.00     0.114 C 
HETATM    4  C1  UNL     1     -33.280  13.629  -3.755  1.00 20.00     0.039 C 
BRANCH   3   5
HETATM    5  O10 UNL     1     -35.365  12.512  -4.141  1.00 20.00    -0.396 OA
HETATM    6  H30 UNL     1     -35.793  12.577  -5.009  1.00 20.00     0.210 HD
ENDBRANCH   3   5
ENDBRANCH   2   3
ENDBRANCH   1   2
BRANCH   1   7
HETATM    7  C7  UNL     1     -35.922  15.995  -2.904  1.00 20.00     0.008 C 
BRANCH   7   8
HETATM    8  C9  UNL     1     -35.089  17.098  -2.196  1.00 20.00    -0.051 C 
HETATM    9  C2  UNL     1     -34.602  16.626  -0.815  1.00 20.00     0.014 C 
HETATM   10  C3  UNL     1     -33.856  17.402  -3.070  1.00 20.00     0.014 C 
HETATM   11  C4  UNL     1     -35.902  18.392  -2.031  1.00 20.00     0.014 C 
ENDBRANCH   7   8
ENDBRANCH   1   7
TORSDOF 5
ENDMDL
MODEL 8
REMARK VINA RESULT:      -4.0      2.412      5.026
REMARK  5 active torsions:
REMARK  status: ('A' for Active; 'I' for Inactive)
REMARK    1  A    between atoms: C5_5  and  C6_6 
REMARK    2  A    between atoms: C5_5  and  C7_7 
REMARK    3  A    between atoms: C6_6  and  C8_8 
REMARK    4  A    between atoms: C7_7  and  C9_9 
REMARK    5  A    between atoms: C8_8  and  O10_10 
ROOT
HETATM    1  C5  UNL     1     -34.708  16.225  -1.568  1.00 20.00     0.003 C 
ENDROOT
BRANCH   1   2
HETATM    2  C6  UNL     1     -34.163  17.276  -0.592  1.00 20.00     0.031 C 
BRANCH   2   3
HETATM    3  C8  UNL     1     -35.284  18.007   0.155  1.00 20.00     0.114 C 
HETATM    4  C1  UNL     1     -35.366  17.565   1.609  1.00 20.00     0.039 C 
BRANCH   3   5
HETATM    5  O10 UNL     1     -36.538  17.751  -0.473  1.00 20.00    -0.396 OA
HETATM    6  H30 UNL     1     -36.515  18.202  -1.330  1.00 20.00     0.210 HD
ENDBRANCH   3   5
ENDBRANCH   2   3
ENDBRANCH   1   2
BRANCH   1   7
HETATM    7  C7  UNL     1     -33.761  16.042  -2.761  1.00 20.00     0.008 C 
BRANCH   7   8
HETATM    8  C9  UNL     1     -34.246  15.061  -3.863  1.00 20.00    -0.051 C 
HETATM    9  C2  UNL     1     -34.028  15.651  -5.267  1.00 20.00     0.014 C 
HETATM   10  C3  UNL     1     -33.422  13.764  -3.746  1.00 20.00     0.014 C 
HETATM   11  C4  UNL     1     -35.733  14.714  -3.685  1.00 20.00     0.014 C 
ENDBRANCH   7   8
ENDBRANCH   1   7
TORSDOF 5
ENDMDL
MODEL 9
REMARK VINA RESULT:      -3.9      2.824      5.197
REMARK  5 active torsions:
REMARK  status: ('A' for Active; 'I' for Inactive)
REMARK    1  A    between atoms: C5_5  and  C6_6 
REMARK    2  A    between atoms: C5_5  and  C7_7 
REMARK    3  A    between atoms: C6_6  and  C8_8 
REMARK    4  A    between atoms: C7_7  and  C9_9 
REMARK    5  A    between atoms: C8_8  and  O10_10 
ROOT
HETATM    1  C5  UNL     1     -34.043  16.539  -1.814  1.00 20.00     0.003 C 
ENDROOT
BRANCH   1   2
HETATM    2  C6  UNL     1     -34.700  16.850  -0.462  1.00 20.00     0.031 C 
BRANCH   2   3
HETATM    3  C8  UNL     1     -34.228  18.189   0.114  1.00 20.00     0.114 C 
HETATM    4  C1  UNL     1     -32.803  18.511  -0.314  1.00 20.00     0.039 C 
BRANCH   3   5
HETATM    5  O10 UNL     1     -34.282  18.155   1.538  1.00 20.00    -0.396 OA
HETATM    6  H30 UNL     1     -33.532  17.615   1.830  1.00 20.00     0.210 HD
ENDBRANCH   3   5
ENDBRANCH   2   3
ENDBRANCH   1   2
BRANCH   1   7
HETATM    7  C7  UNL     1     -34.853  15.492  -2.589  1.00 20.00     0.008 C 
BRANCH   7   8
HETATM    8  C9  UNL     1     -34.163  14.900  -3.848  1.00 20.00    -0.051 C 
HETATM    9  C2  UNL     1     -34.380  15.799  -5.076  1.00 20.00     0.014 C 
HETATM   10  C3  UNL     1     -32.650  14.813  -3.568  1.00 20.00     0.014 C 
HETATM   11  C4  UNL     1     -34.684  13.487  -4.156  1.00 20.00     0.014 C 
ENDBRANCH   7   8
ENDBRANCH   1   7
TORSDOF 5
ENDMDL
