MODEL 1
REMARK VINA RESULT:      -4.1      0.000      0.000
REMARK  1 active torsions:
REMARK  status: ('A' for Active; 'I' for Inactive)
REMARK    1  A    between atoms: C1_1  and  C4_4 
ROOT
HETATM    1  C2  UNL     1     -35.388  15.595  -4.644  1.00 20.00     0.035 C 
HETATM    2  C3  UNL     1     -33.276  15.865  -4.427  1.00 20.00     0.035 C 
HETATM    3  C4  UNL     1     -34.156  14.733  -5.006  1.00 20.00     0.089 C 
HETATM    4  C5  UNL     1     -34.505  16.371  -3.641  1.00 20.00     0.084 C 
HETATM    5 CL8  UNL     1     -34.627  15.925  -1.899  1.00 20.00    -0.125 Cl
ENDROOT
BRANCH   3   6
HETATM    6  C1  UNL     1     -34.063  13.425  -4.294  1.00 20.00     0.177 C 
HETATM    7  O6  UNL     1     -32.946  13.182  -3.759  1.00 20.00    -0.648 OA
HETATM    8  O7  UNL     1     -35.117  12.731  -4.320  1.00 20.00    -0.648 OA
ENDBRANCH   3   6
TORSDOF 1
ENDMDL
MODEL 2
REMARK VINA RESULT:      -4.0      1.934      2.321
REMARK  1 active torsions:
REMARK  status: ('A' for Active; 'I' for Inactive)
REMARK    1  A    between atoms: C1_1  and  C4_4 
ROOT
HETATM    1  C2  UNL     1     -32.912  14.371  -3.726  1.00 20.00     0.035 C 
HETATM    2  C3  UNL     1     -34.500  15.671  -3.118  1.00 20.00     0.035 C 
HETATM    3  C4  UNL     1     -34.353  14.135  -3.217  1.00 20.00     0.089 C 
HETATM    4  C5  UNL     1     -33.320  15.812  -4.105  1.00 20.00     0.084 C 
HETATM    5 CL8  UNL     1     -33.711  16.144  -5.833  1.00 20.00    -0.125 Cl
ENDROOT
BRANCH   3   6
HETATM    6  C1  UNL     1     -35.270  13.468  -4.187  1.00 20.00     0.177 C 
HETATM    7  O6  UNL     1     -34.735  12.587  -4.915  1.00 20.00    -0.648 OA
HETATM    8  O7  UNL     1     -36.464  13.875  -4.154  1.00 20.00    -0.648 OA
ENDBRANCH   3   6
TORSDOF 1
ENDMDL
MODEL 3
REMARK VINA RESULT:      -4.0      1.890      2.474
REMARK  1 active torsions:
REMARK  status: ('A' for Active; 'I' for Inactive)
REMARK    1  A    between atoms: C1_1  and  C4_4 
ROOT
HETATM    1  C2  UNL     1     -33.418  15.862  -4.008  1.00 20.00     0.035 C 
HETATM    2  C3  UNL     1     -35.513  15.503  -4.249  1.00 20.00     0.035 C 
HETATM    3  C4  UNL     1     -34.390  14.794  -3.457  1.00 20.00     0.089 C 
HETATM    4  C5  UNL     1     -34.430  16.150  -5.139  1.00 20.00     0.084 C 
HETATM    5 CL8  UNL     1     -34.117  15.405  -6.751  1.00 20.00    -0.125 Cl
ENDROOT
BRANCH   3   6
HETATM    6  C1  UNL     1     -34.100  13.392  -3.879  1.00 20.00     0.177 C 
HETATM    7  O6  UNL     1     -35.093  12.744  -4.310  1.00 20.00    -0.648 OA
HETATM    8  O7  UNL     1     -32.896  13.037  -3.747  1.00 20.00    -0.648 OA
ENDBRANCH   3   6
TORSDOF 1
ENDMDL
MODEL 4
REMARK VINA RESULT:      -3.9      1.115      1.556
REMARK  1 active torsions:
REMARK  status: ('A' for Active; 'I' for Inactive)
REMARK    1  A    between atoms: C1_1  and  C4_4 
ROOT
HETATM    1  C2  UNL     1     -34.464  16.307  -4.489  1.00 20.00     0.035 C 
HETATM    2  C3  UNL     1     -33.023  14.933  -3.705  1.00 20.00     0.035 C 
HETATM    3  C4  UNL     1     -34.184  14.804  -4.719  1.00 20.00     0.089 C 
HETATM    4  C5  UNL     1     -33.692  16.211  -3.154  1.00 20.00     0.084 C 
HETATM    5 CL8  UNL     1     -34.658  16.063  -1.639  1.00 20.00    -0.125 Cl
ENDROOT
BRANCH   3   6
HETATM    6  C1  UNL     1     -35.284  13.882  -4.314  1.00 20.00     0.177 C 
HETATM    7  O6  UNL     1     -36.406  14.431  -4.132  1.00 20.00    -0.648 OA
HETATM    8  O7  UNL     1     -34.948  12.671  -4.204  1.00 20.00    -0.648 OA
ENDBRANCH   3   6
TORSDOF 1
ENDMDL
MODEL 5
REMARK VINA RESULT:      -3.7     12.000     12.593
REMARK  1 active torsions:
REMARK  status: ('A' for Active; 'I' for Inactive)
REMARK    1  A    between atoms: C1_1  and  C4_4 
ROOT
HETATM    1  C2  UNL     1     -35.580   5.580   4.269  1.00 20.00     0.035 C 
HETATM    2  C3  UNL     1     -34.077   6.275   5.624  1.00 20.00     0.035 C 
HETATM    3  C4  UNL     1     -34.322   6.464   4.109  1.00 20.00     0.089 C 
HETATM    4  C5  UNL     1     -34.979   5.022   5.579  1.00 20.00     0.084 C 
HETATM    5 CL8  UNL     1     -34.172   3.412   5.510  1.00 20.00    -0.125 Cl
ENDROOT
BRANCH   3   6
HETATM    6  C1  UNL     1     -33.262   5.907   3.219  1.00 20.00     0.177 C 
HETATM    7  O6  UNL     1     -32.088   6.291   3.475  1.00 20.00    -0.648 OA
HETATM    8  O7  UNL     1     -33.681   5.124   2.322  1.00 20.00    -0.648 OA
ENDBRANCH   3   6
TORSDOF 1
ENDMDL
MODEL 6
REMARK VINA RESULT:      -3.7      1.623      1.871
REMARK  1 active torsions:
REMARK  status: ('A' for Active; 'I' for Inactive)
REMARK    1  A    between atoms: C1_1  and  C4_4 
ROOT
HETATM    1  C2  UNL     1     -35.192  15.637  -3.113  1.00 20.00     0.035 C 
HETATM    2  C3  UNL     1     -35.851  15.334  -5.127  1.00 20.00     0.035 C 
HETATM    3  C4  UNL     1     -35.669  14.399  -3.908  1.00 20.00     0.089 C 
HETATM    4  C5  UNL     1     -34.888  16.338  -4.456  1.00 20.00     0.084 C 
HETATM    5 CL8  UNL     1     -33.176  16.360  -5.019  1.00 20.00    -0.125 Cl
ENDROOT
BRANCH   3   6
HETATM    6  C1  UNL     1     -34.653  13.321  -4.078  1.00 20.00     0.177 C 
HETATM    7  O6  UNL     1     -33.681  13.366  -3.273  1.00 20.00    -0.648 OA
HETATM    8  O7  UNL     1     -34.898  12.503  -5.007  1.00 20.00    -0.648 OA
ENDBRANCH   3   6
TORSDOF 1
ENDMDL
MODEL 7
REMARK VINA RESULT:      -3.6     12.320     13.173
REMARK  1 active torsions:
REMARK  status: ('A' for Active; 'I' for Inactive)
REMARK    1  A    between atoms: C1_1  and  C4_4 
ROOT
HETATM    1  C2  UNL     1     -33.989   6.627   5.353  1.00 20.00     0.035 C 
HETATM    2  C3  UNL     1     -35.093   5.850   3.692  1.00 20.00     0.035 C 
HETATM    3  C4  UNL     1     -35.043   5.506   5.199  1.00 20.00     0.089 C 
HETATM    4  C5  UNL     1     -33.713   6.526   3.836  1.00 20.00     0.084 C 
HETATM    5 CL8  UNL     1     -32.264   5.591   3.311  1.00 20.00    -0.125 Cl
ENDROOT
BRANCH   3   6
HETATM    6  C1  UNL     1     -34.561   4.131   5.523  1.00 20.00     0.177 C 
HETATM    7  O6  UNL     1     -34.970   3.222   4.750  1.00 20.00    -0.648 OA
HETATM    8  O7  UNL     1     -33.807   4.058   6.532  1.00 20.00    -0.648 OA
ENDBRANCH   3   6
TORSDOF 1
ENDMDL
MODEL 8
REMARK VINA RESULT:      -3.6      2.709      3.209
REMARK  1 active torsions:
REMARK  status: ('A' for Active; 'I' for Inactive)
REMARK    1  A    between atoms: C1_1  and  C4_4 
ROOT
HETATM    1  C2  UNL     1     -35.639  14.659  -3.541  1.00 20.00     0.035 C 
HETATM    2  C3  UNL     1     -33.722  13.758  -3.847  1.00 20.00     0.035 C 
HETATM    3  C4  UNL     1     -34.188  15.107  -3.251  1.00 20.00     0.089 C 
HETATM    4  C5  UNL     1     -35.083  13.647  -4.568  1.00 20.00     0.084 C 
HETATM    5 CL8  UNL     1     -35.148  14.102  -6.310  1.00 20.00    -0.125 Cl
ENDROOT
BRANCH   3   6
HETATM    6  C1  UNL     1     -33.736  16.321  -3.990  1.00 20.00     0.177 C 
HETATM    7  O6  UNL     1     -32.689  16.173  -4.679  1.00 20.00    -0.648 OA
HETATM    8  O7  UNL     1     -34.462  17.341  -3.828  1.00 20.00    -0.648 OA
ENDBRANCH   3   6
TORSDOF 1
ENDMDL
MODEL 9
REMARK VINA RESULT:      -3.6      2.710      3.319
REMARK  1 active torsions:
REMARK  status: ('A' for Active; 'I' for Inactive)
REMARK    1  A    between atoms: C1_1  and  C4_4 
ROOT
HETATM    1  C2  UNL     1     -35.621  14.668  -3.546  1.00 20.00     0.035 C 
HETATM    2  C3  UNL     1     -33.702  13.769  -3.844  1.00 20.00     0.035 C 
HETATM    3  C4  UNL     1     -34.171  15.123  -3.262  1.00 20.00     0.089 C 
HETATM    4  C5  UNL     1     -35.064  13.646  -4.562  1.00 20.00     0.084 C 
HETATM    5 CL8  UNL     1     -35.131  14.081  -6.309  1.00 20.00    -0.125 Cl
ENDROOT
BRANCH   3   6
HETATM    6  C1  UNL     1     -33.723  16.330  -4.016  1.00 20.00     0.177 C 
HETATM    7  O6  UNL     1     -34.449  17.353  -3.874  1.00 20.00    -0.648 OA
HETATM    8  O7  UNL     1     -32.674  16.170  -4.699  1.00 20.00    -0.648 OA
ENDBRANCH   3   6
TORSDOF 1
ENDMDL
