MODEL 1
REMARK VINA RESULT:      -4.7      0.000      0.000
REMARK  1 active torsions:
REMARK  status: ('A' for Active; 'I' for Inactive)
REMARK    1  A    between atoms: C4_4  and  C7_7 
ROOT
HETATM    1  C1  UNL     1     -33.218  13.808  -3.798  1.00 20.00     0.035 A 
HETATM    2  C2  UNL     1     -32.769  15.046  -3.570  1.00 20.00    -0.008 A 
HETATM    3  C3  UNL     1     -34.685  13.751  -3.852  1.00 20.00     0.085 A 
HETATM    4  C4  UNL     1     -33.767  16.148  -3.411  1.00 20.00     0.080 A 
HETATM    5  N8  UNL     1     -35.400  12.702  -4.054  1.00 20.00    -0.293 NA
HETATM    6  S9  UNL     1     -35.392  15.332  -3.604  1.00 20.00    -0.102 SA
HETATM    7  H20 UNL     1     -34.787  11.887  -4.175  1.00 20.00     0.187 HD
ENDROOT
BRANCH   4   8
HETATM    8  C7  UNL     1     -33.672  16.825  -2.051  1.00 20.00    -0.005 C 
HETATM    9  C5  UNL     1     -33.663  18.346  -2.203  1.00 20.00     0.011 C 
HETATM   10  C6  UNL     1     -34.824  16.387  -1.146  1.00 20.00     0.011 C 
ENDBRANCH   4   8
TORSDOF 1
ENDMDL
MODEL 2
REMARK VINA RESULT:      -4.5     11.501     12.357
REMARK  1 active torsions:
REMARK  status: ('A' for Active; 'I' for Inactive)
REMARK    1  A    between atoms: C4_4  and  C7_7 
ROOT
HETATM    1  C1  UNL     1     -35.337   4.884   4.108  1.00 20.00     0.035 A 
HETATM    2  C2  UNL     1     -34.739   5.840   3.391  1.00 20.00    -0.008 A 
HETATM    3  C3  UNL     1     -34.980   4.951   5.531  1.00 20.00     0.085 A 
HETATM    4  C4  UNL     1     -33.835   6.800   4.098  1.00 20.00     0.080 A 
HETATM    5  N8  UNL     1     -35.396   4.166   6.459  1.00 20.00    -0.293 NA
HETATM    6  S9  UNL     1     -33.879   6.274   5.848  1.00 20.00    -0.102 SA
HETATM    7  H20 UNL     1     -36.030   3.465   6.057  1.00 20.00     0.187 HD
ENDROOT
BRANCH   4   8
HETATM    8  C7  UNL     1     -32.411   6.755   3.566  1.00 20.00    -0.005 C 
HETATM    9  C5  UNL     1     -32.113   5.398   2.928  1.00 20.00     0.011 C 
HETATM   10  C6  UNL     1     -32.172   7.881   2.560  1.00 20.00     0.011 C 
ENDBRANCH   4   8
TORSDOF 1
ENDMDL
MODEL 3
REMARK VINA RESULT:      -4.2      1.942      2.243
REMARK  1 active torsions:
REMARK  status: ('A' for Active; 'I' for Inactive)
REMARK    1  A    between atoms: C4_4  and  C7_7 
ROOT
HETATM    1  C1  UNL     1     -34.475  13.685  -4.890  1.00 20.00     0.035 A 
HETATM    2  C2  UNL     1     -34.405  13.902  -3.573  1.00 20.00    -0.008 A 
HETATM    3  C3  UNL     1     -34.119  14.879  -5.669  1.00 20.00     0.085 A 
HETATM    4  C4  UNL     1     -33.994  15.259  -3.095  1.00 20.00     0.080 A 
HETATM    5  N8  UNL     1     -34.096  14.973  -6.950  1.00 20.00    -0.293 NA
HETATM    6  S9  UNL     1     -33.707  16.220  -4.623  1.00 20.00    -0.102 SA
HETATM    7  H20 UNL     1     -34.369  14.075  -7.366  1.00 20.00     0.187 HD
ENDROOT
BRANCH   4   8
HETATM    8  C7  UNL     1     -35.066  15.923  -2.244  1.00 20.00    -0.005 C 
HETATM    9  C5  UNL     1     -34.439  16.654  -1.056  1.00 20.00     0.011 C 
HETATM   10  C6  UNL     1     -35.902  16.890  -3.083  1.00 20.00     0.011 C 
ENDBRANCH   4   8
TORSDOF 1
ENDMDL
MODEL 4
REMARK VINA RESULT:      -4.1      1.761      1.914
REMARK  1 active torsions:
REMARK  status: ('A' for Active; 'I' for Inactive)
REMARK    1  A    between atoms: C4_4  and  C7_7 
ROOT
HETATM    1  C1  UNL     1     -33.460  13.953  -3.437  1.00 20.00     0.035 A 
HETATM    2  C2  UNL     1     -32.862  15.115  -3.715  1.00 20.00    -0.008 A 
HETATM    3  C3  UNL     1     -34.587  13.679  -4.338  1.00 20.00     0.085 A 
HETATM    4  C4  UNL     1     -33.391  15.936  -4.849  1.00 20.00     0.080 A 
HETATM    5  N8  UNL     1     -35.348  12.644  -4.313  1.00 20.00    -0.293 NA
HETATM    6  S9  UNL     1     -34.793  14.965  -5.507  1.00 20.00    -0.102 SA
HETATM    7  H20 UNL     1     -35.053  12.019  -3.554  1.00 20.00     0.187 HD
ENDROOT
BRANCH   4   8
HETATM    8  C7  UNL     1     -33.863  17.311  -4.399  1.00 20.00    -0.005 C 
HETATM    9  C5  UNL     1     -33.586  18.358  -5.478  1.00 20.00     0.011 C 
HETATM   10  C6  UNL     1     -35.351  17.286  -4.050  1.00 20.00     0.011 C 
ENDBRANCH   4   8
TORSDOF 1
ENDMDL
MODEL 5
REMARK VINA RESULT:      -4.0      2.800      4.316
REMARK  1 active torsions:
REMARK  status: ('A' for Active; 'I' for Inactive)
REMARK    1  A    between atoms: C4_4  and  C7_7 
ROOT
HETATM    1  C1  UNL     1     -34.080  17.398  -0.614  1.00 20.00     0.035 A 
HETATM    2  C2  UNL     1     -34.800  16.377  -1.087  1.00 20.00    -0.008 A 
HETATM    3  C3  UNL     1     -33.506  18.219  -1.689  1.00 20.00     0.085 A 
HETATM    4  C4  UNL     1     -34.921  16.216  -2.569  1.00 20.00     0.080 A 
HETATM    5  N8  UNL     1     -32.770  19.262  -1.542  1.00 20.00    -0.293 NA
HETATM    6  S9  UNL     1     -33.953  17.602  -3.265  1.00 20.00    -0.102 SA
HETATM    7  H20 UNL     1     -32.634  19.447  -0.541  1.00 20.00     0.187 HD
ENDROOT
BRANCH   4   8
HETATM    8  C7  UNL     1     -34.367  14.885  -3.055  1.00 20.00    -0.005 C 
HETATM    9  C5  UNL     1     -35.344  14.210  -4.018  1.00 20.00     0.011 C 
HETATM   10  C6  UNL     1     -33.006  15.077  -3.726  1.00 20.00     0.011 C 
ENDBRANCH   4   8
TORSDOF 1
ENDMDL
MODEL 6
REMARK VINA RESULT:      -3.9      1.792      2.580
REMARK  1 active torsions:
REMARK  status: ('A' for Active; 'I' for Inactive)
REMARK    1  A    between atoms: C4_4  and  C7_7 
ROOT
HETATM    1  C1  UNL     1     -36.196  13.996  -4.219  1.00 20.00     0.035 A 
HETATM    2  C2  UNL     1     -35.022  14.467  -4.650  1.00 20.00    -0.008 A 
HETATM    3  C3  UNL     1     -37.012  15.039  -3.583  1.00 20.00     0.085 A 
HETATM    4  C4  UNL     1     -34.715  15.917  -4.442  1.00 20.00     0.080 A 
HETATM    5  N8  UNL     1     -38.183  14.886  -3.074  1.00 20.00    -0.293 NA
HETATM    6  S9  UNL     1     -36.191  16.584  -3.594  1.00 20.00    -0.102 SA
HETATM    7  H20 UNL     1     -38.475  13.907  -3.174  1.00 20.00     0.187 HD
ENDROOT
BRANCH   4   8
HETATM    8  C7  UNL     1     -33.473  16.129  -3.590  1.00 20.00    -0.005 C 
HETATM    9  C5  UNL     1     -33.855  16.526  -2.164  1.00 20.00     0.011 C 
HETATM   10  C6  UNL     1     -32.602  14.873  -3.578  1.00 20.00     0.011 C 
ENDBRANCH   4   8
TORSDOF 1
ENDMDL
MODEL 7
REMARK VINA RESULT:      -3.9      2.596      4.006
REMARK  1 active torsions:
REMARK  status: ('A' for Active; 'I' for Inactive)
REMARK    1  A    between atoms: C4_4  and  C7_7 
ROOT
HETATM    1  C1  UNL     1     -34.114  14.170  -3.325  1.00 20.00     0.035 A 
HETATM    2  C2  UNL     1     -34.176  13.601  -4.532  1.00 20.00    -0.008 A 
HETATM    3  C3  UNL     1     -35.141  15.204  -3.145  1.00 20.00     0.085 A 
HETATM    4  C4  UNL     1     -35.230  14.066  -5.487  1.00 20.00     0.080 A 
HETATM    5  N8  UNL     1     -35.326  15.920  -2.094  1.00 20.00    -0.293 NA
HETATM    6  S9  UNL     1     -36.137  15.365  -4.575  1.00 20.00    -0.102 SA
HETATM    7  H20 UNL     1     -34.636  15.663  -1.379  1.00 20.00     0.187 HD
ENDROOT
BRANCH   4   8
HETATM    8  C7  UNL     1     -34.640  14.633  -6.770  1.00 20.00    -0.005 C 
HETATM    9  C5  UNL     1     -35.649  14.541  -7.916  1.00 20.00     0.011 C 
HETATM   10  C6  UNL     1     -34.193  16.080  -6.569  1.00 20.00     0.011 C 
ENDBRANCH   4   8
TORSDOF 1
ENDMDL
MODEL 8
REMARK VINA RESULT:      -3.9      1.510      2.197
REMARK  1 active torsions:
REMARK  status: ('A' for Active; 'I' for Inactive)
REMARK    1  A    between atoms: C4_4  and  C7_7 
ROOT
HETATM    1  C1  UNL     1     -35.994  14.511  -3.704  1.00 20.00     0.035 A 
HETATM    2  C2  UNL     1     -35.650  15.618  -3.041  1.00 20.00    -0.008 A 
HETATM    3  C3  UNL     1     -34.824  13.741  -4.145  1.00 20.00     0.085 A 
HETATM    4  C4  UNL     1     -34.196  15.909  -2.845  1.00 20.00     0.080 A 
HETATM    5  N8  UNL     1     -34.841  12.637  -4.803  1.00 20.00    -0.293 NA
HETATM    6  S9  UNL     1     -33.333  14.516  -3.657  1.00 20.00    -0.102 SA
HETATM    7  H20 UNL     1     -35.813  12.361  -4.984  1.00 20.00     0.187 HD
ENDROOT
BRANCH   4   8
HETATM    8  C7  UNL     1     -33.778  17.230  -3.474  1.00 20.00    -0.005 C 
HETATM    9  C5  UNL     1     -33.400  17.036  -4.942  1.00 20.00     0.011 C 
HETATM   10  C6  UNL     1     -34.892  18.268  -3.343  1.00 20.00     0.011 C 
ENDBRANCH   4   8
TORSDOF 1
ENDMDL
MODEL 9
REMARK VINA RESULT:      -3.9      1.857      2.524
REMARK  1 active torsions:
REMARK  status: ('A' for Active; 'I' for Inactive)
REMARK    1  A    between atoms: C4_4  and  C7_7 
ROOT
HETATM    1  C1  UNL     1     -34.834  14.322  -5.913  1.00 20.00     0.035 A 
HETATM    2  C2  UNL     1     -34.964  15.644  -6.053  1.00 20.00    -0.008 A 
HETATM    3  C3  UNL     1     -35.277  13.857  -4.592  1.00 20.00     0.085 A 
HETATM    4  C4  UNL     1     -35.516  16.432  -4.907  1.00 20.00     0.080 A 
HETATM    5  N8  UNL     1     -35.269  12.644  -4.168  1.00 20.00    -0.293 NA
HETATM    6  S9  UNL     1     -35.845  15.188  -3.609  1.00 20.00    -0.102 SA
HETATM    7  H20 UNL     1     -34.900  12.027  -4.902  1.00 20.00     0.187 HD
ENDROOT
BRANCH   4   8
HETATM    8  C7  UNL     1     -34.537  17.481  -4.401  1.00 20.00    -0.005 C 
HETATM    9  C5  UNL     1     -33.819  16.991  -3.144  1.00 20.00     0.011 C 
HETATM   10  C6  UNL     1     -33.524  17.846  -5.486  1.00 20.00     0.011 C 
ENDBRANCH   4   8
TORSDOF 1
ENDMDL
