MODEL 1
REMARK VINA RESULT:      -5.2      0.000      0.000
REMARK  3 active torsions:
REMARK  status: ('A' for Active; 'I' for Inactive)
REMARK    1  A    between atoms: C2_2  and  C9_9 
REMARK    2  A    between atoms: C7_7  and  C9_9 
REMARK    3  A    between atoms: C8_8  and  O10_10 
ROOT
HETATM    1  C3  UNL     1     -33.640   6.639   6.362  1.00 20.00     0.003 C 
HETATM    2  C4  UNL     1     -33.386   7.167   4.950  1.00 20.00     0.005 C 
HETATM    3  C5  UNL     1     -34.748   5.592   6.380  1.00 20.00     0.032 C 
HETATM    4  C6  UNL     1     -34.212   4.982   3.986  1.00 20.00     0.036 C 
HETATM    5  C7  UNL     1     -33.091   6.029   3.962  1.00 20.00    -0.009 C 
HETATM    6  C8  UNL     1     -34.462   4.457   5.399  1.00 20.00     0.118 C 
ENDROOT
BRANCH   5   7
HETATM    7  C9  UNL     1     -32.896   6.579   2.551  1.00 20.00     0.031 C 
BRANCH   7   8
HETATM    8  C2  UNL     1     -32.093   7.842   2.569  1.00 20.00    -0.037 C 
HETATM    9  C1  UNL     1     -32.054   8.716   1.557  1.00 20.00     0.007 C 
ENDBRANCH   7   8
ENDBRANCH   5   7
BRANCH   6  10
HETATM   10  O10 UNL     1     -35.561   3.552   5.384  1.00 20.00    -0.396 OA
HETATM   11  H26 UNL     1     -36.133   3.821   4.647  1.00 20.00     0.210 HD
ENDBRANCH   6  10
TORSDOF 3
ENDMDL
MODEL 2
REMARK VINA RESULT:      -4.9     11.447     12.622
REMARK  3 active torsions:
REMARK  status: ('A' for Active; 'I' for Inactive)
REMARK    1  A    between atoms: C2_2  and  C9_9 
REMARK    2  A    between atoms: C7_7  and  C9_9 
REMARK    3  A    between atoms: C8_8  and  O10_10 
ROOT
HETATM    1  C3  UNL     1     -34.330  15.839  -5.795  1.00 20.00     0.003 C 
HETATM    2  C4  UNL     1     -33.697  16.453  -4.548  1.00 20.00     0.005 C 
HETATM    3  C5  UNL     1     -34.494  14.330  -5.658  1.00 20.00     0.032 C 
HETATM    4  C6  UNL     1     -34.637  14.574  -3.146  1.00 20.00     0.036 C 
HETATM    5  C7  UNL     1     -34.480  16.093  -3.276  1.00 20.00    -0.009 C 
HETATM    6  C8  UNL     1     -35.271  13.963  -4.395  1.00 20.00     0.118 C 
ENDROOT
BRANCH   5   7
HETATM    7  C9  UNL     1     -33.796  16.674  -2.041  1.00 20.00     0.031 C 
BRANCH   7   8
HETATM    8  C2  UNL     1     -34.680  16.576  -0.837  1.00 20.00    -0.037 C 
HETATM    9  C1  UNL     1     -34.642  17.433   0.189  1.00 20.00     0.007 C 
ENDBRANCH   7   8
ENDBRANCH   5   7
BRANCH   6  10
HETATM   10  O10 UNL     1     -35.322  12.547  -4.261  1.00 20.00    -0.396 OA
HETATM   11  H26 UNL     1     -35.501  12.362  -3.325  1.00 20.00     0.210 HD
ENDBRANCH   6  10
TORSDOF 3
ENDMDL
MODEL 3
REMARK VINA RESULT:      -4.9     11.569     12.191
REMARK  3 active torsions:
REMARK  status: ('A' for Active; 'I' for Inactive)
REMARK    1  A    between atoms: C2_2  and  C9_9 
REMARK    2  A    between atoms: C7_7  and  C9_9 
REMARK    3  A    between atoms: C8_8  and  O10_10 
ROOT
HETATM    1  C3  UNL     1     -34.010  13.758  -4.610  1.00 20.00     0.003 C 
HETATM    2  C4  UNL     1     -33.454  14.639  -3.493  1.00 20.00     0.005 C 
HETATM    3  C5  UNL     1     -35.456  13.355  -4.342  1.00 20.00     0.032 C 
HETATM    4  C6  UNL     1     -35.788  15.457  -2.977  1.00 20.00     0.036 C 
HETATM    5  C7  UNL     1     -34.337  15.872  -3.248  1.00 20.00    -0.009 C 
HETATM    6  C8  UNL     1     -36.340  14.576  -4.097  1.00 20.00     0.118 C 
ENDROOT
BRANCH   5   7
HETATM    7  C9  UNL     1     -33.789  16.705  -2.092  1.00 20.00     0.031 C 
BRANCH   7   8
HETATM    8  C2  UNL     1     -34.623  16.537  -0.860  1.00 20.00    -0.037 C 
HETATM    9  C1  UNL     1     -34.744  17.468   0.092  1.00 20.00     0.007 C 
ENDBRANCH   7   8
ENDBRANCH   5   7
BRANCH   6  10
HETATM   10  O10 UNL     1     -37.658  14.150  -3.764  1.00 20.00    -0.396 OA
HETATM   11  H26 UNL     1     -37.801  14.392  -2.834  1.00 20.00     0.210 HD
ENDBRANCH   6  10
TORSDOF 3
ENDMDL
MODEL 4
REMARK VINA RESULT:      -4.8      1.370      2.106
REMARK  3 active torsions:
REMARK  status: ('A' for Active; 'I' for Inactive)
REMARK    1  A    between atoms: C2_2  and  C9_9 
REMARK    2  A    between atoms: C7_7  and  C9_9 
REMARK    3  A    between atoms: C8_8  and  O10_10 
ROOT
HETATM    1  C3  UNL     1     -35.330   5.067   3.678  1.00 20.00     0.003 C 
HETATM    2  C4  UNL     1     -34.067   5.424   2.896  1.00 20.00     0.005 C 
HETATM    3  C5  UNL     1     -35.056   4.972   5.175  1.00 20.00     0.032 C 
HETATM    4  C6  UNL     1     -33.142   6.603   4.930  1.00 20.00     0.036 C 
HETATM    5  C7  UNL     1     -33.415   6.710   3.424  1.00 20.00    -0.009 C 
HETATM    6  C8  UNL     1     -34.407   6.247   5.708  1.00 20.00     0.118 C 
ENDROOT
BRANCH   5   7
HETATM    7  C9  UNL     1     -32.127   7.013   2.662  1.00 20.00     0.031 C 
BRANCH   7   8
HETATM    8  C2  UNL     1     -32.140   8.404   2.110  1.00 20.00    -0.037 C 
HETATM    9  C1  UNL     1     -31.806   8.712   0.852  1.00 20.00     0.007 C 
ENDBRANCH   7   8
ENDBRANCH   5   7
BRANCH   6  10
HETATM   10  O10 UNL     1     -34.089   6.079   7.086  1.00 20.00    -0.396 OA
HETATM   11  H26 UNL     1     -34.934   6.035   7.563  1.00 20.00     0.210 HD
ENDBRANCH   6  10
TORSDOF 3
ENDMDL
MODEL 5
REMARK VINA RESULT:      -4.8      1.636      2.275
REMARK  3 active torsions:
REMARK  status: ('A' for Active; 'I' for Inactive)
REMARK    1  A    between atoms: C2_2  and  C9_9 
REMARK    2  A    between atoms: C7_7  and  C9_9 
REMARK    3  A    between atoms: C8_8  and  O10_10 
ROOT
HETATM    1  C3  UNL     1     -35.208   4.762   5.477  1.00 20.00     0.003 C 
HETATM    2  C4  UNL     1     -34.440   4.796   4.157  1.00 20.00     0.005 C 
HETATM    3  C5  UNL     1     -34.408   5.394   6.610  1.00 20.00     0.032 C 
HETATM    4  C6  UNL     1     -33.187   6.845   4.939  1.00 20.00     0.036 C 
HETATM    5  C7  UNL     1     -33.993   6.220   3.795  1.00 20.00    -0.009 C 
HETATM    6  C8  UNL     1     -33.959   6.811   6.257  1.00 20.00     0.118 C 
ENDROOT
BRANCH   5   7
HETATM    7  C9  UNL     1     -33.181   6.216   2.501  1.00 20.00     0.031 C 
BRANCH   7   8
HETATM    8  C2  UNL     1     -32.070   7.218   2.558  1.00 20.00    -0.037 C 
HETATM    9  C1  UNL     1     -32.014   8.315   1.794  1.00 20.00     0.007 C 
ENDBRANCH   7   8
ENDBRANCH   5   7
BRANCH   6  10
HETATM   10  O10 UNL     1     -33.142   7.326   7.304  1.00 20.00    -0.396 OA
HETATM   11  H26 UNL     1     -33.625   7.176   8.132  1.00 20.00     0.210 HD
ENDBRANCH   6  10
TORSDOF 3
ENDMDL
MODEL 6
REMARK VINA RESULT:      -4.6     11.248     12.203
REMARK  3 active torsions:
REMARK  status: ('A' for Active; 'I' for Inactive)
REMARK    1  A    between atoms: C2_2  and  C9_9 
REMARK    2  A    between atoms: C7_7  and  C9_9 
REMARK    3  A    between atoms: C8_8  and  O10_10 
ROOT
HETATM    1  C3  UNL     1     -36.509  14.748  -3.618  1.00 20.00     0.003 C 
HETATM    2  C4  UNL     1     -35.897  16.090  -3.220  1.00 20.00     0.005 C 
HETATM    3  C5  UNL     1     -35.519  13.886  -4.393  1.00 20.00     0.032 C 
HETATM    4  C6  UNL     1     -33.598  15.042  -3.225  1.00 20.00     0.036 C 
HETATM    5  C7  UNL     1     -34.588  15.909  -2.437  1.00 20.00    -0.009 C 
HETATM    6  C8  UNL     1     -34.214  13.701  -3.621  1.00 20.00     0.118 C 
ENDROOT
BRANCH   5   7
HETATM    7  C9  UNL     1     -33.971  17.264  -2.100  1.00 20.00     0.031 C 
BRANCH   7   8
HETATM    8  C2  UNL     1     -33.899  17.472  -0.619  1.00 20.00    -0.037 C 
HETATM    9  C1  UNL     1     -34.925  17.265   0.214  1.00 20.00     0.007 C 
ENDBRANCH   7   8
ENDBRANCH   5   7
BRANCH   6  10
HETATM   10  O10 UNL     1     -33.289  12.968  -4.418  1.00 20.00    -0.396 OA
HETATM   11  H26 UNL     1     -32.414  13.097  -4.018  1.00 20.00     0.210 HD
ENDBRANCH   6  10
TORSDOF 3
ENDMDL
MODEL 7
REMARK VINA RESULT:      -4.4     12.072     13.189
REMARK  3 active torsions:
REMARK  status: ('A' for Active; 'I' for Inactive)
REMARK    1  A    between atoms: C2_2  and  C9_9 
REMARK    2  A    between atoms: C7_7  and  C9_9 
REMARK    3  A    between atoms: C8_8  and  O10_10 
ROOT
HETATM    1  C3  UNL     1     -34.566  13.391  -4.572  1.00 20.00     0.003 C 
HETATM    2  C4  UNL     1     -34.498  14.392  -3.420  1.00 20.00     0.005 C 
HETATM    3  C5  UNL     1     -35.031  14.052  -5.864  1.00 20.00     0.032 C 
HETATM    4  C6  UNL     1     -34.098  16.262  -5.070  1.00 20.00     0.036 C 
HETATM    5  C7  UNL     1     -33.622  15.603  -3.770  1.00 20.00    -0.009 C 
HETATM    6  C8  UNL     1     -34.165  15.258  -6.219  1.00 20.00     0.118 C 
ENDROOT
BRANCH   5   7
HETATM    7  C9  UNL     1     -33.615  16.612  -2.623  1.00 20.00     0.031 C 
BRANCH   7   8
HETATM    8  C2  UNL     1     -34.624  16.250  -1.578  1.00 20.00    -0.037 C 
HETATM    9  C1  UNL     1     -34.733  16.872  -0.399  1.00 20.00     0.007 C 
ENDBRANCH   7   8
ENDBRANCH   5   7
BRANCH   6  10
HETATM   10  O10 UNL     1     -34.688  15.895  -7.381  1.00 20.00    -0.396 OA
HETATM   11  H26 UNL     1     -33.928  16.107  -7.947  1.00 20.00     0.210 HD
ENDBRANCH   6  10
TORSDOF 3
ENDMDL
MODEL 8
REMARK VINA RESULT:      -4.3     11.538     13.663
REMARK  3 active torsions:
REMARK  status: ('A' for Active; 'I' for Inactive)
REMARK    1  A    between atoms: C2_2  and  C9_9 
REMARK    2  A    between atoms: C7_7  and  C9_9 
REMARK    3  A    between atoms: C8_8  and  O10_10 
ROOT
HETATM    1  C3  UNL     1     -33.122  15.588  -3.892  1.00 20.00     0.003 C 
HETATM    2  C4  UNL     1     -33.667  16.361  -5.092  1.00 20.00     0.005 C 
HETATM    3  C5  UNL     1     -34.075  14.479  -3.459  1.00 20.00     0.032 C 
HETATM    4  C6  UNL     1     -34.962  14.318  -5.820  1.00 20.00     0.036 C 
HETATM    5  C7  UNL     1     -34.003  15.429  -6.265  1.00 20.00    -0.009 C 
HETATM    6  C8  UNL     1     -34.414  13.547  -4.621  1.00 20.00     0.118 C 
ENDROOT
BRANCH   5   7
HETATM    7  C9  UNL     1     -34.595  16.220  -7.429  1.00 20.00     0.031 C 
BRANCH   7   8
HETATM    8  C2  UNL     1     -34.671  17.680  -7.108  1.00 20.00    -0.037 C 
HETATM    9  C1  UNL     1     -34.223  18.647  -7.917  1.00 20.00     0.007 C 
ENDBRANCH   7   8
ENDBRANCH   5   7
BRANCH   6  10
HETATM   10  O10 UNL     1     -35.372  12.584  -4.194  1.00 20.00    -0.396 OA
HETATM   11  H26 UNL     1     -35.319  11.843  -4.820  1.00 20.00     0.210 HD
ENDBRANCH   6  10
TORSDOF 3
ENDMDL
MODEL 9
REMARK VINA RESULT:      -4.2     10.039     11.070
REMARK  3 active torsions:
REMARK  status: ('A' for Active; 'I' for Inactive)
REMARK    1  A    between atoms: C2_2  and  C9_9 
REMARK    2  A    between atoms: C7_7  and  C9_9 
REMARK    3  A    between atoms: C8_8  and  O10_10 
ROOT
HETATM    1  C3  UNL     1     -41.007   5.897  -0.103  1.00 20.00     0.003 C 
HETATM    2  C4  UNL     1     -41.256   4.545  -0.769  1.00 20.00     0.005 C 
HETATM    3  C5  UNL     1     -40.944   7.026  -1.126  1.00 20.00     0.032 C 
HETATM    4  C6  UNL     1     -42.441   5.705  -2.676  1.00 20.00     0.036 C 
HETATM    5  C7  UNL     1     -42.514   4.568  -1.649  1.00 20.00    -0.009 C 
HETATM    6  C8  UNL     1     -42.192   7.055  -2.005  1.00 20.00     0.118 C 
ENDROOT
BRANCH   5   7
HETATM    7  C9  UNL     1     -42.709   3.223  -2.345  1.00 20.00     0.031 C 
BRANCH   7   8
HETATM    8  C2  UNL     1     -41.457   2.789  -3.043  1.00 20.00    -0.037 C 
HETATM    9  C1  UNL     1     -41.390   1.743  -3.873  1.00 20.00     0.007 C 
ENDBRANCH   7   8
ENDBRANCH   5   7
BRANCH   6  10
HETATM   10  O10 UNL     1     -42.050   8.064  -3.000  1.00 20.00    -0.396 OA
HETATM   11  H26 UNL     1     -41.329   7.778  -3.584  1.00 20.00     0.210 HD
ENDBRANCH   6  10
TORSDOF 3
ENDMDL
