MODEL 1
REMARK VINA RESULT:      -4.1      0.000      0.000
REMARK  0 active torsions:
REMARK  status: ('A' for Active; 'I' for Inactive)
ROOT
HETATM    1  C1  UNL     1     -33.899   6.518   6.153  1.00 20.00     0.223 A 
HETATM    2  C2  UNL     1     -34.259   6.310   4.666  1.00 20.00     0.096 A 
HETATM    3  C3  UNL     1     -35.148   5.134   5.181  1.00 20.00     0.093 A 
HETATM    4  C4  UNL     1     -33.087   6.024   3.747  1.00 20.00     0.022 C 
HETATM    5  C5  UNL     1     -34.793   3.701   4.849  1.00 20.00     0.033 C 
HETATM    6  N6  UNL     1     -34.705   5.488   6.526  1.00 20.00    -0.356 N 
HETATM    7  O7  UNL     1     -33.192   7.267   6.787  1.00 20.00    -0.273 OA
HETATM    8  H16 UNL     1     -34.895   5.110   7.444  1.00 20.00     0.162 HD
ENDROOT
TORSDOF 0
ENDMDL
MODEL 2
REMARK VINA RESULT:      -4.1      2.168      3.048
REMARK  0 active torsions:
REMARK  status: ('A' for Active; 'I' for Inactive)
ROOT
HETATM    1  C1  UNL     1     -34.877   4.733   4.638  1.00 20.00     0.223 A 
HETATM    2  C2  UNL     1     -34.661   6.184   5.121  1.00 20.00     0.096 A 
HETATM    3  C3  UNL     1     -34.032   6.420   3.711  1.00 20.00     0.093 A 
HETATM    4  C4  UNL     1     -33.807   6.336   6.363  1.00 20.00     0.022 C 
HETATM    5  C5  UNL     1     -32.553   6.706   3.568  1.00 20.00     0.033 C 
HETATM    6  N6  UNL     1     -34.328   5.019   3.428  1.00 20.00    -0.356 N 
HETATM    7  O7  UNL     1     -35.334   3.714   5.103  1.00 20.00    -0.273 OA
HETATM    8  H16 UNL     1     -34.176   4.424   2.625  1.00 20.00     0.162 HD
ENDROOT
TORSDOF 0
ENDMDL
MODEL 3
REMARK VINA RESULT:      -3.7     13.183     13.664
REMARK  0 active torsions:
REMARK  status: ('A' for Active; 'I' for Inactive)
ROOT
HETATM    1  C1  UNL     1     -33.349  16.086  -4.641  1.00 20.00     0.223 A 
HETATM    2  C2  UNL     1     -33.479  15.320  -3.307  1.00 20.00     0.096 A 
HETATM    3  C3  UNL     1     -33.843  14.092  -4.199  1.00 20.00     0.093 A 
HETATM    4  C4  UNL     1     -34.501  15.877  -2.335  1.00 20.00     0.022 C 
HETATM    5  C5  UNL     1     -35.241  13.510  -4.171  1.00 20.00     0.033 C 
HETATM    6  N6  UNL     1     -33.661  14.969  -5.350  1.00 20.00    -0.356 N 
HETATM    7  O7  UNL     1     -33.086  17.217  -4.981  1.00 20.00    -0.273 OA
HETATM    8  H16 UNL     1     -33.746  14.834  -6.349  1.00 20.00     0.162 HD
ENDROOT
TORSDOF 0
ENDMDL
MODEL 4
REMARK VINA RESULT:      -3.7     12.778     13.276
REMARK  0 active torsions:
REMARK  status: ('A' for Active; 'I' for Inactive)
ROOT
HETATM    1  C1  UNL     1     -34.477  13.658  -4.524  1.00 20.00     0.223 A 
HETATM    2  C2  UNL     1     -35.244  14.997  -4.477  1.00 20.00     0.096 A 
HETATM    3  C3  UNL     1     -33.888  15.606  -3.997  1.00 20.00     0.093 A 
HETATM    4  C4  UNL     1     -36.450  15.024  -3.559  1.00 20.00     0.022 C 
HETATM    5  C5  UNL     1     -33.741  16.137  -2.587  1.00 20.00     0.033 C 
HETATM    6  N6  UNL     1     -33.330  14.263  -4.116  1.00 20.00    -0.356 N 
HETATM    7  O7  UNL     1     -34.737  12.509  -4.797  1.00 20.00    -0.273 OA
HETATM    8  H16 UNL     1     -32.414  13.872  -3.944  1.00 20.00     0.162 HD
ENDROOT
TORSDOF 0
ENDMDL
MODEL 5
REMARK VINA RESULT:      -3.6      2.297      3.135
REMARK  0 active torsions:
REMARK  status: ('A' for Active; 'I' for Inactive)
ROOT
HETATM    1  C1  UNL     1     -34.296   5.493   3.435  1.00 20.00     0.223 A 
HETATM    2  C2  UNL     1     -35.177   5.175   4.663  1.00 20.00     0.096 A 
HETATM    3  C3  UNL     1     -34.605   6.503   5.252  1.00 20.00     0.093 A 
HETATM    4  C4  UNL     1     -34.881   3.856   5.350  1.00 20.00     0.022 C 
HETATM    5  C5  UNL     1     -33.680   6.477   6.450  1.00 20.00     0.033 C 
HETATM    6  N6  UNL     1     -33.855   6.643   4.009  1.00 20.00    -0.356 N 
HETATM    7  O7  UNL     1     -34.053   4.970   2.372  1.00 20.00    -0.273 OA
HETATM    8  H16 UNL     1     -33.204   7.336   3.663  1.00 20.00     0.162 HD
ENDROOT
TORSDOF 0
ENDMDL
MODEL 6
REMARK VINA RESULT:      -3.6     12.559     13.155
REMARK  0 active torsions:
REMARK  status: ('A' for Active; 'I' for Inactive)
ROOT
HETATM    1  C1  UNL     1     -35.104  13.582  -4.177  1.00 20.00     0.223 A 
HETATM    2  C2  UNL     1     -34.404  14.597  -3.248  1.00 20.00     0.096 A 
HETATM    3  C3  UNL     1     -35.778  15.340  -3.243  1.00 20.00     0.093 A 
HETATM    4  C4  UNL     1     -33.181  15.277  -3.832  1.00 20.00     0.022 C 
HETATM    5  C5  UNL     1     -35.921  16.695  -3.902  1.00 20.00     0.033 C 
HETATM    6  N6  UNL     1     -36.270  14.277  -4.112  1.00 20.00    -0.356 N 
HETATM    7  O7  UNL     1     -34.793  12.568  -4.759  1.00 20.00    -0.273 OA
HETATM    8  H16 UNL     1     -37.162  14.094  -4.551  1.00 20.00     0.162 HD
ENDROOT
TORSDOF 0
ENDMDL
MODEL 7
REMARK VINA RESULT:      -3.5      1.636      1.766
REMARK  0 active torsions:
REMARK  status: ('A' for Active; 'I' for Inactive)
ROOT
HETATM    1  C1  UNL     1     -33.185   6.585   4.344  1.00 20.00     0.223 A 
HETATM    2  C2  UNL     1     -34.509   6.032   3.773  1.00 20.00     0.096 A 
HETATM    3  C3  UNL     1     -34.822   5.626   5.248  1.00 20.00     0.093 A 
HETATM    4  C4  UNL     1     -34.362   4.962   2.710  1.00 20.00     0.022 C 
HETATM    5  C5  UNL     1     -34.886   4.167   5.646  1.00 20.00     0.033 C 
HETATM    6  N6  UNL     1     -33.535   6.213   5.604  1.00 20.00    -0.356 N 
HETATM    7  O7  UNL     1     -32.200   7.131   3.901  1.00 20.00    -0.273 OA
HETATM    8  H16 UNL     1     -33.032   6.313   6.475  1.00 20.00     0.162 HD
ENDROOT
TORSDOF 0
ENDMDL
MODEL 8
REMARK VINA RESULT:      -3.5     12.451     13.118
REMARK  0 active torsions:
REMARK  status: ('A' for Active; 'I' for Inactive)
ROOT
HETATM    1  C1  UNL     1     -36.165  14.020  -4.176  1.00 20.00     0.223 A 
HETATM    2  C2  UNL     1     -35.135  14.924  -4.888  1.00 20.00     0.096 A 
HETATM    3  C3  UNL     1     -34.120  13.774  -4.595  1.00 20.00     0.093 A 
HETATM    4  C4  UNL     1     -34.929  16.290  -4.264  1.00 20.00     0.022 C 
HETATM    5  C5  UNL     1     -32.983  13.984  -3.617  1.00 20.00     0.033 C 
HETATM    6  N6  UNL     1     -35.227  13.058  -3.970  1.00 20.00    -0.356 N 
HETATM    7  O7  UNL     1     -37.338  14.087  -3.886  1.00 20.00    -0.273 OA
HETATM    8  H16 UNL     1     -35.305  12.159  -3.513  1.00 20.00     0.162 HD
ENDROOT
TORSDOF 0
ENDMDL
MODEL 9
REMARK VINA RESULT:      -3.5      1.437      2.106
REMARK  0 active torsions:
REMARK  status: ('A' for Active; 'I' for Inactive)
ROOT
HETATM    1  C1  UNL     1     -33.853   6.514   5.982  1.00 20.00     0.223 A 
HETATM    2  C2  UNL     1     -33.962   5.015   5.627  1.00 20.00     0.096 A 
HETATM    3  C3  UNL     1     -33.790   5.487   4.149  1.00 20.00     0.093 A 
HETATM    4  C4  UNL     1     -35.248   4.338   6.058  1.00 20.00     0.022 C 
HETATM    5  C5  UNL     1     -34.933   5.360   3.164  1.00 20.00     0.033 C 
HETATM    6  N6  UNL     1     -33.695   6.845   4.673  1.00 20.00    -0.356 N 
HETATM    7  O7  UNL     1     -33.891   7.181   6.990  1.00 20.00    -0.273 OA
HETATM    8  H16 UNL     1     -33.571   7.751   4.241  1.00 20.00     0.162 HD
ENDROOT
TORSDOF 0
ENDMDL
