MODEL 1
REMARK VINA RESULT:      -4.5      0.000      0.000
REMARK  2 active torsions:
REMARK  status: ('A' for Active; 'I' for Inactive)
REMARK    1  A    between atoms: C2_2  and  O12_12 
REMARK    2  A    between atoms: C7_7  and  O12_12 
ROOT
HETATM    1  C3  UNL     1     -33.348  16.972  -5.283  1.00 20.00     0.036 C 
HETATM    2  C4  UNL     1     -34.886  15.101  -6.005  1.00 20.00     0.013 C 
HETATM    3  C5  UNL     1     -33.535  14.874  -3.867  1.00 20.00     0.041 C 
HETATM    4  C6  UNL     1     -34.672  16.623  -5.979  1.00 20.00    -0.015 C 
HETATM    5  C7  UNL     1     -33.254  16.381  -3.878  1.00 20.00     0.128 C 
HETATM    6  C8  UNL     1     -34.827  14.446  -4.605  1.00 20.00    -0.045 C 
HETATM    7  C9  UNL     1     -34.691  17.187  -7.401  1.00 20.00     0.010 C 
HETATM    8  C10 UNL     1     -34.808  12.912  -4.777  1.00 20.00     0.015 C 
HETATM    9  C11 UNL     1     -36.086  14.800  -3.789  1.00 20.00     0.015 C 
ENDROOT
BRANCH   5  10
HETATM   10  O12 UNL     1     -34.157  17.071  -3.021  1.00 20.00    -0.359 OA
BRANCH  10  11
HETATM   11  C2  UNL     1     -33.832  17.053  -1.736  1.00 20.00     0.125 C 
HETATM   12  C1  UNL     1     -34.647  16.679  -0.746  1.00 20.00     0.037 C 
ENDBRANCH  10  11
ENDBRANCH   5  10
TORSDOF 2
ENDMDL
MODEL 2
REMARK VINA RESULT:      -4.3      1.694      4.437
REMARK  2 active torsions:
REMARK  status: ('A' for Active; 'I' for Inactive)
REMARK    1  A    between atoms: C2_2  and  O12_12 
REMARK    2  A    between atoms: C7_7  and  O12_12 
ROOT
HETATM    1  C3  UNL     1     -33.733  15.390  -2.914  1.00 20.00     0.036 C 
HETATM    2  C4  UNL     1     -34.182  17.875  -3.016  1.00 20.00     0.013 C 
HETATM    3  C5  UNL     1     -33.301  16.664  -5.066  1.00 20.00     0.041 C 
HETATM    4  C6  UNL     1     -34.629  16.533  -2.415  1.00 20.00    -0.015 C 
HETATM    5  C7  UNL     1     -33.676  15.317  -4.438  1.00 20.00     0.128 C 
HETATM    6  C8  UNL     1     -34.129  17.872  -4.561  1.00 20.00    -0.045 C 
HETATM    7  C9  UNL     1     -34.606  16.599  -0.887  1.00 20.00     0.010 C 
HETATM    8  C10 UNL     1     -33.441  19.169  -5.035  1.00 20.00     0.015 C 
HETATM    9  C11 UNL     1     -35.552  17.866  -5.152  1.00 20.00     0.015 C 
ENDROOT
BRANCH   5  10
HETATM   10  O12 UNL     1     -34.931  14.860  -4.930  1.00 20.00    -0.359 OA
BRANCH  10  11
HETATM   11  C2  UNL     1     -34.871  14.176  -6.065  1.00 20.00     0.125 C 
HETATM   12  C1  UNL     1     -35.539  14.483  -7.179  1.00 20.00     0.037 C 
ENDBRANCH  10  11
ENDBRANCH   5  10
TORSDOF 2
ENDMDL
MODEL 3
REMARK VINA RESULT:      -4.2      1.450      2.786
REMARK  2 active torsions:
REMARK  status: ('A' for Active; 'I' for Inactive)
REMARK    1  A    between atoms: C2_2  and  O12_12 
REMARK    2  A    between atoms: C7_7  and  O12_12 
ROOT
HETATM    1  C3  UNL     1     -36.768  16.413  -3.229  1.00 20.00     0.036 C 
HETATM    2  C4  UNL     1     -36.493  14.683  -5.050  1.00 20.00     0.013 C 
HETATM    3  C5  UNL     1     -34.571  16.243  -4.489  1.00 20.00     0.041 C 
HETATM    4  C6  UNL     1     -37.147  15.000  -3.696  1.00 20.00    -0.015 C 
HETATM    5  C7  UNL     1     -35.256  16.622  -3.171  1.00 20.00     0.128 C 
HETATM    6  C8  UNL     1     -34.956  14.851  -5.048  1.00 20.00    -0.045 C 
HETATM    7  C9  UNL     1     -38.667  14.862  -3.793  1.00 20.00     0.010 C 
HETATM    8  C10 UNL     1     -34.445  14.749  -6.500  1.00 20.00     0.015 C 
HETATM    9  C11 UNL     1     -34.288  13.718  -4.246  1.00 20.00     0.015 C 
ENDROOT
BRANCH   5  10
HETATM   10  O12 UNL     1     -34.723  15.869  -2.088  1.00 20.00    -0.359 OA
BRANCH  10  11
HETATM   11  C2  UNL     1     -34.600  16.537  -0.949  1.00 20.00     0.125 C 
HETATM   12  C1  UNL     1     -33.784  17.576  -0.757  1.00 20.00     0.037 C 
ENDBRANCH  10  11
ENDBRANCH   5  10
TORSDOF 2
ENDMDL
MODEL 4
REMARK VINA RESULT:      -4.1      1.595      4.193
REMARK  2 active torsions:
REMARK  status: ('A' for Active; 'I' for Inactive)
REMARK    1  A    between atoms: C2_2  and  O12_12 
REMARK    2  A    between atoms: C7_7  and  O12_12 
ROOT
HETATM    1  C3  UNL     1     -35.636  14.108  -4.511  1.00 20.00     0.036 C 
HETATM    2  C4  UNL     1     -35.951  15.914  -2.771  1.00 20.00     0.013 C 
HETATM    3  C5  UNL     1     -33.609  15.217  -3.460  1.00 20.00     0.041 C 
HETATM    4  C6  UNL     1     -36.517  15.279  -4.051  1.00 20.00    -0.015 C 
HETATM    5  C7  UNL     1     -34.176  14.516  -4.699  1.00 20.00     0.128 C 
HETATM    6  C8  UNL     1     -34.481  16.372  -2.907  1.00 20.00    -0.045 C 
HETATM    7  C9  UNL     1     -37.953  14.805  -3.821  1.00 20.00     0.010 C 
HETATM    8  C10 UNL     1     -33.952  16.760  -1.511  1.00 20.00     0.015 C 
HETATM    9  C11 UNL     1     -34.385  17.626  -3.798  1.00 20.00     0.015 C 
ENDROOT
BRANCH   5  10
HETATM   10  O12 UNL     1     -34.070  15.351  -5.847  1.00 20.00    -0.359 OA
BRANCH  10  11
HETATM   11  C2  UNL     1     -34.439  14.783  -6.987  1.00 20.00     0.125 C 
HETATM   12  C1  UNL     1     -35.201  15.362  -7.918  1.00 20.00     0.037 C 
ENDBRANCH  10  11
ENDBRANCH   5  10
TORSDOF 2
ENDMDL
MODEL 5
REMARK VINA RESULT:      -4.1      1.709      4.260
REMARK  2 active torsions:
REMARK  status: ('A' for Active; 'I' for Inactive)
REMARK    1  A    between atoms: C2_2  and  O12_12 
REMARK    2  A    between atoms: C7_7  and  O12_12 
ROOT
HETATM    1  C3  UNL     1     -33.696  16.632  -1.835  1.00 20.00     0.036 C 
HETATM    2  C4  UNL     1     -36.028  17.588  -2.015  1.00 20.00     0.013 C 
HETATM    3  C5  UNL     1     -34.825  16.790  -4.102  1.00 20.00     0.041 C 
HETATM    4  C6  UNL     1     -35.060  16.772  -1.144  1.00 20.00    -0.015 C 
HETATM    5  C7  UNL     1     -33.810  16.036  -3.236  1.00 20.00     0.128 C 
HETATM    6  C8  UNL     1     -36.206  17.017  -3.441  1.00 20.00    -0.045 C 
HETATM    7  C9  UNL     1     -34.896  17.427   0.229  1.00 20.00     0.010 C 
HETATM    8  C10 UNL     1     -36.992  18.039  -4.288  1.00 20.00     0.015 C 
HETATM    9  C11 UNL     1     -37.035  15.718  -3.404  1.00 20.00     0.015 C 
ENDROOT
BRANCH   5  10
HETATM   10  O12 UNL     1     -34.158  14.660  -3.129  1.00 20.00    -0.359 OA
BRANCH  10  11
HETATM   11  C2  UNL     1     -33.829  13.916  -4.177  1.00 20.00     0.125 C 
HETATM   12  C1  UNL     1     -34.681  13.169  -4.882  1.00 20.00     0.037 C 
ENDBRANCH  10  11
ENDBRANCH   5  10
TORSDOF 2
ENDMDL
MODEL 6
REMARK VINA RESULT:      -4.1      1.571      3.853
REMARK  2 active torsions:
REMARK  status: ('A' for Active; 'I' for Inactive)
REMARK    1  A    between atoms: C2_2  and  O12_12 
REMARK    2  A    between atoms: C7_7  and  O12_12 
ROOT
HETATM    1  C3  UNL     1     -35.190  17.924  -2.671  1.00 20.00     0.036 C 
HETATM    2  C4  UNL     1     -34.723  15.504  -2.113  1.00 20.00     0.013 C 
HETATM    3  C5  UNL     1     -35.086  16.198  -4.528  1.00 20.00     0.041 C 
HETATM    4  C6  UNL     1     -34.438  16.967  -1.735  1.00 20.00    -0.015 C 
HETATM    5  C7  UNL     1     -34.877  17.666  -4.144  1.00 20.00     0.128 C 
HETATM    6  C8  UNL     1     -34.402  15.174  -3.589  1.00 20.00    -0.045 C 
HETATM    7  C9  UNL     1     -34.830  17.227  -0.280  1.00 20.00     0.010 C 
HETATM    8  C10 UNL     1     -34.951  13.769  -3.913  1.00 20.00     0.015 C 
HETATM    9  C11 UNL     1     -32.878  15.133  -3.815  1.00 20.00     0.015 C 
ENDROOT
BRANCH   5  10
HETATM   10  O12 UNL     1     -33.542  18.078  -4.415  1.00 20.00    -0.359 OA
BRANCH  10  11
HETATM   11  C2  UNL     1     -33.431  19.101  -5.251  1.00 20.00     0.125 C 
HETATM   12  C1  UNL     1     -33.767  19.073  -6.543  1.00 20.00     0.037 C 
ENDBRANCH  10  11
ENDBRANCH   5  10
TORSDOF 2
ENDMDL
MODEL 7
REMARK VINA RESULT:      -4.1      1.934      3.208
REMARK  2 active torsions:
REMARK  status: ('A' for Active; 'I' for Inactive)
REMARK    1  A    between atoms: C2_2  and  O12_12 
REMARK    2  A    between atoms: C7_7  and  O12_12 
ROOT
HETATM    1  C3  UNL     1     -36.251  16.718  -4.472  1.00 20.00     0.036 C 
HETATM    2  C4  UNL     1     -34.124  15.605  -5.260  1.00 20.00     0.013 C 
HETATM    3  C5  UNL     1     -34.895  15.303  -2.860  1.00 20.00     0.041 C 
HETATM    4  C6  UNL     1     -35.539  16.053  -5.659  1.00 20.00    -0.015 C 
HETATM    5  C7  UNL     1     -36.287  15.821  -3.237  1.00 20.00     0.128 C 
HETATM    6  C8  UNL     1     -34.096  14.672  -4.027  1.00 20.00    -0.045 C 
HETATM    7  C9  UNL     1     -35.478  17.012  -6.849  1.00 20.00     0.010 C 
HETATM    8  C10 UNL     1     -32.632  14.490  -3.576  1.00 20.00     0.015 C 
HETATM    9  C11 UNL     1     -34.640  13.277  -4.393  1.00 20.00     0.015 C 
ENDROOT
BRANCH   5  10
HETATM   10  O12 UNL     1     -37.185  14.742  -3.471  1.00 20.00    -0.359 OA
BRANCH  10  11
HETATM   11  C2  UNL     1     -38.461  15.088  -3.576  1.00 20.00     0.125 C 
HETATM   12  C1  UNL     1     -39.318  14.583  -4.466  1.00 20.00     0.037 C 
ENDBRANCH  10  11
ENDBRANCH   5  10
TORSDOF 2
ENDMDL
MODEL 8
REMARK VINA RESULT:      -4.1      1.492      3.755
REMARK  2 active torsions:
REMARK  status: ('A' for Active; 'I' for Inactive)
REMARK    1  A    between atoms: C2_2  and  O12_12 
REMARK    2  A    between atoms: C7_7  and  O12_12 
ROOT
HETATM    1  C3  UNL     1     -33.427  15.808  -4.904  1.00 20.00     0.036 C 
HETATM    2  C4  UNL     1     -34.603  15.090  -2.785  1.00 20.00     0.013 C 
HETATM    3  C5  UNL     1     -33.765  17.475  -3.020  1.00 20.00     0.041 C 
HETATM    4  C6  UNL     1     -34.523  14.911  -4.309  1.00 20.00    -0.015 C 
HETATM    5  C7  UNL     1     -33.611  17.278  -4.532  1.00 20.00     0.128 C 
HETATM    6  C8  UNL     1     -34.815  16.557  -2.345  1.00 20.00    -0.045 C 
HETATM    7  C9  UNL     1     -34.261  13.446  -4.661  1.00 20.00     0.010 C 
HETATM    8  C10 UNL     1     -34.633  16.647  -0.816  1.00 20.00     0.015 C 
HETATM    9  C11 UNL     1     -36.251  17.015  -2.664  1.00 20.00     0.015 C 
ENDROOT
BRANCH   5  10
HETATM   10  O12 UNL     1     -34.739  17.797  -5.228  1.00 20.00    -0.359 OA
BRANCH  10  11
HETATM   11  C2  UNL     1     -34.539  18.034  -6.518  1.00 20.00     0.125 C 
HETATM   12  C1  UNL     1     -33.790  19.025  -7.005  1.00 20.00     0.037 C 
ENDBRANCH  10  11
ENDBRANCH   5  10
TORSDOF 2
ENDMDL
MODEL 9
REMARK VINA RESULT:      -4.0      1.205      3.147
REMARK  2 active torsions:
REMARK  status: ('A' for Active; 'I' for Inactive)
REMARK    1  A    between atoms: C2_2  and  O12_12 
REMARK    2  A    between atoms: C7_7  and  O12_12 
ROOT
HETATM    1  C3  UNL     1     -35.184  15.018  -3.061  1.00 20.00     0.036 C 
HETATM    2  C4  UNL     1     -34.017  15.515  -5.247  1.00 20.00     0.013 C 
HETATM    3  C5  UNL     1     -35.875  17.039  -4.431  1.00 20.00     0.041 C 
HETATM    4  C6  UNL     1     -33.854  14.952  -3.826  1.00 20.00    -0.015 C 
HETATM    5  C7  UNL     1     -35.770  16.428  -3.030  1.00 20.00     0.128 C 
HETATM    6  C8  UNL     1     -34.583  16.953  -5.280  1.00 20.00    -0.045 C 
HETATM    7  C9  UNL     1     -33.341  13.512  -3.878  1.00 20.00     0.010 C 
HETATM    8  C10 UNL     1     -34.931  17.315  -6.739  1.00 20.00     0.015 C 
HETATM    9  C11 UNL     1     -33.524  17.963  -4.798  1.00 20.00     0.015 C 
ENDROOT
BRANCH   5  10
HETATM   10  O12 UNL     1     -34.973  17.245  -2.179  1.00 20.00    -0.359 OA
BRANCH  10  11
HETATM   11  C2  UNL     1     -34.706  16.721  -0.990  1.00 20.00     0.125 C 
HETATM   12  C1  UNL     1     -34.714  17.395   0.162  1.00 20.00     0.037 C 
ENDBRANCH  10  11
ENDBRANCH   5  10
TORSDOF 2
ENDMDL
