MODEL 1
REMARK VINA RESULT:      -3.8      0.000      0.000
REMARK  0 active torsions:
REMARK  status: ('A' for Active; 'I' for Inactive)
ROOT
HETATM    1  C1  UNL     1     -33.227   6.591   5.393  1.00 20.00     0.026 C 
HETATM    2  C2  UNL     1     -34.293   5.398   3.406  1.00 20.00     0.026 C 
HETATM    3  C3  UNL     1     -34.302   6.138   6.375  1.00 20.00     0.075 C 
HETATM    4  C4  UNL     1     -35.454   4.847   4.228  1.00 20.00     0.075 C 
HETATM    5  C5  UNL     1     -33.751   6.711   3.964  1.00 20.00     0.059 C 
HETATM    6  S6  UNL     1     -34.965   4.503   5.943  1.00 20.00    -0.169 SA
HETATM    7 BR7  UNL     1     -32.290   7.327   2.810  1.00 20.00    -0.091 Br
ENDROOT
TORSDOF 0
ENDMDL
MODEL 2
REMARK VINA RESULT:      -3.3     12.492     13.270
REMARK  0 active torsions:
REMARK  status: ('A' for Active; 'I' for Inactive)
ROOT
HETATM    1  C1  UNL     1     -33.816  17.023  -3.881  1.00 20.00     0.026 C 
HETATM    2  C2  UNL     1     -34.816  14.755  -3.279  1.00 20.00     0.026 C 
HETATM    3  C3  UNL     1     -33.288  16.548  -5.230  1.00 20.00     0.075 C 
HETATM    4  C4  UNL     1     -34.370  14.097  -4.580  1.00 20.00     0.075 C 
HETATM    5  C5  UNL     1     -33.897  15.897  -2.854  1.00 20.00     0.059 C 
HETATM    6  S6  UNL     1     -34.355  15.274  -5.963  1.00 20.00    -0.169 SA
HETATM    7 BR7  UNL     1     -34.557  16.637  -1.162  1.00 20.00    -0.091 Br
ENDROOT
TORSDOF 0
ENDMDL
MODEL 3
REMARK VINA RESULT:      -3.2      9.508     10.484
REMARK  0 active torsions:
REMARK  status: ('A' for Active; 'I' for Inactive)
ROOT
HETATM    1  C1  UNL     1     -42.623   5.376  -2.753  1.00 20.00     0.026 C 
HETATM    2  C2  UNL     1     -40.789   4.551  -1.184  1.00 20.00     0.026 C 
HETATM    3  C3  UNL     1     -42.921   6.618  -1.919  1.00 20.00     0.075 C 
HETATM    4  C4  UNL     1     -40.938   5.726  -0.224  1.00 20.00     0.075 C 
HETATM    5  C5  UNL     1     -42.089   4.220  -1.912  1.00 20.00     0.059 C 
HETATM    6  S6  UNL     1     -41.435   7.246  -1.087  1.00 20.00    -0.169 SA
HETATM    7 BR7  UNL     1     -41.775   2.682  -3.088  1.00 20.00    -0.091 Br
ENDROOT
TORSDOF 0
ENDMDL
MODEL 4
REMARK VINA RESULT:      -3.1     12.145     12.442
REMARK  0 active torsions:
REMARK  status: ('A' for Active; 'I' for Inactive)
ROOT
HETATM    1  C1  UNL     1     -33.405  15.038  -3.362  1.00 20.00     0.026 C 
HETATM    2  C2  UNL     1     -35.851  15.757  -3.262  1.00 20.00     0.026 C 
HETATM    3  C3  UNL     1     -33.708  13.746  -4.113  1.00 20.00     0.075 C 
HETATM    4  C4  UNL     1     -36.352  14.523  -4.005  1.00 20.00     0.075 C 
HETATM    5  C5  UNL     1     -34.567  15.490  -2.481  1.00 20.00     0.059 C 
HETATM    6  S6  UNL     1     -35.138  13.925  -5.218  1.00 20.00    -0.169 SA
HETATM    7 BR7  UNL     1     -34.045  17.136  -1.551  1.00 20.00    -0.091 Br
ENDROOT
TORSDOF 0
ENDMDL
MODEL 5
REMARK VINA RESULT:      -3.1     12.858     13.653
REMARK  0 active torsions:
REMARK  status: ('A' for Active; 'I' for Inactive)
ROOT
HETATM    1  C1  UNL     1     -35.092  13.888  -5.127  1.00 20.00     0.026 C 
HETATM    2  C2  UNL     1     -34.184  16.131  -5.935  1.00 20.00     0.026 C 
HETATM    3  C3  UNL     1     -34.199  13.855  -3.891  1.00 20.00     0.075 C 
HETATM    4  C4  UNL     1     -33.218  16.279  -4.765  1.00 20.00     0.075 C 
HETATM    5  C5  UNL     1     -34.469  14.672  -6.279  1.00 20.00     0.059 C 
HETATM    6  S6  UNL     1     -33.871  15.521  -3.249  1.00 20.00    -0.169 SA
HETATM    7 BR7  UNL     1     -35.693  14.616  -7.810  1.00 20.00    -0.091 Br
ENDROOT
TORSDOF 0
ENDMDL
MODEL 6
REMARK VINA RESULT:      -3.1     12.871     13.610
REMARK  0 active torsions:
REMARK  status: ('A' for Active; 'I' for Inactive)
ROOT
HETATM    1  C1  UNL     1     -33.913  15.988  -6.054  1.00 20.00     0.026 C 
HETATM    2  C2  UNL     1     -34.800  13.714  -5.312  1.00 20.00     0.026 C 
HETATM    3  C3  UNL     1     -33.476  16.392  -4.650  1.00 20.00     0.075 C 
HETATM    4  C4  UNL     1     -34.434  13.934  -3.848  1.00 20.00     0.075 C 
HETATM    5  C5  UNL     1     -35.093  15.020  -6.045  1.00 20.00     0.059 C 
HETATM    6  S6  UNL     1     -32.944  14.958  -3.669  1.00 20.00    -0.169 SA
HETATM    7 BR7  UNL     1     -35.577  14.604  -7.899  1.00 20.00    -0.091 Br
ENDROOT
TORSDOF 0
ENDMDL
MODEL 7
REMARK VINA RESULT:      -3.1     12.782     13.613
REMARK  0 active torsions:
REMARK  status: ('A' for Active; 'I' for Inactive)
ROOT
HETATM    1  C1  UNL     1     -34.815  15.805  -5.924  1.00 20.00     0.026 C 
HETATM    2  C2  UNL     1     -33.429  15.663  -3.787  1.00 20.00     0.026 C 
HETATM    3  C3  UNL     1     -34.861  14.293  -6.118  1.00 20.00     0.075 C 
HETATM    4  C4  UNL     1     -33.363  14.140  -3.808  1.00 20.00     0.075 C 
HETATM    5  C5  UNL     1     -33.561  16.263  -5.183  1.00 20.00     0.059 C 
HETATM    6  S6  UNL     1     -34.860  13.408  -4.532  1.00 20.00    -0.169 SA
HETATM    7 BR7  UNL     1     -33.605  18.217  -5.025  1.00 20.00    -0.091 Br
ENDROOT
TORSDOF 0
ENDMDL
MODEL 8
REMARK VINA RESULT:      -3.0      9.469     10.384
REMARK  0 active torsions:
REMARK  status: ('A' for Active; 'I' for Inactive)
ROOT
HETATM    1  C1  UNL     1     -42.575   5.473  -2.644  1.00 20.00     0.026 C 
HETATM    2  C2  UNL     1     -41.637   7.324  -1.160  1.00 20.00     0.026 C 
HETATM    3  C3  UNL     1     -41.859   4.360  -1.886  1.00 20.00     0.075 C 
HETATM    4  C4  UNL     1     -40.845   6.361  -0.282  1.00 20.00     0.075 C 
HETATM    5  C5  UNL     1     -41.825   6.801  -2.581  1.00 20.00     0.059 C 
HETATM    6  S6  UNL     1     -41.676   4.753  -0.122  1.00 20.00    -0.169 SA
HETATM    7 BR7  UNL     1     -42.826   8.136  -3.612  1.00 20.00    -0.091 Br
ENDROOT
TORSDOF 0
ENDMDL
MODEL 9
REMARK VINA RESULT:      -3.0     12.623     13.336
REMARK  0 active torsions:
REMARK  status: ('A' for Active; 'I' for Inactive)
ROOT
HETATM    1  C1  UNL     1     -35.785  15.169  -3.312  1.00 20.00     0.026 C 
HETATM    2  C2  UNL     1     -33.542  16.277  -3.811  1.00 20.00     0.026 C 
HETATM    3  C3  UNL     1     -36.106  14.918  -4.781  1.00 20.00     0.075 C 
HETATM    4  C4  UNL     1     -33.681  16.116  -5.321  1.00 20.00     0.075 C 
HETATM    5  C5  UNL     1     -34.891  16.390  -3.107  1.00 20.00     0.059 C 
HETATM    6  S6  UNL     1     -34.605  14.614  -5.758  1.00 20.00    -0.169 SA
HETATM    7 BR7  UNL     1     -34.578  16.622  -1.185  1.00 20.00    -0.091 Br
ENDROOT
TORSDOF 0
ENDMDL
