MODEL 1
REMARK VINA RESULT:      -3.7      0.000      0.000
REMARK  0 active torsions:
REMARK  status: ('A' for Active; 'I' for Inactive)
ROOT
HETATM    1  C1  UNL     1     -33.648   5.729   4.051  1.00 20.00     0.102 C 
HETATM    2  C2  UNL     1     -34.492   5.953   6.358  1.00 20.00     0.068 C 
HETATM    3  C3  UNL     1     -34.591   3.741   5.164  1.00 20.00     0.068 C 
HETATM    4  C4  UNL     1     -34.650   5.255   5.014  1.00 20.00     0.183 C 
HETATM    5  N5  UNL     1     -32.857   6.106   3.289  1.00 20.00    -0.194 NA
HETATM    6  F6  UNL     1     -35.880   5.577   4.521  1.00 20.00    -0.228 F 
ENDROOT
TORSDOF 0
ENDMDL
MODEL 2
REMARK VINA RESULT:      -3.6      1.352      1.882
REMARK  0 active torsions:
REMARK  status: ('A' for Active; 'I' for Inactive)
ROOT
HETATM    1  C1  UNL     1     -33.194   6.001   4.069  1.00 20.00     0.102 C 
HETATM    2  C2  UNL     1     -35.552   5.306   4.274  1.00 20.00     0.068 C 
HETATM    3  C3  UNL     1     -34.318   6.256   6.249  1.00 20.00     0.068 C 
HETATM    4  C4  UNL     1     -34.205   5.436   4.972  1.00 20.00     0.183 C 
HETATM    5  N5  UNL     1     -32.394   6.446   3.355  1.00 20.00    -0.194 NA
HETATM    6  F6  UNL     1     -33.794   4.182   5.317  1.00 20.00    -0.228 F 
ENDROOT
TORSDOF 0
ENDMDL
MODEL 3
REMARK VINA RESULT:      -3.5      1.512      2.199
REMARK  0 active torsions:
REMARK  status: ('A' for Active; 'I' for Inactive)
ROOT
HETATM    1  C1  UNL     1     -34.321   6.053   5.639  1.00 20.00     0.102 C 
HETATM    2  C2  UNL     1     -34.811   3.732   4.963  1.00 20.00     0.068 C 
HETATM    3  C3  UNL     1     -33.964   5.405   3.286  1.00 20.00     0.068 C 
HETATM    4  C4  UNL     1     -34.795   5.196   4.545  1.00 20.00     0.183 C 
HETATM    5  N5  UNL     1     -33.949   6.731   6.504  1.00 20.00    -0.194 NA
HETATM    6  F6  UNL     1     -36.079   5.561   4.261  1.00 20.00    -0.228 F 
ENDROOT
TORSDOF 0
ENDMDL
MODEL 4
REMARK VINA RESULT:      -3.5     12.398     12.960
REMARK  0 active torsions:
REMARK  status: ('A' for Active; 'I' for Inactive)
ROOT
HETATM    1  C1  UNL     1     -34.186  13.801  -4.185  1.00 20.00     0.102 C 
HETATM    2  C2  UNL     1     -34.086  15.691  -2.603  1.00 20.00     0.068 C 
HETATM    3  C3  UNL     1     -33.381  15.985  -5.000  1.00 20.00     0.068 C 
HETATM    4  C4  UNL     1     -33.460  15.025  -3.821  1.00 20.00     0.183 C 
HETATM    5  N5  UNL     1     -34.757  12.832  -4.471  1.00 20.00    -0.194 NA
HETATM    6  F6  UNL     1     -32.186  14.666  -3.490  1.00 20.00    -0.228 F 
ENDROOT
TORSDOF 0
ENDMDL
MODEL 5
REMARK VINA RESULT:      -3.3      1.822      2.576
REMARK  0 active torsions:
REMARK  status: ('A' for Active; 'I' for Inactive)
ROOT
HETATM    1  C1  UNL     1     -34.675   4.777   4.853  1.00 20.00     0.102 C 
HETATM    2  C2  UNL     1     -32.833   6.053   3.821  1.00 20.00     0.068 C 
HETATM    3  C3  UNL     1     -33.743   6.708   6.072  1.00 20.00     0.068 C 
HETATM    4  C4  UNL     1     -34.066   6.107   4.712  1.00 20.00     0.183 C 
HETATM    5  N5  UNL     1     -35.157   3.728   4.963  1.00 20.00    -0.194 NA
HETATM    6  F6  UNL     1     -34.982   6.917   4.106  1.00 20.00    -0.228 F 
ENDROOT
TORSDOF 0
ENDMDL
MODEL 6
REMARK VINA RESULT:      -3.3      1.971      2.296
REMARK  0 active torsions:
REMARK  status: ('A' for Active; 'I' for Inactive)
ROOT
HETATM    1  C1  UNL     1     -34.169   6.244   5.869  1.00 20.00     0.102 C 
HETATM    2  C2  UNL     1     -35.591   5.730   3.919  1.00 20.00     0.068 C 
HETATM    3  C3  UNL     1     -34.813   3.899   5.458  1.00 20.00     0.068 C 
HETATM    4  C4  UNL     1     -34.475   5.246   4.835  1.00 20.00     0.183 C 
HETATM    5  N5  UNL     1     -33.926   7.033   6.685  1.00 20.00    -0.194 NA
HETATM    6  F6  UNL     1     -33.354   5.084   4.075  1.00 20.00    -0.228 F 
ENDROOT
TORSDOF 0
ENDMDL
MODEL 7
REMARK VINA RESULT:      -3.2     12.344     12.969
REMARK  0 active torsions:
REMARK  status: ('A' for Active; 'I' for Inactive)
ROOT
HETATM    1  C1  UNL     1     -36.135  14.086  -4.234  1.00 20.00     0.102 C 
HETATM    2  C2  UNL     1     -33.726  13.980  -3.715  1.00 20.00     0.068 C 
HETATM    3  C3  UNL     1     -34.520  14.803  -5.955  1.00 20.00     0.068 C 
HETATM    4  C4  UNL     1     -34.795  13.860  -4.792  1.00 20.00     0.183 C 
HETATM    5  N5  UNL     1     -37.194  14.263  -3.793  1.00 20.00    -0.194 NA
HETATM    6  F6  UNL     1     -34.760  12.584  -5.273  1.00 20.00    -0.228 F 
ENDROOT
TORSDOF 0
ENDMDL
MODEL 8
REMARK VINA RESULT:      -3.2      8.817      9.101
REMARK  0 active torsions:
REMARK  status: ('A' for Active; 'I' for Inactive)
ROOT
HETATM    1  C1  UNL     1     -42.398   5.644   0.442  1.00 20.00     0.102 C 
HETATM    2  C2  UNL     1     -41.390   7.043  -1.323  1.00 20.00     0.068 C 
HETATM    3  C3  UNL     1     -40.719   4.633  -1.057  1.00 20.00     0.068 C 
HETATM    4  C4  UNL     1     -41.182   5.896  -0.343  1.00 20.00     0.183 C 
HETATM    5  N5  UNL     1     -43.358   5.446   1.063  1.00 20.00    -0.194 NA
HETATM    6  F6  UNL     1     -40.199   6.266   0.527  1.00 20.00    -0.228 F 
ENDROOT
TORSDOF 0
ENDMDL
MODEL 9
REMARK VINA RESULT:      -3.2     12.158     12.797
REMARK  0 active torsions:
REMARK  status: ('A' for Active; 'I' for Inactive)
ROOT
HETATM    1  C1  UNL     1     -34.701  13.771  -4.023  1.00 20.00     0.102 C 
HETATM    2  C2  UNL     1     -34.981  16.203  -4.332  1.00 20.00     0.068 C 
HETATM    3  C3  UNL     1     -32.754  15.243  -3.665  1.00 20.00     0.068 C 
HETATM    4  C4  UNL     1     -34.266  15.098  -3.566  1.00 20.00     0.183 C 
HETATM    5  N5  UNL     1     -35.046  12.723  -4.382  1.00 20.00    -0.194 NA
HETATM    6  F6  UNL     1     -34.610  15.214  -2.251  1.00 20.00    -0.228 F 
ENDROOT
TORSDOF 0
ENDMDL
