MODEL 1
REMARK VINA RESULT:      -5.0      0.000      0.000
REMARK  5 active torsions:
REMARK  status: ('A' for Active; 'I' for Inactive)
REMARK    1  A    between atoms: C1_1  and  C8_8 
REMARK    2  A    between atoms: C5_5  and  C6_6 
REMARK    3  A    between atoms: C5_5  and  C7_7 
REMARK    4  A    between atoms: C6_6  and  C8_8 
REMARK    5  A    between atoms: C7_7  and  C9_9 
ROOT
HETATM    1  C5  UNL     1     -33.933   5.441   2.794  1.00 20.00     0.001 C 
ENDROOT
BRANCH   1   2
HETATM    2  C6  UNL     1     -32.481   5.935   2.806  1.00 20.00     0.011 C 
BRANCH   2   3
HETATM    3  C8  UNL     1     -32.379   7.452   3.022  1.00 20.00     0.043 C 
HETATM    4  C2  UNL     1     -31.322   7.779   4.075  1.00 20.00     0.017 C 
BRANCH   3   5
HETATM    5  C1  UNL     1     -32.017   8.207   1.755  1.00 20.00     0.235 C 
HETATM    6  O10 UNL     1     -32.352   9.360   1.502  1.00 20.00    -0.306 OA
ENDBRANCH   3   5
ENDBRANCH   2   3
ENDBRANCH   1   2
BRANCH   1   7
HETATM    7  C7  UNL     1     -34.695   5.941   4.027  1.00 20.00     0.004 C 
BRANCH   7   8
HETATM    8  C9  UNL     1     -34.178   5.347   5.350  1.00 20.00    -0.023 C 
HETATM    9  C3  UNL     1     -35.068   4.218   5.872  1.00 20.00     0.009 C 
HETATM   10  C4  UNL     1     -34.069   6.450   6.406  1.00 20.00     0.009 C 
ENDBRANCH   7   8
ENDBRANCH   1   7
TORSDOF 5
ENDMDL
MODEL 2
REMARK VINA RESULT:      -4.9      2.524      5.015
REMARK  5 active torsions:
REMARK  status: ('A' for Active; 'I' for Inactive)
REMARK    1  A    between atoms: C1_1  and  C8_8 
REMARK    2  A    between atoms: C5_5  and  C6_6 
REMARK    3  A    between atoms: C5_5  and  C7_7 
REMARK    4  A    between atoms: C6_6  and  C8_8 
REMARK    5  A    between atoms: C7_7  and  C9_9 
ROOT
HETATM    1  C5  UNL     1     -32.516   6.414   3.116  1.00 20.00     0.001 C 
ENDROOT
BRANCH   1   2
HETATM    2  C6  UNL     1     -33.864   6.557   3.835  1.00 20.00     0.011 C 
BRANCH   2   3
HETATM    3  C8  UNL     1     -33.974   5.644   5.064  1.00 20.00     0.043 C 
HETATM    4  C2  UNL     1     -34.050   6.469   6.347  1.00 20.00     0.017 C 
BRANCH   3   5
HETATM    5  C1  UNL     1     -35.195   4.741   5.023  1.00 20.00     0.235 C 
HETATM    6  O10 UNL     1     -35.164   3.515   5.042  1.00 20.00    -0.306 OA
ENDBRANCH   3   5
ENDBRANCH   2   3
ENDBRANCH   1   2
BRANCH   1   7
HETATM    7  C7  UNL     1     -31.857   7.782   2.904  1.00 20.00     0.004 C 
BRANCH   7   8
HETATM    8  C9  UNL     1     -32.402   8.540   1.678  1.00 20.00    -0.023 C 
HETATM    9  C3  UNL     1     -31.424   8.532   0.503  1.00 20.00     0.009 C 
HETATM   10  C4  UNL     1     -32.731   9.984   2.067  1.00 20.00     0.009 C 
ENDBRANCH   7   8
ENDBRANCH   1   7
TORSDOF 5
ENDMDL
MODEL 3
REMARK VINA RESULT:      -4.7      0.469      1.178
REMARK  5 active torsions:
REMARK  status: ('A' for Active; 'I' for Inactive)
REMARK    1  A    between atoms: C1_1  and  C8_8 
REMARK    2  A    between atoms: C5_5  and  C6_6 
REMARK    3  A    between atoms: C5_5  and  C7_7 
REMARK    4  A    between atoms: C6_6  and  C8_8 
REMARK    5  A    between atoms: C7_7  and  C9_9 
ROOT
HETATM    1  C5  UNL     1     -33.809   5.309   2.978  1.00 20.00     0.001 C 
ENDROOT
BRANCH   1   2
HETATM    2  C6  UNL     1     -32.377   5.860   3.006  1.00 20.00     0.011 C 
BRANCH   2   3
HETATM    3  C8  UNL     1     -32.339   7.387   3.163  1.00 20.00     0.043 C 
HETATM    4  C2  UNL     1     -31.257   7.802   4.157  1.00 20.00     0.017 C 
BRANCH   3   5
HETATM    5  C1  UNL     1     -32.065   8.109   1.855  1.00 20.00     0.235 C 
HETATM    6  O10 UNL     1     -32.357   9.277   1.621  1.00 20.00    -0.306 OA
ENDBRANCH   3   5
ENDBRANCH   2   3
ENDBRANCH   1   2
BRANCH   1   7
HETATM    7  C7  UNL     1     -34.725   6.111   3.909  1.00 20.00     0.004 C 
BRANCH   7   8
HETATM    8  C9  UNL     1     -35.050   5.383   5.227  1.00 20.00    -0.023 C 
HETATM    9  C3  UNL     1     -34.211   5.893   6.399  1.00 20.00     0.009 C 
HETATM   10  C4  UNL     1     -34.835   3.878   5.053  1.00 20.00     0.009 C 
ENDBRANCH   7   8
ENDBRANCH   1   7
TORSDOF 5
ENDMDL
MODEL 4
REMARK VINA RESULT:      -4.7      1.924      4.415
REMARK  5 active torsions:
REMARK  status: ('A' for Active; 'I' for Inactive)
REMARK    1  A    between atoms: C1_1  and  C8_8 
REMARK    2  A    between atoms: C5_5  and  C6_6 
REMARK    3  A    between atoms: C5_5  and  C7_7 
REMARK    4  A    between atoms: C6_6  and  C8_8 
REMARK    5  A    between atoms: C7_7  and  C9_9 
ROOT
HETATM    1  C5  UNL     1     -33.864   5.338   2.932  1.00 20.00     0.001 C 
ENDROOT
BRANCH   1   2
HETATM    2  C6  UNL     1     -34.712   6.132   3.934  1.00 20.00     0.011 C 
BRANCH   2   3
HETATM    3  C8  UNL     1     -35.109   5.295   5.160  1.00 20.00     0.043 C 
HETATM    4  C2  UNL     1     -34.789   3.819   4.933  1.00 20.00     0.017 C 
BRANCH   3   5
HETATM    5  C1  UNL     1     -34.398   5.732   6.429  1.00 20.00     0.235 C 
HETATM    6  O10 UNL     1     -33.778   6.782   6.562  1.00 20.00    -0.306 OA
ENDBRANCH   3   5
ENDBRANCH   2   3
ENDBRANCH   1   2
BRANCH   1   7
HETATM    7  C7  UNL     1     -32.433   5.884   2.869  1.00 20.00     0.004 C 
BRANCH   7   8
HETATM    8  C9  UNL     1     -32.350   7.411   3.055  1.00 20.00    -0.023 C 
HETATM    9  C3  UNL     1     -32.027   8.144   1.752  1.00 20.00     0.009 C 
HETATM   10  C4  UNL     1     -31.296   7.747   4.113  1.00 20.00     0.009 C 
ENDBRANCH   7   8
ENDBRANCH   1   7
TORSDOF 5
ENDMDL
MODEL 5
REMARK VINA RESULT:      -4.5      1.222      1.734
REMARK  5 active torsions:
REMARK  status: ('A' for Active; 'I' for Inactive)
REMARK    1  A    between atoms: C1_1  and  C8_8 
REMARK    2  A    between atoms: C5_5  and  C6_6 
REMARK    3  A    between atoms: C5_5  and  C7_7 
REMARK    4  A    between atoms: C6_6  and  C8_8 
REMARK    5  A    between atoms: C7_7  and  C9_9 
ROOT
HETATM    1  C5  UNL     1     -32.485   6.406   3.067  1.00 20.00     0.001 C 
ENDROOT
BRANCH   1   2
HETATM    2  C6  UNL     1     -31.858   7.786   2.829  1.00 20.00     0.011 C 
BRANCH   2   3
HETATM    3  C8  UNL     1     -32.628   8.608   1.785  1.00 20.00     0.043 C 
HETATM    4  C2  UNL     1     -32.710  10.074   2.204  1.00 20.00     0.017 C 
BRANCH   3   5
HETATM    5  C1  UNL     1     -31.993   8.557   0.406  1.00 20.00     0.235 C 
HETATM    6  O10 UNL     1     -32.566   8.830  -0.643  1.00 20.00    -0.306 OA
ENDBRANCH   3   5
ENDBRANCH   2   3
ENDBRANCH   1   2
BRANCH   1   7
HETATM    7  C7  UNL     1     -33.836   6.531   3.779  1.00 20.00     0.004 C 
BRANCH   7   8
HETATM    8  C9  UNL     1     -33.986   5.580   4.981  1.00 20.00    -0.023 C 
HETATM    9  C3  UNL     1     -35.199   4.658   4.851  1.00 20.00     0.009 C 
HETATM   10  C4  UNL     1     -34.090   6.392   6.274  1.00 20.00     0.009 C 
ENDBRANCH   7   8
ENDBRANCH   1   7
TORSDOF 5
ENDMDL
MODEL 6
REMARK VINA RESULT:      -4.4      2.569      5.070
REMARK  5 active torsions:
REMARK  status: ('A' for Active; 'I' for Inactive)
REMARK    1  A    between atoms: C1_1  and  C8_8 
REMARK    2  A    between atoms: C5_5  and  C6_6 
REMARK    3  A    between atoms: C5_5  and  C7_7 
REMARK    4  A    between atoms: C6_6  and  C8_8 
REMARK    5  A    between atoms: C7_7  and  C9_9 
ROOT
HETATM    1  C5  UNL     1     -32.616   6.422   3.281  1.00 20.00     0.001 C 
ENDROOT
BRANCH   1   2
HETATM    2  C6  UNL     1     -33.172   6.458   4.710  1.00 20.00     0.011 C 
BRANCH   2   3
HETATM    3  C8  UNL     1     -34.609   5.922   4.795  1.00 20.00     0.043 C 
HETATM    4  C2  UNL     1     -35.117   5.516   3.413  1.00 20.00     0.017 C 
BRANCH   3   5
HETATM    5  C1  UNL     1     -34.736   4.714   5.707  1.00 20.00     0.235 C 
HETATM    6  O10 UNL     1     -34.977   3.571   5.332  1.00 20.00    -0.306 OA
ENDBRANCH   3   5
ENDBRANCH   2   3
ENDBRANCH   1   2
BRANCH   1   7
HETATM    7  C7  UNL     1     -31.852   7.710   2.955  1.00 20.00     0.004 C 
BRANCH   7   8
HETATM    8  C9  UNL     1     -32.439   8.486   1.761  1.00 20.00    -0.023 C 
HETATM    9  C3  UNL     1     -31.493   8.513   0.559  1.00 20.00     0.009 C 
HETATM   10  C4  UNL     1     -32.774   9.917   2.187  1.00 20.00     0.009 C 
ENDBRANCH   7   8
ENDBRANCH   1   7
TORSDOF 5
ENDMDL
MODEL 7
REMARK VINA RESULT:      -4.2     11.196     12.141
REMARK  5 active torsions:
REMARK  status: ('A' for Active; 'I' for Inactive)
REMARK    1  A    between atoms: C1_1  and  C8_8 
REMARK    2  A    between atoms: C5_5  and  C6_6 
REMARK    3  A    between atoms: C5_5  and  C7_7 
REMARK    4  A    between atoms: C6_6  and  C8_8 
REMARK    5  A    between atoms: C7_7  and  C9_9 
ROOT
HETATM    1  C5  UNL     1     -33.281  15.507  -3.343  1.00 20.00     0.001 C 
ENDROOT
BRANCH   1   2
HETATM    2  C6  UNL     1     -33.650  15.835  -4.795  1.00 20.00     0.011 C 
BRANCH   2   3
HETATM    3  C8  UNL     1     -34.621  14.810  -5.400  1.00 20.00     0.043 C 
HETATM    4  C2  UNL     1     -34.549  14.830  -6.925  1.00 20.00     0.017 C 
BRANCH   3   5
HETATM    5  C1  UNL     1     -34.340  13.389  -4.943  1.00 20.00     0.235 C 
HETATM    6  O10 UNL     1     -35.124  12.684  -4.315  1.00 20.00    -0.306 OA
ENDBRANCH   3   5
ENDBRANCH   2   3
ENDBRANCH   1   2
BRANCH   1   7
HETATM    7  C7  UNL     1     -34.373  15.979  -2.377  1.00 20.00     0.004 C 
BRANCH   7   8
HETATM    8  C9  UNL     1     -33.871  16.992  -1.331  1.00 20.00    -0.023 C 
HETATM    9  C3  UNL     1     -34.802  17.097  -0.122  1.00 20.00     0.009 C 
HETATM   10  C4  UNL     1     -33.710  18.369  -1.980  1.00 20.00     0.009 C 
ENDBRANCH   7   8
ENDBRANCH   1   7
TORSDOF 5
ENDMDL
MODEL 8
REMARK VINA RESULT:      -4.1     10.853     11.666
REMARK  5 active torsions:
REMARK  status: ('A' for Active; 'I' for Inactive)
REMARK    1  A    between atoms: C1_1  and  C8_8 
REMARK    2  A    between atoms: C5_5  and  C6_6 
REMARK    3  A    between atoms: C5_5  and  C7_7 
REMARK    4  A    between atoms: C6_6  and  C8_8 
REMARK    5  A    between atoms: C7_7  and  C9_9 
ROOT
HETATM    1  C5  UNL     1     -34.172  16.464  -1.917  1.00 20.00     0.001 C 
ENDROOT
BRANCH   1   2
HETATM    2  C6  UNL     1     -35.187  15.618  -2.697  1.00 20.00     0.011 C 
BRANCH   2   3
HETATM    3  C8  UNL     1     -34.540  14.848  -3.858  1.00 20.00     0.043 C 
HETATM    4  C2  UNL     1     -33.056  14.610  -3.589  1.00 20.00     0.017 C 
BRANCH   3   5
HETATM    5  C1  UNL     1     -35.187  13.497  -4.105  1.00 20.00     0.235 C 
HETATM    6  O10 UNL     1     -34.735  12.624  -4.840  1.00 20.00    -0.306 OA
ENDBRANCH   3   5
ENDBRANCH   2   3
ENDBRANCH   1   2
BRANCH   1   7
HETATM    7  C7  UNL     1     -34.686  16.778  -0.507  1.00 20.00     0.004 C 
BRANCH   7   8
HETATM    8  C9  UNL     1     -34.259  18.166   0.007  1.00 20.00    -0.023 C 
HETATM    9  C3  UNL     1     -32.816  18.509  -0.365  1.00 20.00     0.009 C 
HETATM   10  C4  UNL     1     -34.432  18.231   1.526  1.00 20.00     0.009 C 
ENDBRANCH   7   8
ENDBRANCH   1   7
TORSDOF 5
ENDMDL
MODEL 9
REMARK VINA RESULT:      -4.1     11.215     12.224
REMARK  5 active torsions:
REMARK  status: ('A' for Active; 'I' for Inactive)
REMARK    1  A    between atoms: C1_1  and  C8_8 
REMARK    2  A    between atoms: C5_5  and  C6_6 
REMARK    3  A    between atoms: C5_5  and  C7_7 
REMARK    4  A    between atoms: C6_6  and  C8_8 
REMARK    5  A    between atoms: C7_7  and  C9_9 
ROOT
HETATM    1  C5  UNL     1     -35.763  16.295  -4.511  1.00 20.00     0.001 C 
ENDROOT
BRANCH   1   2
HETATM    2  C6  UNL     1     -36.387  15.090  -5.227  1.00 20.00     0.011 C 
BRANCH   2   3
HETATM    3  C8  UNL     1     -35.361  14.303  -6.055  1.00 20.00     0.043 C 
HETATM    4  C2  UNL     1     -34.316  15.242  -6.655  1.00 20.00     0.017 C 
BRANCH   3   5
HETATM    5  C1  UNL     1     -34.625  13.252  -5.242  1.00 20.00     0.235 C 
HETATM    6  O10 UNL     1     -35.046  12.740  -4.210  1.00 20.00    -0.306 OA
ENDBRANCH   3   5
ENDBRANCH   2   3
ENDBRANCH   1   2
BRANCH   1   7
HETATM    7  C7  UNL     1     -36.003  16.220  -2.998  1.00 20.00     0.004 C 
BRANCH   7   8
HETATM    8  C9  UNL     1     -34.747  15.829  -2.197  1.00 20.00    -0.023 C 
HETATM    9  C3  UNL     1     -34.614  16.619  -0.894  1.00 20.00     0.009 C 
HETATM   10  C4  UNL     1     -33.498  16.038  -3.057  1.00 20.00     0.009 C 
ENDBRANCH   7   8
ENDBRANCH   1   7
TORSDOF 5
ENDMDL
