MODEL 1
REMARK VINA RESULT:      -4.1      0.000      0.000
REMARK  0 active torsions:
REMARK  status: ('A' for Active; 'I' for Inactive)
ROOT
HETATM    1  C1  UNL     1     -33.451   6.301   3.765  1.00 20.00     0.223 A 
HETATM    2  C2  UNL     1     -34.417   6.498   4.952  1.00 20.00     0.096 A 
HETATM    3  C3  UNL     1     -35.095   5.185   4.447  1.00 20.00     0.093 A 
HETATM    4  C4  UNL     1     -33.765   6.532   6.321  1.00 20.00     0.022 C 
HETATM    5  C5  UNL     1     -35.033   3.919   5.277  1.00 20.00     0.033 C 
HETATM    6  N6  UNL     1     -34.097   5.168   3.383  1.00 20.00    -0.356 N 
HETATM    7  O7  UNL     1     -32.490   6.880   3.312  1.00 20.00    -0.273 OA
HETATM    8  H16 UNL     1     -33.913   4.540   2.612  1.00 20.00     0.162 HD
ENDROOT
TORSDOF 0
ENDMDL
MODEL 2
REMARK VINA RESULT:      -3.8      2.164      3.022
REMARK  0 active torsions:
REMARK  status: ('A' for Active; 'I' for Inactive)
ROOT
HETATM    1  C1  UNL     1     -34.830   4.553   5.154  1.00 20.00     0.223 A 
HETATM    2  C2  UNL     1     -34.519   5.903   4.475  1.00 20.00     0.096 A 
HETATM    3  C3  UNL     1     -34.511   6.481   5.926  1.00 20.00     0.093 A 
HETATM    4  C4  UNL     1     -33.251   5.935   3.643  1.00 20.00     0.022 C 
HETATM    5  C5  UNL     1     -33.225   6.995   6.541  1.00 20.00     0.033 C 
HETATM    6  N6  UNL     1     -34.812   5.130   6.385  1.00 20.00    -0.356 N 
HETATM    7  O7  UNL     1     -35.018   3.414   4.793  1.00 20.00    -0.273 OA
HETATM    8  H16 UNL     1     -34.956   4.721   7.299  1.00 20.00     0.162 HD
ENDROOT
TORSDOF 0
ENDMDL
MODEL 3
REMARK VINA RESULT:      -3.8     11.817     12.595
REMARK  0 active torsions:
REMARK  status: ('A' for Active; 'I' for Inactive)
ROOT
HETATM    1  C1  UNL     1     -34.458  13.715  -4.005  1.00 20.00     0.223 A 
HETATM    2  C2  UNL     1     -34.633  14.899  -3.031  1.00 20.00     0.096 A 
HETATM    3  C3  UNL     1     -33.343  15.469  -3.700  1.00 20.00     0.093 A 
HETATM    4  C4  UNL     1     -35.944  15.653  -3.154  1.00 20.00     0.022 C 
HETATM    5  C5  UNL     1     -33.405  16.725  -4.545  1.00 20.00     0.033 C 
HETATM    6  N6  UNL     1     -33.337  14.273  -4.535  1.00 20.00    -0.356 N 
HETATM    7  O7  UNL     1     -35.047  12.687  -4.249  1.00 20.00    -0.273 OA
HETATM    8  H16 UNL     1     -32.729  13.941  -5.272  1.00 20.00     0.162 HD
ENDROOT
TORSDOF 0
ENDMDL
MODEL 4
REMARK VINA RESULT:      -3.7      1.753      2.387
REMARK  0 active torsions:
REMARK  status: ('A' for Active; 'I' for Inactive)
ROOT
HETATM    1  C1  UNL     1     -34.077   6.341   5.600  1.00 20.00     0.223 A 
HETATM    2  C2  UNL     1     -35.099   5.275   5.152  1.00 20.00     0.096 A 
HETATM    3  C3  UNL     1     -34.810   5.795   3.708  1.00 20.00     0.093 A 
HETATM    4  C4  UNL     1     -34.751   3.846   5.523  1.00 20.00     0.022 C 
HETATM    5  C5  UNL     1     -34.106   4.912   2.699  1.00 20.00     0.033 C 
HETATM    6  N6  UNL     1     -33.883   6.743   4.316  1.00 20.00    -0.356 N 
HETATM    7  O7  UNL     1     -33.600   6.711   6.649  1.00 20.00    -0.273 OA
HETATM    8  H16 UNL     1     -33.278   7.463   3.943  1.00 20.00     0.162 HD
ENDROOT
TORSDOF 0
ENDMDL
MODEL 5
REMARK VINA RESULT:      -3.7     11.922     12.266
REMARK  0 active torsions:
REMARK  status: ('A' for Active; 'I' for Inactive)
ROOT
HETATM    1  C1  UNL     1     -34.900  13.757  -4.200  1.00 20.00     0.223 A 
HETATM    2  C2  UNL     1     -33.838  14.877  -4.205  1.00 20.00     0.096 A 
HETATM    3  C3  UNL     1     -34.909  15.715  -3.436  1.00 20.00     0.093 A 
HETATM    4  C4  UNL     1     -32.525  14.529  -3.529  1.00 20.00     0.022 C 
HETATM    5  C5  UNL     1     -34.684  16.110  -1.991  1.00 20.00     0.033 C 
HETATM    6  N6  UNL     1     -35.782  14.550  -3.535  1.00 20.00    -0.356 N 
HETATM    7  O7  UNL     1     -34.975  12.619  -4.604  1.00 20.00    -0.273 OA
HETATM    8  H16 UNL     1     -36.723  14.357  -3.220  1.00 20.00     0.162 HD
ENDROOT
TORSDOF 0
ENDMDL
MODEL 6
REMARK VINA RESULT:      -3.7     11.958     12.606
REMARK  0 active torsions:
REMARK  status: ('A' for Active; 'I' for Inactive)
ROOT
HETATM    1  C1  UNL     1     -36.804  14.909  -3.536  1.00 20.00     0.223 A 
HETATM    2  C2  UNL     1     -35.309  15.071  -3.884  1.00 20.00     0.096 A 
HETATM    3  C3  UNL     1     -35.350  16.290  -2.908  1.00 20.00     0.093 A 
HETATM    4  C4  UNL     1     -34.434  13.875  -3.561  1.00 20.00     0.022 C 
HETATM    5  C5  UNL     1     -34.589  16.252  -1.599  1.00 20.00     0.033 C 
HETATM    6  N6  UNL     1     -36.762  15.985  -2.706  1.00 20.00    -0.356 N 
HETATM    7  O7  UNL     1     -37.697  14.152  -3.840  1.00 20.00    -0.273 OA
HETATM    8  H16 UNL     1     -37.491  16.403  -2.143  1.00 20.00     0.162 HD
ENDROOT
TORSDOF 0
ENDMDL
MODEL 7
REMARK VINA RESULT:      -3.6      1.824      2.646
REMARK  0 active torsions:
REMARK  status: ('A' for Active; 'I' for Inactive)
ROOT
HETATM    1  C1  UNL     1     -34.857   5.491   3.854  1.00 20.00     0.223 A 
HETATM    2  C2  UNL     1     -33.713   5.566   4.887  1.00 20.00     0.096 A 
HETATM    3  C3  UNL     1     -32.794   5.839   3.654  1.00 20.00     0.093 A 
HETATM    4  C4  UNL     1     -33.875   6.629   5.958  1.00 20.00     0.022 C 
HETATM    5  C5  UNL     1     -32.130   7.188   3.474  1.00 20.00     0.033 C 
HETATM    6  N6  UNL     1     -33.993   5.727   2.830  1.00 20.00    -0.356 N 
HETATM    7  O7  UNL     1     -36.052   5.306   3.882  1.00 20.00    -0.273 OA
HETATM    8  H16 UNL     1     -34.165   5.803   1.837  1.00 20.00     0.162 HD
ENDROOT
TORSDOF 0
ENDMDL
MODEL 8
REMARK VINA RESULT:      -3.5     12.442     13.524
REMARK  0 active torsions:
REMARK  status: ('A' for Active; 'I' for Inactive)
ROOT
HETATM    1  C1  UNL     1     -34.730  13.735  -4.800  1.00 20.00     0.223 A 
HETATM    2  C2  UNL     1     -35.174  14.867  -5.749  1.00 20.00     0.096 A 
HETATM    3  C3  UNL     1     -34.504  15.822  -4.711  1.00 20.00     0.093 A 
HETATM    4  C4  UNL     1     -34.626  14.783  -7.161  1.00 20.00     0.022 C 
HETATM    5  C5  UNL     1     -33.257  16.601  -5.077  1.00 20.00     0.033 C 
HETATM    6  N6  UNL     1     -34.172  14.629  -3.940  1.00 20.00    -0.356 N 
HETATM    7  O7  UNL     1     -34.810  12.528  -4.777  1.00 20.00    -0.273 OA
HETATM    8  H16 UNL     1     -33.687  14.477  -3.066  1.00 20.00     0.162 HD
ENDROOT
TORSDOF 0
ENDMDL
MODEL 9
REMARK VINA RESULT:      -3.5     12.251     13.084
REMARK  0 active torsions:
REMARK  status: ('A' for Active; 'I' for Inactive)
ROOT
HETATM    1  C1  UNL     1     -34.573  13.688  -4.713  1.00 20.00     0.223 A 
HETATM    2  C2  UNL     1     -33.856  14.846  -3.988  1.00 20.00     0.096 A 
HETATM    3  C3  UNL     1     -33.934  15.581  -5.363  1.00 20.00     0.093 A 
HETATM    4  C4  UNL     1     -34.589  15.412  -2.786  1.00 20.00     0.022 C 
HETATM    5  C5  UNL     1     -34.806  16.809  -5.530  1.00 20.00     0.033 C 
HETATM    6  N6  UNL     1     -34.598  14.389  -5.878  1.00 20.00    -0.356 N 
HETATM    7  O7  UNL     1     -34.976  12.586  -4.419  1.00 20.00    -0.273 OA
HETATM    8  H16 UNL     1     -34.972  14.136  -6.783  1.00 20.00     0.162 HD
ENDROOT
TORSDOF 0
ENDMDL
