MODEL 1
REMARK VINA RESULT:      -5.1      0.000      0.000
REMARK  0 active torsions:
REMARK  status: ('A' for Active; 'I' for Inactive)
ROOT
HETATM    1  C1  UNL     1     -34.670  14.890  -5.672  1.00 20.00    -0.013 C 
HETATM    2  C2  UNL     1     -34.709  15.964  -4.883  1.00 20.00    -0.066 C 
HETATM    3  C3  UNL     1     -34.666  13.750  -4.729  1.00 20.00     0.156 C 
HETATM    4  C4  UNL     1     -34.420  17.400  -5.154  1.00 20.00     0.036 C 
HETATM    5  C5  UNL     1     -34.548  14.206  -3.294  1.00 20.00     0.093 C 
HETATM    6  C6  UNL     1     -34.027  17.926  -3.762  1.00 20.00     0.009 C 
HETATM    7  C7  UNL     1     -34.807  15.697  -3.415  1.00 20.00     0.026 C 
HETATM    8  C8  UNL     1     -33.754  16.674  -2.904  1.00 20.00    -0.010 C 
HETATM    9  C9  UNL     1     -34.503  14.754  -7.134  1.00 20.00     0.052 C 
HETATM   10  C10 UNL     1     -33.860  16.939  -1.412  1.00 20.00     0.010 C 
HETATM   11  O11 UNL     1     -34.700  12.581  -5.083  1.00 20.00    -0.293 OA
ENDROOT
TORSDOF 0
ENDMDL
MODEL 2
REMARK VINA RESULT:      -4.8      1.859      2.997
REMARK  0 active torsions:
REMARK  status: ('A' for Active; 'I' for Inactive)
ROOT
HETATM    1  C1  UNL     1     -34.770  15.162  -6.862  1.00 20.00    -0.013 C 
HETATM    2  C2  UNL     1     -34.377  14.791  -5.643  1.00 20.00    -0.066 C 
HETATM    3  C3  UNL     1     -34.450  16.605  -6.919  1.00 20.00     0.156 C 
HETATM    4  C4  UNL     1     -34.690  13.581  -4.830  1.00 20.00     0.036 C 
HETATM    5  C5  UNL     1     -33.973  17.130  -5.585  1.00 20.00     0.093 C 
HETATM    6  C6  UNL     1     -34.480  14.087  -3.392  1.00 20.00     0.009 C 
HETATM    7  C7  UNL     1     -33.720  15.848  -4.814  1.00 20.00     0.026 C 
HETATM    8  C8  UNL     1     -34.445  15.626  -3.491  1.00 20.00    -0.010 C 
HETATM    9  C9  UNL     1     -35.506  14.435  -7.918  1.00 20.00     0.052 C 
HETATM   10  C10 UNL     1     -33.748  16.283  -2.312  1.00 20.00     0.010 C 
HETATM   11  O11 UNL     1     -34.607  17.292  -7.918  1.00 20.00    -0.293 OA
ENDROOT
TORSDOF 0
ENDMDL
MODEL 3
REMARK VINA RESULT:      -4.7      2.213      4.380
REMARK  0 active torsions:
REMARK  status: ('A' for Active; 'I' for Inactive)
ROOT
HETATM    1  C1  UNL     1     -35.210  16.131  -2.679  1.00 20.00    -0.013 C 
HETATM    2  C2  UNL     1     -35.194  15.086  -3.506  1.00 20.00    -0.066 C 
HETATM    3  C3  UNL     1     -35.889  17.193  -3.454  1.00 20.00     0.156 C 
HETATM    4  C4  UNL     1     -34.402  13.824  -3.489  1.00 20.00     0.036 C 
HETATM    5  C5  UNL     1     -36.152  16.770  -4.879  1.00 20.00     0.093 C 
HETATM    6  C6  UNL     1     -34.386  13.424  -4.974  1.00 20.00     0.009 C 
HETATM    7  C7  UNL     1     -35.882  15.278  -4.820  1.00 20.00     0.026 C 
HETATM    8  C8  UNL     1     -34.832  14.680  -5.750  1.00 20.00    -0.010 C 
HETATM    9  C9  UNL     1     -34.587  16.343  -1.356  1.00 20.00     0.052 C 
HETATM   10  C10 UNL     1     -35.371  14.364  -7.135  1.00 20.00     0.010 C 
HETATM   11  O11 UNL     1     -36.153  18.297  -2.999  1.00 20.00    -0.293 OA
ENDROOT
TORSDOF 0
ENDMDL
MODEL 4
REMARK VINA RESULT:      -4.7      5.005      7.602
REMARK  0 active torsions:
REMARK  status: ('A' for Active; 'I' for Inactive)
ROOT
HETATM    1  C1  UNL     1     -33.066  18.552   2.818  1.00 20.00    -0.013 C 
HETATM    2  C2  UNL     1     -33.873  18.465   1.760  1.00 20.00    -0.066 C 
HETATM    3  C3  UNL     1     -31.777  19.003   2.250  1.00 20.00     0.156 C 
HETATM    4  C4  UNL     1     -35.184  17.782   1.571  1.00 20.00     0.036 C 
HETATM    5  C5  UNL     1     -31.807  19.039   0.740  1.00 20.00     0.093 C 
HETATM    6  C6  UNL     1     -35.209  17.531   0.053  1.00 20.00     0.009 C 
HETATM    7  C7  UNL     1     -33.289  18.892   0.451  1.00 20.00     0.026 C 
HETATM    8  C8  UNL     1     -33.759  17.739  -0.430  1.00 20.00    -0.010 C 
HETATM    9  C9  UNL     1     -33.256  18.160   4.230  1.00 20.00     0.052 C 
HETATM   10  C10 UNL     1     -33.664  18.045  -1.915  1.00 20.00     0.010 C 
HETATM   11  O11 UNL     1     -30.794  19.263   2.929  1.00 20.00    -0.293 OA
ENDROOT
TORSDOF 0
ENDMDL
MODEL 5
REMARK VINA RESULT:      -4.6      1.035      1.035
REMARK  0 active torsions:
REMARK  status: ('A' for Active; 'I' for Inactive)
ROOT
HETATM    1  C1  UNL     1     -35.612  14.838  -5.477  1.00 20.00    -0.013 C 
HETATM    2  C2  UNL     1     -35.787  15.741  -4.512  1.00 20.00    -0.066 C 
HETATM    3  C3  UNL     1     -34.913  13.722  -4.801  1.00 20.00     0.156 C 
HETATM    4  C4  UNL     1     -36.126  17.192  -4.567  1.00 20.00     0.036 C 
HETATM    5  C5  UNL     1     -34.533  14.071  -3.382  1.00 20.00     0.093 C 
HETATM    6  C6  UNL     1     -35.541  17.717  -3.245  1.00 20.00     0.009 C 
HETATM    7  C7  UNL     1     -35.330  15.341  -3.146  1.00 20.00     0.026 C 
HETATM    8  C8  UNL     1     -34.592  16.612  -2.739  1.00 20.00    -0.010 C 
HETATM    9  C9  UNL     1     -35.862  14.896  -6.932  1.00 20.00     0.052 C 
HETATM   10  C10 UNL     1     -34.324  16.694  -1.246  1.00 20.00     0.010 C 
HETATM   11  O11 UNL     1     -34.635  12.667  -5.353  1.00 20.00    -0.293 OA
ENDROOT
TORSDOF 0
ENDMDL
MODEL 6
REMARK VINA RESULT:      -4.5      2.225      3.758
REMARK  0 active torsions:
REMARK  status: ('A' for Active; 'I' for Inactive)
ROOT
HETATM    1  C1  UNL     1     -33.636  17.745  -4.748  1.00 20.00    -0.013 C 
HETATM    2  C2  UNL     1     -33.733  16.519  -5.262  1.00 20.00    -0.066 C 
HETATM    3  C3  UNL     1     -33.705  17.528  -3.286  1.00 20.00     0.156 C 
HETATM    4  C4  UNL     1     -34.047  16.048  -6.641  1.00 20.00     0.036 C 
HETATM    5  C5  UNL     1     -34.008  16.089  -2.943  1.00 20.00     0.093 C 
HETATM    6  C6  UNL     1     -34.620  14.643  -6.386  1.00 20.00     0.009 C 
HETATM    7  C7  UNL     1     -33.797  15.396  -4.276  1.00 20.00     0.026 C 
HETATM    8  C8  UNL     1     -34.942  14.589  -4.879  1.00 20.00    -0.010 C 
HETATM    9  C9  UNL     1     -33.625  19.078  -5.387  1.00 20.00     0.052 C 
HETATM   10  C10 UNL     1     -35.022  13.171  -4.338  1.00 20.00     0.010 C 
HETATM   11  O11 UNL     1     -33.582  18.425  -2.464  1.00 20.00    -0.293 OA
ENDROOT
TORSDOF 0
ENDMDL
MODEL 7
REMARK VINA RESULT:      -4.5      1.289      2.546
REMARK  0 active torsions:
REMARK  status: ('A' for Active; 'I' for Inactive)
ROOT
HETATM    1  C1  UNL     1     -34.403  14.544  -4.821  1.00 20.00    -0.013 C 
HETATM    2  C2  UNL     1     -33.865  15.550  -4.130  1.00 20.00    -0.066 C 
HETATM    3  C3  UNL     1     -34.449  15.048  -6.212  1.00 20.00     0.156 C 
HETATM    4  C4  UNL     1     -33.826  15.835  -2.668  1.00 20.00     0.036 C 
HETATM    5  C5  UNL     1     -34.043  16.500  -6.299  1.00 20.00     0.093 C 
HETATM    6  C6  UNL     1     -33.668  17.364  -2.634  1.00 20.00     0.009 C 
HETATM    7  C7  UNL     1     -33.442  16.743  -4.928  1.00 20.00     0.026 C 
HETATM    8  C8  UNL     1     -34.016  17.853  -4.055  1.00 20.00    -0.010 C 
HETATM    9  C9  UNL     1     -34.995  13.263  -4.386  1.00 20.00     0.052 C 
HETATM   10  C10 UNL     1     -33.437  19.222  -4.372  1.00 20.00     0.010 C 
HETATM   11  O11 UNL     1     -34.825  14.376  -7.161  1.00 20.00    -0.293 OA
ENDROOT
TORSDOF 0
ENDMDL
MODEL 8
REMARK VINA RESULT:      -4.4      1.686      3.209
REMARK  0 active torsions:
REMARK  status: ('A' for Active; 'I' for Inactive)
ROOT
HETATM    1  C1  UNL     1     -33.705  14.676  -4.697  1.00 20.00    -0.013 C 
HETATM    2  C2  UNL     1     -33.804  15.735  -5.500  1.00 20.00    -0.066 C 
HETATM    3  C3  UNL     1     -34.631  13.686  -5.290  1.00 20.00     0.156 C 
HETATM    4  C4  UNL     1     -33.401  17.157  -5.314  1.00 20.00     0.036 C 
HETATM    5  C5  UNL     1     -35.426  14.272  -6.433  1.00 20.00     0.093 C 
HETATM    6  C6  UNL     1     -34.351  17.898  -6.271  1.00 20.00     0.009 C 
HETATM    7  C7  UNL     1     -34.689  15.573  -6.695  1.00 20.00     0.026 C 
HETATM    8  C8  UNL     1     -35.461  16.886  -6.624  1.00 20.00    -0.010 C 
HETATM    9  C9  UNL     1     -33.003  14.484  -3.410  1.00 20.00     0.052 C 
HETATM   10  C10 UNL     1     -36.185  17.223  -7.917  1.00 20.00     0.010 C 
HETATM   11  O11 UNL     1     -34.767  12.548  -4.864  1.00 20.00    -0.293 OA
ENDROOT
TORSDOF 0
ENDMDL
MODEL 9
REMARK VINA RESULT:      -4.4      2.017      2.771
REMARK  0 active torsions:
REMARK  status: ('A' for Active; 'I' for Inactive)
ROOT
HETATM    1  C1  UNL     1     -34.593  14.267  -3.909  1.00 20.00    -0.013 C 
HETATM    2  C2  UNL     1     -35.634  14.931  -3.406  1.00 20.00    -0.066 C 
HETATM    3  C3  UNL     1     -33.416  14.989  -3.379  1.00 20.00     0.156 C 
HETATM    4  C4  UNL     1     -37.076  14.938  -3.781  1.00 20.00     0.036 C 
HETATM    5  C5  UNL     1     -33.811  16.244  -2.637  1.00 20.00     0.093 C 
HETATM    6  C6  UNL     1     -37.538  16.320  -3.287  1.00 20.00     0.009 C 
HETATM    7  C7  UNL     1     -35.308  16.057  -2.477  1.00 20.00     0.026 C 
HETATM    8  C8  UNL     1     -36.248  17.125  -3.027  1.00 20.00    -0.010 C 
HETATM    9  C9  UNL     1     -34.515  13.169  -4.895  1.00 20.00     0.052 C 
HETATM   10  C10 UNL     1     -36.454  18.288  -2.072  1.00 20.00     0.010 C 
HETATM   11  O11 UNL     1     -32.262  14.632  -3.571  1.00 20.00    -0.293 OA
ENDROOT
TORSDOF 0
ENDMDL
