MODEL 1
REMARK VINA RESULT:      -4.5      0.000      0.000
REMARK  0 active torsions:
REMARK  status: ('A' for Active; 'I' for Inactive)
ROOT
HETATM    1  C1  UNL     1     -34.781   4.665   4.692  1.00 20.00     0.223 A 
HETATM    2  C2  UNL     1     -33.763   5.669   5.272  1.00 20.00     0.096 A 
HETATM    3  C3  UNL     1     -33.916   6.410   3.911  1.00 20.00     0.093 A 
HETATM    4  C4  UNL     1     -34.215   6.420   6.509  1.00 20.00     0.022 C 
HETATM    5  C5  UNL     1     -32.694   6.476   3.020  1.00 20.00     0.033 C 
HETATM    6  N6  UNL     1     -34.816   5.335   3.509  1.00 20.00    -0.356 N 
HETATM    7  O7  UNL     1     -35.351   3.671   5.080  1.00 20.00    -0.273 OA
HETATM    8  H16 UNL     1     -35.357   5.157   2.674  1.00 20.00     0.162 HD
ENDROOT
TORSDOF 0
ENDMDL
MODEL 2
REMARK VINA RESULT:      -3.8     12.238     13.052
REMARK  0 active torsions:
REMARK  status: ('A' for Active; 'I' for Inactive)
ROOT
HETATM    1  C1  UNL     1     -34.248  13.559  -4.658  1.00 20.00     0.223 A 
HETATM    2  C2  UNL     1     -34.508  15.034  -5.030  1.00 20.00     0.096 A 
HETATM    3  C3  UNL     1     -33.294  15.345  -4.105  1.00 20.00     0.093 A 
HETATM    4  C4  UNL     1     -34.349  15.378  -6.498  1.00 20.00     0.022 C 
HETATM    5  C5  UNL     1     -33.569  16.150  -2.853  1.00 20.00     0.033 C 
HETATM    6  N6  UNL     1     -33.237  13.914  -3.822  1.00 20.00    -0.356 N 
HETATM    7  O7  UNL     1     -34.718  12.484  -4.954  1.00 20.00    -0.273 OA
HETATM    8  H16 UNL     1     -32.621  13.341  -3.262  1.00 20.00     0.162 HD
ENDROOT
TORSDOF 0
ENDMDL
MODEL 3
REMARK VINA RESULT:      -3.7     12.658     13.125
REMARK  0 active torsions:
REMARK  status: ('A' for Active; 'I' for Inactive)
ROOT
HETATM    1  C1  UNL     1     -33.495  16.092  -4.190  1.00 20.00     0.223 A 
HETATM    2  C2  UNL     1     -34.648  15.671  -3.255  1.00 20.00     0.096 A 
HETATM    3  C3  UNL     1     -34.155  14.218  -3.516  1.00 20.00     0.093 A 
HETATM    4  C4  UNL     1     -34.554  16.175  -1.829  1.00 20.00     0.022 C 
HETATM    5  C5  UNL     1     -35.098  13.289  -4.251  1.00 20.00     0.033 C 
HETATM    6  N6  UNL     1     -33.160  14.794  -4.415  1.00 20.00    -0.356 N 
HETATM    7  O7  UNL     1     -33.030  17.134  -4.595  1.00 20.00    -0.273 OA
HETATM    8  H16 UNL     1     -32.414  14.399  -4.971  1.00 20.00     0.162 HD
ENDROOT
TORSDOF 0
ENDMDL
MODEL 4
REMARK VINA RESULT:      -3.7      2.000      2.364
REMARK  0 active torsions:
REMARK  status: ('A' for Active; 'I' for Inactive)
ROOT
HETATM    1  C1  UNL     1     -34.011   6.372   5.711  1.00 20.00     0.223 A 
HETATM    2  C2  UNL     1     -34.898   5.228   5.175  1.00 20.00     0.096 A 
HETATM    3  C3  UNL     1     -33.964   5.264   3.929  1.00 20.00     0.093 A 
HETATM    4  C4  UNL     1     -34.889   3.952   5.993  1.00 20.00     0.022 C 
HETATM    5  C5  UNL     1     -34.587   5.671   2.611  1.00 20.00     0.033 C 
HETATM    6  N6  UNL     1     -33.277   6.382   4.566  1.00 20.00    -0.356 N 
HETATM    7  O7  UNL     1     -33.947   7.030   6.724  1.00 20.00    -0.273 OA
HETATM    8  H16 UNL     1     -32.478   6.945   4.309  1.00 20.00     0.162 HD
ENDROOT
TORSDOF 0
ENDMDL
MODEL 5
REMARK VINA RESULT:      -3.6     11.691     12.298
REMARK  0 active torsions:
REMARK  status: ('A' for Active; 'I' for Inactive)
ROOT
HETATM    1  C1  UNL     1     -33.932  13.637  -3.777  1.00 20.00     0.223 A 
HETATM    2  C2  UNL     1     -34.480  15.076  -3.672  1.00 20.00     0.096 A 
HETATM    3  C3  UNL     1     -35.872  14.424  -3.918  1.00 20.00     0.093 A 
HETATM    4  C4  UNL     1     -34.278  15.759  -2.334  1.00 20.00     0.022 C 
HETATM    5  C5  UNL     1     -36.591  14.794  -5.198  1.00 20.00     0.033 C 
HETATM    6  N6  UNL     1     -35.172  13.150  -4.046  1.00 20.00    -0.356 N 
HETATM    7  O7  UNL     1     -32.852  13.101  -3.673  1.00 20.00    -0.273 OA
HETATM    8  H16 UNL     1     -35.480  12.200  -4.203  1.00 20.00     0.162 HD
ENDROOT
TORSDOF 0
ENDMDL
MODEL 6
REMARK VINA RESULT:      -3.6      2.198      3.137
REMARK  0 active torsions:
REMARK  status: ('A' for Active; 'I' for Inactive)
ROOT
HETATM    1  C1  UNL     1     -33.730   6.531   6.215  1.00 20.00     0.223 A 
HETATM    2  C2  UNL     1     -33.618   5.896   4.813  1.00 20.00     0.096 A 
HETATM    3  C3  UNL     1     -34.926   5.142   5.192  1.00 20.00     0.093 A 
HETATM    4  C4  UNL     1     -33.704   6.861   3.647  1.00 20.00     0.022 C 
HETATM    5  C5  UNL     1     -34.844   3.635   5.316  1.00 20.00     0.033 C 
HETATM    6  N6  UNL     1     -34.837   5.793   6.496  1.00 20.00    -0.356 N 
HETATM    7  O7  UNL     1     -33.116   7.352   6.857  1.00 20.00    -0.273 OA
HETATM    8  H16 UNL     1     -35.422   5.781   7.320  1.00 20.00     0.162 HD
ENDROOT
TORSDOF 0
ENDMDL
MODEL 7
REMARK VINA RESULT:      -3.6     12.574     13.093
REMARK  0 active torsions:
REMARK  status: ('A' for Active; 'I' for Inactive)
ROOT
HETATM    1  C1  UNL     1     -34.692  13.671  -4.804  1.00 20.00     0.223 A 
HETATM    2  C2  UNL     1     -34.941  14.899  -3.903  1.00 20.00     0.096 A 
HETATM    3  C3  UNL     1     -34.496  15.733  -5.140  1.00 20.00     0.093 A 
HETATM    4  C4  UNL     1     -36.369  15.090  -3.433  1.00 20.00     0.022 C 
HETATM    5  C5  UNL     1     -33.221  16.539  -5.008  1.00 20.00     0.033 C 
HETATM    6  N6  UNL     1     -34.260  14.463  -5.820  1.00 20.00    -0.356 N 
HETATM    7  O7  UNL     1     -34.813  12.471  -4.704  1.00 20.00    -0.273 OA
HETATM    8  H16 UNL     1     -33.954  14.220  -6.752  1.00 20.00     0.162 HD
ENDROOT
TORSDOF 0
ENDMDL
MODEL 8
REMARK VINA RESULT:      -3.6     12.757     13.386
REMARK  0 active torsions:
REMARK  status: ('A' for Active; 'I' for Inactive)
ROOT
HETATM    1  C1  UNL     1     -33.529  16.315  -4.170  1.00 20.00     0.223 A 
HETATM    2  C2  UNL     1     -33.623  15.155  -3.157  1.00 20.00     0.096 A 
HETATM    3  C3  UNL     1     -34.802  15.964  -2.538  1.00 20.00     0.093 A 
HETATM    4  C4  UNL     1     -33.964  13.799  -3.742  1.00 20.00     0.022 C 
HETATM    5  C5  UNL     1     -34.613  16.493  -1.133  1.00 20.00     0.033 C 
HETATM    6  N6  UNL     1     -34.527  16.990  -3.539  1.00 20.00    -0.356 N 
HETATM    7  O7  UNL     1     -32.862  16.576  -5.145  1.00 20.00    -0.273 OA
HETATM    8  H16 UNL     1     -34.960  17.875  -3.764  1.00 20.00     0.162 HD
ENDROOT
TORSDOF 0
ENDMDL
MODEL 9
REMARK VINA RESULT:      -3.6      2.290      3.224
REMARK  0 active torsions:
REMARK  status: ('A' for Active; 'I' for Inactive)
ROOT
HETATM    1  C1  UNL     1     -33.373   6.334   4.194  1.00 20.00     0.223 A 
HETATM    2  C2  UNL     1     -34.543   5.362   3.931  1.00 20.00     0.096 A 
HETATM    3  C3  UNL     1     -34.793   5.455   5.465  1.00 20.00     0.093 A 
HETATM    4  C4  UNL     1     -35.643   5.888   3.031  1.00 20.00     0.022 C 
HETATM    5  C5  UNL     1     -34.601   4.190   6.274  1.00 20.00     0.033 C 
HETATM    6  N6  UNL     1     -33.618   6.318   5.531  1.00 20.00    -0.356 N 
HETATM    7  O7  UNL     1     -32.544   6.909   3.526  1.00 20.00    -0.273 OA
HETATM    8  H16 UNL     1     -33.160   6.813   6.284  1.00 20.00     0.162 HD
ENDROOT
TORSDOF 0
ENDMDL
