MODEL 1
REMARK VINA RESULT:      -4.4      0.000      0.000
REMARK  1 active torsions:
REMARK  status: ('A' for Active; 'I' for Inactive)
REMARK    1  A    between atoms: C1_1  and  C5_5 
ROOT
HETATM    1  C2  UNL     1     -33.758   6.248   5.476  1.00 20.00     0.042 C 
HETATM    2  C3  UNL     1     -34.860   5.290   5.860  1.00 20.00     0.168 C 
HETATM    3  C4  UNL     1     -34.846   5.308   3.556  1.00 20.00     0.181 C 
HETATM    4  C5  UNL     1     -34.019   6.499   4.008  1.00 20.00     0.098 C 
HETATM    5  O7  UNL     1     -35.065   4.476   4.704  1.00 20.00    -0.390 OA
ENDROOT
BRANCH   4   6
HETATM    6  C1  UNL     1     -32.705   6.529   3.256  1.00 20.00     0.225 C 
HETATM    7  O6  UNL     1     -31.960   5.554   3.218  1.00 20.00    -0.279 OA
HETATM    8 CL8  UNL     1     -32.422   8.065   2.494  1.00 20.00    -0.043 Cl
ENDBRANCH   4   6
TORSDOF 1
ENDMDL
MODEL 2
REMARK VINA RESULT:      -4.1      2.454      3.428
REMARK  1 active torsions:
REMARK  status: ('A' for Active; 'I' for Inactive)
REMARK    1  A    between atoms: C1_1  and  C5_5 
ROOT
HETATM    1  C2  UNL     1     -34.831   5.313   3.657  1.00 20.00     0.042 C 
HETATM    2  C3  UNL     1     -33.959   5.274   2.425  1.00 20.00     0.168 C 
HETATM    3  C4  UNL     1     -32.846   6.637   3.914  1.00 20.00     0.181 C 
HETATM    4  C5  UNL     1     -34.261   6.473   4.443  1.00 20.00     0.098 C 
HETATM    5  O7  UNL     1     -32.660   5.663   2.876  1.00 20.00    -0.390 OA
ENDROOT
BRANCH   4   6
HETATM    6  C1  UNL     1     -34.222   6.118   5.915  1.00 20.00     0.225 C 
HETATM    7  O6  UNL     1     -33.709   6.863   6.745  1.00 20.00    -0.279 OA
HETATM    8 CL8  UNL     1     -34.973   4.585   6.239  1.00 20.00    -0.043 Cl
ENDBRANCH   4   6
TORSDOF 1
ENDMDL
MODEL 3
REMARK VINA RESULT:      -4.0      2.217      3.570
REMARK  1 active torsions:
REMARK  status: ('A' for Active; 'I' for Inactive)
REMARK    1  A    between atoms: C1_1  and  C5_5 
ROOT
HETATM    1  C2  UNL     1     -33.790   5.316   2.887  1.00 20.00     0.042 C 
HETATM    2  C3  UNL     1     -32.698   6.340   2.686  1.00 20.00     0.168 C 
HETATM    3  C4  UNL     1     -33.569   6.780   4.774  1.00 20.00     0.181 C 
HETATM    4  C5  UNL     1     -34.551   5.856   4.076  1.00 20.00     0.098 C 
HETATM    5  O7  UNL     1     -32.360   6.785   4.001  1.00 20.00    -0.390 OA
ENDROOT
BRANCH   4   6
HETATM    6  C1  UNL     1     -34.930   4.715   4.998  1.00 20.00     0.225 C 
HETATM    7  O6  UNL     1     -35.238   3.609   4.564  1.00 20.00    -0.279 OA
HETATM    8 CL8  UNL     1     -34.867   5.178   6.672  1.00 20.00    -0.043 Cl
ENDBRANCH   4   6
TORSDOF 1
ENDMDL
MODEL 4
REMARK VINA RESULT:      -3.9     11.587     12.267
REMARK  1 active torsions:
REMARK  status: ('A' for Active; 'I' for Inactive)
REMARK    1  A    between atoms: C1_1  and  C5_5 
ROOT
HETATM    1  C2  UNL     1     -35.248  15.203  -2.999  1.00 20.00     0.042 C 
HETATM    2  C3  UNL     1     -34.545  16.450  -2.518  1.00 20.00     0.168 C 
HETATM    3  C4  UNL     1     -32.984  15.321  -3.784  1.00 20.00     0.181 C 
HETATM    4  C5  UNL     1     -34.112  14.343  -3.505  1.00 20.00     0.098 C 
HETATM    5  O7  UNL     1     -33.449  16.628  -3.417  1.00 20.00    -0.390 OA
ENDROOT
BRANCH   4   6
HETATM    6  C1  UNL     1     -34.528  13.656  -4.789  1.00 20.00     0.225 C 
HETATM    7  O6  UNL     1     -34.882  12.480  -4.808  1.00 20.00    -0.279 OA
HETATM    8 CL8  UNL     1     -34.436  14.720  -6.160  1.00 20.00    -0.043 Cl
ENDBRANCH   4   6
TORSDOF 1
ENDMDL
MODEL 5
REMARK VINA RESULT:      -3.8     11.433     12.266
REMARK  1 active torsions:
REMARK  status: ('A' for Active; 'I' for Inactive)
REMARK    1  A    between atoms: C1_1  and  C5_5 
ROOT
HETATM    1  C2  UNL     1     -34.769  15.635  -2.385  1.00 20.00     0.042 C 
HETATM    2  C3  UNL     1     -33.911  16.860  -2.595  1.00 20.00     0.168 C 
HETATM    3  C4  UNL     1     -33.328  15.410  -4.290  1.00 20.00     0.181 C 
HETATM    4  C5  UNL     1     -34.114  14.601  -3.272  1.00 20.00     0.098 C 
HETATM    5  O7  UNL     1     -33.503  16.797  -3.963  1.00 20.00    -0.390 OA
ENDROOT
BRANCH   4   6
HETATM    6  C1  UNL     1     -35.180  13.785  -3.974  1.00 20.00     0.225 C 
HETATM    7  O6  UNL     1     -34.926  12.701  -4.491  1.00 20.00    -0.279 OA
HETATM    8 CL8  UNL     1     -36.731  14.567  -3.939  1.00 20.00    -0.043 Cl
ENDBRANCH   4   6
TORSDOF 1
ENDMDL
MODEL 6
REMARK VINA RESULT:      -3.7     12.099     13.205
REMARK  1 active torsions:
REMARK  status: ('A' for Active; 'I' for Inactive)
REMARK    1  A    between atoms: C1_1  and  C5_5 
ROOT
HETATM    1  C2  UNL     1     -34.671  14.721  -6.591  1.00 20.00     0.042 C 
HETATM    2  C3  UNL     1     -34.253  16.130  -6.938  1.00 20.00     0.168 C 
HETATM    3  C4  UNL     1     -34.248  16.043  -4.634  1.00 20.00     0.181 C 
HETATM    4  C5  UNL     1     -34.997  14.813  -5.118  1.00 20.00     0.098 C 
HETATM    5  O7  UNL     1     -33.587  16.617  -5.772  1.00 20.00    -0.390 OA
ENDROOT
BRANCH   4   6
HETATM    6  C1  UNL     1     -34.479  13.581  -4.405  1.00 20.00     0.225 C 
HETATM    7  O6  UNL     1     -35.110  12.528  -4.394  1.00 20.00    -0.279 OA
HETATM    8 CL8  UNL     1     -32.942  13.863  -3.644  1.00 20.00    -0.043 Cl
ENDBRANCH   4   6
TORSDOF 1
ENDMDL
MODEL 7
REMARK VINA RESULT:      -3.6     11.713     12.068
REMARK  1 active torsions:
REMARK  status: ('A' for Active; 'I' for Inactive)
REMARK    1  A    between atoms: C1_1  and  C5_5 
ROOT
HETATM    1  C2  UNL     1     -33.668  13.949  -3.885  1.00 20.00     0.042 C 
HETATM    2  C3  UNL     1     -34.542  13.254  -4.901  1.00 20.00     0.168 C 
HETATM    3  C4  UNL     1     -35.919  14.777  -3.853  1.00 20.00     0.181 C 
HETATM    4  C5  UNL     1     -34.668  14.659  -3.001  1.00 20.00     0.098 C 
HETATM    5  O7  UNL     1     -35.644  14.139  -5.109  1.00 20.00    -0.390 OA
ENDROOT
BRANCH   4   6
HETATM    6  C1  UNL     1     -34.149  16.039  -2.652  1.00 20.00     0.225 C 
HETATM    7  O6  UNL     1     -33.541  16.725  -3.468  1.00 20.00    -0.279 OA
HETATM    8 CL8  UNL     1     -34.523  16.484  -1.014  1.00 20.00    -0.043 Cl
ENDBRANCH   4   6
TORSDOF 1
ENDMDL
MODEL 8
REMARK VINA RESULT:      -3.6     11.997     13.021
REMARK  1 active torsions:
REMARK  status: ('A' for Active; 'I' for Inactive)
REMARK    1  A    between atoms: C1_1  and  C5_5 
ROOT
HETATM    1  C2  UNL     1     -34.790  16.200  -5.130  1.00 20.00     0.042 C 
HETATM    2  C3  UNL     1     -33.594  17.052  -4.780  1.00 20.00     0.168 C 
HETATM    3  C4  UNL     1     -33.152  14.981  -3.871  1.00 20.00     0.181 C 
HETATM    4  C5  UNL     1     -34.628  14.996  -4.231  1.00 20.00     0.098 C 
HETATM    5  O7  UNL     1     -32.547  16.124  -4.494  1.00 20.00    -0.390 OA
ENDROOT
BRANCH   4   6
HETATM    6  C1  UNL     1     -34.984  13.738  -4.996  1.00 20.00     0.225 C 
HETATM    7  O6  UNL     1     -35.030  12.640  -4.448  1.00 20.00    -0.279 OA
HETATM    8 CL8  UNL     1     -35.302  14.061  -6.674  1.00 20.00    -0.043 Cl
ENDBRANCH   4   6
TORSDOF 1
ENDMDL
MODEL 9
REMARK VINA RESULT:      -3.6     11.495     12.371
REMARK  1 active torsions:
REMARK  status: ('A' for Active; 'I' for Inactive)
REMARK    1  A    between atoms: C1_1  and  C5_5 
ROOT
HETATM    1  C2  UNL     1     -34.854  14.296  -5.982  1.00 20.00     0.042 C 
HETATM    2  C3  UNL     1     -36.166  14.916  -6.399  1.00 20.00     0.168 C 
HETATM    3  C4  UNL     1     -36.426  14.381  -4.172  1.00 20.00     0.181 C 
HETATM    4  C5  UNL     1     -35.186  13.649  -4.657  1.00 20.00     0.098 C 
HETATM    5  O7  UNL     1     -36.781  15.339  -5.180  1.00 20.00    -0.390 OA
ENDROOT
BRANCH   4   6
HETATM    6  C1  UNL     1     -34.045  13.868  -3.685  1.00 20.00     0.225 C 
HETATM    7  O6  UNL     1     -33.092  13.097  -3.625  1.00 20.00    -0.279 OA
HETATM    8 CL8  UNL     1     -34.273  15.294  -2.719  1.00 20.00    -0.043 Cl
ENDBRANCH   4   6
TORSDOF 1
ENDMDL
