MODEL 1
REMARK VINA RESULT:      -4.7      0.000      0.000
REMARK  0 active torsions:
REMARK  status: ('A' for Active; 'I' for Inactive)
ROOT
HETATM    1  C1  UNL     1     -34.997  13.546  -4.422  1.00 20.00    -0.030 C 
HETATM    2  C2  UNL     1     -33.951  13.844  -3.641  1.00 20.00    -0.023 C 
HETATM    3  C3  UNL     1     -34.263  16.926  -4.182  1.00 20.00     0.150 C 
HETATM    4  C4  UNL     1     -35.463  14.397  -5.564  1.00 20.00     0.027 C 
HETATM    5  C5  UNL     1     -34.341  15.231  -6.175  1.00 20.00     0.016 C 
HETATM    6  C6  UNL     1     -33.184  15.108  -3.824  1.00 20.00     0.045 C 
HETATM    7  C7  UNL     1     -33.523  15.939  -5.106  1.00 20.00     0.067 C 
HETATM    8  C8  UNL     1     -33.622  16.313  -2.918  1.00 20.00     0.160 C 
HETATM    9  O9  UNL     1     -35.043  17.835  -4.378  1.00 20.00    -0.296 OA
HETATM   10 CL10 UNL     1     -34.747  16.092  -1.552  1.00 20.00    -0.116 Cl
ENDROOT
TORSDOF 0
ENDMDL
MODEL 2
REMARK VINA RESULT:      -4.6      2.203      3.039
REMARK  0 active torsions:
REMARK  status: ('A' for Active; 'I' for Inactive)
ROOT
HETATM    1  C1  UNL     1     -33.961  16.019  -6.661  1.00 20.00    -0.030 C 
HETATM    2  C2  UNL     1     -33.958  16.493  -5.409  1.00 20.00    -0.023 C 
HETATM    3  C3  UNL     1     -35.039  13.779  -4.245  1.00 20.00     0.150 C 
HETATM    4  C4  UNL     1     -34.863  14.924  -7.144  1.00 20.00     0.027 C 
HETATM    5  C5  UNL     1     -36.166  14.841  -6.354  1.00 20.00     0.016 C 
HETATM    6  C6  UNL     1     -34.841  15.911  -4.359  1.00 20.00     0.045 C 
HETATM    7  C7  UNL     1     -35.917  14.889  -4.855  1.00 20.00     0.067 C 
HETATM    8  C8  UNL     1     -34.193  14.802  -3.456  1.00 20.00     0.160 C 
HETATM    9  O9  UNL     1     -35.025  12.569  -4.345  1.00 20.00    -0.296 OA
HETATM   10 CL10 UNL     1     -32.438  14.486  -3.482  1.00 20.00    -0.116 Cl
ENDROOT
TORSDOF 0
ENDMDL
MODEL 3
REMARK VINA RESULT:      -4.6      2.172      3.473
REMARK  0 active torsions:
REMARK  status: ('A' for Active; 'I' for Inactive)
ROOT
HETATM    1  C1  UNL     1     -33.257  16.237  -4.562  1.00 20.00    -0.030 C 
HETATM    2  C2  UNL     1     -33.741  16.016  -5.791  1.00 20.00    -0.023 C 
HETATM    3  C3  UNL     1     -36.041  14.173  -4.689  1.00 20.00     0.150 C 
HETATM    4  C4  UNL     1     -33.422  15.293  -3.410  1.00 20.00     0.027 C 
HETATM    5  C5  UNL     1     -33.582  13.842  -3.855  1.00 20.00     0.016 C 
HETATM    6  C6  UNL     1     -34.549  14.801  -6.097  1.00 20.00     0.045 C 
HETATM    7  C7  UNL     1     -34.599  13.709  -4.978  1.00 20.00     0.067 C 
HETATM    8  C8  UNL     1     -36.107  14.974  -6.009  1.00 20.00     0.160 C 
HETATM    9  O9  UNL     1     -36.819  13.979  -3.779  1.00 20.00    -0.296 OA
HETATM   10 CL10 UNL     1     -36.860  16.584  -5.859  1.00 20.00    -0.116 Cl
ENDROOT
TORSDOF 0
ENDMDL
MODEL 4
REMARK VINA RESULT:      -4.6      2.124      3.220
REMARK  0 active torsions:
REMARK  status: ('A' for Active; 'I' for Inactive)
ROOT
HETATM    1  C1  UNL     1     -32.934  14.810  -3.490  1.00 20.00    -0.030 C 
HETATM    2  C2  UNL     1     -33.649  13.815  -4.030  1.00 20.00    -0.023 C 
HETATM    3  C3  UNL     1     -36.039  15.739  -4.724  1.00 20.00     0.150 C 
HETATM    4  C4  UNL     1     -33.533  16.044  -2.887  1.00 20.00     0.027 C 
HETATM    5  C5  UNL     1     -34.942  15.814  -2.349  1.00 20.00     0.016 C 
HETATM    6  C6  UNL     1     -35.134  13.890  -4.120  1.00 20.00     0.045 C 
HETATM    7  C7  UNL     1     -35.811  15.073  -3.352  1.00 20.00     0.067 C 
HETATM    8  C8  UNL     1     -35.712  14.430  -5.477  1.00 20.00     0.160 C 
HETATM    9  O9  UNL     1     -36.355  16.857  -5.072  1.00 20.00    -0.296 OA
HETATM   10 CL10 UNL     1     -34.676  14.643  -6.913  1.00 20.00    -0.116 Cl
ENDROOT
TORSDOF 0
ENDMDL
MODEL 5
REMARK VINA RESULT:      -4.5      1.853      2.305
REMARK  0 active torsions:
REMARK  status: ('A' for Active; 'I' for Inactive)
ROOT
HETATM    1  C1  UNL     1     -35.831  13.757  -4.303  1.00 20.00    -0.030 C 
HETATM    2  C2  UNL     1     -36.132  14.768  -3.478  1.00 20.00    -0.023 C 
HETATM    3  C3  UNL     1     -33.554  16.372  -4.298  1.00 20.00     0.150 C 
HETATM    4  C4  UNL     1     -34.438  13.410  -4.734  1.00 20.00     0.027 C 
HETATM    5  C5  UNL     1     -33.383  13.827  -3.713  1.00 20.00     0.016 C 
HETATM    6  C6  UNL     1     -35.077  15.680  -2.955  1.00 20.00     0.045 C 
HETATM    7  C7  UNL     1     -33.598  15.255  -3.237  1.00 20.00     0.067 C 
HETATM    8  C8  UNL     1     -34.856  17.008  -3.764  1.00 20.00     0.160 C 
HETATM    9  O9  UNL     1     -32.788  16.645  -5.199  1.00 20.00    -0.296 OA
HETATM   10 CL10 UNL     1     -35.998  17.528  -5.032  1.00 20.00    -0.116 Cl
ENDROOT
TORSDOF 0
ENDMDL
MODEL 6
REMARK VINA RESULT:      -4.5      2.397      3.562
REMARK  0 active torsions:
REMARK  status: ('A' for Active; 'I' for Inactive)
ROOT
HETATM    1  C1  UNL     1     -34.026  17.187  -4.348  1.00 20.00    -0.030 C 
HETATM    2  C2  UNL     1     -33.337  16.128  -4.790  1.00 20.00    -0.023 C 
HETATM    3  C3  UNL     1     -35.645  14.140  -4.008  1.00 20.00     0.150 C 
HETATM    4  C4  UNL     1     -35.075  17.122  -3.280  1.00 20.00     0.027 C 
HETATM    5  C5  UNL     1     -34.855  15.966  -2.308  1.00 20.00     0.016 C 
HETATM    6  C6  UNL     1     -33.608  14.757  -4.273  1.00 20.00     0.045 C 
HETATM    7  C7  UNL     1     -34.566  14.665  -3.040  1.00 20.00     0.067 C 
HETATM    8  C8  UNL     1     -34.604  13.889  -5.121  1.00 20.00     0.160 C 
HETATM    9  O9  UNL     1     -36.845  13.982  -3.923  1.00 20.00    -0.296 OA
HETATM   10 CL10 UNL     1     -35.128  14.395  -6.750  1.00 20.00    -0.116 Cl
ENDROOT
TORSDOF 0
ENDMDL
MODEL 7
REMARK VINA RESULT:      -4.5      2.655      3.691
REMARK  0 active torsions:
REMARK  status: ('A' for Active; 'I' for Inactive)
ROOT
HETATM    1  C1  UNL     1     -35.708  16.889  -3.941  1.00 20.00    -0.030 C 
HETATM    2  C2  UNL     1     -34.974  16.848  -5.061  1.00 20.00    -0.023 C 
HETATM    3  C3  UNL     1     -34.516  13.748  -4.799  1.00 20.00     0.150 C 
HETATM    4  C4  UNL     1     -35.576  15.912  -2.813  1.00 20.00     0.027 C 
HETATM    5  C5  UNL     1     -34.179  15.303  -2.721  1.00 20.00     0.016 C 
HETATM    6  C6  UNL     1     -33.979  15.764  -5.295  1.00 20.00     0.045 C 
HETATM    7  C7  UNL     1     -33.685  14.827  -4.077  1.00 20.00     0.067 C 
HETATM    8  C8  UNL     1     -34.489  14.534  -6.127  1.00 20.00     0.160 C 
HETATM    9  O9  UNL     1     -35.000  12.690  -4.453  1.00 20.00    -0.296 OA
HETATM   10 CL10 UNL     1     -36.048  14.576  -6.993  1.00 20.00    -0.116 Cl
ENDROOT
TORSDOF 0
ENDMDL
MODEL 8
REMARK VINA RESULT:      -4.4     11.979     13.408
REMARK  0 active torsions:
REMARK  status: ('A' for Active; 'I' for Inactive)
ROOT
HETATM    1  C1  UNL     1     -40.731   6.038  -0.129  1.00 20.00    -0.030 C 
HETATM    2  C2  UNL     1     -41.512   4.962   0.031  1.00 20.00    -0.023 C 
HETATM    3  C3  UNL     1     -43.153   5.609  -2.574  1.00 20.00     0.150 C 
HETATM    4  C4  UNL     1     -41.148   7.279  -0.859  1.00 20.00     0.027 C 
HETATM    5  C5  UNL     1     -42.658   7.499  -0.833  1.00 20.00     0.016 C 
HETATM    6  C6  UNL     1     -42.875   4.899  -0.569  1.00 20.00     0.045 C 
HETATM    7  C7  UNL     1     -43.416   6.230  -1.187  1.00 20.00     0.067 C 
HETATM    8  C8  UNL     1     -42.975   4.198  -1.970  1.00 20.00     0.160 C 
HETATM    9  O9  UNL     1     -43.108   6.058  -3.700  1.00 20.00    -0.296 OA
HETATM   10 CL10 UNL     1     -41.611   3.271  -2.650  1.00 20.00    -0.116 Cl
ENDROOT
TORSDOF 0
ENDMDL
MODEL 9
REMARK VINA RESULT:      -4.4      1.472      2.022
REMARK  0 active torsions:
REMARK  status: ('A' for Active; 'I' for Inactive)
ROOT
HETATM    1  C1  UNL     1     -37.029  15.255  -4.998  1.00 20.00    -0.030 C 
HETATM    2  C2  UNL     1     -36.587  14.430  -4.040  1.00 20.00    -0.023 C 
HETATM    3  C3  UNL     1     -33.602  15.322  -4.472  1.00 20.00     0.150 C 
HETATM    4  C4  UNL     1     -36.200  15.718  -6.157  1.00 20.00     0.027 C 
HETATM    5  C5  UNL     1     -35.102  14.725  -6.531  1.00 20.00     0.016 C 
HETATM    6  C6  UNL     1     -35.180  13.938  -4.031  1.00 20.00     0.045 C 
HETATM    7  C7  UNL     1     -34.333  14.253  -5.308  1.00 20.00     0.067 C 
HETATM    8  C8  UNL     1     -34.172  14.761  -3.151  1.00 20.00     0.160 C 
HETATM    9  O9  UNL     1     -32.862  16.243  -4.748  1.00 20.00    -0.296 OA
HETATM   10 CL10 UNL     1     -34.736  16.004  -2.003  1.00 20.00    -0.116 Cl
ENDROOT
TORSDOF 0
ENDMDL
