MODEL 1
REMARK VINA RESULT:      -4.1      0.000      0.000
REMARK  2 active torsions:
REMARK  status: ('A' for Active; 'I' for Inactive)
REMARK    1  A    between atoms: C1_1  and  C3_3 
REMARK    2  A    between atoms: C5_5  and  O10_10 
ROOT
HETATM    1  C2  UNL     1     -34.249  13.840  -3.508  1.00 20.00     0.074 C 
HETATM    2  C3  UNL     1     -35.447  13.724  -4.430  1.00 20.00     0.080 C 
HETATM    3  C4  UNL     1     -34.868  14.198  -5.754  1.00 20.00     0.131 C 
HETATM    4  C5  UNL     1     -33.476  15.024  -4.079  1.00 20.00     0.260 C 
HETATM    5  C6  UNL     1     -35.858  14.718  -6.780  1.00 20.00     0.040 C 
HETATM    6  O9  UNL     1     -33.909  15.217  -5.433  1.00 20.00    -0.356 OA
ENDROOT
BRANCH   2   7
HETATM    7  C1  UNL     1     -36.576  14.568  -3.916  1.00 20.00     0.238 C 
HETATM    8  O8  UNL     1     -37.721  14.153  -3.773  1.00 20.00    -0.306 OA
ENDBRANCH   2   7
BRANCH   4   9
HETATM    9  O10 UNL     1     -33.672  16.202  -3.308  1.00 20.00    -0.366 OA
HETATM   10  C7  UNL     1     -33.724  17.360  -4.128  1.00 20.00     0.204 C 
ENDBRANCH   4   9
TORSDOF 2
ENDMDL
MODEL 2
REMARK VINA RESULT:      -4.0      1.733      2.829
REMARK  2 active torsions:
REMARK  status: ('A' for Active; 'I' for Inactive)
REMARK    1  A    between atoms: C1_1  and  C3_3 
REMARK    2  A    between atoms: C5_5  and  O10_10 
ROOT
HETATM    1  C2  UNL     1     -34.719  14.959  -3.004  1.00 20.00     0.074 C 
HETATM    2  C3  UNL     1     -34.038  14.782  -4.348  1.00 20.00     0.080 C 
HETATM    3  C4  UNL     1     -34.521  16.009  -5.106  1.00 20.00     0.131 C 
HETATM    4  C5  UNL     1     -36.023  15.666  -3.358  1.00 20.00     0.260 C 
HETATM    5  C6  UNL     1     -34.488  15.926  -6.621  1.00 20.00     0.040 C 
HETATM    6  O9  UNL     1     -35.860  16.262  -4.653  1.00 20.00    -0.356 OA
ENDROOT
BRANCH   2   7
HETATM    7  C1  UNL     1     -34.451  13.477  -4.965  1.00 20.00     0.238 C 
HETATM    8  O8  UNL     1     -34.972  12.565  -4.332  1.00 20.00    -0.306 OA
ENDBRANCH   2   7
BRANCH   4   9
HETATM    9  O10 UNL     1     -37.128  14.772  -3.343  1.00 20.00    -0.366 OA
HETATM   10  C7  UNL     1     -37.982  14.980  -4.458  1.00 20.00     0.204 C 
ENDBRANCH   4   9
TORSDOF 2
ENDMDL
MODEL 3
REMARK VINA RESULT:      -4.0      1.947      2.269
REMARK  2 active torsions:
REMARK  status: ('A' for Active; 'I' for Inactive)
REMARK    1  A    between atoms: C1_1  and  C3_3 
REMARK    2  A    between atoms: C5_5  and  O10_10 
ROOT
HETATM    1  C2  UNL     1     -33.195  15.130  -3.563  1.00 20.00     0.074 C 
HETATM    2  C3  UNL     1     -34.138  14.777  -4.697  1.00 20.00     0.080 C 
HETATM    3  C4  UNL     1     -34.733  16.133  -5.042  1.00 20.00     0.131 C 
HETATM    4  C5  UNL     1     -33.891  16.301  -2.876  1.00 20.00     0.260 C 
HETATM    5  C6  UNL     1     -36.074  16.124  -5.751  1.00 20.00     0.040 C 
HETATM    6  O9  UNL     1     -34.833  16.856  -3.805  1.00 20.00    -0.356 OA
ENDROOT
BRANCH   2   7
HETATM    7  C1  UNL     1     -35.145  13.765  -4.232  1.00 20.00     0.238 C 
HETATM    8  O8  UNL     1     -35.035  12.560  -4.435  1.00 20.00    -0.306 OA
ENDBRANCH   2   7
BRANCH   4   9
HETATM    9  O10 UNL     1     -34.535  15.900  -1.674  1.00 20.00    -0.366 OA
HETATM   10  C7  UNL     1     -34.527  16.939  -0.706  1.00 20.00     0.204 C 
ENDBRANCH   4   9
TORSDOF 2
ENDMDL
MODEL 4
REMARK VINA RESULT:      -4.0      1.788      3.171
REMARK  2 active torsions:
REMARK  status: ('A' for Active; 'I' for Inactive)
REMARK    1  A    between atoms: C1_1  and  C3_3 
REMARK    2  A    between atoms: C5_5  and  O10_10 
ROOT
HETATM    1  C2  UNL     1     -36.296  15.004  -5.256  1.00 20.00     0.074 C 
HETATM    2  C3  UNL     1     -35.926  14.636  -3.832  1.00 20.00     0.080 C 
HETATM    3  C4  UNL     1     -35.547  15.989  -3.249  1.00 20.00     0.131 C 
HETATM    4  C5  UNL     1     -35.383  16.187  -5.565  1.00 20.00     0.260 C 
HETATM    5  C6  UNL     1     -34.637  15.972  -2.034  1.00 20.00     0.040 C 
HETATM    6  O9  UNL     1     -34.933  16.730  -4.315  1.00 20.00    -0.356 OA
ENDROOT
BRANCH   2   7
HETATM    7  C1  UNL     1     -34.809  13.633  -3.834  1.00 20.00     0.238 C 
HETATM    8  O8  UNL     1     -34.777  12.658  -4.577  1.00 20.00    -0.306 OA
ENDBRANCH   2   7
BRANCH   4   9
HETATM    9  O10 UNL     1     -34.283  15.804  -6.381  1.00 20.00    -0.366 OA
HETATM   10  C7  UNL     1     -34.681  14.901  -7.402  1.00 20.00     0.204 C 
ENDBRANCH   4   9
TORSDOF 2
ENDMDL
MODEL 5
REMARK VINA RESULT:      -3.9     10.836     12.164
REMARK  2 active torsions:
REMARK  status: ('A' for Active; 'I' for Inactive)
REMARK    1  A    between atoms: C1_1  and  C3_3 
REMARK    2  A    between atoms: C5_5  and  O10_10 
ROOT
HETATM    1  C2  UNL     1     -40.750   6.144   0.129  1.00 20.00     0.074 C 
HETATM    2  C3  UNL     1     -41.359   4.777  -0.111  1.00 20.00     0.080 C 
HETATM    3  C4  UNL     1     -41.226   4.637  -1.620  1.00 20.00     0.131 C 
HETATM    4  C5  UNL     1     -41.094   6.913  -1.142  1.00 20.00     0.260 C 
HETATM    5  C6  UNL     1     -42.173   3.662  -2.296  1.00 20.00     0.040 C 
HETATM    6  O9  UNL     1     -41.403   5.954  -2.164  1.00 20.00    -0.356 OA
ENDROOT
BRANCH   2   7
HETATM    7  C1  UNL     1     -42.775   4.749   0.387  1.00 20.00     0.238 C 
HETATM    8  O8  UNL     1     -43.185   5.462   1.296  1.00 20.00    -0.306 OA
ENDBRANCH   2   7
BRANCH   4   9
HETATM    9  O10 UNL     1     -42.178   7.809  -0.939  1.00 20.00    -0.366 OA
HETATM   10  C7  UNL     1     -43.056   7.828  -2.055  1.00 20.00     0.204 C 
ENDBRANCH   4   9
TORSDOF 2
ENDMDL
MODEL 6
REMARK VINA RESULT:      -3.8      1.657      3.769
REMARK  2 active torsions:
REMARK  status: ('A' for Active; 'I' for Inactive)
REMARK    1  A    between atoms: C1_1  and  C3_3 
REMARK    2  A    between atoms: C5_5  and  O10_10 
ROOT
HETATM    1  C2  UNL     1     -34.070  14.162  -4.095  1.00 20.00     0.074 C 
HETATM    2  C3  UNL     1     -33.667  15.351  -3.245  1.00 20.00     0.080 C 
HETATM    3  C4  UNL     1     -34.864  15.490  -2.317  1.00 20.00     0.131 C 
HETATM    4  C5  UNL     1     -35.589  14.278  -4.169  1.00 20.00     0.260 C 
HETATM    5  C6  UNL     1     -35.077  16.854  -1.686  1.00 20.00     0.040 C 
HETATM    6  O9  UNL     1     -36.017  15.116  -3.087  1.00 20.00    -0.356 OA
ENDROOT
BRANCH   2   7
HETATM    7  C1  UNL     1     -33.424  16.548  -4.118  1.00 20.00     0.238 C 
HETATM    8  O8  UNL     1     -32.829  16.495  -5.188  1.00 20.00    -0.306 OA
ENDBRANCH   2   7
BRANCH   4   9
HETATM    9  O10 UNL     1     -36.017  14.801  -5.420  1.00 20.00    -0.366 OA
HETATM   10  C7  UNL     1     -35.257  14.270  -6.495  1.00 20.00     0.204 C 
ENDBRANCH   4   9
TORSDOF 2
ENDMDL
MODEL 7
REMARK VINA RESULT:      -3.8      1.728      2.516
REMARK  2 active torsions:
REMARK  status: ('A' for Active; 'I' for Inactive)
REMARK    1  A    between atoms: C1_1  and  C3_3 
REMARK    2  A    between atoms: C5_5  and  O10_10 
ROOT
HETATM    1  C2  UNL     1     -34.269  15.148  -6.998  1.00 20.00     0.074 C 
HETATM    2  C3  UNL     1     -35.279  14.323  -6.224  1.00 20.00     0.080 C 
HETATM    3  C4  UNL     1     -36.321  15.368  -5.858  1.00 20.00     0.131 C 
HETATM    4  C5  UNL     1     -34.355  16.521  -6.340  1.00 20.00     0.260 C 
HETATM    5  C6  UNL     1     -37.202  15.057  -4.663  1.00 20.00     0.040 C 
HETATM    6  O9  UNL     1     -35.604  16.593  -5.638  1.00 20.00    -0.356 OA
ENDROOT
BRANCH   2   7
HETATM    7  C1  UNL     1     -34.616  13.676  -5.042  1.00 20.00     0.238 C 
HETATM    8  O8  UNL     1     -34.823  12.516  -4.703  1.00 20.00    -0.306 OA
ENDBRANCH   2   7
BRANCH   4   9
HETATM    9  O10 UNL     1     -33.262  16.752  -5.461  1.00 20.00    -0.366 OA
HETATM   10  C7  UNL     1     -33.690  17.336  -4.239  1.00 20.00     0.204 C 
ENDBRANCH   4   9
TORSDOF 2
ENDMDL
MODEL 8
REMARK VINA RESULT:      -3.8      1.362      1.825
REMARK  2 active torsions:
REMARK  status: ('A' for Active; 'I' for Inactive)
REMARK    1  A    between atoms: C1_1  and  C3_3 
REMARK    2  A    between atoms: C5_5  and  O10_10 
ROOT
HETATM    1  C2  UNL     1     -34.455  16.067  -2.303  1.00 20.00     0.074 C 
HETATM    2  C3  UNL     1     -35.110  14.817  -2.858  1.00 20.00     0.080 C 
HETATM    3  C4  UNL     1     -33.991  14.227  -3.702  1.00 20.00     0.131 C 
HETATM    4  C5  UNL     1     -33.494  16.484  -3.412  1.00 20.00     0.260 C 
HETATM    5  C6  UNL     1     -34.408  13.280  -4.812  1.00 20.00     0.040 C 
HETATM    6  O9  UNL     1     -33.268  15.341  -4.248  1.00 20.00    -0.356 OA
ENDROOT
BRANCH   2   7
HETATM    7  C1  UNL     1     -36.340  15.183  -3.636  1.00 20.00     0.238 C 
HETATM    8  O8  UNL     1     -37.421  14.620  -3.497  1.00 20.00    -0.306 OA
ENDBRANCH   2   7
BRANCH   4   9
HETATM    9  O10 UNL     1     -34.003  17.577  -4.167  1.00 20.00    -0.366 OA
HETATM   10  C7  UNL     1     -33.644  17.475  -5.537  1.00 20.00     0.204 C 
ENDBRANCH   4   9
TORSDOF 2
ENDMDL
MODEL 9
REMARK VINA RESULT:      -3.8      1.968      2.453
REMARK  2 active torsions:
REMARK  status: ('A' for Active; 'I' for Inactive)
REMARK    1  A    between atoms: C1_1  and  C3_3 
REMARK    2  A    between atoms: C5_5  and  O10_10 
ROOT
HETATM    1  C2  UNL     1     -34.420  15.551  -2.704  1.00 20.00     0.074 C 
HETATM    2  C3  UNL     1     -34.122  14.733  -3.945  1.00 20.00     0.080 C 
HETATM    3  C4  UNL     1     -34.026  15.812  -5.013  1.00 20.00     0.131 C 
HETATM    4  C5  UNL     1     -35.228  16.728  -3.240  1.00 20.00     0.260 C 
HETATM    5  C6  UNL     1     -34.258  15.369  -6.446  1.00 20.00     0.040 C 
HETATM    6  O9  UNL     1     -34.977  16.825  -4.650  1.00 20.00    -0.356 OA
ENDROOT
BRANCH   2   7
HETATM    7  C1  UNL     1     -35.218  13.734  -4.178  1.00 20.00     0.238 C 
HETATM    8  O8  UNL     1     -35.011  12.561  -4.468  1.00 20.00    -0.306 OA
ENDBRANCH   2   7
BRANCH   4   9
HETATM    9  O10 UNL     1     -36.618  16.576  -2.980  1.00 20.00    -0.366 OA
HETATM   10  C7  UNL     1     -37.406  17.027  -4.071  1.00 20.00     0.204 C 
ENDBRANCH   4   9
TORSDOF 2
ENDMDL
