MODEL 1
REMARK VINA RESULT:      -4.6      0.000      0.000
REMARK  2 active torsions:
REMARK  status: ('A' for Active; 'I' for Inactive)
REMARK    1  A    between atoms: C2_2  and  O12_12 
REMARK    2  A    between atoms: C7_7  and  O12_12 
ROOT
HETATM    1  C3  UNL     1     -36.629  15.384  -5.428  1.00 20.00     0.036 C 
HETATM    2  C4  UNL     1     -34.396  16.421  -4.806  1.00 20.00     0.013 C 
HETATM    3  C5  UNL     1     -35.722  15.089  -3.096  1.00 20.00     0.041 C 
HETATM    4  C6  UNL     1     -35.276  15.878  -5.946  1.00 20.00    -0.015 C 
HETATM    5  C7  UNL     1     -36.507  14.439  -4.236  1.00 20.00     0.128 C 
HETATM    6  C8  UNL     1     -34.317  15.567  -3.515  1.00 20.00    -0.045 C 
HETATM    7  C9  UNL     1     -34.577  14.826  -6.809  1.00 20.00     0.010 C 
HETATM    8  C10 UNL     1     -33.365  14.368  -3.682  1.00 20.00     0.015 C 
HETATM    9  C11 UNL     1     -33.738  16.448  -2.385  1.00 20.00     0.015 C 
ENDROOT
BRANCH   5  10
HETATM   10  O12 UNL     1     -37.823  14.126  -3.780  1.00 20.00    -0.359 OA
BRANCH  10  11
HETATM   11  C2  UNL     1     -38.737  15.052  -4.033  1.00 20.00     0.125 C 
HETATM   12  C1  UNL     1     -39.546  15.598  -3.121  1.00 20.00     0.037 C 
ENDBRANCH  10  11
ENDBRANCH   5  10
TORSDOF 2
ENDMDL
MODEL 2
REMARK VINA RESULT:      -4.4      2.256      3.795
REMARK  2 active torsions:
REMARK  status: ('A' for Active; 'I' for Inactive)
REMARK    1  A    between atoms: C2_2  and  O12_12 
REMARK    2  A    between atoms: C7_7  and  O12_12 
ROOT
HETATM    1  C3  UNL     1     -35.029  14.928  -2.997  1.00 20.00     0.036 C 
HETATM    2  C4  UNL     1     -36.106  15.044  -5.293  1.00 20.00     0.013 C 
HETATM    3  C5  UNL     1     -34.830  17.035  -4.363  1.00 20.00     0.041 C 
HETATM    4  C6  UNL     1     -35.513  14.127  -4.208  1.00 20.00    -0.015 C 
HETATM    5  C7  UNL     1     -34.131  16.103  -3.373  1.00 20.00     0.128 C 
HETATM    6  C8  UNL     1     -35.303  16.321  -5.646  1.00 20.00    -0.045 C 
HETATM    7  C9  UNL     1     -34.435  13.178  -4.733  1.00 20.00     0.010 C 
HETATM    8  C10 UNL     1     -34.106  16.007  -6.563  1.00 20.00     0.015 C 
HETATM    9  C11 UNL     1     -36.231  17.277  -6.429  1.00 20.00     0.015 C 
ENDROOT
BRANCH   5  10
HETATM   10  O12 UNL     1     -33.826  16.828  -2.182  1.00 20.00    -0.359 OA
BRANCH  10  11
HETATM   11  C2  UNL     1     -34.567  16.512  -1.129  1.00 20.00     0.125 C 
HETATM   12  C1  UNL     1     -34.689  17.257  -0.028  1.00 20.00     0.037 C 
ENDBRANCH  10  11
ENDBRANCH   5  10
TORSDOF 2
ENDMDL
MODEL 3
REMARK VINA RESULT:      -4.4      2.457      3.581
REMARK  2 active torsions:
REMARK  status: ('A' for Active; 'I' for Inactive)
REMARK    1  A    between atoms: C2_2  and  O12_12 
REMARK    2  A    between atoms: C7_7  and  O12_12 
ROOT
HETATM    1  C3  UNL     1     -34.159  17.905  -3.343  1.00 20.00     0.036 C 
HETATM    2  C4  UNL     1     -33.101  16.000  -4.648  1.00 20.00     0.013 C 
HETATM    3  C5  UNL     1     -34.650  15.521  -2.692  1.00 20.00     0.041 C 
HETATM    4  C6  UNL     1     -33.561  17.469  -4.683  1.00 20.00    -0.015 C 
HETATM    5  C7  UNL     1     -35.213  16.937  -2.812  1.00 20.00     0.128 C 
HETATM    6  C8  UNL     1     -34.076  14.976  -4.016  1.00 20.00    -0.045 C 
HETATM    7  C9  UNL     1     -34.492  17.789  -5.854  1.00 20.00     0.010 C 
HETATM    8  C10 UNL     1     -35.213  14.598  -4.983  1.00 20.00     0.015 C 
HETATM    9  C11 UNL     1     -33.291  13.679  -3.716  1.00 20.00     0.015 C 
ENDROOT
BRANCH   5  10
HETATM   10  O12 UNL     1     -35.622  17.390  -1.522  1.00 20.00    -0.359 OA
BRANCH  10  11
HETATM   11  C2  UNL     1     -34.831  17.024  -0.524  1.00 20.00     0.125 C 
HETATM   12  C1  UNL     1     -34.947  17.444   0.738  1.00 20.00     0.037 C 
ENDBRANCH  10  11
ENDBRANCH   5  10
TORSDOF 2
ENDMDL
MODEL 4
REMARK VINA RESULT:      -4.3      2.689      4.371
REMARK  2 active torsions:
REMARK  status: ('A' for Active; 'I' for Inactive)
REMARK    1  A    between atoms: C2_2  and  O12_12 
REMARK    2  A    between atoms: C7_7  and  O12_12 
ROOT
HETATM    1  C3  UNL     1     -34.787  17.484  -3.844  1.00 20.00     0.036 C 
HETATM    2  C4  UNL     1     -35.325  15.056  -3.330  1.00 20.00     0.013 C 
HETATM    3  C5  UNL     1     -33.882  15.663  -5.331  1.00 20.00     0.041 C 
HETATM    4  C6  UNL     1     -35.169  16.476  -2.757  1.00 20.00    -0.015 C 
HETATM    5  C7  UNL     1     -33.608  17.028  -4.699  1.00 20.00     0.128 C 
HETATM    6  C8  UNL     1     -34.221  14.567  -4.300  1.00 20.00    -0.045 C 
HETATM    7  C9  UNL     1     -34.226  16.549  -1.555  1.00 20.00     0.010 C 
HETATM    8  C10 UNL     1     -32.953  14.125  -3.545  1.00 20.00     0.015 C 
HETATM    9  C11 UNL     1     -34.751  13.326  -5.054  1.00 20.00     0.015 C 
ENDROOT
BRANCH   5  10
HETATM   10  O12 UNL     1     -33.409  17.991  -5.732  1.00 20.00    -0.359 OA
BRANCH  10  11
HETATM   11  C2  UNL     1     -34.453  18.184  -6.526  1.00 20.00     0.125 C 
HETATM   12  C1  UNL     1     -34.390  18.330  -7.851  1.00 20.00     0.037 C 
ENDBRANCH  10  11
ENDBRANCH   5  10
TORSDOF 2
ENDMDL
MODEL 5
REMARK VINA RESULT:      -4.3      0.950      2.769
REMARK  2 active torsions:
REMARK  status: ('A' for Active; 'I' for Inactive)
REMARK    1  A    between atoms: C2_2  and  O12_12 
REMARK    2  A    between atoms: C7_7  and  O12_12 
ROOT
HETATM    1  C3  UNL     1     -35.538  13.579  -4.153  1.00 20.00     0.036 C 
HETATM    2  C4  UNL     1     -34.360  14.688  -6.110  1.00 20.00     0.013 C 
HETATM    3  C5  UNL     1     -36.803  15.189  -5.621  1.00 20.00     0.041 C 
HETATM    4  C6  UNL     1     -34.194  14.032  -4.727  1.00 20.00    -0.015 C 
HETATM    5  C7  UNL     1     -36.608  14.667  -4.197  1.00 20.00     0.128 C 
HETATM    6  C8  UNL     1     -35.504  15.722  -6.261  1.00 20.00    -0.045 C 
HETATM    7  C9  UNL     1     -33.409  14.890  -3.734  1.00 20.00     0.010 C 
HETATM    8  C10 UNL     1     -35.124  17.086  -5.657  1.00 20.00     0.015 C 
HETATM    9  C11 UNL     1     -35.755  15.951  -7.768  1.00 20.00     0.015 C 
ENDROOT
BRANCH   5  10
HETATM   10  O12 UNL     1     -37.834  14.104  -3.732  1.00 20.00    -0.359 OA
BRANCH  10  11
HETATM   11  C2  UNL     1     -38.914  14.829  -3.987  1.00 20.00     0.125 C 
HETATM   12  C1  UNL     1     -39.496  15.665  -3.124  1.00 20.00     0.037 C 
ENDBRANCH  10  11
ENDBRANCH   5  10
TORSDOF 2
ENDMDL
MODEL 6
REMARK VINA RESULT:      -4.2      1.229      1.853
REMARK  2 active torsions:
REMARK  status: ('A' for Active; 'I' for Inactive)
REMARK    1  A    between atoms: C2_2  and  O12_12 
REMARK    2  A    between atoms: C7_7  and  O12_12 
ROOT
HETATM    1  C3  UNL     1     -35.603  14.198  -4.777  1.00 20.00     0.036 C 
HETATM    2  C4  UNL     1     -34.105  16.194  -4.306  1.00 20.00     0.013 C 
HETATM    3  C5  UNL     1     -36.453  16.086  -3.341  1.00 20.00     0.041 C 
HETATM    4  C6  UNL     1     -34.161  14.699  -4.670  1.00 20.00    -0.015 C 
HETATM    5  C7  UNL     1     -36.461  14.575  -3.572  1.00 20.00     0.128 C 
HETATM    6  C8  UNL     1     -35.037  16.672  -3.164  1.00 20.00    -0.045 C 
HETATM    7  C9  UNL     1     -33.316  13.815  -3.752  1.00 20.00     0.010 C 
HETATM    8  C10 UNL     1     -34.472  16.311  -1.778  1.00 20.00     0.015 C 
HETATM    9  C11 UNL     1     -35.129  18.213  -3.226  1.00 20.00     0.015 C 
ENDROOT
BRANCH   5  10
HETATM   10  O12 UNL     1     -37.798  14.146  -3.826  1.00 20.00    -0.359 OA
BRANCH  10  11
HETATM   11  C2  UNL     1     -38.643  15.114  -4.152  1.00 20.00     0.125 C 
HETATM   12  C1  UNL     1     -39.780  14.941  -4.830  1.00 20.00     0.037 C 
ENDBRANCH  10  11
ENDBRANCH   5  10
TORSDOF 2
ENDMDL
MODEL 7
REMARK VINA RESULT:      -4.2     10.791     12.534
REMARK  2 active torsions:
REMARK  status: ('A' for Active; 'I' for Inactive)
REMARK    1  A    between atoms: C2_2  and  O12_12 
REMARK    2  A    between atoms: C7_7  and  O12_12 
ROOT
HETATM    1  C3  UNL     1     -41.114   4.280  -1.523  1.00 20.00     0.036 C 
HETATM    2  C4  UNL     1     -40.932   6.811  -1.619  1.00 20.00     0.013 C 
HETATM    3  C5  UNL     1     -42.673   5.589  -3.008  1.00 20.00     0.041 C 
HETATM    4  C6  UNL     1     -40.679   5.545  -0.779  1.00 20.00    -0.015 C 
HETATM    5  C7  UNL     1     -42.527   4.374  -2.092  1.00 20.00     0.128 C 
HETATM    6  C8  UNL     1     -42.308   6.921  -2.322  1.00 20.00    -0.045 C 
HETATM    7  C9  UNL     1     -41.276   5.615   0.627  1.00 20.00     0.010 C 
HETATM    8  C10 UNL     1     -43.417   7.346  -1.343  1.00 20.00     0.015 C 
HETATM    9  C11 UNL     1     -42.215   8.023  -3.402  1.00 20.00     0.015 C 
ENDROOT
BRANCH   5  10
HETATM   10  O12 UNL     1     -42.785   3.187  -2.841  1.00 20.00    -0.359 OA
BRANCH  10  11
HETATM   11  C2  UNL     1     -41.712   2.462  -3.126  1.00 20.00     0.125 C 
HETATM   12  C1  UNL     1     -41.596   1.646  -4.176  1.00 20.00     0.037 C 
ENDBRANCH  10  11
ENDBRANCH   5  10
TORSDOF 2
ENDMDL
MODEL 8
REMARK VINA RESULT:      -4.1      1.942      3.763
REMARK  2 active torsions:
REMARK  status: ('A' for Active; 'I' for Inactive)
REMARK    1  A    between atoms: C2_2  and  O12_12 
REMARK    2  A    between atoms: C7_7  and  O12_12 
ROOT
HETATM    1  C3  UNL     1     -36.150  16.565  -3.185  1.00 20.00     0.036 C 
HETATM    2  C4  UNL     1     -36.263  15.841  -5.616  1.00 20.00     0.013 C 
HETATM    3  C5  UNL     1     -34.065  15.755  -4.345  1.00 20.00     0.041 C 
HETATM    4  C6  UNL     1     -37.044  16.020  -4.302  1.00 20.00    -0.015 C 
HETATM    5  C7  UNL     1     -34.844  15.791  -3.029  1.00 20.00     0.128 C 
HETATM    6  C8  UNL     1     -34.873  15.164  -5.518  1.00 20.00    -0.045 C 
HETATM    7  C9  UNL     1     -37.801  14.765  -3.865  1.00 20.00     0.010 C 
HETATM    8  C10 UNL     1     -34.991  13.635  -5.378  1.00 20.00     0.015 C 
HETATM    9  C11 UNL     1     -34.107  15.437  -6.832  1.00 20.00     0.015 C 
ENDROOT
BRANCH   5  10
HETATM   10  O12 UNL     1     -34.055  16.445  -2.036  1.00 20.00    -0.359 OA
BRANCH  10  11
HETATM   11  C2  UNL     1     -34.638  16.568  -0.851  1.00 20.00     0.125 C 
HETATM   12  C1  UNL     1     -34.435  17.575   0.000  1.00 20.00     0.037 C 
ENDBRANCH  10  11
ENDBRANCH   5  10
TORSDOF 2
ENDMDL
MODEL 9
REMARK VINA RESULT:      -4.1      2.015      3.958
REMARK  2 active torsions:
REMARK  status: ('A' for Active; 'I' for Inactive)
REMARK    1  A    between atoms: C2_2  and  O12_12 
REMARK    2  A    between atoms: C7_7  and  O12_12 
ROOT
HETATM    1  C3  UNL     1     -34.429  14.525  -3.142  1.00 20.00     0.036 C 
HETATM    2  C4  UNL     1     -36.747  14.353  -4.163  1.00 20.00     0.013 C 
HETATM    3  C5  UNL     1     -36.050  16.436  -2.886  1.00 20.00     0.041 C 
HETATM    4  C6  UNL     1     -35.284  13.878  -4.234  1.00 20.00    -0.015 C 
HETATM    5  C7  UNL     1     -34.585  16.041  -3.075  1.00 20.00     0.128 C 
HETATM    6  C8  UNL     1     -36.982  15.873  -3.979  1.00 20.00    -0.045 C 
HETATM    7  C9  UNL     1     -34.657  14.037  -5.619  1.00 20.00     0.010 C 
HETATM    8  C10 UNL     1     -36.794  16.643  -5.299  1.00 20.00     0.015 C 
HETATM    9  C11 UNL     1     -38.447  16.089  -3.537  1.00 20.00     0.015 C 
ENDROOT
BRANCH   5  10
HETATM   10  O12 UNL     1     -33.824  16.519  -1.966  1.00 20.00    -0.359 OA
BRANCH  10  11
HETATM   11  C2  UNL     1     -34.517  16.706  -0.851  1.00 20.00     0.125 C 
HETATM   12  C1  UNL     1     -34.267  17.653   0.055  1.00 20.00     0.037 C 
ENDBRANCH  10  11
ENDBRANCH   5  10
TORSDOF 2
ENDMDL
