MODEL 1
REMARK VINA RESULT:      -5.4      0.000      0.000
REMARK  2 active torsions:
REMARK  status: ('A' for Active; 'I' for Inactive)
REMARK    1  A    between atoms: C1_1  and  C3_3 
REMARK    2  A    between atoms: C2_2  and  C6_6 
ROOT
HETATM    1  C1  UNL     1     -33.141   6.576   3.332  1.00 20.00     0.046 C 
HETATM    2  C2  UNL     1     -33.517   6.276   4.582  1.00 20.00    -0.014 C 
ENDROOT
BRANCH   2   3
HETATM    3  C6  UNL     1     -34.646   5.352   4.900  1.00 20.00    -0.026 A 
HETATM    4  C4  UNL     1     -34.991   5.204   6.356  1.00 20.00     0.014 A 
HETATM    5  C5  UNL     1     -34.285   4.094   5.639  1.00 20.00     0.014 A 
HETATM    6  C8  UNL     1     -35.741   5.310   3.884  1.00 20.00     0.019 C 
ENDBRANCH   2   3
BRANCH   1   7
HETATM    7  C3  UNL     1     -32.006   7.506   3.082  1.00 20.00     0.145 C 
HETATM    8  C7  UNL     1     -32.004   8.241   1.767  1.00 20.00     0.096 C 
HETATM    9  O9  UNL     1     -31.099   7.665   3.897  1.00 20.00    -0.294 OA
ENDBRANCH   1   7
TORSDOF 2
ENDMDL
MODEL 2
REMARK VINA RESULT:      -4.5      0.522      1.452
REMARK  2 active torsions:
REMARK  status: ('A' for Active; 'I' for Inactive)
REMARK    1  A    between atoms: C1_1  and  C3_3 
REMARK    2  A    between atoms: C2_2  and  C6_6 
ROOT
HETATM    1  C1  UNL     1     -33.260   6.908   3.443  1.00 20.00     0.046 C 
HETATM    2  C2  UNL     1     -33.242   6.124   4.528  1.00 20.00    -0.014 C 
ENDROOT
BRANCH   2   3
HETATM    3  C6  UNL     1     -34.448   5.412   5.048  1.00 20.00    -0.026 A 
HETATM    4  C4  UNL     1     -34.755   4.082   4.418  1.00 20.00     0.014 A 
HETATM    5  C5  UNL     1     -35.600   5.276   4.093  1.00 20.00     0.014 A 
HETATM    6  C8  UNL     1     -34.728   5.612   6.502  1.00 20.00     0.019 C 
ENDBRANCH   2   3
BRANCH   1   7
HETATM    7  C3  UNL     1     -32.021   7.589   2.977  1.00 20.00     0.145 C 
HETATM    8  C7  UNL     1     -32.073   8.245   1.622  1.00 20.00     0.096 C 
HETATM    9  O9  UNL     1     -30.993   7.610   3.651  1.00 20.00    -0.294 OA
ENDBRANCH   1   7
TORSDOF 2
ENDMDL
MODEL 3
REMARK VINA RESULT:      -4.3     11.073     12.023
REMARK  2 active torsions:
REMARK  status: ('A' for Active; 'I' for Inactive)
REMARK    1  A    between atoms: C1_1  and  C3_3 
REMARK    2  A    between atoms: C2_2  and  C6_6 
ROOT
HETATM    1  C1  UNL     1     -35.038  14.994  -3.104  1.00 20.00     0.046 C 
HETATM    2  C2  UNL     1     -34.281  15.751  -2.299  1.00 20.00    -0.014 C 
ENDROOT
BRANCH   2   3
HETATM    3  C6  UNL     1     -34.770  17.007  -1.655  1.00 20.00    -0.026 A 
HETATM    4  C4  UNL     1     -33.746  17.802  -0.892  1.00 20.00     0.014 A 
HETATM    5  C5  UNL     1     -34.787  17.019  -0.152  1.00 20.00     0.014 A 
HETATM    6  C8  UNL     1     -35.845  17.730  -2.401  1.00 20.00     0.019 C 
ENDBRANCH   2   3
BRANCH   1   7
HETATM    7  C3  UNL     1     -34.491  13.752  -3.715  1.00 20.00     0.145 C 
HETATM    8  C7  UNL     1     -32.993  13.589  -3.698  1.00 20.00     0.096 C 
HETATM    9  O9  UNL     1     -35.215  12.899  -4.223  1.00 20.00    -0.294 OA
ENDBRANCH   1   7
TORSDOF 2
ENDMDL
MODEL 4
REMARK VINA RESULT:      -4.2      1.834      4.732
REMARK  2 active torsions:
REMARK  status: ('A' for Active; 'I' for Inactive)
REMARK    1  A    between atoms: C1_1  and  C3_3 
REMARK    2  A    between atoms: C2_2  and  C6_6 
ROOT
HETATM    1  C1  UNL     1     -33.635   6.332   4.343  1.00 20.00     0.046 C 
HETATM    2  C2  UNL     1     -33.282   6.731   3.114  1.00 20.00    -0.014 C 
ENDROOT
BRANCH   2   3
HETATM    3  C6  UNL     1     -32.172   7.696   2.852  1.00 20.00    -0.026 A 
HETATM    4  C4  UNL     1     -32.554   8.971   2.153  1.00 20.00     0.014 A 
HETATM    5  C5  UNL     1     -31.804   7.908   1.411  1.00 20.00     0.014 A 
HETATM    6  C8  UNL     1     -31.097   7.728   3.890  1.00 20.00     0.019 C 
ENDBRANCH   2   3
BRANCH   1   7
HETATM    7  C3  UNL     1     -34.752   5.366   4.535  1.00 20.00     0.145 C 
HETATM    8  C7  UNL     1     -34.661   4.451   5.729  1.00 20.00     0.096 C 
HETATM    9  O9  UNL     1     -35.701   5.300   3.757  1.00 20.00    -0.294 OA
ENDBRANCH   1   7
TORSDOF 2
ENDMDL
MODEL 5
REMARK VINA RESULT:      -4.1     11.200     12.143
REMARK  2 active torsions:
REMARK  status: ('A' for Active; 'I' for Inactive)
REMARK    1  A    between atoms: C1_1  and  C3_3 
REMARK    2  A    between atoms: C2_2  and  C6_6 
ROOT
HETATM    1  C1  UNL     1     -33.782  16.628  -2.148  1.00 20.00     0.046 C 
HETATM    2  C2  UNL     1     -34.489  15.561  -2.544  1.00 20.00    -0.014 C 
ENDROOT
BRANCH   2   3
HETATM    3  C6  UNL     1     -34.298  14.895  -3.867  1.00 20.00    -0.026 A 
HETATM    4  C4  UNL     1     -34.989  13.572  -4.050  1.00 20.00     0.014 A 
HETATM    5  C5  UNL     1     -33.503  13.620  -3.860  1.00 20.00     0.014 A 
HETATM    6  C8  UNL     1     -34.177  15.821  -5.035  1.00 20.00     0.019 C 
ENDBRANCH   2   3
BRANCH   1   7
HETATM    7  C3  UNL     1     -34.022  17.245  -0.814  1.00 20.00     0.145 C 
HETATM    8  C7  UNL     1     -33.110  18.376  -0.414  1.00 20.00     0.096 C 
HETATM    9  O9  UNL     1     -34.909  16.850  -0.061  1.00 20.00    -0.294 OA
ENDBRANCH   1   7
TORSDOF 2
ENDMDL
MODEL 6
REMARK VINA RESULT:      -4.1     11.747     12.362
REMARK  2 active torsions:
REMARK  status: ('A' for Active; 'I' for Inactive)
REMARK    1  A    between atoms: C1_1  and  C3_3 
REMARK    2  A    between atoms: C2_2  and  C6_6 
ROOT
HETATM    1  C1  UNL     1     -34.759  16.543  -1.038  1.00 20.00     0.046 C 
HETATM    2  C2  UNL     1     -33.845  16.500  -2.015  1.00 20.00    -0.014 C 
ENDROOT
BRANCH   2   3
HETATM    3  C6  UNL     1     -33.976  15.633  -3.225  1.00 20.00    -0.026 A 
HETATM    4  C4  UNL     1     -32.729  14.916  -3.664  1.00 20.00     0.014 A 
HETATM    5  C5  UNL     1     -33.235  16.087  -4.450  1.00 20.00     0.014 A 
HETATM    6  C8  UNL     1     -35.299  14.956  -3.383  1.00 20.00     0.019 C 
ENDBRANCH   2   3
BRANCH   1   7
HETATM    7  C3  UNL     1     -34.568  17.430   0.142  1.00 20.00     0.145 C 
HETATM    8  C7  UNL     1     -33.417  18.400   0.085  1.00 20.00     0.096 C 
HETATM    9  O9  UNL     1     -35.301  17.375   1.127  1.00 20.00    -0.294 OA
ENDBRANCH   1   7
TORSDOF 2
ENDMDL
MODEL 7
REMARK VINA RESULT:      -4.0     11.306     12.052
REMARK  2 active torsions:
REMARK  status: ('A' for Active; 'I' for Inactive)
REMARK    1  A    between atoms: C1_1  and  C3_3 
REMARK    2  A    between atoms: C2_2  and  C6_6 
ROOT
HETATM    1  C1  UNL     1     -35.002  16.304  -1.659  1.00 20.00     0.046 C 
HETATM    2  C2  UNL     1     -34.298  15.663  -2.601  1.00 20.00    -0.014 C 
ENDROOT
BRANCH   2   3
HETATM    3  C6  UNL     1     -34.922  14.790  -3.641  1.00 20.00    -0.026 A 
HETATM    4  C4  UNL     1     -34.173  13.534  -3.988  1.00 20.00     0.014 A 
HETATM    5  C5  UNL     1     -34.187  14.685  -4.947  1.00 20.00     0.014 A 
HETATM    6  C8  UNL     1     -36.417  14.772  -3.643  1.00 20.00     0.019 C 
ENDBRANCH   2   3
BRANCH   1   7
HETATM    7  C3  UNL     1     -34.318  17.160  -0.650  1.00 20.00     0.145 C 
HETATM    8  C7  UNL     1     -35.051  17.406   0.642  1.00 20.00     0.096 C 
HETATM    9  O9  UNL     1     -33.213  17.658  -0.857  1.00 20.00    -0.294 OA
ENDBRANCH   1   7
TORSDOF 2
ENDMDL
MODEL 8
REMARK VINA RESULT:      -4.0     11.260     12.270
REMARK  2 active torsions:
REMARK  status: ('A' for Active; 'I' for Inactive)
REMARK    1  A    between atoms: C1_1  and  C3_3 
REMARK    2  A    between atoms: C2_2  and  C6_6 
ROOT
HETATM    1  C1  UNL     1     -33.798  15.179  -3.263  1.00 20.00     0.046 C 
HETATM    2  C2  UNL     1     -34.898  15.563  -2.604  1.00 20.00    -0.014 C 
ENDROOT
BRANCH   2   3
HETATM    3  C6  UNL     1     -35.028  16.887  -1.924  1.00 20.00    -0.026 A 
HETATM    4  C4  UNL     1     -36.274  17.671  -2.232  1.00 20.00     0.014 A 
HETATM    5  C5  UNL     1     -34.960  18.098  -2.811  1.00 20.00     0.014 A 
HETATM    6  C8  UNL     1     -34.444  16.958  -0.550  1.00 20.00     0.019 C 
ENDBRANCH   2   3
BRANCH   1   7
HETATM    7  C3  UNL     1     -33.733  13.844  -3.920  1.00 20.00     0.145 C 
HETATM    8  C7  UNL     1     -34.855  13.495  -4.862  1.00 20.00     0.096 C 
HETATM    9  O9  UNL     1     -32.819  13.052  -3.702  1.00 20.00    -0.294 OA
ENDBRANCH   1   7
TORSDOF 2
ENDMDL
MODEL 9
REMARK VINA RESULT:      -4.0     11.492     12.219
REMARK  2 active torsions:
REMARK  status: ('A' for Active; 'I' for Inactive)
REMARK    1  A    between atoms: C1_1  and  C3_3 
REMARK    2  A    between atoms: C2_2  and  C6_6 
ROOT
HETATM    1  C1  UNL     1     -34.389  16.188  -2.526  1.00 20.00     0.046 C 
HETATM    2  C2  UNL     1     -34.695  16.264  -1.224  1.00 20.00    -0.014 C 
ENDROOT
BRANCH   2   3
HETATM    3  C6  UNL     1     -34.489  17.495  -0.403  1.00 20.00    -0.026 A 
HETATM    4  C4  UNL     1     -35.136  17.502   0.954  1.00 20.00     0.014 A 
HETATM    5  C5  UNL     1     -35.709  18.336  -0.152  1.00 20.00     0.014 A 
HETATM    6  C8  UNL     1     -33.166  18.167  -0.583  1.00 20.00     0.019 C 
ENDBRANCH   2   3
BRANCH   1   7
HETATM    7  C3  UNL     1     -34.619  14.930  -3.288  1.00 20.00     0.145 C 
HETATM    8  C7  UNL     1     -33.397  14.167  -3.728  1.00 20.00     0.096 C 
HETATM    9  O9  UNL     1     -35.748  14.529  -3.562  1.00 20.00    -0.294 OA
ENDBRANCH   1   7
TORSDOF 2
ENDMDL
