MODEL 1
REMARK VINA RESULT:      -5.5      0.000      0.000
REMARK  1 active torsions:
REMARK  status: ('A' for Active; 'I' for Inactive)
REMARK    1  A    between atoms: C8_8  and  C11_11 
ROOT
HETATM    1  C1  UNL     1     -34.940  13.805  -4.112  1.00 20.00     0.136 C 
HETATM    2  C2  UNL     1     -34.179  15.616  -5.570  1.00 20.00     0.017 C 
HETATM    3  C3  UNL     1     -32.484  14.696  -3.777  1.00 20.00     0.018 C 
HETATM    4  C4  UNL     1     -35.550  16.037  -3.675  1.00 20.00     0.023 C 
HETATM    5  C5  UNL     1     -35.416  15.055  -4.846  1.00 20.00     0.057 C 
HETATM    6  C6  UNL     1     -33.845  14.374  -3.101  1.00 20.00     0.065 C 
HETATM    7  C7  UNL     1     -33.200  15.931  -4.407  1.00 20.00    -0.003 C 
HETATM    8  C8  UNL     1     -34.112  15.935  -3.133  1.00 20.00    -0.023 C 
HETATM    9  O12 UNL     1     -35.333  12.671  -4.324  1.00 20.00    -0.297 OA
ENDROOT
BRANCH   8  10
HETATM   10  C11 UNL     1     -33.789  16.800  -1.945  1.00 20.00    -0.013 C 
HETATM   11  C9  UNL     1     -33.765  18.287  -2.325  1.00 20.00     0.010 C 
HETATM   12  C10 UNL     1     -34.788  16.573  -0.801  1.00 20.00     0.010 C 
ENDBRANCH   8  10
TORSDOF 1
ENDMDL
MODEL 2
REMARK VINA RESULT:      -5.0      1.531      3.598
REMARK  1 active torsions:
REMARK  status: ('A' for Active; 'I' for Inactive)
REMARK    1  A    between atoms: C8_8  and  C11_11 
ROOT
HETATM    1  C1  UNL     1     -33.330  13.805  -3.864  1.00 20.00     0.136 C 
HETATM    2  C2  UNL     1     -34.517  15.639  -2.761  1.00 20.00     0.017 C 
HETATM    3  C3  UNL     1     -35.937  13.955  -4.204  1.00 20.00     0.018 C 
HETATM    4  C4  UNL     1     -33.329  15.969  -4.793  1.00 20.00     0.023 C 
HETATM    5  C5  UNL     1     -33.186  15.263  -3.438  1.00 20.00     0.057 C 
HETATM    6  C6  UNL     1     -34.549  13.847  -4.892  1.00 20.00     0.065 C 
HETATM    7  C7  UNL     1     -35.559  15.437  -3.893  1.00 20.00    -0.003 C 
HETATM    8  C8  UNL     1     -34.697  15.393  -5.201  1.00 20.00    -0.023 C 
HETATM    9  O12 UNL     1     -32.652  12.881  -3.450  1.00 20.00    -0.297 OA
ENDROOT
BRANCH   8  10
HETATM   10  C11 UNL     1     -35.251  15.869  -6.517  1.00 20.00    -0.013 C 
HETATM   11  C9  UNL     1     -34.822  17.313  -6.814  1.00 20.00     0.010 C 
HETATM   12  C10 UNL     1     -34.818  14.952  -7.669  1.00 20.00     0.010 C 
ENDBRANCH   8  10
TORSDOF 1
ENDMDL
MODEL 3
REMARK VINA RESULT:      -5.0      1.238      1.520
REMARK  1 active torsions:
REMARK  status: ('A' for Active; 'I' for Inactive)
REMARK    1  A    between atoms: C8_8  and  C11_11 
ROOT
HETATM    1  C1  UNL     1     -33.740  13.896  -3.903  1.00 20.00     0.136 C 
HETATM    2  C2  UNL     1     -35.276  15.056  -5.413  1.00 20.00     0.017 C 
HETATM    3  C3  UNL     1     -33.123  16.352  -4.626  1.00 20.00     0.018 C 
HETATM    4  C4  UNL     1     -35.710  14.892  -3.082  1.00 20.00     0.023 C 
HETATM    5  C5  UNL     1     -35.217  14.040  -4.258  1.00 20.00     0.057 C 
HETATM    6  C6  UNL     1     -33.334  15.369  -3.443  1.00 20.00     0.065 C 
HETATM    7  C7  UNL     1     -34.675  16.342  -4.784  1.00 20.00    -0.003 C 
HETATM    8  C8  UNL     1     -34.737  16.075  -3.241  1.00 20.00    -0.023 C 
HETATM    9  O12 UNL     1     -33.089  12.870  -4.000  1.00 20.00    -0.297 OA
ENDROOT
BRANCH   8  10
HETATM   10  C11 UNL     1     -34.900  17.204  -2.260  1.00 20.00    -0.013 C 
HETATM   11  C9  UNL     1     -36.311  17.805  -2.329  1.00 20.00     0.010 C 
HETATM   12  C10 UNL     1     -34.601  16.746  -0.826  1.00 20.00     0.010 C 
ENDBRANCH   8  10
TORSDOF 1
ENDMDL
MODEL 4
REMARK VINA RESULT:      -4.8      1.605      2.247
REMARK  1 active torsions:
REMARK  status: ('A' for Active; 'I' for Inactive)
REMARK    1  A    between atoms: C8_8  and  C11_11 
ROOT
HETATM    1  C1  UNL     1     -37.160  14.621  -4.202  1.00 20.00     0.136 C 
HETATM    2  C2  UNL     1     -36.178  14.787  -6.437  1.00 20.00     0.017 C 
HETATM    3  C3  UNL     1     -34.816  13.488  -4.596  1.00 20.00     0.018 C 
HETATM    4  C4  UNL     1     -36.054  16.584  -4.886  1.00 20.00     0.023 C 
HETATM    5  C5  UNL     1     -37.047  15.541  -5.414  1.00 20.00     0.057 C 
HETATM    6  C6  UNL     1     -35.646  14.467  -3.722  1.00 20.00     0.065 C 
HETATM    7  C7  UNL     1     -34.831  14.602  -5.688  1.00 20.00    -0.003 C 
HETATM    8  C8  UNL     1     -34.908  15.628  -4.507  1.00 20.00    -0.023 C 
HETATM    9  O12 UNL     1     -38.195  14.138  -3.778  1.00 20.00    -0.297 OA
ENDROOT
BRANCH   8  10
HETATM   10  C11 UNL     1     -33.666  16.270  -3.949  1.00 20.00    -0.013 C 
HETATM   11  C9  UNL     1     -33.400  17.634  -4.603  1.00 20.00     0.010 C 
HETATM   12  C10 UNL     1     -33.759  16.435  -2.426  1.00 20.00     0.010 C 
ENDBRANCH   8  10
TORSDOF 1
ENDMDL
MODEL 5
REMARK VINA RESULT:      -4.7      1.400      2.698
REMARK  1 active torsions:
REMARK  status: ('A' for Active; 'I' for Inactive)
REMARK    1  A    between atoms: C8_8  and  C11_11 
ROOT
HETATM    1  C1  UNL     1     -34.458  15.027  -5.803  1.00 20.00     0.136 C 
HETATM    2  C2  UNL     1     -35.436  13.568  -4.099  1.00 20.00     0.017 C 
HETATM    3  C3  UNL     1     -36.702  15.807  -4.666  1.00 20.00     0.018 C 
HETATM    4  C4  UNL     1     -33.626  15.026  -3.600  1.00 20.00     0.023 C 
HETATM    5  C5  UNL     1     -34.098  14.052  -4.687  1.00 20.00     0.057 C 
HETATM    6  C6  UNL     1     -35.241  16.185  -5.033  1.00 20.00     0.065 C 
HETATM    7  C7  UNL     1     -36.085  14.877  -3.575  1.00 20.00    -0.003 C 
HETATM    8  C8  UNL     1     -34.895  15.895  -3.515  1.00 20.00    -0.023 C 
HETATM    9  O12 UNL     1     -34.197  14.875  -6.984  1.00 20.00    -0.297 OA
ENDROOT
BRANCH   8  10
HETATM   10  C11 UNL     1     -34.870  17.007  -2.502  1.00 20.00    -0.013 C 
HETATM   11  C9  UNL     1     -34.608  16.470  -1.088  1.00 20.00     0.010 C 
HETATM   12  C10 UNL     1     -33.814  18.064  -2.858  1.00 20.00     0.010 C 
ENDBRANCH   8  10
TORSDOF 1
ENDMDL
MODEL 6
REMARK VINA RESULT:      -4.7      1.862      3.211
REMARK  1 active torsions:
REMARK  status: ('A' for Active; 'I' for Inactive)
REMARK    1  A    between atoms: C8_8  and  C11_11 
ROOT
HETATM    1  C1  UNL     1     -34.674  16.002  -2.266  1.00 20.00     0.136 C 
HETATM    2  C2  UNL     1     -35.310  14.113  -3.685  1.00 20.00     0.017 C 
HETATM    3  C3  UNL     1     -32.781  14.845  -3.684  1.00 20.00     0.018 C 
HETATM    4  C4  UNL     1     -35.688  16.359  -4.361  1.00 20.00     0.023 C 
HETATM    5  C5  UNL     1     -35.810  15.457  -3.127  1.00 20.00     0.057 C 
HETATM    6  C6  UNL     1     -33.482  16.180  -3.311  1.00 20.00     0.065 C 
HETATM    7  C7  UNL     1     -34.061  14.516  -4.513  1.00 20.00    -0.003 C 
HETATM    8  C8  UNL     1     -34.218  16.063  -4.709  1.00 20.00    -0.023 C 
HETATM    9  O12 UNL     1     -34.733  16.203  -1.065  1.00 20.00    -0.297 OA
ENDROOT
BRANCH   8  10
HETATM   10  C11 UNL     1     -33.673  16.755  -5.930  1.00 20.00    -0.013 C 
HETATM   11  C9  UNL     1     -34.489  16.404  -7.182  1.00 20.00     0.010 C 
HETATM   12  C10 UNL     1     -33.641  18.278  -5.741  1.00 20.00     0.010 C 
ENDBRANCH   8  10
TORSDOF 1
ENDMDL
MODEL 7
REMARK VINA RESULT:      -4.6      1.865      3.808
REMARK  1 active torsions:
REMARK  status: ('A' for Active; 'I' for Inactive)
REMARK    1  A    between atoms: C8_8  and  C11_11 
ROOT
HETATM    1  C1  UNL     1     -34.694  16.273  -1.911  1.00 20.00     0.136 C 
HETATM    2  C2  UNL     1     -34.322  17.890  -3.710  1.00 20.00     0.017 C 
HETATM    3  C3  UNL     1     -36.630  16.624  -3.662  1.00 20.00     0.018 C 
HETATM    4  C4  UNL     1     -33.417  15.695  -3.803  1.00 20.00     0.023 C 
HETATM    5  C5  UNL     1     -33.614  16.854  -2.818  1.00 20.00     0.057 C 
HETATM    6  C6  UNL     1     -35.709  15.601  -2.942  1.00 20.00     0.065 C 
HETATM    7  C7  UNL     1     -35.367  17.039  -4.479  1.00 20.00    -0.003 C 
HETATM    8  C8  UNL     1     -34.873  15.565  -4.287  1.00 20.00    -0.023 C 
HETATM    9  O12 UNL     1     -34.719  16.366  -0.696  1.00 20.00    -0.297 OA
ENDROOT
BRANCH   8  10
HETATM   10  C11 UNL     1     -35.133  14.512  -5.331  1.00 20.00    -0.013 C 
HETATM   11  C9  UNL     1     -34.500  14.892  -6.677  1.00 20.00     0.010 C 
HETATM   12  C10 UNL     1     -34.613  13.140  -4.882  1.00 20.00     0.010 C 
ENDBRANCH   8  10
TORSDOF 1
ENDMDL
MODEL 8
REMARK VINA RESULT:      -4.6      2.063      3.747
REMARK  1 active torsions:
REMARK  status: ('A' for Active; 'I' for Inactive)
REMARK    1  A    between atoms: C8_8  and  C11_11 
ROOT
HETATM    1  C1  UNL     1     -33.758  15.832  -4.593  1.00 20.00     0.136 C 
HETATM    2  C2  UNL     1     -34.284  13.678  -3.557  1.00 20.00     0.017 C 
HETATM    3  C3  UNL     1     -34.963  14.021  -6.078  1.00 20.00     0.018 C 
HETATM    4  C4  UNL     1     -35.644  15.595  -3.203  1.00 20.00     0.023 C 
HETATM    5  C5  UNL     1     -34.167  15.187  -3.272  1.00 20.00     0.057 C 
HETATM    6  C6  UNL     1     -34.980  15.485  -5.559  1.00 20.00     0.065 C 
HETATM    7  C7  UNL     1     -35.397  13.608  -4.637  1.00 20.00    -0.003 C 
HETATM    8  C8  UNL     1     -36.101  15.005  -4.550  1.00 20.00    -0.023 C 
HETATM    9  O12 UNL     1     -32.715  16.431  -4.791  1.00 20.00    -0.297 OA
ENDROOT
BRANCH   8  10
HETATM   10  C11 UNL     1     -37.561  15.165  -4.882  1.00 20.00    -0.013 C 
HETATM   11  C9  UNL     1     -38.450  14.815  -3.681  1.00 20.00     0.010 C 
HETATM   12  C10 UNL     1     -37.871  16.590  -5.359  1.00 20.00     0.010 C 
ENDBRANCH   8  10
TORSDOF 1
ENDMDL
MODEL 9
REMARK VINA RESULT:      -4.6      1.600      2.524
REMARK  1 active torsions:
REMARK  status: ('A' for Active; 'I' for Inactive)
REMARK    1  A    between atoms: C8_8  and  C11_11 
ROOT
HETATM    1  C1  UNL     1     -36.375  14.669  -3.817  1.00 20.00     0.136 C 
HETATM    2  C2  UNL     1     -34.015  14.033  -3.701  1.00 20.00     0.017 C 
HETATM    3  C3  UNL     1     -34.864  15.895  -2.043  1.00 20.00     0.018 C 
HETATM    4  C4  UNL     1     -34.822  15.521  -5.369  1.00 20.00     0.023 C 
HETATM    5  C5  UNL     1     -35.197  14.208  -4.671  1.00 20.00     0.057 C 
HETATM    6  C6  UNL     1     -35.866  16.057  -3.219  1.00 20.00     0.065 C 
HETATM    7  C7  UNL     1     -33.821  15.460  -3.119  1.00 20.00    -0.003 C 
HETATM    8  C8  UNL     1     -34.602  16.385  -4.114  1.00 20.00    -0.023 C 
HETATM    9  O12 UNL     1     -37.415  14.053  -3.660  1.00 20.00    -0.297 OA
ENDROOT
BRANCH   8  10
HETATM   10  C11 UNL     1     -34.173  17.807  -4.356  1.00 20.00    -0.013 C 
HETATM   11  C9  UNL     1     -33.527  17.969  -5.740  1.00 20.00     0.010 C 
HETATM   12  C10 UNL     1     -35.355  18.778  -4.219  1.00 20.00     0.010 C 
ENDBRANCH   8  10
TORSDOF 1
ENDMDL
