MODEL 1
REMARK VINA RESULT:      -4.5      0.000      0.000
REMARK  1 active torsions:
REMARK  status: ('A' for Active; 'I' for Inactive)
REMARK    1  A    between atoms: C1_1  and  C7_7 
ROOT
HETATM    1  C2  UNL     1     -33.643  16.416  -2.560  1.00 20.00     0.006 C 
HETATM    2  C3  UNL     1     -33.288  15.635  -3.830  1.00 20.00     0.017 C 
HETATM    3  C4  UNL     1     -35.015  15.913  -2.133  1.00 20.00     0.069 C 
HETATM    4  C5  UNL     1     -37.832  15.221  -4.083  1.00 20.00     0.197 C 
HETATM    5  C6  UNL     1     -37.546  16.697  -4.076  1.00 20.00     0.197 C 
HETATM    6  C7  UNL     1     -34.567  14.909  -4.271  1.00 20.00     0.109 C 
HETATM    7  C8  UNL     1     -35.688  15.556  -3.452  1.00 20.00     0.173 C 
HETATM    8  O10 UNL     1     -36.806  14.690  -3.247  1.00 20.00    -0.352 OA
HETATM    9  O11 UNL     1     -36.122  16.754  -4.122  1.00 20.00    -0.352 OA
ENDROOT
BRANCH   6  10
HETATM   10  C1  UNL     1     -34.436  13.437  -4.014  1.00 20.00     0.241 C 
HETATM   11  O9  UNL     1     -34.757  12.578  -4.828  1.00 20.00    -0.306 OA
ENDBRANCH   6  10
TORSDOF 1
ENDMDL
MODEL 2
REMARK VINA RESULT:      -4.5      1.684      2.977
REMARK  1 active torsions:
REMARK  status: ('A' for Active; 'I' for Inactive)
REMARK    1  A    between atoms: C1_1  and  C7_7 
ROOT
HETATM    1  C2  UNL     1     -33.665  13.652  -3.802  1.00 20.00     0.006 C 
HETATM    2  C3  UNL     1     -35.004  13.416  -4.509  1.00 20.00     0.017 C 
HETATM    3  C4  UNL     1     -33.709  15.088  -3.298  1.00 20.00     0.069 C 
HETATM    4  C5  UNL     1     -34.876  17.968  -4.899  1.00 20.00     0.197 C 
HETATM    5  C6  UNL     1     -33.636  17.455  -5.576  1.00 20.00     0.197 C 
HETATM    6  C7  UNL     1     -35.673  14.790  -4.650  1.00 20.00     0.109 C 
HETATM    7  C8  UNL     1     -34.567  15.801  -4.334  1.00 20.00     0.173 C 
HETATM    8  O10 UNL     1     -35.066  17.042  -3.831  1.00 20.00    -0.352 OA
HETATM    9  O11 UNL     1     -33.800  16.038  -5.529  1.00 20.00    -0.352 OA
ENDROOT
BRANCH   6  10
HETATM   10  C1  UNL     1     -36.838  14.892  -3.710  1.00 20.00     0.241 C 
HETATM   11  O9  UNL     1     -37.807  14.140  -3.750  1.00 20.00    -0.306 OA
ENDBRANCH   6  10
TORSDOF 1
ENDMDL
MODEL 3
REMARK VINA RESULT:      -4.4      1.740      2.800
REMARK  1 active torsions:
REMARK  status: ('A' for Active; 'I' for Inactive)
REMARK    1  A    between atoms: C1_1  and  C7_7 
ROOT
HETATM    1  C2  UNL     1     -34.073  16.175  -6.268  1.00 20.00     0.006 C 
HETATM    2  C3  UNL     1     -35.165  15.178  -5.866  1.00 20.00     0.017 C 
HETATM    3  C4  UNL     1     -33.202  16.358  -5.032  1.00 20.00     0.069 C 
HETATM    4  C5  UNL     1     -34.144  16.716  -1.685  1.00 20.00     0.197 C 
HETATM    5  C6  UNL     1     -34.565  17.918  -2.482  1.00 20.00     0.197 C 
HETATM    6  C7  UNL     1     -35.078  15.022  -4.342  1.00 20.00     0.109 C 
HETATM    7  C8  UNL     1     -34.180  16.174  -3.879  1.00 20.00     0.173 C 
HETATM    8  O10 UNL     1     -33.495  15.897  -2.656  1.00 20.00    -0.352 OA
HETATM    9  O11 UNL     1     -34.985  17.357  -3.724  1.00 20.00    -0.352 OA
ENDROOT
BRANCH   6  10
HETATM   10  C1  UNL     1     -34.517  13.675  -3.996  1.00 20.00     0.241 C 
HETATM   11  O9  UNL     1     -34.976  12.621  -4.425  1.00 20.00    -0.306 OA
ENDBRANCH   6  10
TORSDOF 1
ENDMDL
MODEL 4
REMARK VINA RESULT:      -4.4      1.303      2.821
REMARK  1 active torsions:
REMARK  status: ('A' for Active; 'I' for Inactive)
REMARK    1  A    between atoms: C1_1  and  C7_7 
ROOT
HETATM    1  C2  UNL     1     -34.629  13.299  -5.007  1.00 20.00     0.006 C 
HETATM    2  C3  UNL     1     -34.149  13.659  -3.598  1.00 20.00     0.017 C 
HETATM    3  C4  UNL     1     -35.497  14.465  -5.461  1.00 20.00     0.069 C 
HETATM    4  C5  UNL     1     -37.895  16.275  -3.675  1.00 20.00     0.197 C 
HETATM    5  C6  UNL     1     -38.364  14.867  -3.906  1.00 20.00     0.197 C 
HETATM    6  C7  UNL     1     -34.966  14.880  -3.153  1.00 20.00     0.109 C 
HETATM    7  C8  UNL     1     -36.113  14.974  -4.164  1.00 20.00     0.173 C 
HETATM    8  O10 UNL     1     -36.621  16.301  -4.316  1.00 20.00    -0.352 OA
HETATM    9  O11 UNL     1     -37.174  14.096  -3.747  1.00 20.00    -0.352 OA
ENDROOT
BRANCH   6  10
HETATM   10  C1  UNL     1     -34.098  16.103  -3.145  1.00 20.00     0.241 C 
HETATM   11  O9  UNL     1     -33.682  16.630  -2.118  1.00 20.00    -0.306 OA
ENDBRANCH   6  10
TORSDOF 1
ENDMDL
MODEL 5
REMARK VINA RESULT:      -4.3      1.999      3.090
REMARK  1 active torsions:
REMARK  status: ('A' for Active; 'I' for Inactive)
REMARK    1  A    between atoms: C1_1  and  C7_7 
ROOT
HETATM    1  C2  UNL     1     -33.281  14.680  -3.838  1.00 20.00     0.006 C 
HETATM    2  C3  UNL     1     -34.402  13.656  -3.632  1.00 20.00     0.017 C 
HETATM    3  C4  UNL     1     -33.908  15.830  -4.614  1.00 20.00     0.069 C 
HETATM    4  C5  UNL     1     -36.120  15.740  -7.319  1.00 20.00     0.197 C 
HETATM    5  C6  UNL     1     -34.771  15.217  -7.725  1.00 20.00     0.197 C 
HETATM    6  C7  UNL     1     -35.568  14.095  -4.529  1.00 20.00     0.109 C 
HETATM    7  C8  UNL     1     -34.969  15.147  -5.467  1.00 20.00     0.173 C 
HETATM    8  O10 UNL     1     -35.933  16.086  -5.948  1.00 20.00    -0.352 OA
HETATM    9  O11 UNL     1     -34.349  14.478  -6.580  1.00 20.00    -0.352 OA
ENDROOT
BRANCH   6  10
HETATM   10  C1  UNL     1     -36.686  14.637  -3.687  1.00 20.00     0.241 C 
HETATM   11  O9  UNL     1     -37.832  14.203  -3.725  1.00 20.00    -0.306 OA
ENDBRANCH   6  10
TORSDOF 1
ENDMDL
MODEL 6
REMARK VINA RESULT:      -4.3      2.311      3.480
REMARK  1 active torsions:
REMARK  status: ('A' for Active; 'I' for Inactive)
REMARK    1  A    between atoms: C1_1  and  C7_7 
ROOT
HETATM    1  C2  UNL     1     -35.185  14.348  -6.711  1.00 20.00     0.006 C 
HETATM    2  C3  UNL     1     -35.353  13.998  -5.229  1.00 20.00     0.017 C 
HETATM    3  C4  UNL     1     -34.081  15.395  -6.768  1.00 20.00     0.069 C 
HETATM    4  C5  UNL     1     -33.524  18.152  -4.693  1.00 20.00     0.197 C 
HETATM    5  C6  UNL     1     -34.775  18.347  -5.503  1.00 20.00     0.197 C 
HETATM    6  C7  UNL     1     -34.552  15.041  -4.438  1.00 20.00     0.109 C 
HETATM    7  C8  UNL     1     -34.234  16.145  -5.452  1.00 20.00     0.173 C 
HETATM    8  O10 UNL     1     -33.051  16.880  -5.131  1.00 20.00    -0.352 OA
HETATM    9  O11 UNL     1     -35.356  17.044  -5.526  1.00 20.00    -0.352 OA
ENDROOT
BRANCH   6  10
HETATM   10  C1  UNL     1     -33.319  14.412  -3.861  1.00 20.00     0.241 C 
HETATM   11  O9  UNL     1     -33.166  13.199  -3.752  1.00 20.00    -0.306 OA
ENDBRANCH   6  10
TORSDOF 1
ENDMDL
MODEL 7
REMARK VINA RESULT:      -4.2      1.996      2.527
REMARK  1 active torsions:
REMARK  status: ('A' for Active; 'I' for Inactive)
REMARK    1  A    between atoms: C1_1  and  C7_7 
ROOT
HETATM    1  C2  UNL     1     -34.083  15.884  -2.636  1.00 20.00     0.006 C 
HETATM    2  C3  UNL     1     -33.452  14.697  -3.371  1.00 20.00     0.017 C 
HETATM    3  C4  UNL     1     -35.121  16.459  -3.590  1.00 20.00     0.069 C 
HETATM    4  C5  UNL     1     -34.906  17.010  -7.035  1.00 20.00     0.197 C 
HETATM    5  C6  UNL     1     -33.982  17.936  -6.295  1.00 20.00     0.197 C 
HETATM    6  C7  UNL     1     -33.927  14.781  -4.828  1.00 20.00     0.109 C 
HETATM    7  C8  UNL     1     -34.530  16.182  -4.966  1.00 20.00     0.173 C 
HETATM    8  O10 UNL     1     -35.526  16.268  -5.987  1.00 20.00    -0.352 OA
HETATM    9  O11 UNL     1     -33.472  17.118  -5.244  1.00 20.00    -0.352 OA
ENDROOT
BRANCH   6  10
HETATM   10  C1  UNL     1     -34.920  13.692  -5.107  1.00 20.00     0.241 C 
HETATM   11  O9  UNL     1     -35.028  12.683  -4.418  1.00 20.00    -0.306 OA
ENDBRANCH   6  10
TORSDOF 1
ENDMDL
MODEL 8
REMARK VINA RESULT:      -4.2     11.915     13.247
REMARK  1 active torsions:
REMARK  status: ('A' for Active; 'I' for Inactive)
REMARK    1  A    between atoms: C1_1  and  C7_7 
ROOT
HETATM    1  C2  UNL     1     -41.135   6.554  -1.342  1.00 20.00     0.006 C 
HETATM    2  C3  UNL     1     -41.046   5.841   0.011  1.00 20.00     0.017 C 
HETATM    3  C4  UNL     1     -42.253   5.857  -2.106  1.00 20.00     0.069 C 
HETATM    4  C5  UNL     1     -42.974   2.447  -2.366  1.00 20.00     0.197 C 
HETATM    5  C6  UNL     1     -41.683   2.767  -3.065  1.00 20.00     0.197 C 
HETATM    6  C7  UNL     1     -41.909   4.576  -0.101  1.00 20.00     0.109 C 
HETATM    7  C8  UNL     1     -42.188   4.422  -1.600  1.00 20.00     0.173 C 
HETATM    8  O10 UNL     1     -43.399   3.718  -1.877  1.00 20.00    -0.352 OA
HETATM    9  O11 UNL     1     -41.079   3.736  -2.210  1.00 20.00    -0.352 OA
ENDROOT
BRANCH   6  10
HETATM   10  C1  UNL     1     -43.162   4.736   0.708  1.00 20.00     0.241 C 
HETATM   11  O9  UNL     1     -43.369   5.690   1.451  1.00 20.00    -0.306 OA
ENDBRANCH   6  10
TORSDOF 1
ENDMDL
MODEL 9
REMARK VINA RESULT:      -4.1      2.110      3.778
REMARK  1 active torsions:
REMARK  status: ('A' for Active; 'I' for Inactive)
REMARK    1  A    between atoms: C1_1  and  C7_7 
ROOT
HETATM    1  C2  UNL     1     -36.000  14.757  -7.405  1.00 20.00     0.006 C 
HETATM    2  C3  UNL     1     -37.108  15.197  -6.444  1.00 20.00     0.017 C 
HETATM    3  C4  UNL     1     -34.761  14.551  -6.544  1.00 20.00     0.069 C 
HETATM    4  C5  UNL     1     -33.529  16.506  -3.922  1.00 20.00     0.197 C 
HETATM    5  C6  UNL     1     -33.413  17.243  -5.226  1.00 20.00     0.197 C 
HETATM    6  C7  UNL     1     -36.429  15.510  -5.103  1.00 20.00     0.109 C 
HETATM    7  C8  UNL     1     -34.932  15.571  -5.426  1.00 20.00     0.173 C 
HETATM    8  O10 UNL     1     -34.103  15.258  -4.305  1.00 20.00    -0.352 OA
HETATM    9  O11 UNL     1     -34.615  16.889  -5.909  1.00 20.00    -0.352 OA
ENDROOT
BRANCH   6  10
HETATM   10  C1  UNL     1     -36.763  14.448  -4.098  1.00 20.00     0.241 C 
HETATM   11  O9  UNL     1     -37.909  14.188  -3.745  1.00 20.00    -0.306 OA
ENDBRANCH   6  10
TORSDOF 1
ENDMDL
