MODEL 1
REMARK VINA RESULT:      -4.3      0.000      0.000
REMARK  1 active torsions:
REMARK  status: ('A' for Active; 'I' for Inactive)
REMARK    1  A    between atoms: C1_1  and  C3_3 
ROOT
HETATM    1  C2  UNL     1     -34.748  16.338  -4.227  1.00 20.00     0.084 A 
HETATM    2  C3  UNL     1     -35.387  14.998  -3.926  1.00 20.00     0.087 A 
HETATM    3  C4  UNL     1     -34.293  15.560  -3.028  1.00 20.00     0.195 A 
HETATM    4  C5  UNL     1     -36.822  15.011  -3.462  1.00 20.00     0.029 C 
HETATM    5  F7  UNL     1     -33.038  14.966  -3.146  1.00 20.00    -0.224 F 
HETATM    6 CL9  UNL     1     -34.662  16.185  -1.431  1.00 20.00    -0.081 Cl
ENDROOT
BRANCH   2   7
HETATM    7  C1  UNL     1     -34.996  13.859  -4.792  1.00 20.00     0.231 C 
HETATM    8  O6  UNL     1     -34.994  12.704  -4.377  1.00 20.00    -0.279 OA
HETATM    9 CL8  UNL     1     -34.561  14.376  -6.393  1.00 20.00    -0.043 Cl
ENDBRANCH   2   7
TORSDOF 1
ENDMDL
MODEL 2
REMARK VINA RESULT:      -4.2      1.812      2.135
REMARK  1 active torsions:
REMARK  status: ('A' for Active; 'I' for Inactive)
REMARK    1  A    between atoms: C1_1  and  C3_3 
ROOT
HETATM    1  C2  UNL     1     -32.966  14.872  -3.680  1.00 20.00     0.084 A 
HETATM    2  C3  UNL     1     -34.297  14.985  -4.396  1.00 20.00     0.087 A 
HETATM    3  C4  UNL     1     -34.001  15.826  -3.161  1.00 20.00     0.195 A 
HETATM    4  C5  UNL     1     -34.289  15.623  -5.762  1.00 20.00     0.029 C 
HETATM    5  F7  UNL     1     -34.636  15.434  -1.985  1.00 20.00    -0.224 F 
HETATM    6 CL9  UNL     1     -33.695  17.549  -3.291  1.00 20.00    -0.081 Cl
ENDROOT
BRANCH   2   7
HETATM    7  C1  UNL     1     -35.256  13.869  -4.206  1.00 20.00     0.231 C 
HETATM    8  O6  UNL     1     -34.886  12.699  -4.168  1.00 20.00    -0.279 OA
HETATM    9 CL8  UNL     1     -36.893  14.433  -4.057  1.00 20.00    -0.043 Cl
ENDBRANCH   2   7
TORSDOF 1
ENDMDL
MODEL 3
REMARK VINA RESULT:      -4.1     12.088     12.556
REMARK  1 active torsions:
REMARK  status: ('A' for Active; 'I' for Inactive)
REMARK    1  A    between atoms: C1_1  and  C3_3 
ROOT
HETATM    1  C2  UNL     1     -34.377   7.255   3.774  1.00 20.00     0.084 A 
HETATM    2  C3  UNL     1     -34.064   6.237   4.852  1.00 20.00     0.087 A 
HETATM    3  C4  UNL     1     -33.152   6.399   3.643  1.00 20.00     0.195 A 
HETATM    4  C5  UNL     1     -33.636   6.770   6.196  1.00 20.00     0.029 C 
HETATM    5  F7  UNL     1     -33.227   5.396   2.679  1.00 20.00    -0.224 F 
HETATM    6 CL9  UNL     1     -31.578   7.159   3.792  1.00 20.00    -0.081 Cl
ENDROOT
BRANCH   2   7
HETATM    7  C1  UNL     1     -34.897   5.010   4.876  1.00 20.00     0.231 C 
HETATM    8  O6  UNL     1     -35.876   4.879   4.147  1.00 20.00    -0.279 OA
HETATM    9 CL8  UNL     1     -34.314   3.847   6.029  1.00 20.00    -0.043 Cl
ENDBRANCH   2   7
TORSDOF 1
ENDMDL
MODEL 4
REMARK VINA RESULT:      -4.0      2.165      2.585
REMARK  1 active torsions:
REMARK  status: ('A' for Active; 'I' for Inactive)
REMARK    1  A    between atoms: C1_1  and  C3_3 
ROOT
HETATM    1  C2  UNL     1     -33.580  16.036  -4.801  1.00 20.00     0.084 A 
HETATM    2  C3  UNL     1     -34.384  14.843  -5.276  1.00 20.00     0.087 A 
HETATM    3  C4  UNL     1     -35.048  15.972  -4.498  1.00 20.00     0.195 A 
HETATM    4  C5  UNL     1     -34.612  14.716  -6.762  1.00 20.00     0.029 C 
HETATM    5  F7  UNL     1     -35.370  15.695  -3.171  1.00 20.00    -0.224 F 
HETATM    6 CL9  UNL     1     -36.120  17.111  -5.292  1.00 20.00    -0.081 Cl
ENDROOT
BRANCH   2   7
HETATM    7  C1  UNL     1     -34.194  13.571  -4.538  1.00 20.00     0.231 C 
HETATM    8  O6  UNL     1     -34.967  12.626  -4.670  1.00 20.00    -0.279 OA
HETATM    9 CL8  UNL     1     -32.791  13.613  -3.513  1.00 20.00    -0.043 Cl
ENDBRANCH   2   7
TORSDOF 1
ENDMDL
MODEL 5
REMARK VINA RESULT:      -4.0      2.189      2.406
REMARK  1 active torsions:
REMARK  status: ('A' for Active; 'I' for Inactive)
REMARK    1  A    between atoms: C1_1  and  C3_3 
ROOT
HETATM    1  C2  UNL     1     -36.084  15.327  -4.797  1.00 20.00     0.084 A 
HETATM    2  C3  UNL     1     -34.918  15.030  -3.878  1.00 20.00     0.087 A 
HETATM    3  C4  UNL     1     -34.730  15.885  -5.124  1.00 20.00     0.195 A 
HETATM    4  C5  UNL     1     -34.936  15.677  -2.515  1.00 20.00     0.029 C 
HETATM    5  F7  UNL     1     -34.078  15.276  -6.193  1.00 20.00    -0.224 F 
HETATM    6 CL9  UNL     1     -34.486  17.618  -5.005  1.00 20.00    -0.081 Cl
ENDROOT
BRANCH   2   7
HETATM    7  C1  UNL     1     -34.349  13.661  -3.938  1.00 20.00     0.231 C 
HETATM    8  O6  UNL     1     -35.025  12.696  -4.281  1.00 20.00    -0.279 OA
HETATM    9 CL8  UNL     1     -32.674  13.629  -3.474  1.00 20.00    -0.043 Cl
ENDBRANCH   2   7
TORSDOF 1
ENDMDL
MODEL 6
REMARK VINA RESULT:      -3.9      2.361      2.599
REMARK  1 active torsions:
REMARK  status: ('A' for Active; 'I' for Inactive)
REMARK    1  A    between atoms: C1_1  and  C3_3 
ROOT
HETATM    1  C2  UNL     1     -34.521  15.343  -5.214  1.00 20.00     0.084 A 
HETATM    2  C3  UNL     1     -35.471  14.997  -4.086  1.00 20.00     0.087 A 
HETATM    3  C4  UNL     1     -34.468  13.974  -4.602  1.00 20.00     0.195 A 
HETATM    4  C5  UNL     1     -35.238  15.677  -2.760  1.00 20.00     0.029 C 
HETATM    5  F7  UNL     1     -34.987  12.949  -5.391  1.00 20.00    -0.224 F 
HETATM    6 CL9  UNL     1     -33.057  13.532  -3.658  1.00 20.00    -0.081 Cl
ENDROOT
BRANCH   2   7
HETATM    7  C1  UNL     1     -36.888  14.758  -4.452  1.00 20.00     0.231 C 
HETATM    8  O6  UNL     1     -37.655  14.157  -3.706  1.00 20.00    -0.279 OA
HETATM    9 CL8  UNL     1     -37.280  15.419  -6.011  1.00 20.00    -0.043 Cl
ENDBRANCH   2   7
TORSDOF 1
ENDMDL
MODEL 7
REMARK VINA RESULT:      -3.9      2.193      2.644
REMARK  1 active torsions:
REMARK  status: ('A' for Active; 'I' for Inactive)
REMARK    1  A    between atoms: C1_1  and  C3_3 
ROOT
HETATM    1  C2  UNL     1     -34.804  13.384  -3.928  1.00 20.00     0.084 A 
HETATM    2  C3  UNL     1     -35.391  14.561  -4.680  1.00 20.00     0.087 A 
HETATM    3  C4  UNL     1     -34.397  14.777  -3.546  1.00 20.00     0.195 A 
HETATM    4  C5  UNL     1     -34.953  14.748  -6.111  1.00 20.00     0.029 C 
HETATM    5  F7  UNL     1     -34.928  15.245  -2.346  1.00 20.00    -0.224 F 
HETATM    6 CL9  UNL     1     -32.751  15.289  -3.870  1.00 20.00    -0.081 Cl
ENDROOT
BRANCH   2   7
HETATM    7  C1  UNL     1     -36.801  14.910  -4.382  1.00 20.00     0.231 C 
HETATM    8  O6  UNL     1     -37.557  14.122  -3.823  1.00 20.00    -0.279 OA
HETATM    9 CL8  UNL     1     -37.204  16.514  -4.917  1.00 20.00    -0.043 Cl
ENDBRANCH   2   7
TORSDOF 1
ENDMDL
MODEL 8
REMARK VINA RESULT:      -3.8      1.728      2.190
REMARK  1 active torsions:
REMARK  status: ('A' for Active; 'I' for Inactive)
REMARK    1  A    between atoms: C1_1  and  C3_3 
ROOT
HETATM    1  C2  UNL     1     -34.467  14.841  -3.045  1.00 20.00     0.084 A 
HETATM    2  C3  UNL     1     -34.635  15.019  -4.539  1.00 20.00     0.087 A 
HETATM    3  C4  UNL     1     -35.748  15.411  -3.577  1.00 20.00     0.195 A 
HETATM    4  C5  UNL     1     -33.800  16.088  -5.201  1.00 20.00     0.029 C 
HETATM    5  F7  UNL     1     -36.846  14.554  -3.528  1.00 20.00    -0.224 F 
HETATM    6 CL9  UNL     1     -36.116  17.095  -3.254  1.00 20.00    -0.081 Cl
ENDROOT
BRANCH   2   7
HETATM    7  C1  UNL     1     -34.869  13.792  -5.339  1.00 20.00     0.231 C 
HETATM    8  O6  UNL     1     -34.718  12.672  -4.861  1.00 20.00    -0.279 OA
HETATM    9 CL8  UNL     1     -35.360  14.156  -6.966  1.00 20.00    -0.043 Cl
ENDBRANCH   2   7
TORSDOF 1
ENDMDL
MODEL 9
REMARK VINA RESULT:      -3.8      1.848      3.357
REMARK  1 active torsions:
REMARK  status: ('A' for Active; 'I' for Inactive)
REMARK    1  A    between atoms: C1_1  and  C3_3 
ROOT
HETATM    1  C2  UNL     1     -33.249  15.725  -4.266  1.00 20.00     0.084 A 
HETATM    2  C3  UNL     1     -34.523  14.913  -4.151  1.00 20.00     0.087 A 
HETATM    3  C4  UNL     1     -34.338  15.919  -5.279  1.00 20.00     0.195 A 
HETATM    4  C5  UNL     1     -34.423  13.435  -4.436  1.00 20.00     0.029 C 
HETATM    5  F7  UNL     1     -35.054  17.109  -5.162  1.00 20.00    -0.224 F 
HETATM    6 CL9  UNL     1     -34.055  15.391  -6.927  1.00 20.00    -0.081 Cl
ENDROOT
BRANCH   2   7
HETATM    7  C1  UNL     1     -35.473  15.304  -3.081  1.00 20.00     0.231 C 
HETATM    8  O6  UNL     1     -36.677  15.083  -3.174  1.00 20.00    -0.279 OA
HETATM    9 CL8  UNL     1     -34.672  16.080  -1.748  1.00 20.00    -0.043 Cl
ENDBRANCH   2   7
TORSDOF 1
ENDMDL
