MODEL 1
REMARK VINA RESULT:      -5.1      0.000      0.000
REMARK  2 active torsions:
REMARK  status: ('A' for Active; 'I' for Inactive)
REMARK    1  A    between atoms: C7_7  and  C9_9 
REMARK    2  A    between atoms: C9_9  and  C10_10 
ROOT
HETATM    1  C1  UNL     1     -35.687  14.721  -7.168  1.00 20.00     0.064 C 
HETATM    2  C2  UNL     1     -34.247  16.104  -5.634  1.00 20.00     0.019 C 
HETATM    3  C3  UNL     1     -34.798  13.712  -5.039  1.00 20.00     0.019 C 
HETATM    4  C4  UNL     1     -33.113  16.102  -4.606  1.00 20.00     0.006 C 
HETATM    5  C5  UNL     1     -33.666  13.703  -4.010  1.00 20.00     0.006 C 
HETATM    6  C6  UNL     1     -34.521  14.698  -6.180  1.00 20.00     0.093 C 
HETATM    7  C7  UNL     1     -33.339  15.100  -3.466  1.00 20.00    -0.014 C 
HETATM    8  N11 UNL     1     -36.572  14.739  -7.918  1.00 20.00    -0.197 NA
ENDROOT
BRANCH   7   9
HETATM    9  C9  UNL     1     -34.394  15.571  -2.549  1.00 20.00     0.004 C 
BRANCH   9  10
HETATM   10  C10 UNL     1     -33.940  16.802  -1.772  1.00 20.00    -0.004 C 
HETATM   11  C8  UNL     1     -34.676  16.918  -0.447  1.00 20.00     0.005 C 
ENDBRANCH   9  10
ENDBRANCH   7   9
TORSDOF 2
ENDMDL
MODEL 2
REMARK VINA RESULT:      -4.7      1.949      3.017
REMARK  2 active torsions:
REMARK  status: ('A' for Active; 'I' for Inactive)
REMARK    1  A    between atoms: C7_7  and  C9_9 
REMARK    2  A    between atoms: C9_9  and  C10_10 
ROOT
HETATM    1  C1  UNL     1     -34.816  13.641  -4.470  1.00 20.00     0.064 C 
HETATM    2  C2  UNL     1     -36.071  15.380  -3.151  1.00 20.00     0.019 C 
HETATM    3  C3  UNL     1     -33.553  15.485  -3.308  1.00 20.00     0.019 C 
HETATM    4  C4  UNL     1     -36.105  16.830  -2.663  1.00 20.00     0.006 C 
HETATM    5  C5  UNL     1     -33.580  16.935  -2.821  1.00 20.00     0.006 C 
HETATM    6  C6  UNL     1     -34.849  15.105  -4.035  1.00 20.00     0.093 C 
HETATM    7  C7  UNL     1     -34.809  17.256  -1.961  1.00 20.00    -0.014 C 
HETATM    8  N11 UNL     1     -34.791  12.529  -4.799  1.00 20.00    -0.197 NA
ENDROOT
BRANCH   7   9
HETATM    9  C9  UNL     1     -34.700  16.634  -0.628  1.00 20.00     0.004 C 
BRANCH   9  10
HETATM   10  C10 UNL     1     -34.826  17.675   0.478  1.00 20.00    -0.004 C 
HETATM   11  C8  UNL     1     -33.547  18.486   0.619  1.00 20.00     0.005 C 
ENDBRANCH   9  10
ENDBRANCH   7   9
TORSDOF 2
ENDMDL
MODEL 3
REMARK VINA RESULT:      -4.5      2.482      3.136
REMARK  2 active torsions:
REMARK  status: ('A' for Active; 'I' for Inactive)
REMARK    1  A    between atoms: C7_7  and  C9_9 
REMARK    2  A    between atoms: C9_9  and  C10_10 
ROOT
HETATM    1  C1  UNL     1     -37.344  14.951  -3.742  1.00 20.00     0.064 C 
HETATM    2  C2  UNL     1     -36.404  17.123  -2.883  1.00 20.00     0.019 C 
HETATM    3  C3  UNL     1     -34.935  15.072  -3.018  1.00 20.00     0.019 C 
HETATM    4  C4  UNL     1     -35.162  18.007  -2.745  1.00 20.00     0.006 C 
HETATM    5  C5  UNL     1     -33.690  15.951  -2.879  1.00 20.00     0.006 C 
HETATM    6  C6  UNL     1     -36.101  15.835  -3.659  1.00 20.00     0.093 C 
HETATM    7  C7  UNL     1     -33.964  17.266  -2.139  1.00 20.00    -0.014 C 
HETATM    8  N11 UNL     1     -38.288  14.279  -3.804  1.00 20.00    -0.197 NA
ENDROOT
BRANCH   7   9
HETATM    9  C9  UNL     1     -34.162  17.030  -0.697  1.00 20.00     0.004 C 
BRANCH   9  10
HETATM   10  C10 UNL     1     -33.945  18.308   0.106  1.00 20.00    -0.004 C 
HETATM   11  C8  UNL     1     -32.480  18.714   0.110  1.00 20.00     0.005 C 
ENDBRANCH   9  10
ENDBRANCH   7   9
TORSDOF 2
ENDMDL
MODEL 4
REMARK VINA RESULT:      -4.4      2.662      5.000
REMARK  2 active torsions:
REMARK  status: ('A' for Active; 'I' for Inactive)
REMARK    1  A    between atoms: C7_7  and  C9_9 
REMARK    2  A    between atoms: C9_9  and  C10_10 
ROOT
HETATM    1  C1  UNL     1     -34.371  16.622  -1.197  1.00 20.00     0.064 C 
HETATM    2  C2  UNL     1     -34.591  14.975  -3.088  1.00 20.00     0.019 C 
HETATM    3  C3  UNL     1     -33.829  17.338  -3.550  1.00 20.00     0.019 C 
HETATM    4  C4  UNL     1     -34.079  14.538  -4.463  1.00 20.00     0.006 C 
HETATM    5  C5  UNL     1     -33.315  16.908  -4.925  1.00 20.00     0.006 C 
HETATM    6  C6  UNL     1     -33.810  16.178  -2.547  1.00 20.00     0.093 C 
HETATM    7  C7  UNL     1     -34.050  15.682  -5.483  1.00 20.00    -0.014 C 
HETATM    8  N11 UNL     1     -34.799  16.959  -0.172  1.00 20.00    -0.197 NA
ENDROOT
BRANCH   7   9
HETATM    9  C9  UNL     1     -35.414  16.036  -5.919  1.00 20.00     0.004 C 
BRANCH   9  10
HETATM   10  C10 UNL     1     -36.119  14.841  -6.551  1.00 20.00    -0.004 C 
HETATM   11  C8  UNL     1     -35.538  14.518  -7.918  1.00 20.00     0.005 C 
ENDBRANCH   9  10
ENDBRANCH   7   9
TORSDOF 2
ENDMDL
MODEL 5
REMARK VINA RESULT:      -4.4      1.528      1.923
REMARK  2 active torsions:
REMARK  status: ('A' for Active; 'I' for Inactive)
REMARK    1  A    between atoms: C7_7  and  C9_9 
REMARK    2  A    between atoms: C9_9  and  C10_10 
ROOT
HETATM    1  C1  UNL     1     -34.658  16.748  -6.840  1.00 20.00     0.064 C 
HETATM    2  C2  UNL     1     -33.158  16.043  -4.945  1.00 20.00     0.019 C 
HETATM    3  C3  UNL     1     -35.660  16.139  -4.612  1.00 20.00     0.019 C 
HETATM    4  C4  UNL     1     -33.018  15.195  -3.679  1.00 20.00     0.006 C 
HETATM    5  C5  UNL     1     -35.526  15.291  -3.345  1.00 20.00     0.006 C 
HETATM    6  C6  UNL     1     -34.528  15.855  -5.607  1.00 20.00     0.093 C 
HETATM    7  C7  UNL     1     -34.153  15.426  -2.674  1.00 20.00    -0.014 C 
HETATM    8  N11 UNL     1     -34.756  17.426  -7.777  1.00 20.00    -0.197 NA
ENDROOT
BRANCH   7   9
HETATM    9  C9  UNL     1     -34.015  16.736  -2.012  1.00 20.00     0.004 C 
BRANCH   9  10
HETATM   10  C10 UNL     1     -34.722  16.749  -0.661  1.00 20.00    -0.004 C 
HETATM   11  C8  UNL     1     -34.188  17.860   0.229  1.00 20.00     0.005 C 
ENDBRANCH   9  10
ENDBRANCH   7   9
TORSDOF 2
ENDMDL
MODEL 6
REMARK VINA RESULT:      -4.4      2.499      4.791
REMARK  2 active torsions:
REMARK  status: ('A' for Active; 'I' for Inactive)
REMARK    1  A    between atoms: C7_7  and  C9_9 
REMARK    2  A    between atoms: C9_9  and  C10_10 
ROOT
HETATM    1  C1  UNL     1     -34.031  16.760  -1.884  1.00 20.00     0.064 C 
HETATM    2  C2  UNL     1     -35.654  15.724  -3.506  1.00 20.00     0.019 C 
HETATM    3  C3  UNL     1     -33.268  14.902  -3.403  1.00 20.00     0.019 C 
HETATM    4  C4  UNL     1     -36.059  14.462  -4.272  1.00 20.00     0.006 C 
HETATM    5  C5  UNL     1     -33.667  13.638  -4.168  1.00 20.00     0.006 C 
HETATM    6  C6  UNL     1     -34.443  15.475  -2.600  1.00 20.00     0.093 C 
HETATM    7  C7  UNL     1     -34.899  13.840  -5.059  1.00 20.00    -0.014 C 
HETATM    8  N11 UNL     1     -33.719  17.737  -1.341  1.00 20.00    -0.197 NA
ENDROOT
BRANCH   7   9
HETATM    9  C9  UNL     1     -34.568  14.654  -6.243  1.00 20.00     0.004 C 
BRANCH   9  10
HETATM   10  C10 UNL     1     -35.542  14.388  -7.386  1.00 20.00    -0.004 C 
HETATM   11  C8  UNL     1     -36.257  15.661  -7.808  1.00 20.00     0.005 C 
ENDBRANCH   9  10
ENDBRANCH   7   9
TORSDOF 2
ENDMDL
MODEL 7
REMARK VINA RESULT:      -4.3      3.413      5.310
REMARK  2 active torsions:
REMARK  status: ('A' for Active; 'I' for Inactive)
REMARK    1  A    between atoms: C7_7  and  C9_9 
REMARK    2  A    between atoms: C9_9  and  C10_10 
ROOT
HETATM    1  C1  UNL     1     -32.711  18.805  -0.688  1.00 20.00     0.064 C 
HETATM    2  C2  UNL     1     -33.655  18.417  -2.989  1.00 20.00     0.019 C 
HETATM    3  C3  UNL     1     -34.040  16.719  -1.159  1.00 20.00     0.019 C 
HETATM    4  C4  UNL     1     -34.779  17.787  -3.815  1.00 20.00     0.006 C 
HETATM    5  C5  UNL     1     -35.165  16.085  -1.981  1.00 20.00     0.006 C 
HETATM    6  C6  UNL     1     -33.869  18.208  -1.485  1.00 20.00     0.093 C 
HETATM    7  C7  UNL     1     -35.003  16.305  -3.490  1.00 20.00    -0.014 C 
HETATM    8  N11 UNL     1     -31.831  19.259  -0.082  1.00 20.00    -0.197 NA
ENDROOT
BRANCH   7   9
HETATM    9  C9  UNL     1     -33.911  15.474  -4.032  1.00 20.00     0.004 C 
BRANCH   9  10
HETATM   10  C10 UNL     1     -34.084  14.011  -3.637  1.00 20.00    -0.004 C 
HETATM   11  C8  UNL     1     -35.091  13.313  -4.537  1.00 20.00     0.005 C 
ENDBRANCH   9  10
ENDBRANCH   7   9
TORSDOF 2
ENDMDL
MODEL 8
REMARK VINA RESULT:      -4.3      4.677      7.416
REMARK  2 active torsions:
REMARK  status: ('A' for Active; 'I' for Inactive)
REMARK    1  A    between atoms: C7_7  and  C9_9 
REMARK    2  A    between atoms: C9_9  and  C10_10 
ROOT
HETATM    1  C1  UNL     1     -31.804  18.949   2.623  1.00 20.00     0.064 C 
HETATM    2  C2  UNL     1     -32.298  18.721   0.165  1.00 20.00     0.019 C 
HETATM    3  C3  UNL     1     -34.138  18.388   1.864  1.00 20.00     0.019 C 
HETATM    4  C4  UNL     1     -33.343  18.869  -0.942  1.00 20.00     0.006 C 
HETATM    5  C5  UNL     1     -35.187  18.536   0.761  1.00 20.00     0.006 C 
HETATM    6  C6  UNL     1     -32.850  19.151   1.529  1.00 20.00     0.093 C 
HETATM    7  C7  UNL     1     -34.659  18.147  -0.626  1.00 20.00    -0.014 C 
HETATM    8  N11 UNL     1     -31.008  18.794   3.454  1.00 20.00    -0.197 NA
ENDROOT
BRANCH   7   9
HETATM    9  C9  UNL     1     -34.501  16.685  -0.742  1.00 20.00     0.004 C 
BRANCH   9  10
HETATM   10  C10 UNL     1     -34.934  16.191  -2.118  1.00 20.00    -0.004 C 
HETATM   11  C8  UNL     1     -33.741  15.721  -2.935  1.00 20.00     0.005 C 
ENDBRANCH   9  10
ENDBRANCH   7   9
TORSDOF 2
ENDMDL
MODEL 9
REMARK VINA RESULT:      -4.2      1.180      1.287
REMARK  2 active torsions:
REMARK  status: ('A' for Active; 'I' for Inactive)
REMARK    1  A    between atoms: C7_7  and  C9_9 
REMARK    2  A    between atoms: C9_9  and  C10_10 
ROOT
HETATM    1  C1  UNL     1     -36.804  15.222  -6.175  1.00 20.00     0.064 C 
HETATM    2  C2  UNL     1     -34.608  16.317  -5.612  1.00 20.00     0.019 C 
HETATM    3  C3  UNL     1     -35.779  14.874  -3.902  1.00 20.00     0.019 C 
HETATM    4  C4  UNL     1     -33.312  16.230  -4.804  1.00 20.00     0.006 C 
HETATM    5  C5  UNL     1     -34.485  14.783  -3.089  1.00 20.00     0.006 C 
HETATM    6  C6  UNL     1     -35.498  15.087  -5.394  1.00 20.00     0.093 C 
HETATM    7  C7  UNL     1     -33.552  15.980  -3.310  1.00 20.00    -0.014 C 
HETATM    8  N11 UNL     1     -37.797  15.325  -6.768  1.00 20.00    -0.197 NA
ENDROOT
BRANCH   7   9
HETATM    9  C9  UNL     1     -34.079  17.190  -2.650  1.00 20.00     0.004 C 
BRANCH   9  10
HETATM   10  C10 UNL     1     -33.622  17.268  -1.197  1.00 20.00    -0.004 C 
HETATM   11  C8  UNL     1     -34.785  17.055  -0.242  1.00 20.00     0.005 C 
ENDBRANCH   9  10
ENDBRANCH   7   9
TORSDOF 2
ENDMDL
