MODEL 1
REMARK VINA RESULT:      -4.1      0.000      0.000
REMARK  0 active torsions:
REMARK  status: ('A' for Active; 'I' for Inactive)
ROOT
HETATM    1  C1  UNL     1     -35.709  14.554  -7.918  1.00 20.00     0.015 C 
HETATM    2  C2  UNL     1     -35.627  14.488  -6.722  1.00 20.00    -0.083 C 
HETATM    3  C3  UNL     1     -34.855  13.141  -4.796  1.00 20.00     0.216 C 
HETATM    4  C4  UNL     1     -35.526  14.407  -5.267  1.00 20.00     0.226 C 
HETATM    5  C5  UNL     1     -34.077  14.887  -3.578  1.00 20.00     0.158 C 
HETATM    6  C6  UNL     1     -32.569  15.096  -3.649  1.00 20.00     0.078 C 
HETATM    7  C7  UNL     1     -34.673  15.571  -2.353  1.00 20.00     0.078 C 
HETATM    8  O8  UNL     1     -34.360  13.483  -3.502  1.00 20.00    -0.352 OA
HETATM    9  O9  UNL     1     -34.672  15.439  -4.763  1.00 20.00    -0.336 OA
ENDROOT
TORSDOF 0
ENDMDL
MODEL 2
REMARK VINA RESULT:      -4.0      1.321      3.845
REMARK  0 active torsions:
REMARK  status: ('A' for Active; 'I' for Inactive)
ROOT
HETATM    1  C1  UNL     1     -34.467  16.599  -1.128  1.00 20.00     0.015 C 
HETATM    2  C2  UNL     1     -34.228  16.122  -2.204  1.00 20.00    -0.083 C 
HETATM    3  C3  UNL     1     -34.280  14.072  -3.589  1.00 20.00     0.216 C 
HETATM    4  C4  UNL     1     -33.938  15.540  -3.512  1.00 20.00     0.226 C 
HETATM    5  C5  UNL     1     -34.957  15.090  -5.498  1.00 20.00     0.158 C 
HETATM    6  C6  UNL     1     -36.446  14.965  -5.796  1.00 20.00     0.078 C 
HETATM    7  C7  UNL     1     -34.169  15.442  -6.754  1.00 20.00     0.078 C 
HETATM    8  O8  UNL     1     -34.468  13.843  -4.985  1.00 20.00    -0.352 OA
HETATM    9  O9  UNL     1     -34.771  16.124  -4.519  1.00 20.00    -0.336 OA
ENDROOT
TORSDOF 0
ENDMDL
MODEL 3
REMARK VINA RESULT:      -4.0      1.563      4.182
REMARK  0 active torsions:
REMARK  status: ('A' for Active; 'I' for Inactive)
ROOT
HETATM    1  C1  UNL     1     -34.740  17.106  -0.077  1.00 20.00     0.015 C 
HETATM    2  C2  UNL     1     -34.823  16.812  -1.238  1.00 20.00    -0.083 C 
HETATM    3  C3  UNL     1     -33.668  16.772  -3.425  1.00 20.00     0.216 C 
HETATM    4  C4  UNL     1     -34.923  16.454  -2.650  1.00 20.00     0.226 C 
HETATM    5  C5  UNL     1     -34.437  14.738  -4.066  1.00 20.00     0.158 C 
HETATM    6  C6  UNL     1     -33.454  13.590  -3.867  1.00 20.00     0.078 C 
HETATM    7  C7  UNL     1     -35.517  14.373  -5.077  1.00 20.00     0.078 C 
HETATM    8  O8  UNL     1     -33.731  15.891  -4.546  1.00 20.00    -0.352 OA
HETATM    9  O9  UNL     1     -35.054  15.037  -2.804  1.00 20.00    -0.336 OA
ENDROOT
TORSDOF 0
ENDMDL
MODEL 4
REMARK VINA RESULT:      -3.8     10.316     11.289
REMARK  0 active torsions:
REMARK  status: ('A' for Active; 'I' for Inactive)
ROOT
HETATM    1  C1  UNL     1     -42.369   8.566  -4.763  1.00 20.00     0.015 C 
HETATM    2  C2  UNL     1     -42.331   8.094  -3.660  1.00 20.00    -0.083 C 
HETATM    3  C3  UNL     1     -43.407   6.541  -2.062  1.00 20.00     0.216 C 
HETATM    4  C4  UNL     1     -42.287   7.520  -2.318  1.00 20.00     0.226 C 
HETATM    5  C5  UNL     1     -41.481   5.699  -1.213  1.00 20.00     0.158 C 
HETATM    6  C6  UNL     1     -41.067   4.347  -1.782  1.00 20.00     0.078 C 
HETATM    7  C7  UNL     1     -40.798   5.970   0.122  1.00 20.00     0.078 C 
HETATM    8  O8  UNL     1     -42.901   5.716  -1.013  1.00 20.00    -0.352 OA
HETATM    9  O9  UNL     1     -41.110   6.723  -2.149  1.00 20.00    -0.336 OA
ENDROOT
TORSDOF 0
ENDMDL
MODEL 5
REMARK VINA RESULT:      -3.8     11.470     12.541
REMARK  0 active torsions:
REMARK  status: ('A' for Active; 'I' for Inactive)
ROOT
HETATM    1  C1  UNL     1     -41.538   2.172  -3.418  1.00 20.00     0.015 C 
HETATM    2  C2  UNL     1     -41.920   3.191  -2.909  1.00 20.00    -0.083 C 
HETATM    3  C3  UNL     1     -42.872   4.229  -0.876  1.00 20.00     0.216 C 
HETATM    4  C4  UNL     1     -42.384   4.429  -2.289  1.00 20.00     0.226 C 
HETATM    5  C5  UNL     1     -41.627   6.121  -0.967  1.00 20.00     0.158 C 
HETATM    6  C6  UNL     1     -40.418   6.137  -0.041  1.00 20.00     0.078 C 
HETATM    7  C7  UNL     1     -42.018   7.532  -1.390  1.00 20.00     0.078 C 
HETATM    8  O8  UNL     1     -42.739   5.523  -0.287  1.00 20.00    -0.352 OA
HETATM    9  O9  UNL     1     -41.301   5.352  -2.135  1.00 20.00    -0.336 OA
ENDROOT
TORSDOF 0
ENDMDL
MODEL 6
REMARK VINA RESULT:      -3.8      2.003      3.270
REMARK  0 active torsions:
REMARK  status: ('A' for Active; 'I' for Inactive)
ROOT
HETATM    1  C1  UNL     1     -34.726  13.214  -4.883  1.00 20.00     0.015 C 
HETATM    2  C2  UNL     1     -34.417  14.042  -4.070  1.00 20.00    -0.083 C 
HETATM    3  C3  UNL     1     -33.532  16.324  -3.710  1.00 20.00     0.216 C 
HETATM    4  C4  UNL     1     -34.040  15.049  -3.082  1.00 20.00     0.226 C 
HETATM    5  C5  UNL     1     -34.910  16.847  -1.988  1.00 20.00     0.158 C 
HETATM    6  C6  UNL     1     -36.114  17.701  -2.368  1.00 20.00     0.078 C 
HETATM    7  C7  UNL     1     -34.624  16.928  -0.493  1.00 20.00     0.078 C 
HETATM    8  O8  UNL     1     -33.755  17.309  -2.701  1.00 20.00    -0.352 OA
HETATM    9  O9  UNL     1     -35.186  15.483  -2.341  1.00 20.00    -0.336 OA
ENDROOT
TORSDOF 0
ENDMDL
MODEL 7
REMARK VINA RESULT:      -3.7      1.874      2.783
REMARK  0 active torsions:
REMARK  status: ('A' for Active; 'I' for Inactive)
ROOT
HETATM    1  C1  UNL     1     -38.663  14.748  -3.876  1.00 20.00     0.015 C 
HETATM    2  C2  UNL     1     -37.466  14.822  -3.913  1.00 20.00    -0.083 C 
HETATM    3  C3  UNL     1     -35.352  13.602  -4.322  1.00 20.00     0.216 C 
HETATM    4  C4  UNL     1     -36.009  14.911  -3.958  1.00 20.00     0.226 C 
HETATM    5  C5  UNL     1     -34.317  15.282  -5.437  1.00 20.00     0.158 C 
HETATM    6  C6  UNL     1     -34.334  15.148  -6.955  1.00 20.00     0.078 C 
HETATM    7  C7  UNL     1     -33.217  16.232  -4.978  1.00 20.00     0.078 C 
HETATM    8  O8  UNL     1     -34.085  13.995  -4.849  1.00 20.00    -0.352 OA
HETATM    9  O9  UNL     1     -35.590  15.791  -5.008  1.00 20.00    -0.336 OA
ENDROOT
TORSDOF 0
ENDMDL
MODEL 8
REMARK VINA RESULT:      -3.7      2.118      4.363
REMARK  0 active torsions:
REMARK  status: ('A' for Active; 'I' for Inactive)
ROOT
HETATM    1  C1  UNL     1     -34.785  17.018  -0.099  1.00 20.00     0.015 C 
HETATM    2  C2  UNL     1     -34.397  16.752  -1.203  1.00 20.00    -0.083 C 
HETATM    3  C3  UNL     1     -34.390  15.071  -3.019  1.00 20.00     0.216 C 
HETATM    4  C4  UNL     1     -33.926  16.427  -2.547  1.00 20.00     0.226 C 
HETATM    5  C5  UNL     1     -34.594  16.554  -4.720  1.00 20.00     0.158 C 
HETATM    6  C6  UNL     1     -36.006  16.702  -5.274  1.00 20.00     0.078 C 
HETATM    7  C7  UNL     1     -33.554  17.053  -5.716  1.00 20.00     0.078 C 
HETATM    8  O8  UNL     1     -34.335  15.171  -4.441  1.00 20.00    -0.352 OA
HETATM    9  O9  UNL     1     -34.494  17.321  -3.510  1.00 20.00    -0.336 OA
ENDROOT
TORSDOF 0
ENDMDL
MODEL 9
REMARK VINA RESULT:      -3.6      2.112      3.280
REMARK  0 active torsions:
REMARK  status: ('A' for Active; 'I' for Inactive)
ROOT
HETATM    1  C1  UNL     1     -33.561  18.823  -5.517  1.00 20.00     0.015 C 
HETATM    2  C2  UNL     1     -33.550  17.682  -5.142  1.00 20.00    -0.083 C 
HETATM    3  C3  UNL     1     -33.703  16.168  -3.191  1.00 20.00     0.216 C 
HETATM    4  C4  UNL     1     -33.537  16.295  -4.685  1.00 20.00     0.226 C 
HETATM    5  C5  UNL     1     -34.968  14.589  -4.211  1.00 20.00     0.158 C 
HETATM    6  C6  UNL     1     -36.457  14.657  -3.892  1.00 20.00     0.078 C 
HETATM    7  C7  UNL     1     -34.579  13.215  -4.745  1.00 20.00     0.078 C 
HETATM    8  O8  UNL     1     -34.214  14.847  -3.019  1.00 20.00    -0.352 OA
HETATM    9  O9  UNL     1     -34.666  15.583  -5.203  1.00 20.00    -0.336 OA
ENDROOT
TORSDOF 0
ENDMDL
