MODEL 1
REMARK VINA RESULT:      -4.2      0.000      0.000
REMARK  0 active torsions:
REMARK  status: ('A' for Active; 'I' for Inactive)
ROOT
HETATM    1  C1  UNL     1     -32.008   8.800   1.146  1.00 20.00     0.015 C 
HETATM    2  C2  UNL     1     -32.175   8.121   2.121  1.00 20.00    -0.083 C 
HETATM    3  C3  UNL     1     -32.179   5.823   3.039  1.00 20.00     0.216 C 
HETATM    4  C4  UNL     1     -32.379   7.295   3.309  1.00 20.00     0.226 C 
HETATM    5  C5  UNL     1     -34.009   6.092   4.349  1.00 20.00     0.158 C 
HETATM    6  C6  UNL     1     -35.300   5.539   3.760  1.00 20.00     0.078 C 
HETATM    7  C7  UNL     1     -34.120   6.267   5.859  1.00 20.00     0.078 C 
HETATM    8  O8  UNL     1     -32.932   5.187   4.070  1.00 20.00    -0.352 OA
HETATM    9  O9  UNL     1     -33.741   7.368   3.746  1.00 20.00    -0.336 OA
ENDROOT
TORSDOF 0
ENDMDL
MODEL 2
REMARK VINA RESULT:      -4.1     10.856     11.666
REMARK  0 active torsions:
REMARK  status: ('A' for Active; 'I' for Inactive)
ROOT
HETATM    1  C1  UNL     1     -34.786  17.013  -0.566  1.00 20.00     0.015 C 
HETATM    2  C2  UNL     1     -34.450  16.369  -1.521  1.00 20.00    -0.083 C 
HETATM    3  C3  UNL     1     -33.668  16.444  -3.868  1.00 20.00     0.216 C 
HETATM    4  C4  UNL     1     -34.042  15.585  -2.684  1.00 20.00     0.226 C 
HETATM    5  C5  UNL     1     -34.913  14.693  -4.590  1.00 20.00     0.158 C 
HETATM    6  C6  UNL     1     -36.193  15.080  -5.319  1.00 20.00     0.078 C 
HETATM    7  C7  UNL     1     -34.500  13.263  -4.918  1.00 20.00     0.078 C 
HETATM    8  O8  UNL     1     -33.855  15.577  -4.985  1.00 20.00    -0.352 OA
HETATM    9  O9  UNL     1     -35.138  14.806  -3.176  1.00 20.00    -0.336 OA
ENDROOT
TORSDOF 0
ENDMDL
MODEL 3
REMARK VINA RESULT:      -4.0     10.523     11.683
REMARK  0 active torsions:
REMARK  status: ('A' for Active; 'I' for Inactive)
ROOT
HETATM    1  C1  UNL     1     -36.366  14.830  -7.573  1.00 20.00     0.015 C 
HETATM    2  C2  UNL     1     -35.557  14.504  -6.748  1.00 20.00    -0.083 C 
HETATM    3  C3  UNL     1     -35.147  13.191  -4.690  1.00 20.00     0.216 C 
HETATM    4  C4  UNL     1     -34.573  14.108  -5.743  1.00 20.00     0.226 C 
HETATM    5  C5  UNL     1     -33.821  14.730  -3.685  1.00 20.00     0.158 C 
HETATM    6  C6  UNL     1     -34.522  15.588  -2.640  1.00 20.00     0.078 C 
HETATM    7  C7  UNL     1     -32.309  14.750  -3.495  1.00 20.00     0.078 C 
HETATM    8  O8  UNL     1     -34.279  13.375  -3.574  1.00 20.00    -0.352 OA
HETATM    9  O9  UNL     1     -34.139  15.245  -4.988  1.00 20.00    -0.336 OA
ENDROOT
TORSDOF 0
ENDMDL
MODEL 4
REMARK VINA RESULT:      -4.0      1.488      2.234
REMARK  0 active torsions:
REMARK  status: ('A' for Active; 'I' for Inactive)
ROOT
HETATM    1  C1  UNL     1     -32.003   7.815   2.396  1.00 20.00     0.015 C 
HETATM    2  C2  UNL     1     -32.678   6.918   2.820  1.00 20.00    -0.083 C 
HETATM    3  C3  UNL     1     -34.970   6.167   3.376  1.00 20.00     0.216 C 
HETATM    4  C4  UNL     1     -33.499   5.826   3.337  1.00 20.00     0.226 C 
HETATM    5  C5  UNL     1     -34.411   5.092   5.291  1.00 20.00     0.158 C 
HETATM    6  C6  UNL     1     -34.682   5.880   6.566  1.00 20.00     0.078 C 
HETATM    7  C7  UNL     1     -34.282   3.601   5.579  1.00 20.00     0.078 C 
HETATM    8  O8  UNL     1     -35.493   5.289   4.371  1.00 20.00    -0.352 OA
HETATM    9  O9  UNL     1     -33.186   5.567   4.711  1.00 20.00    -0.336 OA
ENDROOT
TORSDOF 0
ENDMDL
MODEL 5
REMARK VINA RESULT:      -4.0     10.895     11.842
REMARK  0 active torsions:
REMARK  status: ('A' for Active; 'I' for Inactive)
ROOT
HETATM    1  C1  UNL     1     -34.608  16.662  -0.734  1.00 20.00     0.015 C 
HETATM    2  C2  UNL     1     -34.885  16.437  -1.879  1.00 20.00    -0.083 C 
HETATM    3  C3  UNL     1     -36.430  15.269  -3.421  1.00 20.00     0.216 C 
HETATM    4  C4  UNL     1     -35.222  16.164  -3.274  1.00 20.00     0.226 C 
HETATM    5  C5  UNL     1     -34.841  14.612  -4.898  1.00 20.00     0.158 C 
HETATM    6  C6  UNL     1     -34.385  13.167  -4.739  1.00 20.00     0.078 C 
HETATM    7  C7  UNL     1     -34.504  15.150  -6.283  1.00 20.00     0.078 C 
HETATM    8  O8  UNL     1     -36.262  14.685  -4.711  1.00 20.00    -0.352 OA
HETATM    9  O9  UNL     1     -34.179  15.413  -3.907  1.00 20.00    -0.336 OA
ENDROOT
TORSDOF 0
ENDMDL
MODEL 6
REMARK VINA RESULT:      -4.0     10.792     12.087
REMARK  0 active torsions:
REMARK  status: ('A' for Active; 'I' for Inactive)
ROOT
HETATM    1  C1  UNL     1     -34.515  16.633  -1.001  1.00 20.00     0.015 C 
HETATM    2  C2  UNL     1     -34.802  15.996  -1.977  1.00 20.00    -0.083 C 
HETATM    3  C3  UNL     1     -34.054  14.277  -3.593  1.00 20.00     0.216 C 
HETATM    4  C4  UNL     1     -35.153  15.220  -3.164  1.00 20.00     0.226 C 
HETATM    5  C5  UNL     1     -34.922  15.283  -5.429  1.00 20.00     0.158 C 
HETATM    6  C6  UNL     1     -33.916  16.070  -6.258  1.00 20.00     0.078 C 
HETATM    7  C7  UNL     1     -36.162  14.937  -6.245  1.00 20.00     0.078 C 
HETATM    8  O8  UNL     1     -34.316  14.063  -4.978  1.00 20.00    -0.352 OA
HETATM    9  O9  UNL     1     -35.309  16.080  -4.299  1.00 20.00    -0.336 OA
ENDROOT
TORSDOF 0
ENDMDL
MODEL 7
REMARK VINA RESULT:      -3.8      9.103     10.519
REMARK  0 active torsions:
REMARK  status: ('A' for Active; 'I' for Inactive)
ROOT
HETATM    1  C1  UNL     1     -41.898   2.425  -3.089  1.00 20.00     0.015 C 
HETATM    2  C2  UNL     1     -41.839   3.522  -2.606  1.00 20.00    -0.083 C 
HETATM    3  C3  UNL     1     -40.725   4.962  -0.930  1.00 20.00     0.216 C 
HETATM    4  C4  UNL     1     -41.767   4.857  -2.017  1.00 20.00     0.226 C 
HETATM    5  C5  UNL     1     -42.600   6.045  -0.261  1.00 20.00     0.158 C 
HETATM    6  C6  UNL     1     -43.209   5.523   1.033  1.00 20.00     0.078 C 
HETATM    7  C7  UNL     1     -43.081   7.459  -0.569  1.00 20.00     0.078 C 
HETATM    8  O8  UNL     1     -41.171   6.064  -0.141  1.00 20.00    -0.352 OA
HETATM    9  O9  UNL     1     -42.986   5.173  -1.335  1.00 20.00    -0.336 OA
ENDROOT
TORSDOF 0
ENDMDL
MODEL 8
REMARK VINA RESULT:      -3.7      9.423     10.984
REMARK  0 active torsions:
REMARK  status: ('A' for Active; 'I' for Inactive)
ROOT
HETATM    1  C1  UNL     1     -41.201   2.021  -3.771  1.00 20.00     0.015 C 
HETATM    2  C2  UNL     1     -41.785   2.788  -3.056  1.00 20.00    -0.083 C 
HETATM    3  C3  UNL     1     -42.941   4.971  -2.906  1.00 20.00     0.216 C 
HETATM    4  C4  UNL     1     -42.495   3.721  -2.185  1.00 20.00     0.226 C 
HETATM    5  C5  UNL     1     -42.102   5.546  -0.880  1.00 20.00     0.158 C 
HETATM    6  C6  UNL     1     -40.925   6.511  -0.930  1.00 20.00     0.078 C 
HETATM    7  C7  UNL     1     -42.765   5.552   0.492  1.00 20.00     0.078 C 
HETATM    8  O8  UNL     1     -43.075   5.932  -1.861  1.00 20.00    -0.352 OA
HETATM    9  O9  UNL     1     -41.623   4.223  -1.166  1.00 20.00    -0.336 OA
ENDROOT
TORSDOF 0
ENDMDL
MODEL 9
REMARK VINA RESULT:      -3.6     10.776     11.629
REMARK  0 active torsions:
REMARK  status: ('A' for Active; 'I' for Inactive)
ROOT
HETATM    1  C1  UNL     1     -34.465  13.292  -4.845  1.00 20.00     0.015 C 
HETATM    2  C2  UNL     1     -34.820  14.037  -3.973  1.00 20.00    -0.083 C 
HETATM    3  C3  UNL     1     -36.151  16.046  -3.411  1.00 20.00     0.216 C 
HETATM    4  C4  UNL     1     -35.250  14.943  -2.911  1.00 20.00     0.226 C 
HETATM    5  C5  UNL     1     -34.658  16.920  -1.947  1.00 20.00     0.158 C 
HETATM    6  C6  UNL     1     -33.782  18.027  -2.517  1.00 20.00     0.078 C 
HETATM    7  C7  UNL     1     -34.687  16.965  -0.424  1.00 20.00     0.078 C 
HETATM    8  O8  UNL     1     -35.998  17.075  -2.435  1.00 20.00    -0.352 OA
HETATM    9  O9  UNL     1     -34.130  15.653  -2.370  1.00 20.00    -0.336 OA
ENDROOT
TORSDOF 0
ENDMDL
