MODEL 1
REMARK VINA RESULT:      -4.8      0.000      0.000
REMARK  2 active torsions:
REMARK  status: ('A' for Active; 'I' for Inactive)
REMARK    1  A    between atoms: C2_2  and  C5_5 
REMARK    2  A    between atoms: C2_2  and  O9_9 
ROOT
HETATM    1  C1  UNL     1     -34.863   4.592   5.242  1.00 20.00     0.140 C 
HETATM    2  C3  UNL     1     -34.568   5.115   6.658  1.00 20.00     0.080 C 
HETATM    3  C4  UNL     1     -34.048   6.409   5.994  1.00 20.00     0.030 C 
HETATM    4  C5  UNL     1     -34.621   5.982   4.616  1.00 20.00     0.155 C 
HETATM    5  O7  UNL     1     -35.169   3.505   4.798  1.00 20.00    -0.297 OA
ENDROOT
BRANCH   4   6
HETATM    6  C2  UNL     1     -33.674   5.872   3.421  1.00 20.00     0.269 C 
HETATM    7  O8  UNL     1     -33.936   5.265   2.392  1.00 20.00    -0.264 OA
BRANCH   6   8
HETATM    8  O9  UNL     1     -32.520   6.548   3.691  1.00 20.00    -0.326 OA
HETATM    9  C6  UNL     1     -32.124   7.506   2.705  1.00 20.00     0.213 C 
ENDBRANCH   6   8
ENDBRANCH   4   6
TORSDOF 2
ENDMDL
MODEL 2
REMARK VINA RESULT:      -4.5      1.448      1.961
REMARK  2 active torsions:
REMARK  status: ('A' for Active; 'I' for Inactive)
REMARK    1  A    between atoms: C2_2  and  C5_5 
REMARK    2  A    between atoms: C2_2  and  O9_9 
ROOT
HETATM    1  C1  UNL     1     -34.344   5.746   6.092  1.00 20.00     0.140 C 
HETATM    2  C3  UNL     1     -35.111   4.596   6.765  1.00 20.00     0.080 C 
HETATM    3  C4  UNL     1     -35.051   3.858   5.409  1.00 20.00     0.030 C 
HETATM    4  C5  UNL     1     -34.037   4.888   4.846  1.00 20.00     0.155 C 
HETATM    5  O7  UNL     1     -34.084   6.884   6.420  1.00 20.00    -0.297 OA
ENDROOT
BRANCH   4   6
HETATM    6  C2  UNL     1     -34.388   5.653   3.570  1.00 20.00     0.269 C 
HETATM    7  O8  UNL     1     -35.518   6.026   3.283  1.00 20.00    -0.264 OA
BRANCH   6   8
HETATM    8  O9  UNL     1     -33.260   5.843   2.827  1.00 20.00    -0.326 OA
HETATM    9  C6  UNL     1     -32.397   6.891   3.279  1.00 20.00     0.213 C 
ENDBRANCH   6   8
ENDBRANCH   4   6
TORSDOF 2
ENDMDL
MODEL 3
REMARK VINA RESULT:      -4.4     11.967     12.811
REMARK  2 active torsions:
REMARK  status: ('A' for Active; 'I' for Inactive)
REMARK    1  A    between atoms: C2_2  and  C5_5 
REMARK    2  A    between atoms: C2_2  and  O9_9 
ROOT
HETATM    1  C1  UNL     1     -35.881  15.108  -3.371  1.00 20.00     0.140 C 
HETATM    2  C3  UNL     1     -34.833  15.630  -2.374  1.00 20.00     0.080 C 
HETATM    3  C4  UNL     1     -33.762  15.302  -3.438  1.00 20.00     0.030 C 
HETATM    4  C5  UNL     1     -34.850  15.062  -4.518  1.00 20.00     0.155 C 
HETATM    5  O7  UNL     1     -37.060  14.840  -3.282  1.00 20.00    -0.297 OA
ENDROOT
BRANCH   4   6
HETATM    6  C2  UNL     1     -34.902  13.711  -5.230  1.00 20.00     0.269 C 
HETATM    7  O8  UNL     1     -34.751  12.634  -4.669  1.00 20.00    -0.264 OA
BRANCH   6   8
HETATM    8  O9  UNL     1     -35.137  13.905  -6.560  1.00 20.00    -0.326 OA
HETATM    9  C6  UNL     1     -34.453  15.015  -7.149  1.00 20.00     0.213 C 
ENDBRANCH   6   8
ENDBRANCH   4   6
TORSDOF 2
ENDMDL
MODEL 4
REMARK VINA RESULT:      -4.3     11.789     12.727
REMARK  2 active torsions:
REMARK  status: ('A' for Active; 'I' for Inactive)
REMARK    1  A    between atoms: C2_2  and  C5_5 
REMARK    2  A    between atoms: C2_2  and  O9_9 
ROOT
HETATM    1  C1  UNL     1     -34.586  13.556  -4.196  1.00 20.00     0.140 C 
HETATM    2  C3  UNL     1     -33.384  14.441  -3.828  1.00 20.00     0.080 C 
HETATM    3  C4  UNL     1     -34.401  15.488  -3.322  1.00 20.00     0.030 C 
HETATM    4  C5  UNL     1     -35.566  14.468  -3.428  1.00 20.00     0.155 C 
HETATM    5  O7  UNL     1     -34.708  12.535  -4.840  1.00 20.00    -0.297 OA
ENDROOT
BRANCH   4   6
HETATM    6  C2  UNL     1     -36.773  14.811  -4.301  1.00 20.00     0.269 C 
HETATM    7  O8  UNL     1     -36.718  15.510  -5.303  1.00 20.00    -0.264 OA
BRANCH   6   8
HETATM    8  O9  UNL     1     -37.890  14.220  -3.785  1.00 20.00    -0.326 OA
HETATM    9  C6  UNL     1     -38.990  15.100  -3.534  1.00 20.00     0.213 C 
ENDBRANCH   6   8
ENDBRANCH   4   6
TORSDOF 2
ENDMDL
MODEL 5
REMARK VINA RESULT:      -4.2     11.958     13.190
REMARK  2 active torsions:
REMARK  status: ('A' for Active; 'I' for Inactive)
REMARK    1  A    between atoms: C2_2  and  C5_5 
REMARK    2  A    between atoms: C2_2  and  O9_9 
ROOT
HETATM    1  C1  UNL     1     -34.041  15.715  -3.895  1.00 20.00     0.140 C 
HETATM    2  C3  UNL     1     -33.274  16.146  -5.156  1.00 20.00     0.080 C 
HETATM    3  C4  UNL     1     -34.331  15.374  -5.977  1.00 20.00     0.030 C 
HETATM    4  C5  UNL     1     -35.237  15.205  -4.727  1.00 20.00     0.155 C 
HETATM    5  O7  UNL     1     -33.795  15.763  -2.709  1.00 20.00    -0.297 OA
ENDROOT
BRANCH   4   6
HETATM    6  C2  UNL     1     -35.634  13.797  -4.285  1.00 20.00     0.269 C 
HETATM    7  O8  UNL     1     -34.895  12.824  -4.349  1.00 20.00    -0.264 OA
BRANCH   6   8
HETATM    8  O9  UNL     1     -36.916  13.810  -3.821  1.00 20.00    -0.326 OA
HETATM    9  C6  UNL     1     -37.622  15.042  -4.001  1.00 20.00     0.213 C 
ENDBRANCH   6   8
ENDBRANCH   4   6
TORSDOF 2
ENDMDL
MODEL 6
REMARK VINA RESULT:      -4.2      1.934      2.691
REMARK  2 active torsions:
REMARK  status: ('A' for Active; 'I' for Inactive)
REMARK    1  A    between atoms: C2_2  and  C5_5 
REMARK    2  A    between atoms: C2_2  and  O9_9 
ROOT
HETATM    1  C1  UNL     1     -33.895   6.109   4.757  1.00 20.00     0.140 C 
HETATM    2  C3  UNL     1     -35.045   5.438   3.988  1.00 20.00     0.080 C 
HETATM    3  C4  UNL     1     -34.133   5.466   2.742  1.00 20.00     0.030 C 
HETATM    4  C5  UNL     1     -32.903   5.866   3.600  1.00 20.00     0.155 C 
HETATM    5  O7  UNL     1     -33.809   6.626   5.851  1.00 20.00    -0.297 OA
ENDROOT
BRANCH   4   6
HETATM    6  C2  UNL     1     -32.151   7.153   3.262  1.00 20.00     0.269 C 
HETATM    7  O8  UNL     1     -31.311   7.667   3.988  1.00 20.00    -0.264 OA
BRANCH   6   8
HETATM    8  O9  UNL     1     -32.563   7.616   2.047  1.00 20.00    -0.326 OA
HETATM    9  C6  UNL     1     -32.161   8.951   1.729  1.00 20.00     0.213 C 
ENDBRANCH   6   8
ENDBRANCH   4   6
TORSDOF 2
ENDMDL
MODEL 7
REMARK VINA RESULT:      -4.1     12.025     12.947
REMARK  2 active torsions:
REMARK  status: ('A' for Active; 'I' for Inactive)
REMARK    1  A    between atoms: C2_2  and  C5_5 
REMARK    2  A    between atoms: C2_2  and  O9_9 
ROOT
HETATM    1  C1  UNL     1     -34.686  13.744  -5.070  1.00 20.00     0.140 C 
HETATM    2  C3  UNL     1     -34.830  14.377  -6.464  1.00 20.00     0.080 C 
HETATM    3  C4  UNL     1     -34.600  15.747  -5.787  1.00 20.00     0.030 C 
HETATM    4  C5  UNL     1     -34.171  15.065  -4.460  1.00 20.00     0.155 C 
HETATM    5  O7  UNL     1     -34.896  12.633  -4.630  1.00 20.00    -0.297 OA
ENDROOT
BRANCH   4   6
HETATM    6  C2  UNL     1     -34.934  15.394  -3.177  1.00 20.00     0.269 C 
HETATM    7  O8  UNL     1     -36.149  15.310  -3.061  1.00 20.00    -0.264 OA
BRANCH   6   8
HETATM    8  O9  UNL     1     -34.053  15.786  -2.212  1.00 20.00    -0.326 OA
HETATM    9  C6  UNL     1     -34.615  16.554  -1.143  1.00 20.00     0.213 C 
ENDBRANCH   6   8
ENDBRANCH   4   6
TORSDOF 2
ENDMDL
MODEL 8
REMARK VINA RESULT:      -4.1     12.341     12.963
REMARK  2 active torsions:
REMARK  status: ('A' for Active; 'I' for Inactive)
REMARK    1  A    between atoms: C2_2  and  C5_5 
REMARK    2  A    between atoms: C2_2  and  O9_9 
ROOT
HETATM    1  C1  UNL     1     -35.371  14.684  -4.287  1.00 20.00     0.140 C 
HETATM    2  C3  UNL     1     -34.918  13.231  -4.505  1.00 20.00     0.080 C 
HETATM    3  C4  UNL     1     -33.584  13.621  -3.832  1.00 20.00     0.030 C 
HETATM    4  C5  UNL     1     -34.169  14.981  -3.365  1.00 20.00     0.155 C 
HETATM    5  O7  UNL     1     -36.312  15.336  -4.687  1.00 20.00    -0.297 OA
ENDROOT
BRANCH   4   6
HETATM    6  C2  UNL     1     -33.474  16.273  -3.793  1.00 20.00     0.269 C 
HETATM    7  O8  UNL     1     -32.811  16.389  -4.815  1.00 20.00    -0.264 OA
BRANCH   6   8
HETATM    8  O9  UNL     1     -33.710  17.245  -2.866  1.00 20.00    -0.326 OA
HETATM    9  C6  UNL     1     -34.068  16.777  -1.562  1.00 20.00     0.213 C 
ENDBRANCH   6   8
ENDBRANCH   4   6
TORSDOF 2
ENDMDL
MODEL 9
REMARK VINA RESULT:      -4.0     12.012     13.023
REMARK  2 active torsions:
REMARK  status: ('A' for Active; 'I' for Inactive)
REMARK    1  A    between atoms: C2_2  and  C5_5 
REMARK    2  A    between atoms: C2_2  and  O9_9 
ROOT
HETATM    1  C1  UNL     1     -33.754  16.531  -3.371  1.00 20.00     0.140 C 
HETATM    2  C3  UNL     1     -33.676  17.214  -1.995  1.00 20.00     0.080 C 
HETATM    3  C4  UNL     1     -34.764  16.225  -1.521  1.00 20.00     0.030 C 
HETATM    4  C5  UNL     1     -34.612  15.376  -2.812  1.00 20.00     0.155 C 
HETATM    5  O7  UNL     1     -33.310  16.802  -4.466  1.00 20.00    -0.297 OA
ENDROOT
BRANCH   4   6
HETATM    6  C2  UNL     1     -35.838  15.144  -3.695  1.00 20.00     0.269 C 
HETATM    7  O8  UNL     1     -36.625  16.023  -4.019  1.00 20.00    -0.264 OA
BRANCH   6   8
HETATM    8  O9  UNL     1     -35.902  13.829  -4.049  1.00 20.00    -0.326 OA
HETATM    9  C6  UNL     1     -34.708  13.289  -4.625  1.00 20.00     0.213 C 
ENDBRANCH   6   8
ENDBRANCH   4   6
TORSDOF 2
ENDMDL
