MODEL 1
REMARK VINA RESULT:      -6.4      0.000      0.000
REMARK  1 active torsions:
REMARK  status: ('A' for Active; 'I' for Inactive)
REMARK    1  A    between atoms: C7_7  and  C11_11 
ROOT
HETATM    1  C1  UNL     1     -32.074   8.790   1.770  1.00 20.00     0.063 C 
HETATM    2  C11 UNL     1     -31.491   7.879   2.766  1.00 20.00     0.162 C 
HETATM    3  N12 UNL     1     -32.533   9.509   0.984  1.00 20.00    -0.197 NA
ENDROOT
BRANCH   2   4
HETATM    4  C7  UNL     1     -32.523   6.931   3.278  1.00 20.00    -0.045 A 
HETATM    5  C3  UNL     1     -33.130   6.023   2.397  1.00 20.00     0.009 A 
HETATM    6  C2  UNL     1     -34.104   5.131   2.852  1.00 20.00     0.008 A 
HETATM    7  C5  UNL     1     -34.442   5.159   4.195  1.00 20.00    -0.052 A 
HETATM    8  C6  UNL     1     -33.837   6.065   5.073  1.00 20.00    -0.051 A 
HETATM    9  C8  UNL     1     -35.472   4.337   4.903  1.00 20.00     0.039 C 
HETATM   10  C4  UNL     1     -32.881   6.961   4.628  1.00 20.00     0.015 A 
HETATM   11  C9  UNL     1     -34.407   5.933   6.451  1.00 20.00     0.039 C 
HETATM   12  C10 UNL     1     -35.064   4.547   6.369  1.00 20.00     0.009 C 
ENDBRANCH   2   4
TORSDOF 1
ENDMDL
MODEL 2
REMARK VINA RESULT:      -5.2     11.293     12.763
REMARK  1 active torsions:
REMARK  status: ('A' for Active; 'I' for Inactive)
REMARK    1  A    between atoms: C7_7  and  C11_11 
ROOT
HETATM    1  C1  UNL     1     -32.584  18.697  -0.140  1.00 20.00     0.063 C 
HETATM    2  C11 UNL     1     -33.859  17.982  -0.307  1.00 20.00     0.162 C 
HETATM    3  N12 UNL     1     -31.579  19.260  -0.007  1.00 20.00    -0.197 NA
ENDROOT
BRANCH   2   4
HETATM    4  C7  UNL     1     -33.970  17.423  -1.686  1.00 20.00    -0.045 A 
HETATM    5  C3  UNL     1     -33.739  18.254  -2.793  1.00 20.00     0.009 A 
HETATM    6  C2  UNL     1     -33.843  17.756  -4.092  1.00 20.00     0.008 A 
HETATM    7  C5  UNL     1     -34.166  16.419  -4.258  1.00 20.00    -0.052 A 
HETATM    8  C6  UNL     1     -34.397  15.590  -3.154  1.00 20.00    -0.051 A 
HETATM    9  C8  UNL     1     -34.371  15.672  -5.538  1.00 20.00     0.039 C 
HETATM   10  C4  UNL     1     -34.309  16.080  -1.862  1.00 20.00     0.015 A 
HETATM   11  C9  UNL     1     -34.777  14.211  -3.594  1.00 20.00     0.039 C 
HETATM   12  C10 UNL     1     -34.287  14.218  -5.049  1.00 20.00     0.009 C 
ENDBRANCH   2   4
TORSDOF 1
ENDMDL
MODEL 3
REMARK VINA RESULT:      -5.1     11.592     13.268
REMARK  1 active torsions:
REMARK  status: ('A' for Active; 'I' for Inactive)
REMARK    1  A    between atoms: C7_7  and  C11_11 
ROOT
HETATM    1  C1  UNL     1     -32.462  18.816   0.133  1.00 20.00     0.063 C 
HETATM    2  C11 UNL     1     -33.832  18.292   0.021  1.00 20.00     0.162 C 
HETATM    3  N12 UNL     1     -31.382  19.229   0.223  1.00 20.00    -0.197 NA
ENDROOT
BRANCH   2   4
HETATM    4  C7  UNL     1     -34.024  17.601  -1.288  1.00 20.00    -0.045 A 
HETATM    5  C3  UNL     1     -34.563  16.306  -1.316  1.00 20.00     0.009 A 
HETATM    6  C2  UNL     1     -34.745  15.636  -2.528  1.00 20.00     0.008 A 
HETATM    7  C5  UNL     1     -34.393  16.289  -3.697  1.00 20.00    -0.052 A 
HETATM    8  C6  UNL     1     -33.855  17.580  -3.669  1.00 20.00    -0.051 A 
HETATM    9  C8  UNL     1     -34.459  15.769  -5.099  1.00 20.00     0.039 C 
HETATM   10  C4  UNL     1     -33.659  18.246  -2.471  1.00 20.00     0.015 A 
HETATM   11  C9  UNL     1     -33.510  18.044  -5.049  1.00 20.00     0.039 C 
HETATM   12  C10 UNL     1     -34.336  17.072  -5.904  1.00 20.00     0.009 C 
ENDBRANCH   2   4
TORSDOF 1
ENDMDL
MODEL 4
REMARK VINA RESULT:      -5.0     11.376     12.784
REMARK  1 active torsions:
REMARK  status: ('A' for Active; 'I' for Inactive)
REMARK    1  A    between atoms: C7_7  and  C11_11 
ROOT
HETATM    1  C1  UNL     1     -34.650  13.664  -5.039  1.00 20.00     0.063 C 
HETATM    2  C11 UNL     1     -34.385  14.984  -5.633  1.00 20.00     0.162 C 
HETATM    3  N12 UNL     1     -34.858  12.623  -4.573  1.00 20.00    -0.197 NA
ENDROOT
BRANCH   2   4
HETATM    4  C7  UNL     1     -34.193  16.009  -4.566  1.00 20.00    -0.045 A 
HETATM    5  C3  UNL     1     -33.682  17.273  -4.901  1.00 20.00     0.009 A 
HETATM    6  C2  UNL     1     -33.487  18.246  -3.919  1.00 20.00     0.008 A 
HETATM    7  C5  UNL     1     -33.825  17.936  -2.612  1.00 20.00    -0.052 A 
HETATM    8  C6  UNL     1     -34.335  16.676  -2.278  1.00 20.00    -0.051 A 
HETATM    9  C8  UNL     1     -33.674  18.791  -1.394  1.00 20.00     0.039 C 
HETATM   10  C4  UNL     1     -34.518  15.701  -3.243  1.00 20.00     0.015 A 
HETATM   11  C9  UNL     1     -34.572  16.572  -0.804  1.00 20.00     0.039 C 
HETATM   12  C10 UNL     1     -34.583  18.053  -0.399  1.00 20.00     0.009 C 
ENDBRANCH   2   4
TORSDOF 1
ENDMDL
MODEL 5
REMARK VINA RESULT:      -4.9      0.703      1.874
REMARK  1 active torsions:
REMARK  status: ('A' for Active; 'I' for Inactive)
REMARK    1  A    between atoms: C7_7  and  C11_11 
ROOT
HETATM    1  C1  UNL     1     -32.208   8.885   1.490  1.00 20.00     0.063 C 
HETATM    2  C11 UNL     1     -31.928   7.458   1.708  1.00 20.00     0.162 C 
HETATM    3  N12 UNL     1     -32.430  10.010   1.317  1.00 20.00    -0.197 NA
ENDROOT
BRANCH   2   4
HETATM    4  C7  UNL     1     -32.544   6.991   2.985  1.00 20.00    -0.045 A 
HETATM    5  C3  UNL     1     -32.225   7.640   4.188  1.00 20.00     0.009 A 
HETATM    6  C2  UNL     1     -32.783   7.218   5.395  1.00 20.00     0.008 A 
HETATM    7  C5  UNL     1     -33.669   6.153   5.371  1.00 20.00    -0.052 A 
HETATM    8  C6  UNL     1     -33.988   5.507   4.172  1.00 20.00    -0.051 A 
HETATM    9  C8  UNL     1     -34.360   5.503   6.528  1.00 20.00     0.039 C 
HETATM   10  C4  UNL     1     -33.428   5.910   2.972  1.00 20.00     0.015 A 
HETATM   11  C9  UNL     1     -34.921   4.362   4.415  1.00 20.00     0.039 C 
HETATM   12  C10 UNL     1     -35.465   4.713   5.808  1.00 20.00     0.009 C 
ENDBRANCH   2   4
TORSDOF 1
ENDMDL
MODEL 6
REMARK VINA RESULT:      -4.8     11.132     12.212
REMARK  1 active torsions:
REMARK  status: ('A' for Active; 'I' for Inactive)
REMARK    1  A    between atoms: C7_7  and  C11_11 
ROOT
HETATM    1  C1  UNL     1     -34.136  13.837  -4.098  1.00 20.00     0.063 C 
HETATM    2  C11 UNL     1     -33.422  15.077  -3.755  1.00 20.00     0.162 C 
HETATM    3  N12 UNL     1     -34.697  12.859  -4.368  1.00 20.00    -0.197 NA
ENDROOT
BRANCH   2   4
HETATM    4  C7  UNL     1     -34.316  16.006  -3.004  1.00 20.00    -0.045 A 
HETATM    5  C3  UNL     1     -35.396  16.614  -3.664  1.00 20.00     0.009 A 
HETATM    6  C2  UNL     1     -36.243  17.493  -2.985  1.00 20.00     0.008 A 
HETATM    7  C5  UNL     1     -35.997  17.735  -1.643  1.00 20.00    -0.052 A 
HETATM    8  C6  UNL     1     -34.920  17.128  -0.986  1.00 20.00    -0.051 A 
HETATM    9  C8  UNL     1     -36.733  18.656  -0.723  1.00 20.00     0.039 C 
HETATM   10  C4  UNL     1     -34.068  16.267  -1.655  1.00 20.00     0.015 A 
HETATM   11  C9  UNL     1     -34.837  17.588   0.436  1.00 20.00     0.039 C 
HETATM   12  C10 UNL     1     -36.248  18.157   0.647  1.00 20.00     0.009 C 
ENDBRANCH   2   4
TORSDOF 1
ENDMDL
MODEL 7
REMARK VINA RESULT:      -4.8     11.013     11.933
REMARK  1 active torsions:
REMARK  status: ('A' for Active; 'I' for Inactive)
REMARK    1  A    between atoms: C7_7  and  C11_11 
ROOT
HETATM    1  C1  UNL     1     -34.712  17.679   0.460  1.00 20.00     0.063 C 
HETATM    2  C11 UNL     1     -34.026  17.819  -0.834  1.00 20.00     0.162 C 
HETATM    3  N12 UNL     1     -35.253  17.569   1.481  1.00 20.00    -0.197 NA
ENDROOT
BRANCH   2   4
HETATM    4  C7  UNL     1     -34.558  16.832  -1.819  1.00 20.00    -0.045 A 
HETATM    5  C3  UNL     1     -35.893  16.924  -2.242  1.00 20.00     0.009 A 
HETATM    6  C2  UNL     1     -36.414  16.008  -3.158  1.00 20.00     0.008 A 
HETATM    7  C5  UNL     1     -35.577  15.019  -3.645  1.00 20.00    -0.052 A 
HETATM    8  C6  UNL     1     -34.245  14.928  -3.223  1.00 20.00    -0.051 A 
HETATM    9  C8  UNL     1     -35.912  13.913  -4.595  1.00 20.00     0.039 C 
HETATM   10  C4  UNL     1     -33.724  15.823  -2.305  1.00 20.00     0.015 A 
HETATM   11  C9  UNL     1     -33.567  13.751  -3.852  1.00 20.00     0.039 C 
HETATM   12  C10 UNL     1     -34.509  13.457  -5.028  1.00 20.00     0.009 C 
ENDBRANCH   2   4
TORSDOF 1
ENDMDL
MODEL 8
REMARK VINA RESULT:      -4.8     10.235     11.551
REMARK  1 active torsions:
REMARK  status: ('A' for Active; 'I' for Inactive)
REMARK    1  A    between atoms: C7_7  and  C11_11 
ROOT
HETATM    1  C1  UNL     1     -42.677   1.761  -4.735  1.00 20.00     0.063 C 
HETATM    2  C11 UNL     1     -42.209   1.865  -3.345  1.00 20.00     0.162 C 
HETATM    3  N12 UNL     1     -43.046   1.678  -5.832  1.00 20.00    -0.197 NA
ENDROOT
BRANCH   2   4
HETATM    4  C7  UNL     1     -42.202   3.288  -2.898  1.00 20.00    -0.045 A 
HETATM    5  C3  UNL     1     -43.095   4.202  -3.479  1.00 20.00     0.009 A 
HETATM    6  C2  UNL     1     -43.103   5.541  -3.083  1.00 20.00     0.008 A 
HETATM    7  C5  UNL     1     -42.218   5.937  -2.094  1.00 20.00    -0.052 A 
HETATM    8  C6  UNL     1     -41.328   5.026  -1.514  1.00 20.00    -0.051 A 
HETATM    9  C8  UNL     1     -42.015   7.310  -1.534  1.00 20.00     0.039 C 
HETATM   10  C4  UNL     1     -41.304   3.700  -1.911  1.00 20.00     0.015 A 
HETATM   11  C9  UNL     1     -40.447   5.705  -0.513  1.00 20.00     0.039 C 
HETATM   12  C10 UNL     1     -41.238   6.994  -0.247  1.00 20.00     0.009 C 
ENDBRANCH   2   4
TORSDOF 1
ENDMDL
MODEL 9
REMARK VINA RESULT:      -4.8     11.271     12.516
REMARK  1 active torsions:
REMARK  status: ('A' for Active; 'I' for Inactive)
REMARK    1  A    between atoms: C7_7  and  C11_11 
ROOT
HETATM    1  C1  UNL     1     -35.366  17.922  -0.401  1.00 20.00     0.063 C 
HETATM    2  C11 UNL     1     -34.089  17.291  -0.767  1.00 20.00     0.162 C 
HETATM    3  N12 UNL     1     -36.373  18.420  -0.112  1.00 20.00    -0.197 NA
ENDROOT
BRANCH   2   4
HETATM    4  C7  UNL     1     -34.162  16.716  -2.142  1.00 20.00    -0.045 A 
HETATM    5  C3  UNL     1     -33.688  17.462  -3.232  1.00 20.00     0.009 A 
HETATM    6  C2  UNL     1     -33.753  16.949  -4.529  1.00 20.00     0.008 A 
HETATM    7  C5  UNL     1     -34.282  15.682  -4.707  1.00 20.00    -0.052 A 
HETATM    8  C6  UNL     1     -34.755  14.938  -3.620  1.00 20.00    -0.051 A 
HETATM    9  C8  UNL     1     -34.489  14.941  -5.991  1.00 20.00     0.039 C 
HETATM   10  C4  UNL     1     -34.707  15.445  -2.333  1.00 20.00     0.015 A 
HETATM   11  C9  UNL     1     -35.323  13.630  -4.076  1.00 20.00     0.039 C 
HETATM   12  C10 UNL     1     -34.703  13.510  -5.476  1.00 20.00     0.009 C 
ENDBRANCH   2   4
TORSDOF 1
ENDMDL
