MODEL 1
REMARK VINA RESULT:      -4.2      0.000      0.000
REMARK  2 active torsions:
REMARK  status: ('A' for Active; 'I' for Inactive)
REMARK    1  A    between atoms: C2_2  and  C5_5 
REMARK    2  A    between atoms: C5_5  and  O6_6 
ROOT
HETATM    1  C1  UNL     1     -35.677   5.599   4.275  1.00 20.00     0.097 A 
HETATM    2  C2  UNL     1     -34.231   5.701   4.732  1.00 20.00     0.049 A 
HETATM    3  C3  UNL     1     -35.027   4.461   4.976  1.00 20.00     0.254 A 
HETATM    4  C4  UNL     1     -33.924   6.587   5.906  1.00 20.00     0.024 C 
HETATM    5  F7  UNL     1     -35.427   4.110   6.245  1.00 20.00    -0.205 F 
HETATM    6  F8  UNL     1     -34.754   3.294   4.297  1.00 20.00    -0.205 F 
ENDROOT
BRANCH   2   7
HETATM    7  C5  UNL     1     -33.154   5.656   3.682  1.00 20.00     0.179 C 
BRANCH   7   8
HETATM    8  O6  UNL     1     -32.345   6.822   3.786  1.00 20.00    -0.400 OA
HETATM    9  H16 UNL     1     -32.916   7.526   4.134  1.00 20.00     0.209 HD
ENDBRANCH   7   8
ENDBRANCH   2   7
TORSDOF 2
ENDMDL
MODEL 2
REMARK VINA RESULT:      -4.0      2.321      2.937
REMARK  2 active torsions:
REMARK  status: ('A' for Active; 'I' for Inactive)
REMARK    1  A    between atoms: C2_2  and  C5_5 
REMARK    2  A    between atoms: C5_5  and  O6_6 
ROOT
HETATM    1  C1  UNL     1     -35.573   5.898   3.525  1.00 20.00     0.097 A 
HETATM    2  C2  UNL     1     -34.617   5.309   4.549  1.00 20.00     0.049 A 
HETATM    3  C3  UNL     1     -34.180   5.550   3.141  1.00 20.00     0.254 A 
HETATM    4  C4  UNL     1     -34.842   3.889   4.986  1.00 20.00     0.024 C 
HETATM    5  F7  UNL     1     -33.940   4.503   2.281  1.00 20.00    -0.205 F 
HETATM    6  F8  UNL     1     -33.277   6.543   2.836  1.00 20.00    -0.205 F 
ENDROOT
BRANCH   2   7
HETATM    7  C5  UNL     1     -34.084   6.219   5.622  1.00 20.00     0.179 C 
BRANCH   7   8
HETATM    8  O6  UNL     1     -34.687   5.884   6.866  1.00 20.00    -0.400 OA
HETATM    9  H16 UNL     1     -35.625   6.128   6.795  1.00 20.00     0.209 HD
ENDBRANCH   7   8
ENDBRANCH   2   7
TORSDOF 2
ENDMDL
MODEL 3
REMARK VINA RESULT:      -4.0      2.506      2.896
REMARK  2 active torsions:
REMARK  status: ('A' for Active; 'I' for Inactive)
REMARK    1  A    between atoms: C2_2  and  C5_5 
REMARK    2  A    between atoms: C5_5  and  O6_6 
ROOT
HETATM    1  C1  UNL     1     -33.034   5.814   4.081  1.00 20.00     0.097 A 
HETATM    2  C2  UNL     1     -34.054   5.571   5.182  1.00 20.00     0.049 A 
HETATM    3  C3  UNL     1     -34.470   6.123   3.858  1.00 20.00     0.254 A 
HETATM    4  C4  UNL     1     -34.047   6.499   6.364  1.00 20.00     0.024 C 
HETATM    5  F7  UNL     1     -34.886   7.428   3.729  1.00 20.00    -0.205 F 
HETATM    6  F8  UNL     1     -35.212   5.371   2.974  1.00 20.00    -0.205 F 
ENDROOT
BRANCH   2   7
HETATM    7  C5  UNL     1     -34.419   4.148   5.503  1.00 20.00     0.179 C 
BRANCH   7   8
HETATM    8  O6  UNL     1     -35.602   4.132   6.293  1.00 20.00    -0.400 OA
HETATM    9  H16 UNL     1     -35.952   5.038   6.289  1.00 20.00     0.209 HD
ENDBRANCH   7   8
ENDBRANCH   2   7
TORSDOF 2
ENDMDL
MODEL 4
REMARK VINA RESULT:      -4.0      1.735      2.437
REMARK  2 active torsions:
REMARK  status: ('A' for Active; 'I' for Inactive)
REMARK    1  A    between atoms: C2_2  and  C5_5 
REMARK    2  A    between atoms: C5_5  and  O6_6 
ROOT
HETATM    1  C1  UNL     1     -33.685   4.470   5.924  1.00 20.00     0.097 A 
HETATM    2  C2  UNL     1     -34.271   5.419   4.891  1.00 20.00     0.049 A 
HETATM    3  C3  UNL     1     -34.317   5.747   6.347  1.00 20.00     0.254 A 
HETATM    4  C4  UNL     1     -35.552   5.019   4.215  1.00 20.00     0.024 C 
HETATM    5  F7  UNL     1     -35.504   5.736   7.043  1.00 20.00    -0.205 F 
HETATM    6  F8  UNL     1     -33.546   6.760   6.873  1.00 20.00    -0.205 F 
ENDROOT
BRANCH   2   7
HETATM    7  C5  UNL     1     -33.317   6.189   4.021  1.00 20.00     0.179 C 
BRANCH   7   8
HETATM    8  O6  UNL     1     -33.470   5.773   2.669  1.00 20.00    -0.400 OA
HETATM    9  H16 UNL     1     -33.377   4.807   2.663  1.00 20.00     0.209 HD
ENDBRANCH   7   8
ENDBRANCH   2   7
TORSDOF 2
ENDMDL
MODEL 5
REMARK VINA RESULT:      -3.9     12.275     12.750
REMARK  2 active torsions:
REMARK  status: ('A' for Active; 'I' for Inactive)
REMARK    1  A    between atoms: C2_2  and  C5_5 
REMARK    2  A    between atoms: C5_5  and  O6_6 
ROOT
HETATM    1  C1  UNL     1     -34.283  16.031  -4.170  1.00 20.00     0.097 A 
HETATM    2  C2  UNL     1     -34.111  14.537  -3.949  1.00 20.00     0.049 A 
HETATM    3  C3  UNL     1     -34.909  15.366  -2.998  1.00 20.00     0.254 A 
HETATM    4  C4  UNL     1     -32.765  14.042  -3.500  1.00 20.00     0.024 C 
HETATM    5  F7  UNL     1     -34.453  15.629  -1.726  1.00 20.00    -0.205 F 
HETATM    6  F8  UNL     1     -36.279  15.243  -2.921  1.00 20.00    -0.205 F 
ENDROOT
BRANCH   2   7
HETATM    7  C5  UNL     1     -34.850  13.600  -4.864  1.00 20.00     0.179 C 
BRANCH   7   8
HETATM    8  O6  UNL     1     -35.362  12.508  -4.108  1.00 20.00    -0.400 OA
HETATM    9  H16 UNL     1     -35.323  12.774  -3.176  1.00 20.00     0.209 HD
ENDBRANCH   7   8
ENDBRANCH   2   7
TORSDOF 2
ENDMDL
MODEL 6
REMARK VINA RESULT:      -3.9     12.734     13.316
REMARK  2 active torsions:
REMARK  status: ('A' for Active; 'I' for Inactive)
REMARK    1  A    between atoms: C2_2  and  C5_5 
REMARK    2  A    between atoms: C5_5  and  O6_6 
ROOT
HETATM    1  C1  UNL     1     -34.125  15.618  -2.837  1.00 20.00     0.097 A 
HETATM    2  C2  UNL     1     -34.339  14.688  -4.020  1.00 20.00     0.049 A 
HETATM    3  C3  UNL     1     -33.092  15.500  -3.899  1.00 20.00     0.254 A 
HETATM    4  C4  UNL     1     -35.348  15.091  -5.058  1.00 20.00     0.024 C 
HETATM    5  F7  UNL     1     -32.845  16.557  -4.745  1.00 20.00    -0.205 F 
HETATM    6  F8  UNL     1     -31.879  14.907  -3.624  1.00 20.00    -0.205 F 
ENDROOT
BRANCH   2   7
HETATM    7  C5  UNL     1     -34.246  13.206  -3.778  1.00 20.00     0.179 C 
BRANCH   7   8
HETATM    8  O6  UNL     1     -35.448  12.581  -4.212  1.00 20.00    -0.400 OA
HETATM    9  H16 UNL     1     -35.409  12.546  -5.182  1.00 20.00     0.209 HD
ENDBRANCH   7   8
ENDBRANCH   2   7
TORSDOF 2
ENDMDL
MODEL 7
REMARK VINA RESULT:      -3.8      2.690      3.334
REMARK  2 active torsions:
REMARK  status: ('A' for Active; 'I' for Inactive)
REMARK    1  A    between atoms: C2_2  and  C5_5 
REMARK    2  A    between atoms: C5_5  and  O6_6 
ROOT
HETATM    1  C1  UNL     1     -33.716   6.776   4.950  1.00 20.00     0.097 A 
HETATM    2  C2  UNL     1     -34.381   5.544   4.360  1.00 20.00     0.049 A 
HETATM    3  C3  UNL     1     -33.170   6.140   3.723  1.00 20.00     0.254 A 
HETATM    4  C4  UNL     1     -35.704   5.721   3.669  1.00 20.00     0.024 C 
HETATM    5  F7  UNL     1     -33.249   6.791   2.512  1.00 20.00    -0.205 F 
HETATM    6  F8  UNL     1     -31.954   5.494   3.759  1.00 20.00    -0.205 F 
ENDROOT
BRANCH   2   7
HETATM    7  C5  UNL     1     -34.227   4.239   5.092  1.00 20.00     0.179 C 
BRANCH   7   8
HETATM    8  O6  UNL     1     -35.502   3.625   5.237  1.00 20.00    -0.400 OA
HETATM    9  H16 UNL     1     -35.845   3.898   6.103  1.00 20.00     0.209 HD
ENDBRANCH   7   8
ENDBRANCH   2   7
TORSDOF 2
ENDMDL
MODEL 8
REMARK VINA RESULT:      -3.8     12.639     13.185
REMARK  2 active torsions:
REMARK  status: ('A' for Active; 'I' for Inactive)
REMARK    1  A    between atoms: C2_2  and  C5_5 
REMARK    2  A    between atoms: C5_5  and  O6_6 
ROOT
HETATM    1  C1  UNL     1     -33.815  15.700  -4.863  1.00 20.00     0.097 A 
HETATM    2  C2  UNL     1     -34.585  14.606  -4.142  1.00 20.00     0.049 A 
HETATM    3  C3  UNL     1     -33.327  15.166  -3.565  1.00 20.00     0.254 A 
HETATM    4  C4  UNL     1     -34.542  13.218  -4.719  1.00 20.00     0.024 C 
HETATM    5  F7  UNL     1     -32.172  14.420  -3.514  1.00 20.00    -0.205 F 
HETATM    6  F8  UNL     1     -33.351  15.957  -2.438  1.00 20.00    -0.205 F 
ENDROOT
BRANCH   2   7
HETATM    7  C5  UNL     1     -35.889  14.974  -3.490  1.00 20.00     0.179 C 
BRANCH   7   8
HETATM    8  O6  UNL     1     -36.879  14.014  -3.840  1.00 20.00    -0.400 OA
HETATM    9  H16 UNL     1     -36.961  13.411  -3.084  1.00 20.00     0.209 HD
ENDBRANCH   7   8
ENDBRANCH   2   7
TORSDOF 2
ENDMDL
MODEL 9
REMARK VINA RESULT:      -3.8     12.991     13.548
REMARK  2 active torsions:
REMARK  status: ('A' for Active; 'I' for Inactive)
REMARK    1  A    between atoms: C2_2  and  C5_5 
REMARK    2  A    between atoms: C5_5  and  O6_6 
ROOT
HETATM    1  C1  UNL     1     -34.341  15.024  -3.251  1.00 20.00     0.097 A 
HETATM    2  C2  UNL     1     -33.891  15.309  -4.674  1.00 20.00     0.049 A 
HETATM    3  C3  UNL     1     -33.135  14.358  -3.807  1.00 20.00     0.254 A 
HETATM    4  C4  UNL     1     -33.273  16.649  -4.962  1.00 20.00     0.024 C 
HETATM    5  F7  UNL     1     -31.885  14.673  -3.325  1.00 20.00    -0.205 F 
HETATM    6  F8  UNL     1     -33.145  13.004  -4.058  1.00 20.00    -0.205 F 
ENDROOT
BRANCH   2   7
HETATM    7  C5  UNL     1     -34.712  14.743  -5.800  1.00 20.00     0.179 C 
BRANCH   7   8
HETATM    8  O6  UNL     1     -33.998  14.885  -7.022  1.00 20.00    -0.400 OA
HETATM    9  H16 UNL     1     -34.194  15.775  -7.357  1.00 20.00     0.209 HD
ENDBRANCH   7   8
ENDBRANCH   2   7
TORSDOF 2
ENDMDL
