MODEL 1
REMARK VINA RESULT:      -4.0      0.000      0.000
REMARK  1 active torsions:
REMARK  status: ('A' for Active; 'I' for Inactive)
REMARK    1  A    between atoms: C2_2  and  C5_5 
ROOT
HETATM    1  C1  UNL     1     -33.231   6.155   3.414  1.00 20.00     0.153 A 
HETATM    2  C2  UNL     1     -34.121   5.933   4.622  1.00 20.00     0.096 A 
HETATM    3  C3  UNL     1     -31.973   6.947   3.457  1.00 20.00     0.042 C 
HETATM    4  C4  UNL     1     -33.777   6.507   5.960  1.00 20.00     0.050 C 
HETATM    5  O6  UNL     1     -34.428   6.919   3.623  1.00 20.00    -0.369 OA
ENDROOT
BRANCH   2   6
HETATM    6  C5  UNL     1     -35.054   4.762   4.618  1.00 20.00     0.154 C 
HETATM    7 CL7  UNL     1     -35.260   4.100   6.261  1.00 20.00    -0.127 Cl
ENDBRANCH   2   6
TORSDOF 1
ENDMDL
MODEL 2
REMARK VINA RESULT:      -3.6      2.500      3.467
REMARK  1 active torsions:
REMARK  status: ('A' for Active; 'I' for Inactive)
REMARK    1  A    between atoms: C2_2  and  C5_5 
ROOT
HETATM    1  C1  UNL     1     -33.865   5.171   5.541  1.00 20.00     0.153 A 
HETATM    2  C2  UNL     1     -33.815   5.811   4.166  1.00 20.00     0.096 A 
HETATM    3  C3  UNL     1     -35.054   4.452   6.068  1.00 20.00     0.042 C 
HETATM    4  C4  UNL     1     -34.985   5.751   3.236  1.00 20.00     0.050 C 
HETATM    5  O6  UNL     1     -34.051   6.581   5.355  1.00 20.00    -0.369 OA
ENDROOT
BRANCH   2   6
HETATM    6  C5  UNL     1     -32.478   6.062   3.542  1.00 20.00     0.154 C 
HETATM    7 CL7  UNL     1     -32.491   7.564   2.581  1.00 20.00    -0.127 Cl
ENDBRANCH   2   6
TORSDOF 1
ENDMDL
MODEL 3
REMARK VINA RESULT:      -3.5      1.384      2.021
REMARK  1 active torsions:
REMARK  status: ('A' for Active; 'I' for Inactive)
REMARK    1  A    between atoms: C2_2  and  C5_5 
ROOT
HETATM    1  C1  UNL     1     -32.394   7.201   3.483  1.00 20.00     0.153 A 
HETATM    2  C2  UNL     1     -33.427   6.125   3.758  1.00 20.00     0.096 A 
HETATM    3  C3  UNL     1     -32.187   7.815   2.144  1.00 20.00     0.042 C 
HETATM    4  C4  UNL     1     -34.321   5.607   2.675  1.00 20.00     0.050 C 
HETATM    5  O6  UNL     1     -32.037   5.815   3.568  1.00 20.00    -0.369 OA
ENDROOT
BRANCH   2   6
HETATM    6  C5  UNL     1     -33.900   5.930   5.165  1.00 20.00     0.154 C 
HETATM    7 CL7  UNL     1     -34.945   4.491   5.296  1.00 20.00    -0.127 Cl
ENDBRANCH   2   6
TORSDOF 1
ENDMDL
MODEL 4
REMARK VINA RESULT:      -3.2     11.968     12.660
REMARK  1 active torsions:
REMARK  status: ('A' for Active; 'I' for Inactive)
REMARK    1  A    between atoms: C2_2  and  C5_5 
ROOT
HETATM    1  C1  UNL     1     -34.633  14.100  -5.802  1.00 20.00     0.153 A 
HETATM    2  C2  UNL     1     -35.154  14.110  -4.377  1.00 20.00     0.096 A 
HETATM    3  C3  UNL     1     -35.486  14.378  -6.988  1.00 20.00     0.042 C 
HETATM    4  C4  UNL     1     -36.588  14.409  -4.073  1.00 20.00     0.050 C 
HETATM    5  O6  UNL     1     -34.952  12.888  -5.105  1.00 20.00    -0.369 OA
ENDROOT
BRANCH   2   6
HETATM    6  C5  UNL     1     -34.179  14.313  -3.260  1.00 20.00     0.154 C 
HETATM    7 CL7  UNL     1     -34.605  15.747  -2.290  1.00 20.00    -0.127 Cl
ENDBRANCH   2   6
TORSDOF 1
ENDMDL
MODEL 5
REMARK VINA RESULT:      -3.2     11.891     12.593
REMARK  1 active torsions:
REMARK  status: ('A' for Active; 'I' for Inactive)
REMARK    1  A    between atoms: C2_2  and  C5_5 
ROOT
HETATM    1  C1  UNL     1     -34.447  13.790  -3.531  1.00 20.00     0.153 A 
HETATM    2  C2  UNL     1     -35.398  14.067  -4.679  1.00 20.00     0.096 A 
HETATM    3  C3  UNL     1     -32.966  13.832  -3.664  1.00 20.00     0.042 C 
HETATM    4  C4  UNL     1     -34.892  14.411  -6.045  1.00 20.00     0.050 C 
HETATM    5  O6  UNL     1     -35.084  12.730  -4.258  1.00 20.00    -0.369 OA
ENDROOT
BRANCH   2   6
HETATM    6  C5  UNL     1     -36.800  14.484  -4.362  1.00 20.00     0.154 C 
HETATM    7 CL7  UNL     1     -36.988  16.253  -4.492  1.00 20.00    -0.127 Cl
ENDBRANCH   2   6
TORSDOF 1
ENDMDL
MODEL 6
REMARK VINA RESULT:      -3.2     12.514     13.349
REMARK  1 active torsions:
REMARK  status: ('A' for Active; 'I' for Inactive)
REMARK    1  A    between atoms: C2_2  and  C5_5 
ROOT
HETATM    1  C1  UNL     1     -33.843  16.464  -5.219  1.00 20.00     0.153 A 
HETATM    2  C2  UNL     1     -33.803  15.983  -3.782  1.00 20.00     0.096 A 
HETATM    3  C3  UNL     1     -34.250  15.603  -6.361  1.00 20.00     0.042 C 
HETATM    4  C4  UNL     1     -34.183  14.582  -3.418  1.00 20.00     0.050 C 
HETATM    5  O6  UNL     1     -32.616  16.078  -4.585  1.00 20.00    -0.369 OA
ENDROOT
BRANCH   2   6
HETATM    6  C5  UNL     1     -33.870  16.999  -2.684  1.00 20.00     0.154 C 
HETATM    7 CL7  UNL     1     -34.641  16.318  -1.227  1.00 20.00    -0.127 Cl
ENDBRANCH   2   6
TORSDOF 1
ENDMDL
MODEL 7
REMARK VINA RESULT:      -3.2      3.210      4.131
REMARK  1 active torsions:
REMARK  status: ('A' for Active; 'I' for Inactive)
REMARK    1  A    between atoms: C2_2  and  C5_5 
ROOT
HETATM    1  C1  UNL     1     -33.345   6.514   3.344  1.00 20.00     0.153 A 
HETATM    2  C2  UNL     1     -32.104   7.337   3.058  1.00 20.00     0.096 A 
HETATM    3  C3  UNL     1     -33.824   6.202   4.717  1.00 20.00     0.042 C 
HETATM    4  C4  UNL     1     -31.269   7.899   4.165  1.00 20.00     0.050 C 
HETATM    5  O6  UNL     1     -32.097   5.902   2.991  1.00 20.00    -0.369 OA
ENDROOT
BRANCH   2   6
HETATM    6  C5  UNL     1     -31.978   8.003   1.723  1.00 20.00     0.154 C 
HETATM    7 CL7  UNL     1     -32.544   9.692   1.794  1.00 20.00    -0.127 Cl
ENDBRANCH   2   6
TORSDOF 1
ENDMDL
MODEL 8
REMARK VINA RESULT:      -3.1     12.661     13.356
REMARK  1 active torsions:
REMARK  status: ('A' for Active; 'I' for Inactive)
REMARK    1  A    between atoms: C2_2  and  C5_5 
ROOT
HETATM    1  C1  UNL     1     -34.376  15.078  -3.159  1.00 20.00     0.153 A 
HETATM    2  C2  UNL     1     -33.937  15.203  -4.606  1.00 20.00     0.096 A 
HETATM    3  C3  UNL     1     -34.214  16.165  -2.157  1.00 20.00     0.042 C 
HETATM    4  C4  UNL     1     -33.302  16.456  -5.123  1.00 20.00     0.050 C 
HETATM    5  O6  UNL     1     -33.147  14.507  -3.628  1.00 20.00    -0.369 OA
ENDROOT
BRANCH   2   6
HETATM    6  C5  UNL     1     -34.564  14.303  -5.625  1.00 20.00     0.154 C 
HETATM    7 CL7  UNL     1     -34.360  14.959  -7.270  1.00 20.00    -0.127 Cl
ENDBRANCH   2   6
TORSDOF 1
ENDMDL
MODEL 9
REMARK VINA RESULT:      -3.1      2.080      2.560
REMARK  1 active torsions:
REMARK  status: ('A' for Active; 'I' for Inactive)
REMARK    1  A    between atoms: C2_2  and  C5_5 
ROOT
HETATM    1  C1  UNL     1     -34.364   6.083   4.003  1.00 20.00     0.153 A 
HETATM    2  C2  UNL     1     -34.378   5.336   5.323  1.00 20.00     0.096 A 
HETATM    3  C3  UNL     1     -34.688   5.447   2.699  1.00 20.00     0.042 C 
HETATM    4  C4  UNL     1     -34.729   3.883   5.394  1.00 20.00     0.050 C 
HETATM    5  O6  UNL     1     -33.157   5.610   4.617  1.00 20.00    -0.369 OA
ENDROOT
BRANCH   2   6
HETATM    6  C5  UNL     1     -34.530   6.122   6.589  1.00 20.00     0.154 C 
HETATM    7 CL7  UNL     1     -33.201   7.295   6.779  1.00 20.00    -0.127 Cl
ENDBRANCH   2   6
TORSDOF 1
ENDMDL
