MODEL 1
REMARK VINA RESULT:      -3.9      0.000      0.000
REMARK  2 active torsions:
REMARK  status: ('A' for Active; 'I' for Inactive)
REMARK       I    between atoms: C1_1  and  N6_6 
REMARK    1  A    between atoms: C4_4  and  C5_5 
REMARK    2  A    between atoms: C5_5  and  N6_6 
ROOT
HETATM    1  C1  UNL     1     -34.114   5.970   5.708  1.00 20.00     0.316 C 
HETATM    2  C3  UNL     1     -34.216   5.310   3.268  1.00 20.00     0.154 C 
HETATM    3  N6  UNL     1     -33.696   6.145   4.359  1.00 20.00    -0.343 N 
HETATM    4  O7  UNL     1     -33.684   6.665   6.632  1.00 20.00    -0.254 OA
HETATM    5 CL8  UNL     1     -35.296   4.705   6.001  1.00 20.00    -0.020 Cl
ENDROOT
BRANCH   3   6
HETATM    6  C5  UNL     1     -32.740   7.150   3.985  1.00 20.00     0.126 C 
BRANCH   6   7
HETATM    7  C4  UNL     1     -32.277   7.001   2.541  1.00 20.00     0.015 C 
HETATM    8  C2  UNL     1     -32.048   8.340   1.856  1.00 20.00     0.006 C 
ENDBRANCH   6   7
ENDBRANCH   3   6
TORSDOF 2
ENDMDL
MODEL 2
REMARK VINA RESULT:      -3.7      1.677      2.046
REMARK  2 active torsions:
REMARK  status: ('A' for Active; 'I' for Inactive)
REMARK       I    between atoms: C1_1  and  N6_6 
REMARK    1  A    between atoms: C4_4  and  C5_5 
REMARK    2  A    between atoms: C5_5  and  N6_6 
ROOT
HETATM    1  C1  UNL     1     -34.928   4.907   5.095  1.00 20.00     0.316 C 
HETATM    2  C3  UNL     1     -33.737   6.757   6.342  1.00 20.00     0.154 C 
HETATM    3  N6  UNL     1     -34.197   6.128   5.097  1.00 20.00    -0.343 N 
HETATM    4  O7  UNL     1     -35.319   4.370   4.056  1.00 20.00    -0.254 OA
HETATM    5 CL8  UNL     1     -35.245   4.184   6.663  1.00 20.00    -0.020 Cl
ENDROOT
BRANCH   3   6
HETATM    6  C5  UNL     1     -33.866   6.817   3.881  1.00 20.00     0.126 C 
BRANCH   6   7
HETATM    7  C4  UNL     1     -32.458   6.492   3.394  1.00 20.00     0.015 C 
HETATM    8  C2  UNL     1     -31.847   7.616   2.571  1.00 20.00     0.006 C 
ENDBRANCH   6   7
ENDBRANCH   3   6
TORSDOF 2
ENDMDL
MODEL 3
REMARK VINA RESULT:      -3.7     11.684     11.920
REMARK  2 active torsions:
REMARK  status: ('A' for Active; 'I' for Inactive)
REMARK       I    between atoms: C1_1  and  N6_6 
REMARK    1  A    between atoms: C4_4  and  C5_5 
REMARK    2  A    between atoms: C5_5  and  N6_6 
ROOT
HETATM    1  C1  UNL     1     -35.561  14.110  -3.956  1.00 20.00     0.316 C 
HETATM    2  C3  UNL     1     -33.309  15.193  -3.570  1.00 20.00     0.154 C 
HETATM    3  N6  UNL     1     -34.752  15.091  -3.317  1.00 20.00    -0.343 N 
HETATM    4  O7  UNL     1     -36.774  14.015  -3.752  1.00 20.00    -0.254 OA
HETATM    5 CL8  UNL     1     -34.744  13.030  -5.072  1.00 20.00    -0.020 Cl
ENDROOT
BRANCH   3   6
HETATM    6  C5  UNL     1     -35.299  16.040  -2.388  1.00 20.00     0.126 C 
BRANCH   6   7
HETATM    7  C4  UNL     1     -34.236  16.637  -1.475  1.00 20.00     0.015 C 
HETATM    8  C2  UNL     1     -34.787  17.036  -0.113  1.00 20.00     0.006 C 
ENDBRANCH   6   7
ENDBRANCH   3   6
TORSDOF 2
ENDMDL
MODEL 4
REMARK VINA RESULT:      -3.7     12.048     12.536
REMARK  2 active torsions:
REMARK  status: ('A' for Active; 'I' for Inactive)
REMARK       I    between atoms: C1_1  and  N6_6 
REMARK    1  A    between atoms: C4_4  and  C5_5 
REMARK    2  A    between atoms: C5_5  and  N6_6 
ROOT
HETATM    1  C1  UNL     1     -34.782  13.852  -5.175  1.00 20.00     0.316 C 
HETATM    2  C3  UNL     1     -34.187  16.309  -5.265  1.00 20.00     0.154 C 
HETATM    3  N6  UNL     1     -34.342  15.044  -4.534  1.00 20.00    -0.343 N 
HETATM    4  O7  UNL     1     -34.916  12.785  -4.572  1.00 20.00    -0.254 OA
HETATM    5 CL8  UNL     1     -35.142  13.974  -6.888  1.00 20.00    -0.020 Cl
ENDROOT
BRANCH   3   6
HETATM    6  C5  UNL     1     -34.022  15.080  -3.134  1.00 20.00     0.126 C 
BRANCH   6   7
HETATM    7  C4  UNL     1     -35.067  15.832  -2.319  1.00 20.00     0.015 C 
HETATM    8  C2  UNL     1     -34.464  16.578  -1.137  1.00 20.00     0.006 C 
ENDBRANCH   6   7
ENDBRANCH   3   6
TORSDOF 2
ENDMDL
MODEL 5
REMARK VINA RESULT:      -3.6     11.588     12.074
REMARK  2 active torsions:
REMARK  status: ('A' for Active; 'I' for Inactive)
REMARK       I    between atoms: C1_1  and  N6_6 
REMARK    1  A    between atoms: C4_4  and  C5_5 
REMARK    2  A    between atoms: C5_5  and  N6_6 
ROOT
HETATM    1  C1  UNL     1     -34.039  13.966  -4.146  1.00 20.00     0.316 C 
HETATM    2  C3  UNL     1     -35.424  16.047  -4.530  1.00 20.00     0.154 C 
HETATM    3  N6  UNL     1     -34.379  15.306  -3.811  1.00 20.00    -0.343 N 
HETATM    4  O7  UNL     1     -33.165  13.334  -3.549  1.00 20.00    -0.254 OA
HETATM    5 CL8  UNL     1     -34.942  13.237  -5.464  1.00 20.00    -0.020 Cl
ENDROOT
BRANCH   3   6
HETATM    6  C5  UNL     1     -33.721  16.013  -2.748  1.00 20.00     0.126 C 
BRANCH   6   7
HETATM    7  C4  UNL     1     -34.632  16.233  -1.545  1.00 20.00     0.015 C 
HETATM    8  C2  UNL     1     -34.134  17.338  -0.625  1.00 20.00     0.006 C 
ENDBRANCH   6   7
ENDBRANCH   3   6
TORSDOF 2
ENDMDL
MODEL 6
REMARK VINA RESULT:      -3.5     12.569     13.028
REMARK  2 active torsions:
REMARK  status: ('A' for Active; 'I' for Inactive)
REMARK       I    between atoms: C1_1  and  N6_6 
REMARK    1  A    between atoms: C4_4  and  C5_5 
REMARK    2  A    between atoms: C5_5  and  N6_6 
ROOT
HETATM    1  C1  UNL     1     -33.904  15.737  -5.675  1.00 20.00     0.316 C 
HETATM    2  C3  UNL     1     -34.370  13.535  -4.521  1.00 20.00     0.154 C 
HETATM    3  N6  UNL     1     -33.967  14.948  -4.493  1.00 20.00    -0.343 N 
HETATM    4  O7  UNL     1     -33.566  16.923  -5.664  1.00 20.00    -0.254 OA
HETATM    5 CL8  UNL     1     -34.325  14.930  -7.176  1.00 20.00    -0.020 Cl
ENDROOT
BRANCH   3   6
HETATM    6  C5  UNL     1     -33.639  15.485  -3.202  1.00 20.00     0.126 C 
BRANCH   6   7
HETATM    7  C4  UNL     1     -34.879  15.816  -2.379  1.00 20.00     0.015 C 
HETATM    8  C2  UNL     1     -34.549  16.550  -1.088  1.00 20.00     0.006 C 
ENDBRANCH   6   7
ENDBRANCH   3   6
TORSDOF 2
ENDMDL
MODEL 7
REMARK VINA RESULT:      -3.5     11.317     12.295
REMARK  2 active torsions:
REMARK  status: ('A' for Active; 'I' for Inactive)
REMARK       I    between atoms: C1_1  and  N6_6 
REMARK    1  A    between atoms: C4_4  and  C5_5 
REMARK    2  A    between atoms: C5_5  and  N6_6 
ROOT
HETATM    1  C1  UNL     1     -34.554  13.548  -4.046  1.00 20.00     0.316 C 
HETATM    2  C3  UNL     1     -35.051  15.697  -2.807  1.00 20.00     0.154 C 
HETATM    3  N6  UNL     1     -35.471  14.552  -3.627  1.00 20.00    -0.343 N 
HETATM    4  O7  UNL     1     -34.895  12.584  -4.734  1.00 20.00    -0.254 OA
HETATM    5 CL8  UNL     1     -32.886  13.753  -3.539  1.00 20.00    -0.020 Cl
ENDROOT
BRANCH   3   6
HETATM    6  C5  UNL     1     -36.862  14.506  -3.981  1.00 20.00     0.126 C 
BRANCH   6   7
HETATM    7  C4  UNL     1     -37.248  15.603  -4.965  1.00 20.00     0.015 C 
HETATM    8  C2  UNL     1     -36.882  15.259  -6.402  1.00 20.00     0.006 C 
ENDBRANCH   6   7
ENDBRANCH   3   6
TORSDOF 2
ENDMDL
MODEL 8
REMARK VINA RESULT:      -3.4     11.715     12.332
REMARK  2 active torsions:
REMARK  status: ('A' for Active; 'I' for Inactive)
REMARK       I    between atoms: C1_1  and  N6_6 
REMARK    1  A    between atoms: C4_4  and  C5_5 
REMARK    2  A    between atoms: C5_5  and  N6_6 
ROOT
HETATM    1  C1  UNL     1     -34.014  14.993  -3.323  1.00 20.00     0.316 C 
HETATM    2  C3  UNL     1     -36.481  14.668  -3.772  1.00 20.00     0.154 C 
HETATM    3  N6  UNL     1     -35.068  14.427  -4.092  1.00 20.00    -0.343 N 
HETATM    4  O7  UNL     1     -32.824  14.798  -3.583  1.00 20.00    -0.254 OA
HETATM    5 CL8  UNL     1     -34.490  16.006  -1.971  1.00 20.00    -0.020 Cl
ENDROOT
BRANCH   3   6
HETATM    6  C5  UNL     1     -34.813  13.586  -5.229  1.00 20.00     0.126 C 
BRANCH   6   7
HETATM    7  C4  UNL     1     -35.234  14.239  -6.540  1.00 20.00     0.015 C 
HETATM    8  C2  UNL     1     -34.287  15.348  -6.975  1.00 20.00     0.006 C 
ENDBRANCH   6   7
ENDBRANCH   3   6
TORSDOF 2
ENDMDL
MODEL 9
REMARK VINA RESULT:      -3.4     12.413     12.918
REMARK  2 active torsions:
REMARK  status: ('A' for Active; 'I' for Inactive)
REMARK       I    between atoms: C1_1  and  N6_6 
REMARK    1  A    between atoms: C4_4  and  C5_5 
REMARK    2  A    between atoms: C5_5  and  N6_6 
ROOT
HETATM    1  C1  UNL     1     -31.876  19.012   1.189  1.00 20.00     0.316 C 
HETATM    2  C3  UNL     1     -33.948  18.589   2.577  1.00 20.00     0.154 C 
HETATM    3  N6  UNL     1     -33.276  18.772   1.283  1.00 20.00    -0.343 N 
HETATM    4  O7  UNL     1     -31.301  19.167   0.109  1.00 20.00    -0.254 OA
HETATM    5 CL8  UNL     1     -30.993  19.089   2.704  1.00 20.00    -0.020 Cl
ENDROOT
BRANCH   3   6
HETATM    6  C5  UNL     1     -34.113  18.693   0.119  1.00 20.00     0.126 C 
BRANCH   6   7
HETATM    7  C4  UNL     1     -34.777  17.329  -0.028  1.00 20.00     0.015 C 
HETATM    8  C2  UNL     1     -34.329  16.589  -1.279  1.00 20.00     0.006 C 
ENDBRANCH   6   7
ENDBRANCH   3   6
TORSDOF 2
ENDMDL
