MODEL 1
REMARK VINA RESULT:      -3.9      0.000      0.000
REMARK  3 active torsions:
REMARK  status: ('A' for Active; 'I' for Inactive)
REMARK    1  A    between atoms: C1_1  and  C4_4 
REMARK    2  A    between atoms: C2_2  and  C5_5 
REMARK    3  A    between atoms: C2_2  and  O9_9 
ROOT
HETATM    1  C3  UNL     1     -34.888  16.039  -3.696  1.00 20.00     0.028 A 
HETATM    2  C4  UNL     1     -36.008  15.194  -3.152  1.00 20.00     0.061 A 
HETATM    3  C5  UNL     1     -34.707  14.551  -3.570  1.00 20.00     0.097 A 
ENDROOT
BRANCH   3   4
HETATM    4  C2  UNL     1     -34.630  13.731  -4.784  1.00 20.00     0.263 C 
HETATM    5  O8  UNL     1     -34.826  12.524  -4.810  1.00 20.00    -0.265 OA
BRANCH   4   6
HETATM    6  O9  UNL     1     -34.310  14.522  -5.849  1.00 20.00    -0.326 OA
HETATM    7  C6  UNL     1     -35.166  14.394  -6.988  1.00 20.00     0.213 C 
ENDBRANCH   4   6
ENDBRANCH   3   4
BRANCH   2   8
HETATM    8  C1  UNL     1     -37.224  15.015  -3.954  1.00 20.00     0.236 C 
HETATM    9  O7  UNL     1     -38.105  14.209  -3.674  1.00 20.00    -0.306 OA
ENDBRANCH   2   8
TORSDOF 3
ENDMDL
MODEL 2
REMARK VINA RESULT:      -3.8      1.403      1.576
REMARK  3 active torsions:
REMARK  status: ('A' for Active; 'I' for Inactive)
REMARK    1  A    between atoms: C1_1  and  C4_4 
REMARK    2  A    between atoms: C2_2  and  C5_5 
REMARK    3  A    between atoms: C2_2  and  O9_9 
ROOT
HETATM    1  C3  UNL     1     -33.249  15.759  -3.968  1.00 20.00     0.028 A 
HETATM    2  C4  UNL     1     -34.203  15.360  -2.876  1.00 20.00     0.061 A 
HETATM    3  C5  UNL     1     -33.582  14.307  -3.761  1.00 20.00     0.097 A 
ENDROOT
BRANCH   3   4
HETATM    4  C2  UNL     1     -34.385  13.603  -4.768  1.00 20.00     0.263 C 
HETATM    5  O8  UNL     1     -35.010  12.574  -4.550  1.00 20.00    -0.265 OA
BRANCH   4   6
HETATM    6  O9  UNL     1     -34.316  14.272  -5.955  1.00 20.00    -0.326 OA
HETATM    7  C6  UNL     1     -35.567  14.474  -6.620  1.00 20.00     0.213 C 
ENDBRANCH   4   6
ENDBRANCH   3   4
BRANCH   2   8
HETATM    8  C1  UNL     1     -35.624  15.705  -3.003  1.00 20.00     0.236 C 
HETATM    9  O7  UNL     1     -36.032  16.657  -3.660  1.00 20.00    -0.306 OA
ENDBRANCH   2   8
TORSDOF 3
ENDMDL
MODEL 3
REMARK VINA RESULT:      -3.8     12.385     13.238
REMARK  3 active torsions:
REMARK  status: ('A' for Active; 'I' for Inactive)
REMARK    1  A    between atoms: C1_1  and  C4_4 
REMARK    2  A    between atoms: C2_2  and  C5_5 
REMARK    3  A    between atoms: C2_2  and  O9_9 
ROOT
HETATM    1  C3  UNL     1     -34.014   4.111   5.869  1.00 20.00     0.028 A 
HETATM    2  C4  UNL     1     -34.865   5.226   6.412  1.00 20.00     0.061 A 
HETATM    3  C5  UNL     1     -35.222   4.571   5.100  1.00 20.00     0.097 A 
ENDROOT
BRANCH   3   4
HETATM    4  C2  UNL     1     -35.037   5.283   3.830  1.00 20.00     0.263 C 
HETATM    5  O8  UNL     1     -35.918   5.916   3.264  1.00 20.00    -0.265 OA
BRANCH   4   6
HETATM    6  O9  UNL     1     -33.753   5.121   3.400  1.00 20.00    -0.326 OA
HETATM    7  C6  UNL     1     -33.041   6.331   3.121  1.00 20.00     0.213 C 
ENDBRANCH   4   6
ENDBRANCH   3   4
BRANCH   2   8
HETATM    8  C1  UNL     1     -34.323   6.590   6.447  1.00 20.00     0.236 C 
HETATM    9  O7  UNL     1     -33.147   6.844   6.686  1.00 20.00    -0.306 OA
ENDBRANCH   2   8
TORSDOF 3
ENDMDL
MODEL 4
REMARK VINA RESULT:      -3.8      2.079      3.523
REMARK  3 active torsions:
REMARK  status: ('A' for Active; 'I' for Inactive)
REMARK    1  A    between atoms: C1_1  and  C4_4 
REMARK    2  A    between atoms: C2_2  and  C5_5 
REMARK    3  A    between atoms: C2_2  and  O9_9 
ROOT
HETATM    1  C3  UNL     1     -34.372  15.001  -7.034  1.00 20.00     0.028 A 
HETATM    2  C4  UNL     1     -35.173  14.296  -5.974  1.00 20.00     0.061 A 
HETATM    3  C5  UNL     1     -34.926  15.783  -5.874  1.00 20.00     0.097 A 
ENDROOT
BRANCH   3   4
HETATM    4  C2  UNL     1     -34.004  16.325  -4.868  1.00 20.00     0.263 C 
HETATM    5  O8  UNL     1     -32.799  16.451  -5.039  1.00 20.00    -0.265 OA
BRANCH   4   6
HETATM    6  O9  UNL     1     -34.700  16.652  -3.742  1.00 20.00    -0.326 OA
HETATM    7  C6  UNL     1     -34.212  16.075  -2.527  1.00 20.00     0.213 C 
ENDBRANCH   4   6
ENDBRANCH   3   4
BRANCH   2   8
HETATM    8  C1  UNL     1     -34.497  13.360  -5.068  1.00 20.00     0.236 C 
HETATM    9  O7  UNL     1     -35.093  12.614  -4.299  1.00 20.00    -0.306 OA
ENDBRANCH   2   8
TORSDOF 3
ENDMDL
MODEL 5
REMARK VINA RESULT:      -3.7      1.280      2.029
REMARK  3 active torsions:
REMARK  status: ('A' for Active; 'I' for Inactive)
REMARK    1  A    between atoms: C1_1  and  C4_4 
REMARK    2  A    between atoms: C2_2  and  C5_5 
REMARK    3  A    between atoms: C2_2  and  O9_9 
ROOT
HETATM    1  C3  UNL     1     -36.188  14.826  -6.020  1.00 20.00     0.028 A 
HETATM    2  C4  UNL     1     -36.272  15.516  -4.686  1.00 20.00     0.061 A 
HETATM    3  C5  UNL     1     -34.979  14.873  -5.125  1.00 20.00     0.097 A 
ENDROOT
BRANCH   3   4
HETATM    4  C2  UNL     1     -34.503  13.636  -4.495  1.00 20.00     0.263 C 
HETATM    5  O8  UNL     1     -34.852  12.514  -4.838  1.00 20.00    -0.265 OA
BRANCH   4   6
HETATM    6  O9  UNL     1     -33.632  13.941  -3.492  1.00 20.00    -0.326 OA
HETATM    7  C6  UNL     1     -32.816  15.095  -3.716  1.00 20.00     0.213 C 
ENDBRANCH   4   6
ENDBRANCH   3   4
BRANCH   2   8
HETATM    8  C1  UNL     1     -37.083  14.917  -3.619  1.00 20.00     0.236 C 
HETATM    9  O7  UNL     1     -38.061  14.207  -3.830  1.00 20.00    -0.306 OA
ENDBRANCH   2   8
TORSDOF 3
ENDMDL
MODEL 6
REMARK VINA RESULT:      -3.7      1.894      2.630
REMARK  3 active torsions:
REMARK  status: ('A' for Active; 'I' for Inactive)
REMARK    1  A    between atoms: C1_1  and  C4_4 
REMARK    2  A    between atoms: C2_2  and  C5_5 
REMARK    3  A    between atoms: C2_2  and  O9_9 
ROOT
HETATM    1  C3  UNL     1     -33.703  15.794  -3.033  1.00 20.00     0.028 A 
HETATM    2  C4  UNL     1     -33.602  14.439  -3.678  1.00 20.00     0.061 A 
HETATM    3  C5  UNL     1     -33.328  15.685  -4.486  1.00 20.00     0.097 A 
ENDROOT
BRANCH   3   4
HETATM    4  C2  UNL     1     -34.277  16.141  -5.508  1.00 20.00     0.263 C 
HETATM    5  O8  UNL     1     -35.257  16.834  -5.273  1.00 20.00    -0.265 OA
BRANCH   4   6
HETATM    6  O9  UNL     1     -33.892  15.672  -6.730  1.00 20.00    -0.326 OA
HETATM    7  C6  UNL     1     -34.865  14.881  -7.420  1.00 20.00     0.213 C 
ENDBRANCH   4   6
ENDBRANCH   3   4
BRANCH   2   8
HETATM    8  C1  UNL     1     -34.825  13.656  -3.897  1.00 20.00     0.236 C 
HETATM    9  O7  UNL     1     -34.857  12.623  -4.557  1.00 20.00    -0.306 OA
ENDBRANCH   2   8
TORSDOF 3
ENDMDL
MODEL 7
REMARK VINA RESULT:      -3.7     11.527     12.346
REMARK  3 active torsions:
REMARK  status: ('A' for Active; 'I' for Inactive)
REMARK    1  A    between atoms: C1_1  and  C4_4 
REMARK    2  A    between atoms: C2_2  and  C5_5 
REMARK    3  A    between atoms: C2_2  and  O9_9 
ROOT
HETATM    1  C3  UNL     1     -34.728   4.452   4.260  1.00 20.00     0.028 A 
HETATM    2  C4  UNL     1     -34.934   5.684   5.099  1.00 20.00     0.061 A 
HETATM    3  C5  UNL     1     -34.481   5.811   3.664  1.00 20.00     0.097 A 
ENDROOT
BRANCH   3   4
HETATM    4  C2  UNL     1     -33.108   6.216   3.342  1.00 20.00     0.263 C 
HETATM    5  O8  UNL     1     -32.167   5.438   3.252  1.00 20.00    -0.265 OA
BRANCH   4   6
HETATM    6  O9  UNL     1     -33.060   7.568   3.168  1.00 20.00    -0.326 OA
HETATM    7  C6  UNL     1     -32.080   8.033   2.235  1.00 20.00     0.213 C 
ENDBRANCH   4   6
ENDBRANCH   3   4
BRANCH   2   8
HETATM    8  C1  UNL     1     -34.009   5.961   6.204  1.00 20.00     0.236 C 
HETATM    9  O7  UNL     1     -33.889   7.066   6.724  1.00 20.00    -0.306 OA
ENDBRANCH   2   8
TORSDOF 3
ENDMDL
MODEL 8
REMARK VINA RESULT:      -3.7      2.040      3.049
REMARK  3 active torsions:
REMARK  status: ('A' for Active; 'I' for Inactive)
REMARK    1  A    between atoms: C1_1  and  C4_4 
REMARK    2  A    between atoms: C2_2  and  C5_5 
REMARK    3  A    between atoms: C2_2  and  O9_9 
ROOT
HETATM    1  C3  UNL     1     -34.950  15.387  -2.492  1.00 20.00     0.028 A 
HETATM    2  C4  UNL     1     -34.169  14.333  -3.228  1.00 20.00     0.061 A 
HETATM    3  C5  UNL     1     -33.651  15.750  -3.158  1.00 20.00     0.097 A 
ENDROOT
BRANCH   3   4
HETATM    4  C2  UNL     1     -33.668  16.615  -4.343  1.00 20.00     0.263 C 
HETATM    5  O8  UNL     1     -32.812  16.598  -5.217  1.00 20.00    -0.265 OA
BRANCH   4   6
HETATM    6  O9  UNL     1     -34.769  17.420  -4.304  1.00 20.00    -0.326 OA
HETATM    7  C6  UNL     1     -35.515  17.500  -5.523  1.00 20.00     0.213 C 
ENDBRANCH   4   6
ENDBRANCH   3   4
BRANCH   2   8
HETATM    8  C1  UNL     1     -34.703  13.791  -4.483  1.00 20.00     0.236 C 
HETATM    9  O7  UNL     1     -34.936  12.600  -4.660  1.00 20.00    -0.306 OA
ENDBRANCH   2   8
TORSDOF 3
ENDMDL
MODEL 9
REMARK VINA RESULT:      -3.6     12.246     13.282
REMARK  3 active torsions:
REMARK  status: ('A' for Active; 'I' for Inactive)
REMARK    1  A    between atoms: C1_1  and  C4_4 
REMARK    2  A    between atoms: C2_2  and  C5_5 
REMARK    3  A    between atoms: C2_2  and  O9_9 
ROOT
HETATM    1  C3  UNL     1     -35.628   5.906   3.674  1.00 20.00     0.028 A 
HETATM    2  C4  UNL     1     -34.389   5.222   3.165  1.00 20.00     0.061 A 
HETATM    3  C5  UNL     1     -35.118   4.673   4.368  1.00 20.00     0.097 A 
ENDROOT
BRANCH   3   4
HETATM    4  C2  UNL     1     -34.543   4.791   5.713  1.00 20.00     0.263 C 
HETATM    5  O8  UNL     1     -33.888   3.913   6.259  1.00 20.00    -0.265 OA
BRANCH   4   6
HETATM    6  O9  UNL     1     -34.855   6.011   6.236  1.00 20.00    -0.326 OA
HETATM    7  C6  UNL     1     -33.738   6.821   6.617  1.00 20.00     0.213 C 
ENDBRANCH   4   6
ENDBRANCH   3   4
BRANCH   2   8
HETATM    8  C1  UNL     1     -33.090   5.887   3.314  1.00 20.00     0.236 C 
HETATM    9  O7  UNL     1     -32.906   7.075   3.067  1.00 20.00    -0.306 OA
ENDBRANCH   2   8
TORSDOF 3
ENDMDL
