MODEL 1
REMARK VINA RESULT:      -4.2      0.000      0.000
REMARK  2 active torsions:
REMARK  status: ('A' for Active; 'I' for Inactive)
REMARK    1  A    between atoms: C2_2  and  C4_4 
REMARK    2  A    between atoms: C3_3  and  C5_5 
ROOT
HETATM    1  C1  UNL     1     -40.875   4.016  -1.630  1.00 20.00     0.133 A 
HETATM    2  C2  UNL     1     -41.947   3.798  -2.471  1.00 20.00     0.016 A 
HETATM    3  C3  UNL     1     -41.716   6.042  -1.625  1.00 20.00     0.181 A 
HETATM    4  N6  UNL     1     -40.742   5.302  -1.144  1.00 20.00    -0.248 NA
HETATM    5  S10 UNL     1     -42.830   5.255  -2.666  1.00 20.00    -0.068 SA
ENDROOT
BRANCH   3   6
HETATM    6  C5  UNL     1     -41.904   7.478  -1.325  1.00 20.00     0.441 C 
HETATM    7  F7  UNL     1     -42.948   7.741  -0.476  1.00 20.00    -0.164 F 
HETATM    8  F8  UNL     1     -40.820   8.071  -0.731  1.00 20.00    -0.164 F 
HETATM    9  F9  UNL     1     -42.155   8.232  -2.440  1.00 20.00    -0.164 F 
ENDBRANCH   3   6
BRANCH   2  10
HETATM   10  C4  UNL     1     -42.376   2.563  -3.155  1.00 20.00     0.162 C 
HETATM   11 CL11 UNL     1     -41.012   1.791  -4.005  1.00 20.00    -0.125 Cl
ENDBRANCH   2  10
TORSDOF 2
ENDMDL
MODEL 2
REMARK VINA RESULT:      -4.2     10.225     10.991
REMARK  2 active torsions:
REMARK  status: ('A' for Active; 'I' for Inactive)
REMARK    1  A    between atoms: C2_2  and  C4_4 
REMARK    2  A    between atoms: C3_3  and  C5_5 
ROOT
HETATM    1  C1  UNL     1     -33.693   5.930   2.588  1.00 20.00     0.133 A 
HETATM    2  C2  UNL     1     -32.784   6.859   3.049  1.00 20.00     0.016 A 
HETATM    3  C3  UNL     1     -34.021   5.671   4.742  1.00 20.00     0.181 A 
HETATM    4  N6  UNL     1     -34.404   5.248   3.558  1.00 20.00    -0.248 NA
HETATM    5  S10 UNL     1     -32.812   6.889   4.764  1.00 20.00    -0.068 SA
ENDROOT
BRANCH   3   6
HETATM    6  C5  UNL     1     -34.562   5.172   6.025  1.00 20.00     0.441 C 
HETATM    7  F7  UNL     1     -33.712   4.334   6.702  1.00 20.00    -0.164 F 
HETATM    8  F8  UNL     1     -34.861   6.159   6.927  1.00 20.00    -0.164 F 
HETATM    9  F9  UNL     1     -35.721   4.460   5.879  1.00 20.00    -0.164 F 
ENDBRANCH   3   6
BRANCH   2  10
HETATM   10  C4  UNL     1     -31.875   7.746   2.298  1.00 20.00     0.162 C 
HETATM   11 CL11 UNL     1     -32.675   9.285   1.885  1.00 20.00    -0.125 Cl
ENDBRANCH   2  10
TORSDOF 2
ENDMDL
MODEL 3
REMARK VINA RESULT:      -4.1     12.227     13.426
REMARK  2 active torsions:
REMARK  status: ('A' for Active; 'I' for Inactive)
REMARK    1  A    between atoms: C2_2  and  C4_4 
REMARK    2  A    between atoms: C3_3  and  C5_5 
ROOT
HETATM    1  C1  UNL     1     -33.547  17.109  -4.583  1.00 20.00     0.133 A 
HETATM    2  C2  UNL     1     -33.884  17.075  -3.246  1.00 20.00     0.016 A 
HETATM    3  C3  UNL     1     -34.340  15.065  -4.494  1.00 20.00     0.181 A 
HETATM    4  N6  UNL     1     -33.808  15.957  -5.300  1.00 20.00    -0.248 NA
HETATM    5  S10 UNL     1     -34.556  15.545  -2.860  1.00 20.00    -0.068 SA
ENDROOT
BRANCH   3   6
HETATM    6  C5  UNL     1     -34.754  13.706  -4.904  1.00 20.00     0.441 C 
HETATM    7  F7  UNL     1     -33.760  12.766  -4.812  1.00 20.00    -0.164 F 
HETATM    8  F8  UNL     1     -35.786  13.189  -4.164  1.00 20.00    -0.164 F 
HETATM    9  F9  UNL     1     -35.182  13.644  -6.203  1.00 20.00    -0.164 F 
ENDBRANCH   3   6
BRANCH   2  10
HETATM   10  C4  UNL     1     -33.742  18.114  -2.208  1.00 20.00     0.162 C 
HETATM   11 CL11 UNL     1     -33.966  17.431  -0.577  1.00 20.00    -0.125 Cl
ENDBRANCH   2  10
TORSDOF 2
ENDMDL
MODEL 4
REMARK VINA RESULT:      -4.1     12.207     13.407
REMARK  2 active torsions:
REMARK  status: ('A' for Active; 'I' for Inactive)
REMARK    1  A    between atoms: C2_2  and  C4_4 
REMARK    2  A    between atoms: C3_3  and  C5_5 
ROOT
HETATM    1  C1  UNL     1     -33.571  17.104  -4.566  1.00 20.00     0.133 A 
HETATM    2  C2  UNL     1     -33.887  17.052  -3.224  1.00 20.00     0.016 A 
HETATM    3  C3  UNL     1     -34.352  15.055  -4.491  1.00 20.00     0.181 A 
HETATM    4  N6  UNL     1     -33.837  15.961  -5.294  1.00 20.00    -0.248 NA
HETATM    5  S10 UNL     1     -34.546  15.513  -2.849  1.00 20.00    -0.068 SA
ENDROOT
BRANCH   3   6
HETATM    6  C5  UNL     1     -34.766  13.700  -4.913  1.00 20.00     0.441 C 
HETATM    7  F7  UNL     1     -35.810  13.183  -4.190  1.00 20.00    -0.164 F 
HETATM    8  F8  UNL     1     -35.180  13.623  -6.217  1.00 20.00    -0.164 F 
HETATM    9  F9  UNL     1     -33.763  12.773  -4.803  1.00 20.00    -0.164 F 
ENDBRANCH   3   6
BRANCH   2  10
HETATM   10  C4  UNL     1     -33.735  18.079  -2.176  1.00 20.00     0.162 C 
HETATM   11 CL11 UNL     1     -34.045  17.398  -0.557  1.00 20.00    -0.125 Cl
ENDBRANCH   2  10
TORSDOF 2
ENDMDL
MODEL 5
REMARK VINA RESULT:      -4.1     12.206     13.408
REMARK  2 active torsions:
REMARK  status: ('A' for Active; 'I' for Inactive)
REMARK    1  A    between atoms: C2_2  and  C4_4 
REMARK    2  A    between atoms: C3_3  and  C5_5 
ROOT
HETATM    1  C1  UNL     1     -33.557  17.104  -4.560  1.00 20.00     0.133 A 
HETATM    2  C2  UNL     1     -33.887  17.050  -3.222  1.00 20.00     0.016 A 
HETATM    3  C3  UNL     1     -34.358  15.063  -4.500  1.00 20.00     0.181 A 
HETATM    4  N6  UNL     1     -33.827  15.966  -5.294  1.00 20.00    -0.248 NA
HETATM    5  S10 UNL     1     -34.563  15.517  -2.858  1.00 20.00    -0.068 SA
ENDROOT
BRANCH   3   6
HETATM    6  C5  UNL     1     -34.779  13.712  -4.930  1.00 20.00     0.441 C 
HETATM    7  F7  UNL     1     -35.188  13.644  -6.237  1.00 20.00    -0.164 F 
HETATM    8  F8  UNL     1     -33.798  12.761  -4.826  1.00 20.00    -0.164 F 
HETATM    9  F9  UNL     1     -35.830  13.220  -4.203  1.00 20.00    -0.164 F 
ENDBRANCH   3   6
BRANCH   2  10
HETATM   10  C4  UNL     1     -33.736  18.073  -2.169  1.00 20.00     0.162 C 
HETATM   11 CL11 UNL     1     -34.047  17.384  -0.553  1.00 20.00    -0.125 Cl
ENDBRANCH   2  10
TORSDOF 2
ENDMDL
MODEL 6
REMARK VINA RESULT:      -4.1     10.079     10.820
REMARK  2 active torsions:
REMARK  status: ('A' for Active; 'I' for Inactive)
REMARK    1  A    between atoms: C2_2  and  C4_4 
REMARK    2  A    between atoms: C3_3  and  C5_5 
ROOT
HETATM    1  C1  UNL     1     -32.477   7.324   4.591  1.00 20.00     0.133 A 
HETATM    2  C2  UNL     1     -32.549   7.072   3.237  1.00 20.00     0.016 A 
HETATM    3  C3  UNL     1     -34.034   5.779   4.626  1.00 20.00     0.181 A 
HETATM    4  N6  UNL     1     -33.327   6.583   5.389  1.00 20.00    -0.248 NA
HETATM    5  S10 UNL     1     -33.726   5.860   2.939  1.00 20.00    -0.068 SA
ENDROOT
BRANCH   3   6
HETATM    6  C5  UNL     1     -35.053   4.830   5.125  1.00 20.00     0.441 C 
HETATM    7  F7  UNL     1     -34.672   3.514   5.059  1.00 20.00    -0.164 F 
HETATM    8  F8  UNL     1     -35.399   5.022   6.437  1.00 20.00    -0.164 F 
HETATM    9  F9  UNL     1     -36.232   4.894   4.433  1.00 20.00    -0.164 F 
ENDBRANCH   3   6
BRANCH   2  10
HETATM   10  C4  UNL     1     -31.795   7.675   2.121  1.00 20.00     0.162 C 
HETATM   11 CL11 UNL     1     -32.449   9.279   1.695  1.00 20.00    -0.125 Cl
ENDBRANCH   2  10
TORSDOF 2
ENDMDL
MODEL 7
REMARK VINA RESULT:      -4.1     12.644     13.421
REMARK  2 active torsions:
REMARK  status: ('A' for Active; 'I' for Inactive)
REMARK    1  A    between atoms: C2_2  and  C4_4 
REMARK    2  A    between atoms: C3_3  and  C5_5 
ROOT
HETATM    1  C1  UNL     1     -33.680  16.567  -4.842  1.00 20.00     0.133 A 
HETATM    2  C2  UNL     1     -34.297  15.341  -4.707  1.00 20.00     0.016 A 
HETATM    3  C3  UNL     1     -34.137  16.662  -2.698  1.00 20.00     0.181 A 
HETATM    4  N6  UNL     1     -33.587  17.325  -3.691  1.00 20.00    -0.248 NA
HETATM    5  S10 UNL     1     -34.784  15.118  -3.078  1.00 20.00    -0.068 SA
ENDROOT
BRANCH   3   6
HETATM    6  C5  UNL     1     -34.226  17.157  -1.307  1.00 20.00     0.441 C 
HETATM    7  F7  UNL     1     -34.743  16.246  -0.422  1.00 20.00    -0.164 F 
HETATM    8  F8  UNL     1     -33.020  17.516  -0.765  1.00 20.00    -0.164 F 
HETATM    9  F9  UNL     1     -35.018  18.266  -1.181  1.00 20.00    -0.164 F 
ENDBRANCH   3   6
BRANCH   2  10
HETATM   10  C4  UNL     1     -34.559  14.298  -5.717  1.00 20.00     0.162 C 
HETATM   11 CL11 UNL     1     -34.366  14.939  -7.370  1.00 20.00    -0.125 Cl
ENDBRANCH   2  10
TORSDOF 2
ENDMDL
MODEL 8
REMARK VINA RESULT:      -4.0     12.714     13.410
REMARK  2 active torsions:
REMARK  status: ('A' for Active; 'I' for Inactive)
REMARK    1  A    between atoms: C2_2  and  C4_4 
REMARK    2  A    between atoms: C3_3  and  C5_5 
ROOT
HETATM    1  C1  UNL     1     -33.644  16.833  -3.607  1.00 20.00     0.133 A 
HETATM    2  C2  UNL     1     -34.451  16.202  -2.684  1.00 20.00     0.016 A 
HETATM    3  C3  UNL     1     -34.583  15.364  -4.939  1.00 20.00     0.181 A 
HETATM    4  N6  UNL     1     -33.718  16.354  -4.901  1.00 20.00    -0.248 NA
HETATM    5  S10 UNL     1     -35.344  14.958  -3.456  1.00 20.00    -0.068 SA
ENDROOT
BRANCH   3   6
HETATM    6  C5  UNL     1     -34.930  14.601  -6.158  1.00 20.00     0.441 C 
HETATM    7  F7  UNL     1     -34.039  14.758  -7.188  1.00 20.00    -0.164 F 
HETATM    8  F8  UNL     1     -35.001  13.246  -5.967  1.00 20.00    -0.164 F 
HETATM    9  F9  UNL     1     -36.146  14.951  -6.682  1.00 20.00    -0.164 F 
ENDBRANCH   3   6
BRANCH   2  10
HETATM   10  C4  UNL     1     -34.614  16.457  -1.240  1.00 20.00     0.162 C 
HETATM   11 CL11 UNL     1     -33.513  17.746  -0.685  1.00 20.00    -0.125 Cl
ENDBRANCH   2  10
TORSDOF 2
ENDMDL
MODEL 9
REMARK VINA RESULT:      -4.0     12.814     13.757
REMARK  2 active torsions:
REMARK  status: ('A' for Active; 'I' for Inactive)
REMARK    1  A    between atoms: C2_2  and  C4_4 
REMARK    2  A    between atoms: C3_3  and  C5_5 
ROOT
HETATM    1  C1  UNL     1     -34.737  15.221  -7.104  1.00 20.00     0.133 A 
HETATM    2  C2  UNL     1     -34.413  16.537  -6.848  1.00 20.00     0.016 A 
HETATM    3  C3  UNL     1     -34.099  15.003  -5.016  1.00 20.00     0.181 A 
HETATM    4  N6  UNL     1     -34.558  14.340  -6.055  1.00 20.00    -0.248 NA
HETATM    5  S10 UNL     1     -33.861  16.689  -5.231  1.00 20.00    -0.068 SA
ENDROOT
BRANCH   3   6
HETATM    6  C5  UNL     1     -33.786  14.395  -3.705  1.00 20.00     0.441 C 
HETATM    7  F7  UNL     1     -33.938  15.248  -2.642  1.00 20.00    -0.164 F 
HETATM    8  F8  UNL     1     -34.566  13.312  -3.391  1.00 20.00    -0.164 F 
HETATM    9  F9  UNL     1     -32.497  13.942  -3.617  1.00 20.00    -0.164 F 
ENDBRANCH   3   6
BRANCH   2  10
HETATM   10  C4  UNL     1     -34.482  17.717  -7.731  1.00 20.00     0.162 C 
HETATM   11 CL11 UNL     1     -33.636  19.111  -7.011  1.00 20.00    -0.125 Cl
ENDBRANCH   2  10
TORSDOF 2
ENDMDL
