MODEL 1
REMARK VINA RESULT:      -4.2      0.000      0.000
REMARK  3 active torsions:
REMARK  status: ('A' for Active; 'I' for Inactive)
REMARK    1  A    between atoms: C2_2  and  N9_9 
REMARK    2  A    between atoms: C3_3  and  C8_8 
REMARK    3  A    between atoms: C7_7  and  C8_8 
ROOT
HETATM    1  C3  UNL     1     -33.272   5.710   4.284  1.00 20.00     0.099 C 
HETATM    2  N9  UNL     1     -33.249   6.574   3.323  1.00 20.00    -0.277 NA
ENDROOT
BRANCH   1   3
HETATM    3  C8  UNL     1     -34.581   5.203   4.885  1.00 20.00    -0.001 C 
HETATM    4  C5  UNL     1     -35.713   5.767   4.010  1.00 20.00     0.021 C 
HETATM    5  C6  UNL     1     -34.671   3.670   4.877  1.00 20.00     0.021 C 
BRANCH   3   6
HETATM    6  C7  UNL     1     -34.729   5.775   6.309  1.00 20.00     0.129 C 
HETATM    7 CL10 UNL     1     -33.573   7.086   6.667  1.00 20.00    -0.129 Cl
ENDBRANCH   3   6
ENDBRANCH   1   3
BRANCH   2   8
HETATM    8  C2  UNL     1     -32.010   6.933   2.890  1.00 20.00     0.111 C 
HETATM    9  C1  UNL     1     -31.765   8.061   2.210  1.00 20.00    -0.012 C 
HETATM   10  C4  UNL     1     -32.816   9.056   1.846  1.00 20.00     0.037 C 
ENDBRANCH   2   8
TORSDOF 3
ENDMDL
MODEL 2
REMARK VINA RESULT:      -4.1     11.635     12.468
REMARK  3 active torsions:
REMARK  status: ('A' for Active; 'I' for Inactive)
REMARK    1  A    between atoms: C2_2  and  N9_9 
REMARK    2  A    between atoms: C3_3  and  C8_8 
REMARK    3  A    between atoms: C7_7  and  C8_8 
ROOT
HETATM    1  C3  UNL     1     -34.792  15.549  -2.623  1.00 20.00     0.099 C 
HETATM    2  N9  UNL     1     -34.067  16.282  -1.843  1.00 20.00    -0.277 NA
ENDROOT
BRANCH   1   3
HETATM    3  C8  UNL     1     -34.222  14.900  -3.882  1.00 20.00    -0.001 C 
HETATM    4  C5  UNL     1     -32.701  14.804  -3.676  1.00 20.00     0.021 C 
HETATM    5  C6  UNL     1     -34.778  13.486  -4.111  1.00 20.00     0.021 C 
BRANCH   3   6
HETATM    6  C7  UNL     1     -34.498  15.822  -5.086  1.00 20.00     0.129 C 
HETATM    7 CL10 UNL     1     -34.352  14.991  -6.659  1.00 20.00    -0.129 Cl
ENDBRANCH   3   6
ENDBRANCH   1   3
BRANCH   2   8
HETATM    8  C2  UNL     1     -34.712  16.795  -0.759  1.00 20.00     0.111 C 
HETATM    9  C1  UNL     1     -34.220  17.793  -0.013  1.00 20.00    -0.012 C 
HETATM   10  C4  UNL     1     -32.911  18.459  -0.278  1.00 20.00     0.037 C 
ENDBRANCH   2   8
TORSDOF 3
ENDMDL
MODEL 3
REMARK VINA RESULT:      -4.0     11.805     12.915
REMARK  3 active torsions:
REMARK  status: ('A' for Active; 'I' for Inactive)
REMARK    1  A    between atoms: C2_2  and  N9_9 
REMARK    2  A    between atoms: C3_3  and  C8_8 
REMARK    3  A    between atoms: C7_7  and  C8_8 
ROOT
HETATM    1  C3  UNL     1     -34.114  15.921  -4.753  1.00 20.00     0.099 C 
HETATM    2  N9  UNL     1     -34.753  16.676  -3.920  1.00 20.00    -0.277 NA
ENDROOT
BRANCH   1   3
HETATM    3  C8  UNL     1     -34.827  14.882  -5.615  1.00 20.00    -0.001 C 
HETATM    4  C5  UNL     1     -36.333  15.169  -5.490  1.00 20.00     0.021 C 
HETATM    5  C6  UNL     1     -34.429  14.978  -7.095  1.00 20.00     0.021 C 
BRANCH   3   6
HETATM    6  C7  UNL     1     -34.545  13.479  -5.039  1.00 20.00     0.129 C 
HETATM    7 CL10 UNL     1     -33.298  13.478  -3.763  1.00 20.00    -0.129 Cl
ENDBRANCH   3   6
ENDBRANCH   1   3
BRANCH   2   8
HETATM    8  C2  UNL     1     -33.984  17.554  -3.221  1.00 20.00     0.111 C 
HETATM    9  C1  UNL     1     -33.872  17.535  -1.887  1.00 20.00    -0.012 C 
HETATM   10  C4  UNL     1     -34.576  16.553  -1.009  1.00 20.00     0.037 C 
ENDBRANCH   2   8
TORSDOF 3
ENDMDL
MODEL 4
REMARK VINA RESULT:      -3.8     11.645     12.703
REMARK  3 active torsions:
REMARK  status: ('A' for Active; 'I' for Inactive)
REMARK    1  A    between atoms: C2_2  and  N9_9 
REMARK    2  A    between atoms: C3_3  and  C8_8 
REMARK    3  A    between atoms: C7_7  and  C8_8 
ROOT
HETATM    1  C3  UNL     1     -34.826  15.846  -2.919  1.00 20.00     0.099 C 
HETATM    2  N9  UNL     1     -34.087  16.089  -1.886  1.00 20.00    -0.277 NA
ENDROOT
BRANCH   1   3
HETATM    3  C8  UNL     1     -34.256  15.235  -4.197  1.00 20.00    -0.001 C 
HETATM    4  C5  UNL     1     -33.648  13.879  -3.801  1.00 20.00     0.021 C 
HETATM    5  C6  UNL     1     -35.336  14.998  -5.262  1.00 20.00     0.021 C 
BRANCH   3   6
HETATM    6  C7  UNL     1     -33.128  16.145  -4.723  1.00 20.00     0.129 C 
HETATM    7 CL10 UNL     1     -33.599  17.863  -4.829  1.00 20.00    -0.129 Cl
ENDBRANCH   3   6
ENDBRANCH   1   3
BRANCH   2   8
HETATM    8  C2  UNL     1     -34.735  16.634  -0.820  1.00 20.00     0.111 C 
HETATM    9  C1  UNL     1     -34.270  17.688  -0.137  1.00 20.00    -0.012 C 
HETATM   10  C4  UNL     1     -32.992  18.388  -0.460  1.00 20.00     0.037 C 
ENDBRANCH   2   8
TORSDOF 3
ENDMDL
MODEL 5
REMARK VINA RESULT:      -3.8     11.708     12.642
REMARK  3 active torsions:
REMARK  status: ('A' for Active; 'I' for Inactive)
REMARK    1  A    between atoms: C2_2  and  N9_9 
REMARK    2  A    between atoms: C3_3  and  C8_8 
REMARK    3  A    between atoms: C7_7  and  C8_8 
ROOT
HETATM    1  C3  UNL     1     -34.546  15.699  -4.029  1.00 20.00     0.099 C 
HETATM    2  N9  UNL     1     -34.381  15.799  -2.751  1.00 20.00    -0.277 NA
ENDROOT
BRANCH   1   3
HETATM    3  C8  UNL     1     -35.351  14.562  -4.654  1.00 20.00    -0.001 C 
HETATM    4  C5  UNL     1     -34.592  13.262  -4.337  1.00 20.00     0.021 C 
HETATM    5  C6  UNL     1     -36.768  14.459  -4.070  1.00 20.00     0.021 C 
BRANCH   3   6
HETATM    6  C7  UNL     1     -35.378  14.754  -6.184  1.00 20.00     0.129 C 
HETATM    7 CL10 UNL     1     -34.044  15.771  -6.791  1.00 20.00    -0.129 Cl
ENDBRANCH   3   6
ENDBRANCH   1   3
BRANCH   2   8
HETATM    8  C2  UNL     1     -33.640  16.865  -2.340  1.00 20.00     0.111 C 
HETATM    9  C1  UNL     1     -33.794  17.452  -1.147  1.00 20.00    -0.012 C 
HETATM   10  C4  UNL     1     -34.793  17.013  -0.128  1.00 20.00     0.037 C 
ENDBRANCH   2   8
TORSDOF 3
ENDMDL
MODEL 6
REMARK VINA RESULT:      -3.8     11.389     12.442
REMARK  3 active torsions:
REMARK  status: ('A' for Active; 'I' for Inactive)
REMARK    1  A    between atoms: C2_2  and  N9_9 
REMARK    2  A    between atoms: C3_3  and  C8_8 
REMARK    3  A    between atoms: C7_7  and  C8_8 
ROOT
HETATM    1  C3  UNL     1     -35.061  16.440  -2.495  1.00 20.00     0.099 C 
HETATM    2  N9  UNL     1     -34.287  16.368  -1.462  1.00 20.00    -0.277 NA
ENDROOT
BRANCH   1   3
HETATM    3  C8  UNL     1     -34.690  15.797  -3.829  1.00 20.00    -0.001 C 
HETATM    4  C5  UNL     1     -35.784  16.204  -4.831  1.00 20.00     0.021 C 
HETATM    5  C6  UNL     1     -33.333  16.286  -4.356  1.00 20.00     0.021 C 
BRANCH   3   6
HETATM    6  C7  UNL     1     -34.718  14.263  -3.668  1.00 20.00     0.129 C 
HETATM    7 CL10 UNL     1     -33.096  13.521  -3.699  1.00 20.00    -0.129 Cl
ENDBRANCH   3   6
ENDBRANCH   1   3
BRANCH   2   8
HETATM    8  C2  UNL     1     -34.750  16.990  -0.342  1.00 20.00     0.111 C 
HETATM    9  C1  UNL     1     -34.107  17.999   0.258  1.00 20.00    -0.012 C 
HETATM   10  C4  UNL     1     -32.810  18.560  -0.223  1.00 20.00     0.037 C 
ENDBRANCH   2   8
TORSDOF 3
ENDMDL
MODEL 7
REMARK VINA RESULT:      -3.7     11.854     12.871
REMARK  3 active torsions:
REMARK  status: ('A' for Active; 'I' for Inactive)
REMARK    1  A    between atoms: C2_2  and  N9_9 
REMARK    2  A    between atoms: C3_3  and  C8_8 
REMARK    3  A    between atoms: C7_7  and  C8_8 
ROOT
HETATM    1  C3  UNL     1     -34.138  15.725  -4.446  1.00 20.00     0.099 C 
HETATM    2  N9  UNL     1     -34.670  16.750  -3.866  1.00 20.00    -0.277 NA
ENDROOT
BRANCH   1   3
HETATM    3  C8  UNL     1     -34.952  14.782  -5.329  1.00 20.00    -0.001 C 
HETATM    4  C5  UNL     1     -34.420  14.954  -6.761  1.00 20.00     0.021 C 
HETATM    5  C6  UNL     1     -34.789  13.311  -4.916  1.00 20.00     0.021 C 
BRANCH   3   6
HETATM    6  C7  UNL     1     -36.430  15.222  -5.297  1.00 20.00     0.129 C 
HETATM    7 CL10 UNL     1     -37.347  14.518  -3.938  1.00 20.00    -0.129 Cl
ENDBRANCH   3   6
ENDBRANCH   1   3
BRANCH   2   8
HETATM    8  C2  UNL     1     -33.821  17.499  -3.110  1.00 20.00     0.111 C 
HETATM    9  C1  UNL     1     -33.777  17.439  -1.773  1.00 20.00    -0.012 C 
HETATM   10  C4  UNL     1     -34.651  16.549  -0.953  1.00 20.00     0.037 C 
ENDBRANCH   2   8
TORSDOF 3
ENDMDL
MODEL 8
REMARK VINA RESULT:      -3.7      1.365      1.868
REMARK  3 active torsions:
REMARK  status: ('A' for Active; 'I' for Inactive)
REMARK    1  A    between atoms: C2_2  and  N9_9 
REMARK    2  A    between atoms: C3_3  and  C8_8 
REMARK    3  A    between atoms: C7_7  and  C8_8 
ROOT
HETATM    1  C3  UNL     1     -33.281   6.045   3.331  1.00 20.00     0.099 C 
HETATM    2  N9  UNL     1     -32.896   7.265   3.151  1.00 20.00    -0.277 NA
ENDROOT
BRANCH   1   3
HETATM    3  C8  UNL     1     -34.417   5.686   4.285  1.00 20.00    -0.001 C 
HETATM    4  C5  UNL     1     -34.253   6.588   5.520  1.00 20.00     0.021 C 
HETATM    5  C6  UNL     1     -35.800   5.943   3.668  1.00 20.00     0.021 C 
BRANCH   3   6
HETATM    6  C7  UNL     1     -34.254   4.217   4.724  1.00 20.00     0.129 C 
HETATM    7 CL10 UNL     1     -35.010   3.864   6.301  1.00 20.00    -0.129 Cl
ENDBRANCH   3   6
ENDBRANCH   1   3
BRANCH   2   8
HETATM    8  C2  UNL     1     -31.871   7.431   2.271  1.00 20.00     0.111 C 
HETATM    9  C1  UNL     1     -31.711   8.531   1.525  1.00 20.00    -0.012 C 
HETATM   10  C4  UNL     1     -32.635   9.704   1.567  1.00 20.00     0.037 C 
ENDBRANCH   2   8
TORSDOF 3
ENDMDL
MODEL 9
REMARK VINA RESULT:      -3.6      9.771     11.208
REMARK  3 active torsions:
REMARK  status: ('A' for Active; 'I' for Inactive)
REMARK    1  A    between atoms: C2_2  and  N9_9 
REMARK    2  A    between atoms: C3_3  and  C8_8 
REMARK    3  A    between atoms: C7_7  and  C8_8 
ROOT
HETATM    1  C3  UNL     1     -41.289   4.142  -1.932  1.00 20.00     0.099 C 
HETATM    2  N9  UNL     1     -41.974   3.472  -2.800  1.00 20.00    -0.277 NA
ENDROOT
BRANCH   1   3
HETATM    3  C8  UNL     1     -41.810   5.437  -1.314  1.00 20.00    -0.001 C 
HETATM    4  C5  UNL     1     -40.777   5.864  -0.257  1.00 20.00     0.021 C 
HETATM    5  C6  UNL     1     -41.949   6.563  -2.349  1.00 20.00     0.021 C 
BRANCH   3   6
HETATM    6  C7  UNL     1     -43.147   5.147  -0.604  1.00 20.00     0.129 C 
HETATM    7 CL10 UNL     1     -43.147   5.610   1.119  1.00 20.00    -0.129 Cl
ENDBRANCH   3   6
ENDBRANCH   1   3
BRANCH   2   8
HETATM    8  C2  UNL     1     -41.381   2.338  -3.263  1.00 20.00     0.111 C 
HETATM    9  C1  UNL     1     -41.863   1.620  -4.285  1.00 20.00    -0.012 C 
HETATM   10  C4  UNL     1     -43.104   1.974  -5.036  1.00 20.00     0.037 C 
ENDBRANCH   2   8
TORSDOF 3
ENDMDL
