MODEL 1
REMARK VINA RESULT:      -3.4      0.000      0.000
REMARK  0 active torsions:
REMARK  status: ('A' for Active; 'I' for Inactive)
ROOT
HETATM    1  C1  UNL     1     -34.085  17.396  -3.493  1.00 20.00     0.282 C 
HETATM    2  C2  UNL     1     -34.591  15.053  -3.059  1.00 20.00     0.286 C 
HETATM    3  C3  UNL     1     -33.425  17.155  -4.848  1.00 20.00     0.104 C 
HETATM    4  C4  UNL     1     -33.993  14.518  -4.368  1.00 20.00     0.071 C 
HETATM    5  C5  UNL     1     -34.684  13.225  -4.795  1.00 20.00     0.023 C 
HETATM    6  C6  UNL     1     -34.406  16.618  -1.241  1.00 20.00     0.310 C 
HETATM    7  N7  UNL     1     -33.909  16.263  -2.573  1.00 20.00     0.086 N 
HETATM    8  S8  UNL     1     -34.164  15.743  -5.708  1.00 20.00    -0.161 SA
ENDROOT
TORSDOF 0
ENDMDL
MODEL 2
REMARK VINA RESULT:      -3.2      2.366      4.092
REMARK  0 active torsions:
REMARK  status: ('A' for Active; 'I' for Inactive)
ROOT
HETATM    1  C1  UNL     1     -34.772  13.810  -5.230  1.00 20.00     0.282 C 
HETATM    2  C2  UNL     1     -34.516  16.094  -6.038  1.00 20.00     0.286 C 
HETATM    3  C3  UNL     1     -33.728  13.927  -4.123  1.00 20.00     0.104 C 
HETATM    4  C4  UNL     1     -33.435  16.498  -5.026  1.00 20.00     0.071 C 
HETATM    5  C5  UNL     1     -33.480  17.999  -4.750  1.00 20.00     0.023 C 
HETATM    6  C6  UNL     1     -35.399  14.382  -7.480  1.00 20.00     0.310 C 
HETATM    7  N7  UNL     1     -34.465  14.665  -6.386  1.00 20.00     0.086 N 
HETATM    8  S8  UNL     1     -33.656  15.607  -3.450  1.00 20.00    -0.161 SA
ENDROOT
TORSDOF 0
ENDMDL
MODEL 3
REMARK VINA RESULT:      -3.2      1.620      3.145
REMARK  0 active torsions:
REMARK  status: ('A' for Active; 'I' for Inactive)
ROOT
HETATM    1  C1  UNL     1     -34.111  15.581  -5.446  1.00 20.00     0.282 C 
HETATM    2  C2  UNL     1     -34.525  14.944  -3.131  1.00 20.00     0.286 C 
HETATM    3  C3  UNL     1     -34.426  17.061  -5.251  1.00 20.00     0.104 C 
HETATM    4  C4  UNL     1     -34.893  16.353  -2.644  1.00 20.00     0.071 C 
HETATM    5  C5  UNL     1     -34.570  16.519  -1.162  1.00 20.00     0.023 C 
HETATM    6  C6  UNL     1     -34.671  13.310  -4.890  1.00 20.00     0.310 C 
HETATM    7  N7  UNL     1     -34.883  14.716  -4.541  1.00 20.00     0.086 N 
HETATM    8  S8  UNL     1     -33.984  17.623  -3.586  1.00 20.00    -0.161 SA
ENDROOT
TORSDOF 0
ENDMDL
MODEL 4
REMARK VINA RESULT:      -3.2      1.765      2.305
REMARK  0 active torsions:
REMARK  status: ('A' for Active; 'I' for Inactive)
ROOT
HETATM    1  C1  UNL     1     -33.333  15.197  -3.396  1.00 20.00     0.282 C 
HETATM    2  C2  UNL     1     -35.661  15.867  -3.135  1.00 20.00     0.286 C 
HETATM    3  C3  UNL     1     -33.640  13.825  -3.990  1.00 20.00     0.104 C 
HETATM    4  C4  UNL     1     -36.261  14.572  -3.702  1.00 20.00     0.071 C 
HETATM    5  C5  UNL     1     -37.627  14.834  -4.330  1.00 20.00     0.023 C 
HETATM    6  C6  UNL     1     -33.942  16.881  -1.792  1.00 20.00     0.310 C 
HETATM    7  N7  UNL     1     -34.372  15.650  -2.459  1.00 20.00     0.086 N 
HETATM    8  S8  UNL     1     -35.165  13.848  -4.967  1.00 20.00    -0.161 SA
ENDROOT
TORSDOF 0
ENDMDL
MODEL 5
REMARK VINA RESULT:      -3.1      1.615      3.229
REMARK  0 active torsions:
REMARK  status: ('A' for Active; 'I' for Inactive)
ROOT
HETATM    1  C1  UNL     1     -34.238  16.269  -5.610  1.00 20.00     0.282 C 
HETATM    2  C2  UNL     1     -34.135  17.471  -3.494  1.00 20.00     0.286 C 
HETATM    3  C3  UNL     1     -34.109  14.878  -4.996  1.00 20.00     0.104 C 
HETATM    4  C4  UNL     1     -33.994  16.223  -2.611  1.00 20.00     0.071 C 
HETATM    5  C5  UNL     1     -34.565  16.473  -1.217  1.00 20.00     0.023 C 
HETATM    6  C6  UNL     1     -33.546  18.571  -5.551  1.00 20.00     0.310 C 
HETATM    7  N7  UNL     1     -33.536  17.297  -4.827  1.00 20.00     0.086 N 
HETATM    8  S8  UNL     1     -34.866  14.802  -3.352  1.00 20.00    -0.161 SA
ENDROOT
TORSDOF 0
ENDMDL
MODEL 6
REMARK VINA RESULT:      -3.1      1.690      3.218
REMARK  0 active torsions:
REMARK  status: ('A' for Active; 'I' for Inactive)
ROOT
HETATM    1  C1  UNL     1     -33.456  16.311  -4.702  1.00 20.00     0.282 C 
HETATM    2  C2  UNL     1     -34.264  15.489  -2.557  1.00 20.00     0.286 C 
HETATM    3  C3  UNL     1     -33.883  17.758  -4.477  1.00 20.00     0.104 C 
HETATM    4  C4  UNL     1     -34.793  16.841  -2.059  1.00 20.00     0.071 C 
HETATM    5  C5  UNL     1     -34.766  16.911  -0.535  1.00 20.00     0.023 C 
HETATM    6  C6  UNL     1     -33.986  13.983  -4.413  1.00 20.00     0.310 C 
HETATM    7  N7  UNL     1     -34.336  15.351  -4.020  1.00 20.00     0.086 N 
HETATM    8  S8  UNL     1     -33.794  18.214  -2.725  1.00 20.00    -0.161 SA
ENDROOT
TORSDOF 0
ENDMDL
MODEL 7
REMARK VINA RESULT:      -3.1     12.165     13.231
REMARK  0 active torsions:
REMARK  status: ('A' for Active; 'I' for Inactive)
ROOT
HETATM    1  C1  UNL     1     -41.601   4.648  -0.833  1.00 20.00     0.282 C 
HETATM    2  C2  UNL     1     -42.681   5.551  -2.821  1.00 20.00     0.286 C 
HETATM    3  C3  UNL     1     -40.817   5.915  -0.503  1.00 20.00     0.104 C 
HETATM    4  C4  UNL     1     -42.030   6.939  -2.737  1.00 20.00     0.071 C 
HETATM    5  C5  UNL     1     -42.923   7.999  -3.376  1.00 20.00     0.023 C 
HETATM    6  C6  UNL     1     -42.423   3.175  -2.547  1.00 20.00     0.310 C 
HETATM    7  N7  UNL     1     -41.825   4.485  -2.278  1.00 20.00     0.086 N 
HETATM    8  S8  UNL     1     -41.718   7.405  -1.002  1.00 20.00    -0.161 SA
ENDROOT
TORSDOF 0
ENDMDL
MODEL 8
REMARK VINA RESULT:      -3.1      2.357      2.977
REMARK  0 active torsions:
REMARK  status: ('A' for Active; 'I' for Inactive)
ROOT
HETATM    1  C1  UNL     1     -35.907  15.521  -3.057  1.00 20.00     0.282 C 
HETATM    2  C2  UNL     1     -36.204  14.999  -5.418  1.00 20.00     0.286 C 
HETATM    3  C3  UNL     1     -34.396  15.312  -3.049  1.00 20.00     0.104 C 
HETATM    4  C4  UNL     1     -34.721  14.725  -5.706  1.00 20.00     0.071 C 
HETATM    5  C5  UNL     1     -34.385  15.020  -7.166  1.00 20.00     0.023 C 
HETATM    6  C6  UNL     1     -38.041  14.779  -3.880  1.00 20.00     0.310 C 
HETATM    7  N7  UNL     1     -36.589  14.663  -4.038  1.00 20.00     0.086 N 
HETATM    8  S8  UNL     1     -33.653  15.751  -4.642  1.00 20.00    -0.161 SA
ENDROOT
TORSDOF 0
ENDMDL
MODEL 9
REMARK VINA RESULT:      -3.1      2.212      3.809
REMARK  0 active torsions:
REMARK  status: ('A' for Active; 'I' for Inactive)
ROOT
HETATM    1  C1  UNL     1     -35.031  14.391  -6.252  1.00 20.00     0.282 C 
HETATM    2  C2  UNL     1     -34.247  16.327  -4.999  1.00 20.00     0.286 C 
HETATM    3  C3  UNL     1     -34.553  13.356  -5.237  1.00 20.00     0.104 C 
HETATM    4  C4  UNL     1     -33.670  15.529  -3.821  1.00 20.00     0.071 C 
HETATM    5  C5  UNL     1     -33.692  16.357  -2.538  1.00 20.00     0.023 C 
HETATM    6  C6  UNL     1     -34.581  16.468  -7.377  1.00 20.00     0.310 C 
HETATM    7  N7  UNL     1     -34.183  15.592  -6.272  1.00 20.00     0.086 N 
HETATM    8  S8  UNL     1     -34.623  13.999  -3.545  1.00 20.00    -0.161 SA
ENDROOT
TORSDOF 0
ENDMDL
