MODEL 1
REMARK VINA RESULT:      -3.4      0.000      0.000
REMARK  0 active torsions:
REMARK  status: ('A' for Active; 'I' for Inactive)
ROOT
HETATM    1  C1  UNL     1     -33.700  16.820  -3.356  1.00 20.00     0.282 C 
HETATM    2  C2  UNL     1     -35.721  15.498  -3.082  1.00 20.00     0.286 C 
HETATM    3  C3  UNL     1     -33.295  16.204  -4.692  1.00 20.00     0.104 C 
HETATM    4  C4  UNL     1     -35.597  14.705  -4.391  1.00 20.00     0.071 C 
HETATM    5  C5  UNL     1     -34.913  13.351  -4.203  1.00 20.00     0.023 C 
HETATM    6  C6  UNL     1     -34.635  16.470  -1.168  1.00 20.00     0.310 C 
HETATM    7  N7  UNL     1     -34.428  15.879  -2.492  1.00 20.00     0.086 N 
HETATM    8  S8  UNL     1     -34.738  15.690  -5.667  1.00 20.00    -0.161 SA
ENDROOT
TORSDOF 0
ENDMDL
MODEL 2
REMARK VINA RESULT:      -3.2      1.847      2.825
REMARK  0 active torsions:
REMARK  status: ('A' for Active; 'I' for Inactive)
ROOT
HETATM    1  C1  UNL     1     -33.140  16.339  -4.757  1.00 20.00     0.282 C 
HETATM    2  C2  UNL     1     -35.099  17.274  -3.662  1.00 20.00     0.286 C 
HETATM    3  C3  UNL     1     -33.059  15.090  -3.883  1.00 20.00     0.104 C 
HETATM    4  C4  UNL     1     -35.292  16.143  -2.641  1.00 20.00     0.071 C 
HETATM    5  C5  UNL     1     -34.631  16.438  -1.294  1.00 20.00     0.023 C 
HETATM    6  C6  UNL     1     -33.586  18.700  -4.873  1.00 20.00     0.310 C 
HETATM    7  N7  UNL     1     -33.695  17.499  -4.042  1.00 20.00     0.086 N 
HETATM    8  S8  UNL     1     -34.697  14.553  -3.314  1.00 20.00    -0.161 SA
ENDROOT
TORSDOF 0
ENDMDL
MODEL 3
REMARK VINA RESULT:      -3.2      1.701      3.108
REMARK  0 active torsions:
REMARK  status: ('A' for Active; 'I' for Inactive)
ROOT
HETATM    1  C1  UNL     1     -35.190  15.579  -5.216  1.00 20.00     0.282 C 
HETATM    2  C2  UNL     1     -33.620  14.961  -3.466  1.00 20.00     0.286 C 
HETATM    3  C3  UNL     1     -35.467  16.982  -4.683  1.00 20.00     0.104 C 
HETATM    4  C4  UNL     1     -33.676  16.289  -2.696  1.00 20.00     0.071 C 
HETATM    5  C5  UNL     1     -34.679  16.264  -1.543  1.00 20.00     0.023 C 
HETATM    6  C6  UNL     1     -34.792  13.263  -4.704  1.00 20.00     0.310 C 
HETATM    7  N7  UNL     1     -34.877  14.616  -4.150  1.00 20.00     0.086 N 
HETATM    8  S8  UNL     1     -34.027  17.679  -3.826  1.00 20.00    -0.161 SA
ENDROOT
TORSDOF 0
ENDMDL
MODEL 4
REMARK VINA RESULT:      -3.2      2.101      3.097
REMARK  0 active torsions:
REMARK  status: ('A' for Active; 'I' for Inactive)
ROOT
HETATM    1  C1  UNL     1     -33.313  16.318  -5.183  1.00 20.00     0.282 C 
HETATM    2  C2  UNL     1     -34.743  14.623  -6.178  1.00 20.00     0.286 C 
HETATM    3  C3  UNL     1     -33.351  15.739  -3.772  1.00 20.00     0.104 C 
HETATM    4  C4  UNL     1     -34.969  13.804  -4.899  1.00 20.00     0.071 C 
HETATM    5  C5  UNL     1     -36.254  14.188  -4.167  1.00 20.00     0.023 C 
HETATM    6  C6  UNL     1     -34.520  16.785  -7.211  1.00 20.00     0.310 C 
HETATM    7  N7  UNL     1     -34.549  16.061  -5.937  1.00 20.00     0.086 N 
HETATM    8  S8  UNL     1     -33.529  13.933  -3.784  1.00 20.00    -0.161 SA
ENDROOT
TORSDOF 0
ENDMDL
MODEL 5
REMARK VINA RESULT:      -3.1      2.130      3.282
REMARK  0 active torsions:
REMARK  status: ('A' for Active; 'I' for Inactive)
ROOT
HETATM    1  C1  UNL     1     -35.669  16.730  -4.775  1.00 20.00     0.282 C 
HETATM    2  C2  UNL     1     -33.298  16.194  -4.825  1.00 20.00     0.286 C 
HETATM    3  C3  UNL     1     -35.967  15.979  -3.480  1.00 20.00     0.104 C 
HETATM    4  C4  UNL     1     -33.271  15.374  -3.527  1.00 20.00     0.071 C 
HETATM    5  C5  UNL     1     -33.422  13.872  -3.769  1.00 20.00     0.023 C 
HETATM    6  C6  UNL     1     -34.456  16.779  -6.852  1.00 20.00     0.310 C 
HETATM    7  N7  UNL     1     -34.577  16.120  -5.549  1.00 20.00     0.086 N 
HETATM    8  S8  UNL     1     -34.541  15.969  -2.358  1.00 20.00    -0.161 SA
ENDROOT
TORSDOF 0
ENDMDL
MODEL 6
REMARK VINA RESULT:      -3.1      2.333      3.816
REMARK  0 active torsions:
REMARK  status: ('A' for Active; 'I' for Inactive)
ROOT
HETATM    1  C1  UNL     1     -34.760  13.541  -5.300  1.00 20.00     0.282 C 
HETATM    2  C2  UNL     1     -35.470  15.839  -5.654  1.00 20.00     0.286 C 
HETATM    3  C3  UNL     1     -33.953  13.824  -4.035  1.00 20.00     0.104 C 
HETATM    4  C4  UNL     1     -34.764  16.436  -4.427  1.00 20.00     0.071 C 
HETATM    5  C5  UNL     1     -33.386  17.011  -4.756  1.00 20.00     0.023 C 
HETATM    6  C6  UNL     1     -35.414  14.286  -7.491  1.00 20.00     0.310 C 
HETATM    7  N7  UNL     1     -34.775  14.678  -6.232  1.00 20.00     0.086 N 
HETATM    8  S8  UNL     1     -34.646  15.206  -3.083  1.00 20.00    -0.161 SA
ENDROOT
TORSDOF 0
ENDMDL
MODEL 7
REMARK VINA RESULT:      -3.1      2.353      3.712
REMARK  0 active torsions:
REMARK  status: ('A' for Active; 'I' for Inactive)
ROOT
HETATM    1  C1  UNL     1     -36.585  14.960  -5.338  1.00 20.00     0.282 C 
HETATM    2  C2  UNL     1     -34.189  15.266  -5.607  1.00 20.00     0.286 C 
HETATM    3  C3  UNL     1     -36.544  14.763  -3.825  1.00 20.00     0.104 C 
HETATM    4  C4  UNL     1     -33.821  15.120  -4.123  1.00 20.00     0.071 C 
HETATM    5  C5  UNL     1     -33.406  13.696  -3.752  1.00 20.00     0.023 C 
HETATM    6  C6  UNL     1     -35.538  14.538  -7.461  1.00 20.00     0.310 C 
HETATM    7  N7  UNL     1     -35.367  14.481  -6.008  1.00 20.00     0.086 N 
HETATM    8  S8  UNL     1     -35.188  15.691  -3.056  1.00 20.00    -0.161 SA
ENDROOT
TORSDOF 0
ENDMDL
MODEL 8
REMARK VINA RESULT:      -3.1      1.920      2.310
REMARK  0 active torsions:
REMARK  status: ('A' for Active; 'I' for Inactive)
ROOT
HETATM    1  C1  UNL     1     -33.124  15.501  -4.087  1.00 20.00     0.282 C 
HETATM    2  C2  UNL     1     -35.172  16.060  -5.272  1.00 20.00     0.286 C 
HETATM    3  C3  UNL     1     -33.576  14.109  -3.652  1.00 20.00     0.104 C 
HETATM    4  C4  UNL     1     -35.902  14.736  -5.005  1.00 20.00     0.071 C 
HETATM    5  C5  UNL     1     -36.817  14.797  -3.782  1.00 20.00     0.023 C 
HETATM    6  C6  UNL     1     -33.727  17.801  -4.452  1.00 20.00     0.310 C 
HETATM    7  N7  UNL     1     -34.240  16.452  -4.202  1.00 20.00     0.086 N 
HETATM    8  S8  UNL     1     -34.713  13.359  -4.852  1.00 20.00    -0.161 SA
ENDROOT
TORSDOF 0
ENDMDL
MODEL 9
REMARK VINA RESULT:      -3.1      1.037      2.460
REMARK  0 active torsions:
REMARK  status: ('A' for Active; 'I' for Inactive)
ROOT
HETATM    1  C1  UNL     1     -35.803  15.443  -3.143  1.00 20.00     0.282 C 
HETATM    2  C2  UNL     1     -33.436  15.983  -3.268  1.00 20.00     0.286 C 
HETATM    3  C3  UNL     1     -36.044  15.466  -4.650  1.00 20.00     0.104 C 
HETATM    4  C4  UNL     1     -33.352  16.071  -4.799  1.00 20.00     0.071 C 
HETATM    5  C5  UNL     1     -33.512  17.499  -5.321  1.00 20.00     0.023 C 
HETATM    6  C6  UNL     1     -34.682  16.431  -1.258  1.00 20.00     0.310 C 
HETATM    7  N7  UNL     1     -34.745  16.373  -2.721  1.00 20.00     0.086 N 
HETATM    8  S8  UNL     1     -34.570  14.958  -5.581  1.00 20.00    -0.161 SA
ENDROOT
TORSDOF 0
ENDMDL
