MODEL 1
REMARK VINA RESULT:      -3.7      0.000      0.000
REMARK  2 active torsions:
REMARK  status: ('A' for Active; 'I' for Inactive)
REMARK    1  A    between atoms: C1_1  and  C3_3 
REMARK    2  A    between atoms: C2_2  and  N9_9 
ROOT
HETATM    1  C1  UNL     1     -34.886  15.364  -2.940  1.00 20.00     0.050 C 
HETATM    2  C2  UNL     1     -34.028  14.470  -3.465  1.00 20.00     0.002 C 
HETATM    3  C4  UNL     1     -32.555  14.788  -3.483  1.00 20.00     0.068 C 
ENDROOT
BRANCH   1   4
HETATM    4  C3  UNL     1     -34.447  16.672  -2.368  1.00 20.00     0.026 C 
HETATM    5  C5  UNL     1     -34.417  16.747  -0.858  1.00 20.00     0.070 C 
HETATM    6  N8  UNL     1     -34.092  17.641  -3.146  1.00 20.00    -0.299 NA
HETATM    7  C6  UNL     1     -33.655  18.893  -2.548  1.00 20.00     0.177 C 
ENDBRANCH   1   4
BRANCH   2   8
HETATM    8  N9  UNL     1     -34.361  13.254  -3.993  1.00 20.00    -0.398 N 
HETATM    9  C7  UNL     1     -34.889  13.156  -5.324  1.00 20.00     0.146 C 
HETATM   10  H23 UNL     1     -34.218  12.463  -3.414  1.00 20.00     0.158 HD
ENDBRANCH   2   8
TORSDOF 2
ENDMDL
MODEL 2
REMARK VINA RESULT:      -3.6     11.815     13.617
REMARK  2 active torsions:
REMARK  status: ('A' for Active; 'I' for Inactive)
REMARK    1  A    between atoms: C1_1  and  C3_3 
REMARK    2  A    between atoms: C2_2  and  N9_9 
ROOT
HETATM    1  C1  UNL     1     -40.961   4.114  -1.638  1.00 20.00     0.050 C 
HETATM    2  C2  UNL     1     -41.722   3.468  -2.541  1.00 20.00     0.002 C 
HETATM    3  C4  UNL     1     -43.020   4.089  -2.986  1.00 20.00     0.068 C 
ENDROOT
BRANCH   1   4
HETATM    4  C3  UNL     1     -41.344   5.431  -1.048  1.00 20.00     0.026 C 
HETATM    5  C5  UNL     1     -42.061   5.366   0.282  1.00 20.00     0.070 C 
HETATM    6  N8  UNL     1     -41.035   6.533  -1.649  1.00 20.00    -0.299 NA
HETATM    7  C6  UNL     1     -41.412   7.794  -1.030  1.00 20.00     0.177 C 
ENDBRANCH   1   4
BRANCH   2   8
HETATM    8  N9  UNL     1     -41.426   2.269  -3.128  1.00 20.00    -0.398 N 
HETATM    9  C7  UNL     1     -42.438   1.264  -3.284  1.00 20.00     0.146 C 
HETATM   10  H23 UNL     1     -40.491   2.141  -3.432  1.00 20.00     0.158 HD
ENDBRANCH   2   8
TORSDOF 2
ENDMDL
MODEL 3
REMARK VINA RESULT:      -3.6      1.871      4.171
REMARK  2 active torsions:
REMARK  status: ('A' for Active; 'I' for Inactive)
REMARK    1  A    between atoms: C1_1  and  C3_3 
REMARK    2  A    between atoms: C2_2  and  N9_9 
ROOT
HETATM    1  C1  UNL     1     -35.909  15.251  -3.388  1.00 20.00     0.050 C 
HETATM    2  C2  UNL     1     -35.134  15.953  -2.540  1.00 20.00     0.002 C 
HETATM    3  C4  UNL     1     -33.668  16.111  -2.844  1.00 20.00     0.068 C 
ENDROOT
BRANCH   1   4
HETATM    4  C3  UNL     1     -35.381  14.612  -4.630  1.00 20.00     0.026 C 
HETATM    5  C5  UNL     1     -34.911  13.183  -4.479  1.00 20.00     0.070 C 
HETATM    6  N8  UNL     1     -35.373  15.261  -5.747  1.00 20.00    -0.299 NA
HETATM    7  C6  UNL     1     -34.866  14.596  -6.937  1.00 20.00     0.177 C 
ENDBRANCH   1   4
BRANCH   2   8
HETATM    8  N9  UNL     1     -35.555  16.570  -1.395  1.00 20.00    -0.398 N 
HETATM    9  C7  UNL     1     -34.611  16.956  -0.384  1.00 20.00     0.146 C 
HETATM   10  H23 UNL     1     -36.529  16.732  -1.308  1.00 20.00     0.158 HD
ENDBRANCH   2   8
TORSDOF 2
ENDMDL
MODEL 4
REMARK VINA RESULT:      -3.6      1.718      4.181
REMARK  2 active torsions:
REMARK  status: ('A' for Active; 'I' for Inactive)
REMARK    1  A    between atoms: C1_1  and  C3_3 
REMARK    2  A    between atoms: C2_2  and  N9_9 
ROOT
HETATM    1  C1  UNL     1     -34.090  15.142  -3.201  1.00 20.00     0.050 C 
HETATM    2  C2  UNL     1     -35.018  15.822  -2.502  1.00 20.00     0.002 C 
HETATM    3  C4  UNL     1     -36.332  16.157  -3.157  1.00 20.00     0.068 C 
ENDROOT
BRANCH   1   4
HETATM    4  C3  UNL     1     -34.301  14.697  -4.611  1.00 20.00     0.026 C 
HETATM    5  C5  UNL     1     -34.771  13.270  -4.782  1.00 20.00     0.070 C 
HETATM    6  N8  UNL     1     -34.115  15.518  -5.591  1.00 20.00    -0.299 NA
HETATM    7  C6  UNL     1     -34.348  15.049  -6.948  1.00 20.00     0.177 C 
ENDBRANCH   1   4
BRANCH   2   8
HETATM    8  N9  UNL     1     -34.893  16.249  -1.209  1.00 20.00    -0.398 N 
HETATM    9  C7  UNL     1     -33.995  17.317  -0.876  1.00 20.00     0.146 C 
HETATM   10  H23 UNL     1     -35.450  15.785  -0.532  1.00 20.00     0.158 HD
ENDBRANCH   2   8
TORSDOF 2
ENDMDL
MODEL 5
REMARK VINA RESULT:      -3.6      1.982      4.125
REMARK  2 active torsions:
REMARK  status: ('A' for Active; 'I' for Inactive)
REMARK    1  A    between atoms: C1_1  and  C3_3 
REMARK    2  A    between atoms: C2_2  and  N9_9 
ROOT
HETATM    1  C1  UNL     1     -34.816  16.155  -1.985  1.00 20.00     0.050 C 
HETATM    2  C2  UNL     1     -34.516  16.891  -0.899  1.00 20.00     0.002 C 
HETATM    3  C4  UNL     1     -33.342  17.833  -0.951  1.00 20.00     0.068 C 
ENDROOT
BRANCH   1   4
HETATM    4  C3  UNL     1     -34.033  16.225  -3.255  1.00 20.00     0.026 C 
HETATM    5  C5  UNL     1     -33.032  15.112  -3.466  1.00 20.00     0.070 C 
HETATM    6  N8  UNL     1     -34.249  17.173  -4.105  1.00 20.00    -0.299 NA
HETATM    7  C6  UNL     1     -33.475  17.195  -5.337  1.00 20.00     0.177 C 
ENDBRANCH   1   4
BRANCH   2   8
HETATM    8  N9  UNL     1     -35.196  16.883   0.287  1.00 20.00    -0.398 N 
HETATM    9  C7  UNL     1     -34.956  17.898   1.273  1.00 20.00     0.146 C 
HETATM   10  H23 UNL     1     -35.851  16.150   0.420  1.00 20.00     0.158 HD
ENDBRANCH   2   8
TORSDOF 2
ENDMDL
MODEL 6
REMARK VINA RESULT:      -3.6     11.144     12.245
REMARK  2 active torsions:
REMARK  status: ('A' for Active; 'I' for Inactive)
REMARK    1  A    between atoms: C1_1  and  C3_3 
REMARK    2  A    between atoms: C2_2  and  N9_9 
ROOT
HETATM    1  C1  UNL     1     -33.622   7.027   4.093  1.00 20.00     0.050 C 
HETATM    2  C2  UNL     1     -32.553   6.866   3.291  1.00 20.00     0.002 C 
HETATM    3  C4  UNL     1     -32.164   5.478   2.854  1.00 20.00     0.068 C 
ENDROOT
BRANCH   1   4
HETATM    4  C3  UNL     1     -34.451   5.884   4.579  1.00 20.00     0.026 C 
HETATM    5  C5  UNL     1     -35.546   5.427   3.641  1.00 20.00     0.070 C 
HETATM    6  N8  UNL     1     -34.198   5.329   5.718  1.00 20.00    -0.299 NA
HETATM    7  C6  UNL     1     -35.020   4.208   6.146  1.00 20.00     0.177 C 
ENDBRANCH   1   4
BRANCH   2   8
HETATM    8  N9  UNL     1     -31.760   7.867   2.803  1.00 20.00    -0.398 N 
HETATM    9  C7  UNL     1     -32.133   8.581   1.615  1.00 20.00     0.146 C 
HETATM   10  H23 UNL     1     -30.931   8.065   3.309  1.00 20.00     0.158 HD
ENDBRANCH   2   8
TORSDOF 2
ENDMDL
MODEL 7
REMARK VINA RESULT:      -3.5      1.058      1.433
REMARK  2 active torsions:
REMARK  status: ('A' for Active; 'I' for Inactive)
REMARK    1  A    between atoms: C1_1  and  C3_3 
REMARK    2  A    between atoms: C2_2  and  N9_9 
ROOT
HETATM    1  C1  UNL     1     -34.905  15.284  -2.839  1.00 20.00     0.050 C 
HETATM    2  C2  UNL     1     -34.057  14.435  -3.449  1.00 20.00     0.002 C 
HETATM    3  C4  UNL     1     -32.587  14.762  -3.481  1.00 20.00     0.068 C 
ENDROOT
BRANCH   1   4
HETATM    4  C3  UNL     1     -34.456  16.549  -2.185  1.00 20.00     0.026 C 
HETATM    5  C5  UNL     1     -34.194  17.709  -3.119  1.00 20.00     0.070 C 
HETATM    6  N8  UNL     1     -34.344  16.617  -0.899  1.00 20.00    -0.299 NA
HETATM    7  C6  UNL     1     -33.920  17.874  -0.301  1.00 20.00     0.177 C 
ENDBRANCH   1   4
BRANCH   2   8
HETATM    8  N9  UNL     1     -34.399  13.259  -4.056  1.00 20.00    -0.398 N 
HETATM    9  C7  UNL     1     -34.923  13.253  -5.393  1.00 20.00     0.146 C 
HETATM   10  H23 UNL     1     -34.265  12.430  -3.529  1.00 20.00     0.158 HD
ENDBRANCH   2   8
TORSDOF 2
ENDMDL
MODEL 8
REMARK VINA RESULT:      -3.5      2.583      3.958
REMARK  2 active torsions:
REMARK  status: ('A' for Active; 'I' for Inactive)
REMARK    1  A    between atoms: C1_1  and  C3_3 
REMARK    2  A    between atoms: C2_2  and  N9_9 
ROOT
HETATM    1  C1  UNL     1     -35.647  14.710  -3.435  1.00 20.00     0.050 C 
HETATM    2  C2  UNL     1     -34.747  13.967  -4.105  1.00 20.00     0.002 C 
HETATM    3  C4  UNL     1     -35.090  13.462  -5.482  1.00 20.00     0.068 C 
ENDROOT
BRANCH   1   4
HETATM    4  C3  UNL     1     -36.987  15.061  -3.993  1.00 20.00     0.026 C 
HETATM    5  C5  UNL     1     -37.040  16.332  -4.810  1.00 20.00     0.070 C 
HETATM    6  N8  UNL     1     -38.002  14.286  -3.796  1.00 20.00    -0.299 NA
HETATM    7  C6  UNL     1     -39.285  14.657  -4.372  1.00 20.00     0.177 C 
ENDBRANCH   1   4
BRANCH   2   8
HETATM    8  N9  UNL     1     -33.502  13.620  -3.658  1.00 20.00    -0.398 N 
HETATM    9  C7  UNL     1     -32.456  14.599  -3.576  1.00 20.00     0.146 C 
HETATM   10  H23 UNL     1     -33.371  12.672  -3.398  1.00 20.00     0.158 HD
ENDBRANCH   2   8
TORSDOF 2
ENDMDL
MODEL 9
REMARK VINA RESULT:      -3.4      1.638      4.455
REMARK  2 active torsions:
REMARK  status: ('A' for Active; 'I' for Inactive)
REMARK    1  A    between atoms: C1_1  and  C3_3 
REMARK    2  A    between atoms: C2_2  and  N9_9 
ROOT
HETATM    1  C1  UNL     1     -34.473  15.948  -2.043  1.00 20.00     0.050 C 
HETATM    2  C2  UNL     1     -35.481  16.833  -1.936  1.00 20.00     0.002 C 
HETATM    3  C4  UNL     1     -36.351  17.106  -3.135  1.00 20.00     0.068 C 
ENDROOT
BRANCH   1   4
HETATM    4  C3  UNL     1     -34.168  15.214  -3.308  1.00 20.00     0.026 C 
HETATM    5  C5  UNL     1     -33.189  15.895  -4.238  1.00 20.00     0.070 C 
HETATM    6  N8  UNL     1     -34.702  14.061  -3.540  1.00 20.00    -0.299 NA
HETATM    7  C6  UNL     1     -34.365  13.372  -4.776  1.00 20.00     0.177 C 
ENDBRANCH   1   4
BRANCH   2   8
HETATM    8  N9  UNL     1     -35.819  17.529  -0.808  1.00 20.00    -0.398 N 
HETATM    9  C7  UNL     1     -35.012  17.439   0.375  1.00 20.00     0.146 C 
HETATM   10  H23 UNL     1     -36.637  18.087  -0.858  1.00 20.00     0.158 HD
ENDBRANCH   2   8
TORSDOF 2
ENDMDL
