MODEL 1
REMARK VINA RESULT:      -4.7      0.000      0.000
REMARK  1 active torsions:
REMARK  status: ('A' for Active; 'I' for Inactive)
REMARK    1  A    between atoms: C1_1  and  C9_9 
ROOT
HETATM    1  C1  UNL     1     -34.509  16.048  -3.105  1.00 20.00     0.020 C 
HETATM    2  C2  UNL     1     -35.912  15.558  -3.112  1.00 20.00     0.058 C 
HETATM    3  C3  UNL     1     -36.085  15.142  -4.570  1.00 20.00     0.038 C 
HETATM    4  C4  UNL     1     -34.679  14.743  -5.044  1.00 20.00     0.055 C 
HETATM    5  C5  UNL     1     -34.410  15.140  -6.488  1.00 20.00     0.041 C 
HETATM    6  C6  UNL     1     -34.337  13.285  -4.758  1.00 20.00     0.041 C 
HETATM    7  N10 UNL     1     -33.855  15.582  -4.137  1.00 20.00    -0.224 N 
HETATM    8  O11 UNL     1     -32.617  15.791  -4.345  1.00 20.00    -0.085 OA
ENDROOT
BRANCH   1   9
HETATM    9  C9  UNL     1     -33.865  16.848  -2.039  1.00 20.00     0.025 C 
HETATM   10  C7  UNL     1     -33.794  18.327  -2.432  1.00 20.00     0.016 C 
HETATM   11  C8  UNL     1     -34.596  16.691  -0.701  1.00 20.00     0.016 C 
ENDBRANCH   1   9
TORSDOF 1
ENDMDL
MODEL 2
REMARK VINA RESULT:      -4.3      1.741      2.478
REMARK  1 active torsions:
REMARK  status: ('A' for Active; 'I' for Inactive)
REMARK    1  A    between atoms: C1_1  and  C9_9 
ROOT
HETATM    1  C1  UNL     1     -34.772  16.096  -2.623  1.00 20.00     0.020 C 
HETATM    2  C2  UNL     1     -33.321  16.063  -2.943  1.00 20.00     0.058 C 
HETATM    3  C3  UNL     1     -33.207  14.754  -3.719  1.00 20.00     0.038 C 
HETATM    4  C4  UNL     1     -34.579  14.557  -4.380  1.00 20.00     0.055 C 
HETATM    5  C5  UNL     1     -35.010  13.098  -4.422  1.00 20.00     0.041 C 
HETATM    6  C6  UNL     1     -34.702  15.249  -5.733  1.00 20.00     0.041 C 
HETATM    7  N10 UNL     1     -35.436  15.299  -3.419  1.00 20.00    -0.224 N 
HETATM    8  O11 UNL     1     -36.702  15.181  -3.409  1.00 20.00    -0.085 OA
ENDROOT
BRANCH   1   9
HETATM    9  C9  UNL     1     -35.432  16.980  -1.638  1.00 20.00     0.025 C 
HETATM   10  C7  UNL     1     -34.683  16.967  -0.301  1.00 20.00     0.016 C 
HETATM   11  C8  UNL     1     -35.551  18.416  -2.162  1.00 20.00     0.016 C 
ENDBRANCH   1   9
TORSDOF 1
ENDMDL
MODEL 3
REMARK VINA RESULT:      -4.2      1.956      4.194
REMARK  1 active torsions:
REMARK  status: ('A' for Active; 'I' for Inactive)
REMARK    1  A    between atoms: C1_1  and  C9_9 
ROOT
HETATM    1  C1  UNL     1     -35.111  15.323  -5.634  1.00 20.00     0.020 C 
HETATM    2  C2  UNL     1     -33.880  16.066  -6.008  1.00 20.00     0.058 C 
HETATM    3  C3  UNL     1     -33.350  16.493  -4.642  1.00 20.00     0.038 C 
HETATM    4  C4  UNL     1     -33.843  15.416  -3.665  1.00 20.00     0.055 C 
HETATM    5  C5  UNL     1     -34.229  15.984  -2.307  1.00 20.00     0.041 C 
HETATM    6  C6  UNL     1     -32.902  14.220  -3.560  1.00 20.00     0.041 C 
HETATM    7  N10 UNL     1     -35.064  14.962  -4.378  1.00 20.00    -0.224 N 
HETATM    8  O11 UNL     1     -35.958  14.258  -3.810  1.00 20.00    -0.085 OA
ENDROOT
BRANCH   1   9
HETATM    9  C9  UNL     1     -36.203  14.920  -6.546  1.00 20.00     0.025 C 
HETATM   10  C7  UNL     1     -37.228  16.048  -6.708  1.00 20.00     0.016 C 
HETATM   11  C8  UNL     1     -35.661  14.498  -7.917  1.00 20.00     0.016 C 
ENDBRANCH   1   9
TORSDOF 1
ENDMDL
MODEL 4
REMARK VINA RESULT:      -4.2      1.780      4.092
REMARK  1 active torsions:
REMARK  status: ('A' for Active; 'I' for Inactive)
REMARK    1  A    between atoms: C1_1  and  C9_9 
ROOT
HETATM    1  C1  UNL     1     -34.735  15.644  -4.382  1.00 20.00     0.020 C 
HETATM    2  C2  UNL     1     -33.458  16.394  -4.266  1.00 20.00     0.058 C 
HETATM    3  C3  UNL     1     -33.878  17.586  -3.409  1.00 20.00     0.038 C 
HETATM    4  C4  UNL     1     -35.042  17.073  -2.550  1.00 20.00     0.055 C 
HETATM    5  C5  UNL     1     -36.121  18.125  -2.331  1.00 20.00     0.041 C 
HETATM    6  C6  UNL     1     -34.589  16.411  -1.253  1.00 20.00     0.041 C 
HETATM    7  N10 UNL     1     -35.566  16.004  -3.439  1.00 20.00    -0.224 N 
HETATM    8  O11 UNL     1     -36.710  15.477  -3.262  1.00 20.00    -0.085 OA
ENDROOT
BRANCH   1   9
HETATM    9  C9  UNL     1     -35.025  14.549  -5.333  1.00 20.00     0.025 C 
HETATM   10  C7  UNL     1     -34.460  14.866  -6.722  1.00 20.00     0.016 C 
HETATM   11  C8  UNL     1     -34.474  13.209  -4.833  1.00 20.00     0.016 C 
ENDBRANCH   1   9
TORSDOF 1
ENDMDL
MODEL 5
REMARK VINA RESULT:      -4.1      1.568      3.853
REMARK  1 active torsions:
REMARK  status: ('A' for Active; 'I' for Inactive)
REMARK    1  A    between atoms: C1_1  and  C9_9 
ROOT
HETATM    1  C1  UNL     1     -34.768  15.162  -5.686  1.00 20.00     0.020 C 
HETATM    2  C2  UNL     1     -35.533  14.114  -4.962  1.00 20.00     0.058 C 
HETATM    3  C3  UNL     1     -34.516  13.655  -3.919  1.00 20.00     0.038 C 
HETATM    4  C4  UNL     1     -33.630  14.882  -3.657  1.00 20.00     0.055 C 
HETATM    5  C5  UNL     1     -32.171  14.515  -3.424  1.00 20.00     0.041 C 
HETATM    6  C6  UNL     1     -34.186  15.809  -2.582  1.00 20.00     0.041 C 
HETATM    7  N10 UNL     1     -33.763  15.580  -4.962  1.00 20.00    -0.224 N 
HETATM    8  O11 UNL     1     -32.979  16.519  -5.311  1.00 20.00    -0.085 OA
ENDROOT
BRANCH   1   9
HETATM    9  C9  UNL     1     -35.126  15.765  -6.988  1.00 20.00     0.025 C 
HETATM   10  C7  UNL     1     -35.763  14.727  -7.918  1.00 20.00     0.016 C 
HETATM   11  C8  UNL     1     -36.066  16.964  -6.812  1.00 20.00     0.016 C 
ENDBRANCH   1   9
TORSDOF 1
ENDMDL
MODEL 6
REMARK VINA RESULT:      -4.0      1.389      4.070
REMARK  1 active torsions:
REMARK  status: ('A' for Active; 'I' for Inactive)
REMARK    1  A    between atoms: C1_1  and  C9_9 
ROOT
HETATM    1  C1  UNL     1     -34.079  16.155  -3.266  1.00 20.00     0.020 C 
HETATM    2  C2  UNL     1     -34.767  15.853  -1.984  1.00 20.00     0.058 C 
HETATM    3  C3  UNL     1     -34.489  17.119  -1.179  1.00 20.00     0.038 C 
HETATM    4  C4  UNL     1     -34.348  18.236  -2.223  1.00 20.00     0.055 C 
HETATM    5  C5  UNL     1     -33.287  19.261  -1.850  1.00 20.00     0.041 C 
HETATM    6  C6  UNL     1     -35.679  18.875  -2.606  1.00 20.00     0.041 C 
HETATM    7  N10 UNL     1     -33.883  17.442  -3.389  1.00 20.00    -0.224 N 
HETATM    8  O11 UNL     1     -33.370  17.986  -4.418  1.00 20.00    -0.085 OA
ENDROOT
BRANCH   1   9
HETATM    9  C9  UNL     1     -33.754  15.187  -4.336  1.00 20.00     0.025 C 
HETATM   10  C7  UNL     1     -33.325  13.839  -3.744  1.00 20.00     0.016 C 
HETATM   11  C8  UNL     1     -34.936  14.991  -5.293  1.00 20.00     0.016 C 
ENDBRANCH   1   9
TORSDOF 1
ENDMDL
MODEL 7
REMARK VINA RESULT:      -4.0      0.909      3.993
REMARK  1 active torsions:
REMARK  status: ('A' for Active; 'I' for Inactive)
REMARK    1  A    between atoms: C1_1  and  C9_9 
ROOT
HETATM    1  C1  UNL     1     -34.843  15.501  -4.441  1.00 20.00     0.020 C 
HETATM    2  C2  UNL     1     -36.105  16.284  -4.495  1.00 20.00     0.058 C 
HETATM    3  C3  UNL     1     -36.191  16.826  -3.070  1.00 20.00     0.038 C 
HETATM    4  C4  UNL     1     -34.735  16.939  -2.594  1.00 20.00     0.055 C 
HETATM    5  C5  UNL     1     -34.568  16.591  -1.122  1.00 20.00     0.041 C 
HETATM    6  C6  UNL     1     -34.081  18.265  -2.967  1.00 20.00     0.041 C 
HETATM    7  N10 UNL     1     -34.109  15.881  -3.428  1.00 20.00    -0.224 N 
HETATM    8  O11 UNL     1     -32.948  15.423  -3.181  1.00 20.00    -0.085 OA
ENDROOT
BRANCH   1   9
HETATM    9  C9  UNL     1     -34.384  14.510  -5.439  1.00 20.00     0.025 C 
HETATM   10  C7  UNL     1     -34.736  13.085  -4.999  1.00 20.00     0.016 C 
HETATM   11  C8  UNL     1     -34.972  14.796  -6.826  1.00 20.00     0.016 C 
ENDBRANCH   1   9
TORSDOF 1
ENDMDL
MODEL 8
REMARK VINA RESULT:      -4.0      1.538      2.258
REMARK  1 active torsions:
REMARK  status: ('A' for Active; 'I' for Inactive)
REMARK    1  A    between atoms: C1_1  and  C9_9 
ROOT
HETATM    1  C1  UNL     1     -34.484  16.409  -3.140  1.00 20.00     0.020 C 
HETATM    2  C2  UNL     1     -33.436  15.359  -3.220  1.00 20.00     0.058 C 
HETATM    3  C3  UNL     1     -33.974  14.470  -4.339  1.00 20.00     0.038 C 
HETATM    4  C4  UNL     1     -34.795  15.408  -5.236  1.00 20.00     0.055 C 
HETATM    5  C5  UNL     1     -36.042  14.742  -5.800  1.00 20.00     0.041 C 
HETATM    6  C6  UNL     1     -33.960  16.102  -6.307  1.00 20.00     0.041 C 
HETATM    7  N10 UNL     1     -35.190  16.437  -4.241  1.00 20.00    -0.224 N 
HETATM    8  O11 UNL     1     -36.114  17.281  -4.469  1.00 20.00    -0.085 OA
ENDROOT
BRANCH   1   9
HETATM    9  C9  UNL     1     -34.662  17.388  -2.046  1.00 20.00     0.025 C 
HETATM   10  C7  UNL     1     -34.610  16.697  -0.679  1.00 20.00     0.016 C 
HETATM   11  C8  UNL     1     -33.613  18.504  -2.115  1.00 20.00     0.016 C 
ENDBRANCH   1   9
TORSDOF 1
ENDMDL
MODEL 9
REMARK VINA RESULT:      -4.0      1.988      2.717
REMARK  1 active torsions:
REMARK  status: ('A' for Active; 'I' for Inactive)
REMARK    1  A    between atoms: C1_1  and  C9_9 
ROOT
HETATM    1  C1  UNL     1     -34.538  15.495  -4.646  1.00 20.00     0.020 C 
HETATM    2  C2  UNL     1     -34.729  16.893  -5.112  1.00 20.00     0.058 C 
HETATM    3  C3  UNL     1     -35.066  16.683  -6.586  1.00 20.00     0.038 C 
HETATM    4  C4  UNL     1     -35.732  15.301  -6.653  1.00 20.00     0.055 C 
HETATM    5  C5  UNL     1     -35.363  14.530  -7.912  1.00 20.00     0.041 C 
HETATM    6  C6  UNL     1     -37.236  15.344  -6.405  1.00 20.00     0.041 C 
HETATM    7  N10 UNL     1     -35.103  14.654  -5.473  1.00 20.00    -0.224 N 
HETATM    8  O11 UNL     1     -35.147  13.397  -5.286  1.00 20.00    -0.085 OA
ENDROOT
BRANCH   1   9
HETATM    9  C9  UNL     1     -33.914  15.073  -3.373  1.00 20.00     0.025 C 
HETATM   10  C7  UNL     1     -32.428  14.752  -3.571  1.00 20.00     0.016 C 
HETATM   11  C8  UNL     1     -34.084  16.138  -2.284  1.00 20.00     0.016 C 
ENDBRANCH   1   9
TORSDOF 1
ENDMDL
