MODEL 1
REMARK VINA RESULT:      -4.7      0.000      0.000
REMARK  3 active torsions:
REMARK  status: ('A' for Active; 'I' for Inactive)
REMARK    1  A    between atoms: C4_4  and  C10_10 
REMARK    2  A    between atoms: C8_8  and  C10_10 
REMARK    3  A    between atoms: C8_8  and  O11_11 
ROOT
HETATM    1  C1  UNL     1     -35.872  13.720  -4.612  1.00 20.00    -0.030 C 
HETATM    2  C2  UNL     1     -34.822  13.432  -3.830  1.00 20.00    -0.028 C 
HETATM    3  C5  UNL     1     -35.870  14.838  -5.612  1.00 20.00     0.030 C 
HETATM    4  C6  UNL     1     -33.542  14.214  -3.852  1.00 20.00     0.065 C 
HETATM    5  C7  UNL     1     -34.476  15.416  -5.865  1.00 20.00     0.042 C 
HETATM    6  C8  UNL     1     -33.650  15.571  -4.576  1.00 20.00     0.068 C 
ENDROOT
BRANCH   6   7
HETATM    7  C10 UNL     1     -34.230  16.652  -3.657  1.00 20.00     0.038 C 
HETATM    8  C9  UNL     1     -33.792  18.042  -4.119  1.00 20.00     0.017 C 
BRANCH   7   9
HETATM    9  C4  UNL     1     -33.794  16.413  -2.235  1.00 20.00    -0.030 C 
HETATM   10  C3  UNL     1     -34.603  16.536  -1.175  1.00 20.00     0.007 C 
ENDBRANCH   7   9
ENDBRANCH   6   7
BRANCH   6  11
HETATM   11  O11 UNL     1     -32.325  15.975  -4.935  1.00 20.00    -0.389 OA
HETATM   12  H27 UNL     1     -31.990  16.495  -4.191  1.00 20.00     0.210 HD
ENDBRANCH   6  11
TORSDOF 3
ENDMDL
MODEL 2
REMARK VINA RESULT:      -4.7      2.050      3.878
REMARK  3 active torsions:
REMARK  status: ('A' for Active; 'I' for Inactive)
REMARK    1  A    between atoms: C4_4  and  C10_10 
REMARK    2  A    between atoms: C8_8  and  C10_10 
REMARK    3  A    between atoms: C8_8  and  O11_11 
ROOT
HETATM    1  C1  UNL     1     -33.001  14.808  -3.419  1.00 20.00    -0.030 C 
HETATM    2  C2  UNL     1     -33.435  13.657  -3.953  1.00 20.00    -0.028 C 
HETATM    3  C5  UNL     1     -33.921  15.897  -2.954  1.00 20.00     0.030 C 
HETATM    4  C6  UNL     1     -34.887  13.347  -4.167  1.00 20.00     0.065 C 
HETATM    5  C7  UNL     1     -35.384  15.452  -2.868  1.00 20.00     0.042 C 
HETATM    6  C8  UNL     1     -35.813  14.575  -4.057  1.00 20.00     0.068 C 
ENDROOT
BRANCH   6   7
HETATM    7  C10 UNL     1     -35.846  15.371  -5.366  1.00 20.00     0.038 C 
HETATM    8  C9  UNL     1     -37.210  16.035  -5.556  1.00 20.00     0.017 C 
BRANCH   7   9
HETATM    9  C4  UNL     1     -35.539  14.468  -6.531  1.00 20.00    -0.030 C 
HETATM   10  C3  UNL     1     -34.789  14.830  -7.580  1.00 20.00     0.007 C 
ENDBRANCH   7   9
ENDBRANCH   6   7
BRANCH   6  11
HETATM   11  O11 UNL     1     -37.137  14.096  -3.808  1.00 20.00    -0.389 OA
HETATM   12  H27 UNL     1     -37.049  13.155  -3.597  1.00 20.00     0.210 HD
ENDBRANCH   6  11
TORSDOF 3
ENDMDL
MODEL 3
REMARK VINA RESULT:      -4.6      1.841      2.638
REMARK  3 active torsions:
REMARK  status: ('A' for Active; 'I' for Inactive)
REMARK    1  A    between atoms: C4_4  and  C10_10 
REMARK    2  A    between atoms: C8_8  and  C10_10 
REMARK    3  A    between atoms: C8_8  and  O11_11 
ROOT
HETATM    1  C1  UNL     1     -36.650  15.813  -6.237  1.00 20.00    -0.030 C 
HETATM    2  C2  UNL     1     -37.260  15.435  -5.106  1.00 20.00    -0.028 C 
HETATM    3  C5  UNL     1     -35.368  15.205  -6.724  1.00 20.00     0.030 C 
HETATM    4  C6  UNL     1     -36.712  14.381  -4.189  1.00 20.00     0.065 C 
HETATM    5  C7  UNL     1     -34.989  13.925  -5.976  1.00 20.00     0.042 C 
HETATM    6  C8  UNL     1     -35.237  14.022  -4.460  1.00 20.00     0.068 C 
ENDROOT
BRANCH   6   7
HETATM    7  C10 UNL     1     -34.285  15.020  -3.792  1.00 20.00     0.038 C 
HETATM    8  C9  UNL     1     -32.893  14.409  -3.634  1.00 20.00     0.017 C 
BRANCH   7   9
HETATM    9  C4  UNL     1     -34.828  15.436  -2.450  1.00 20.00    -0.030 C 
HETATM   10  C3  UNL     1     -34.345  16.460  -1.735  1.00 20.00     0.007 C 
ENDBRANCH   7   9
ENDBRANCH   6   7
BRANCH   6  11
HETATM   11  O11 UNL     1     -34.993  12.736  -3.881  1.00 20.00    -0.389 OA
HETATM   12  H27 UNL     1     -34.834  12.133  -4.621  1.00 20.00     0.210 HD
ENDBRANCH   6  11
TORSDOF 3
ENDMDL
MODEL 4
REMARK VINA RESULT:      -4.4      1.086      3.861
REMARK  3 active torsions:
REMARK  status: ('A' for Active; 'I' for Inactive)
REMARK    1  A    between atoms: C4_4  and  C10_10 
REMARK    2  A    between atoms: C8_8  and  C10_10 
REMARK    3  A    between atoms: C8_8  and  O11_11 
ROOT
HETATM    1  C1  UNL     1     -35.462  17.683  -2.925  1.00 20.00    -0.030 C 
HETATM    2  C2  UNL     1     -34.845  18.116  -4.033  1.00 20.00    -0.028 C 
HETATM    3  C5  UNL     1     -35.069  16.430  -2.200  1.00 20.00     0.030 C 
HETATM    4  C6  UNL     1     -33.710  17.379  -4.682  1.00 20.00     0.065 C 
HETATM    5  C7  UNL     1     -33.724  15.865  -2.664  1.00 20.00     0.042 C 
HETATM    6  C8  UNL     1     -33.544  15.927  -4.190  1.00 20.00     0.068 C 
ENDROOT
BRANCH   6   7
HETATM    7  C10 UNL     1     -34.503  14.977  -4.915  1.00 20.00     0.038 C 
HETATM    8  C9  UNL     1     -34.245  13.530  -4.493  1.00 20.00     0.017 C 
BRANCH   7   9
HETATM    9  C4  UNL     1     -34.350  15.121  -6.406  1.00 20.00    -0.030 C 
HETATM   10  C3  UNL     1     -35.214  14.621  -7.297  1.00 20.00     0.007 C 
ENDBRANCH   7   9
ENDBRANCH   6   7
BRANCH   6  11
HETATM   11  O11 UNL     1     -32.209  15.517  -4.503  1.00 20.00    -0.389 OA
HETATM   12  H27 UNL     1     -31.635  16.256  -4.256  1.00 20.00     0.210 HD
ENDBRANCH   6  11
TORSDOF 3
ENDMDL
MODEL 5
REMARK VINA RESULT:      -4.3      1.877      3.048
REMARK  3 active torsions:
REMARK  status: ('A' for Active; 'I' for Inactive)
REMARK    1  A    between atoms: C4_4  and  C10_10 
REMARK    2  A    between atoms: C8_8  and  C10_10 
REMARK    3  A    between atoms: C8_8  and  O11_11 
ROOT
HETATM    1  C1  UNL     1     -34.841  16.545  -6.977  1.00 20.00    -0.030 C 
HETATM    2  C2  UNL     1     -35.721  16.952  -6.051  1.00 20.00    -0.028 C 
HETATM    3  C5  UNL     1     -34.320  15.141  -7.056  1.00 20.00     0.030 C 
HETATM    4  C6  UNL     1     -36.259  16.052  -4.978  1.00 20.00     0.065 C 
HETATM    5  C7  UNL     1     -35.107  14.159  -6.184  1.00 20.00     0.042 C 
HETATM    6  C8  UNL     1     -35.468  14.740  -4.806  1.00 20.00     0.068 C 
ENDROOT
BRANCH   6   7
HETATM    7  C10 UNL     1     -34.226  14.945  -3.933  1.00 20.00     0.038 C 
HETATM    8  C9  UNL     1     -33.471  13.628  -3.755  1.00 20.00     0.017 C 
BRANCH   7   9
HETATM    9  C4  UNL     1     -34.620  15.507  -2.592  1.00 20.00    -0.030 C 
HETATM   10  C3  UNL     1     -34.004  16.539  -2.004  1.00 20.00     0.007 C 
ENDBRANCH   7   9
ENDBRANCH   6   7
BRANCH   6  11
HETATM   11  O11 UNL     1     -36.320  13.808  -4.134  1.00 20.00    -0.389 OA
HETATM   12  H27 UNL     1     -36.591  13.160  -4.801  1.00 20.00     0.210 HD
ENDBRANCH   6  11
TORSDOF 3
ENDMDL
MODEL 6
REMARK VINA RESULT:      -4.3      2.179      3.778
REMARK  3 active torsions:
REMARK  status: ('A' for Active; 'I' for Inactive)
REMARK    1  A    between atoms: C4_4  and  C10_10 
REMARK    2  A    between atoms: C8_8  and  C10_10 
REMARK    3  A    between atoms: C8_8  and  O11_11 
ROOT
HETATM    1  C1  UNL     1     -33.090  14.643  -3.652  1.00 20.00    -0.030 C 
HETATM    2  C2  UNL     1     -33.864  13.659  -4.131  1.00 20.00    -0.028 C 
HETATM    3  C5  UNL     1     -33.635  15.843  -2.935  1.00 20.00     0.030 C 
HETATM    4  C6  UNL     1     -35.361  13.666  -4.025  1.00 20.00     0.065 C 
HETATM    5  C7  UNL     1     -35.106  15.691  -2.541  1.00 20.00     0.042 C 
HETATM    6  C8  UNL     1     -35.956  15.036  -3.645  1.00 20.00     0.068 C 
ENDROOT
BRANCH   6   7
HETATM    7  C10 UNL     1     -36.094  15.946  -4.870  1.00 20.00     0.038 C 
HETATM    8  C9  UNL     1     -36.925  17.183  -4.529  1.00 20.00     0.017 C 
BRANCH   7   9
HETATM    9  C4  UNL     1     -36.726  15.191  -6.009  1.00 20.00    -0.030 C 
HETATM   10  C3  UNL     1     -37.603  15.728  -6.866  1.00 20.00     0.007 C 
ENDBRANCH   7   9
ENDBRANCH   6   7
BRANCH   6  11
HETATM   11  O11 UNL     1     -37.269  14.807  -3.125  1.00 20.00    -0.389 OA
HETATM   12  H27 UNL     1     -37.196  14.887  -2.163  1.00 20.00     0.210 HD
ENDBRANCH   6  11
TORSDOF 3
ENDMDL
MODEL 7
REMARK VINA RESULT:      -4.2      1.491      2.930
REMARK  3 active torsions:
REMARK  status: ('A' for Active; 'I' for Inactive)
REMARK    1  A    between atoms: C4_4  and  C10_10 
REMARK    2  A    between atoms: C8_8  and  C10_10 
REMARK    3  A    between atoms: C8_8  and  O11_11 
ROOT
HETATM    1  C1  UNL     1     -34.818  16.593  -7.103  1.00 20.00    -0.030 C 
HETATM    2  C2  UNL     1     -35.042  15.273  -7.045  1.00 20.00    -0.028 C 
HETATM    3  C5  UNL     1     -33.992  17.333  -6.093  1.00 20.00     0.030 C 
HETATM    4  C6  UNL     1     -34.513  14.398  -5.948  1.00 20.00     0.065 C 
HETATM    5  C7  UNL     1     -33.192  16.405  -5.176  1.00 20.00     0.042 C 
HETATM    6  C8  UNL     1     -33.997  15.175  -4.720  1.00 20.00     0.068 C 
ENDROOT
BRANCH   6   7
HETATM    7  C10 UNL     1     -35.144  15.564  -3.781  1.00 20.00     0.038 C 
HETATM    8  C9  UNL     1     -34.624  15.776  -2.359  1.00 20.00     0.017 C 
BRANCH   7   9
HETATM    9  C4  UNL     1     -36.210  14.500  -3.794  1.00 20.00    -0.030 C 
HETATM   10  C3  UNL     1     -37.519  14.755  -3.908  1.00 20.00     0.007 C 
ENDBRANCH   7   9
ENDBRANCH   6   7
BRANCH   6  11
HETATM   11  O11 UNL     1     -33.121  14.306  -3.997  1.00 20.00    -0.389 OA
HETATM   12  H27 UNL     1     -33.682  13.623  -3.603  1.00 20.00     0.210 HD
ENDBRANCH   6  11
TORSDOF 3
ENDMDL
MODEL 8
REMARK VINA RESULT:      -4.2      1.531      3.094
REMARK  3 active torsions:
REMARK  status: ('A' for Active; 'I' for Inactive)
REMARK    1  A    between atoms: C4_4  and  C10_10 
REMARK    2  A    between atoms: C8_8  and  C10_10 
REMARK    3  A    between atoms: C8_8  and  O11_11 
ROOT
HETATM    1  C1  UNL     1     -35.298  16.358  -2.271  1.00 20.00    -0.030 C 
HETATM    2  C2  UNL     1     -33.973  16.209  -2.405  1.00 20.00    -0.028 C 
HETATM    3  C5  UNL     1     -36.299  15.570  -3.063  1.00 20.00     0.030 C 
HETATM    4  C6  UNL     1     -33.348  15.256  -3.380  1.00 20.00     0.065 C 
HETATM    5  C7  UNL     1     -35.677  14.384  -3.806  1.00 20.00     0.042 C 
HETATM    6  C8  UNL     1     -34.323  14.726  -4.451  1.00 20.00     0.068 C 
ENDROOT
BRANCH   6   7
HETATM    7  C10 UNL     1     -34.480  15.720  -5.607  1.00 20.00     0.038 C 
HETATM    8  C9  UNL     1     -34.456  14.989  -6.949  1.00 20.00     0.017 C 
BRANCH   7   9
HETATM    9  C4  UNL     1     -33.386  16.754  -5.555  1.00 20.00    -0.030 C 
HETATM   10  C3  UNL     1     -33.596  18.070  -5.680  1.00 20.00     0.007 C 
ENDBRANCH   7   9
ENDBRANCH   6   7
BRANCH   6  11
HETATM   11  O11 UNL     1     -33.763  13.524  -4.987  1.00 20.00    -0.389 OA
HETATM   12  H27 UNL     1     -33.673  13.670  -5.940  1.00 20.00     0.210 HD
ENDBRANCH   6  11
TORSDOF 3
ENDMDL
MODEL 9
REMARK VINA RESULT:      -4.1      1.227      3.117
REMARK  3 active torsions:
REMARK  status: ('A' for Active; 'I' for Inactive)
REMARK    1  A    between atoms: C4_4  and  C10_10 
REMARK    2  A    between atoms: C8_8  and  C10_10 
REMARK    3  A    between atoms: C8_8  and  O11_11 
ROOT
HETATM    1  C1  UNL     1     -35.629  17.829  -6.222  1.00 20.00    -0.030 C 
HETATM    2  C2  UNL     1     -35.253  16.675  -6.792  1.00 20.00    -0.028 C 
HETATM    3  C5  UNL     1     -34.917  18.438  -5.051  1.00 20.00     0.030 C 
HETATM    4  C6  UNL     1     -34.096  15.856  -6.302  1.00 20.00     0.065 C 
HETATM    5  C7  UNL     1     -33.563  17.785  -4.766  1.00 20.00     0.042 C 
HETATM    6  C8  UNL     1     -33.598  16.253  -4.898  1.00 20.00     0.068 C 
ENDROOT
BRANCH   6   7
HETATM    7  C10 UNL     1     -34.448  15.607  -3.799  1.00 20.00     0.038 C 
HETATM    8  C9  UNL     1     -34.085  16.185  -2.431  1.00 20.00     0.017 C 
BRANCH   7   9
HETATM    9  C4  UNL     1     -34.256  14.113  -3.803  1.00 20.00    -0.030 C 
HETATM   10  C3  UNL     1     -35.148  13.247  -4.298  1.00 20.00     0.007 C 
ENDBRANCH   7   9
ENDBRANCH   6   7
BRANCH   6  11
HETATM   11  O11 UNL     1     -32.263  15.758  -4.759  1.00 20.00    -0.389 OA
HETATM   12  H27 UNL     1     -31.915  16.146  -3.943  1.00 20.00     0.210 HD
ENDBRANCH   6  11
TORSDOF 3
ENDMDL
