MODEL 1
REMARK VINA RESULT:      -3.7      0.000      0.000
REMARK  1 active torsions:
REMARK  status: ('A' for Active; 'I' for Inactive)
REMARK    1  A    between atoms: C2_2  and  C5_5 
ROOT
HETATM    1  C1  UNL     1     -32.806   6.553   3.995  1.00 20.00     0.153 A 
HETATM    2  C2  UNL     1     -33.993   6.130   4.844  1.00 20.00     0.096 A 
HETATM    3  C3  UNL     1     -32.413   5.865   2.738  1.00 20.00     0.042 C 
HETATM    4  C4  UNL     1     -34.019   6.529   6.286  1.00 20.00     0.050 C 
HETATM    5  O6  UNL     1     -34.062   7.242   3.935  1.00 20.00    -0.369 OA
ENDROOT
BRANCH   2   6
HETATM    6  C5  UNL     1     -34.855   4.972   4.456  1.00 20.00     0.154 C 
HETATM    7 CL7  UNL     1     -35.037   3.827   5.810  1.00 20.00    -0.127 Cl
ENDBRANCH   2   6
TORSDOF 1
ENDMDL
MODEL 2
REMARK VINA RESULT:      -3.7      2.342      3.453
REMARK  1 active torsions:
REMARK  status: ('A' for Active; 'I' for Inactive)
REMARK    1  A    between atoms: C2_2  and  C5_5 
ROOT
HETATM    1  C1  UNL     1     -35.085   4.413   4.646  1.00 20.00     0.153 A 
HETATM    2  C2  UNL     1     -34.379   5.454   3.795  1.00 20.00     0.096 A 
HETATM    3  C3  UNL     1     -35.029   4.396   6.131  1.00 20.00     0.042 C 
HETATM    4  C4  UNL     1     -34.076   5.124   2.367  1.00 20.00     0.050 C 
HETATM    5  O6  UNL     1     -35.785   5.531   4.084  1.00 20.00    -0.369 OA
ENDROOT
BRANCH   2   6
HETATM    6  C5  UNL     1     -33.569   6.547   4.413  1.00 20.00     0.154 C 
HETATM    7 CL7  UNL     1     -32.125   6.908   3.432  1.00 20.00    -0.127 Cl
ENDBRANCH   2   6
TORSDOF 1
ENDMDL
MODEL 3
REMARK VINA RESULT:      -3.6      1.458      2.029
REMARK  1 active torsions:
REMARK  status: ('A' for Active; 'I' for Inactive)
REMARK    1  A    between atoms: C2_2  and  C5_5 
ROOT
HETATM    1  C1  UNL     1     -32.831   6.735   2.988  1.00 20.00     0.153 A 
HETATM    2  C2  UNL     1     -33.763   6.097   4.002  1.00 20.00     0.096 A 
HETATM    3  C3  UNL     1     -31.787   7.731   3.347  1.00 20.00     0.042 C 
HETATM    4  C4  UNL     1     -35.057   5.520   3.520  1.00 20.00     0.050 C 
HETATM    5  O6  UNL     1     -32.603   5.415   3.499  1.00 20.00    -0.369 OA
ENDROOT
BRANCH   2   6
HETATM    6  C5  UNL     1     -33.686   6.440   5.455  1.00 20.00     0.154 C 
HETATM    7 CL7  UNL     1     -34.722   5.361   6.425  1.00 20.00    -0.127 Cl
ENDBRANCH   2   6
TORSDOF 1
ENDMDL
MODEL 4
REMARK VINA RESULT:      -3.2     12.252     12.854
REMARK  1 active torsions:
REMARK  status: ('A' for Active; 'I' for Inactive)
REMARK    1  A    between atoms: C2_2  and  C5_5 
ROOT
HETATM    1  C1  UNL     1     -33.501  15.865  -4.623  1.00 20.00     0.153 A 
HETATM    2  C2  UNL     1     -34.380  15.125  -3.630  1.00 20.00     0.096 A 
HETATM    3  C3  UNL     1     -33.549  17.338  -4.820  1.00 20.00     0.042 C 
HETATM    4  C4  UNL     1     -34.625  13.664  -3.842  1.00 20.00     0.050 C 
HETATM    5  O6  UNL     1     -33.008  15.446  -3.344  1.00 20.00    -0.369 OA
ENDROOT
BRANCH   2   6
HETATM    6  C5  UNL     1     -35.367  15.850  -2.772  1.00 20.00     0.154 C 
HETATM    7 CL7  UNL     1     -34.633  16.334  -1.221  1.00 20.00    -0.127 Cl
ENDBRANCH   2   6
TORSDOF 1
ENDMDL
MODEL 5
REMARK VINA RESULT:      -3.2     12.359     12.919
REMARK  1 active torsions:
REMARK  status: ('A' for Active; 'I' for Inactive)
REMARK    1  A    between atoms: C2_2  and  C5_5 
ROOT
HETATM    1  C1  UNL     1     -34.196  13.982  -3.513  1.00 20.00     0.153 A 
HETATM    2  C2  UNL     1     -34.324  15.485  -3.342  1.00 20.00     0.096 A 
HETATM    3  C3  UNL     1     -34.485  13.275  -4.789  1.00 20.00     0.042 C 
HETATM    4  C4  UNL     1     -34.502  16.036  -1.962  1.00 20.00     0.050 C 
HETATM    5  O6  UNL     1     -33.053  14.846  -3.550  1.00 20.00    -0.369 OA
ENDROOT
BRANCH   2   6
HETATM    6  C5  UNL     1     -34.755  16.364  -4.472  1.00 20.00     0.154 C 
HETATM    7 CL7  UNL     1     -33.348  17.002  -5.361  1.00 20.00    -0.127 Cl
ENDBRANCH   2   6
TORSDOF 1
ENDMDL
MODEL 6
REMARK VINA RESULT:      -3.2     12.364     13.060
REMARK  1 active torsions:
REMARK  status: ('A' for Active; 'I' for Inactive)
REMARK    1  A    between atoms: C2_2  and  C5_5 
ROOT
HETATM    1  C1  UNL     1     -36.016  14.231  -3.850  1.00 20.00     0.153 A 
HETATM    2  C2  UNL     1     -34.733  13.998  -4.629  1.00 20.00     0.096 A 
HETATM    3  C3  UNL     1     -37.234  14.842  -4.444  1.00 20.00     0.042 C 
HETATM    4  C4  UNL     1     -33.452  13.858  -3.869  1.00 20.00     0.050 C 
HETATM    5  O6  UNL     1     -35.674  12.941  -4.374  1.00 20.00    -0.369 OA
ENDROOT
BRANCH   2   6
HETATM    6  C5  UNL     1     -34.617  14.376  -6.070  1.00 20.00     0.154 C 
HETATM    7 CL7  UNL     1     -33.897  15.996  -6.252  1.00 20.00    -0.127 Cl
ENDBRANCH   2   6
TORSDOF 1
ENDMDL
MODEL 7
REMARK VINA RESULT:      -3.1     12.255     12.943
REMARK  1 active torsions:
REMARK  status: ('A' for Active; 'I' for Inactive)
REMARK    1  A    between atoms: C2_2  and  C5_5 
ROOT
HETATM    1  C1  UNL     1     -33.769  16.426  -2.802  1.00 20.00     0.153 A 
HETATM    2  C2  UNL     1     -34.074  15.841  -4.169  1.00 20.00     0.096 A 
HETATM    3  C3  UNL     1     -34.649  16.242  -1.617  1.00 20.00     0.042 C 
HETATM    4  C4  UNL     1     -33.438  16.465  -5.372  1.00 20.00     0.050 C 
HETATM    5  O6  UNL     1     -33.134  15.229  -3.270  1.00 20.00    -0.369 OA
ENDROOT
BRANCH   2   6
HETATM    6  C5  UNL     1     -35.304  15.027  -4.412  1.00 20.00     0.154 C 
HETATM    7 CL7  UNL     1     -34.978  13.289  -4.179  1.00 20.00    -0.127 Cl
ENDBRANCH   2   6
TORSDOF 1
ENDMDL
MODEL 8
REMARK VINA RESULT:      -3.1      9.602     10.346
REMARK  1 active torsions:
REMARK  status: ('A' for Active; 'I' for Inactive)
REMARK    1  A    between atoms: C2_2  and  C5_5 
ROOT
HETATM    1  C1  UNL     1     -41.759   5.786  -0.370  1.00 20.00     0.153 A 
HETATM    2  C2  UNL     1     -41.929   5.750  -1.878  1.00 20.00     0.096 A 
HETATM    3  C3  UNL     1     -42.208   4.691   0.531  1.00 20.00     0.042 C 
HETATM    4  C4  UNL     1     -41.917   7.044  -2.630  1.00 20.00     0.050 C 
HETATM    5  O6  UNL     1     -40.677   5.439  -1.244  1.00 20.00    -0.369 OA
ENDROOT
BRANCH   2   6
HETATM    6  C5  UNL     1     -42.571   4.587  -2.563  1.00 20.00     0.154 C 
HETATM    7 CL7  UNL     1     -41.428   3.228  -2.725  1.00 20.00    -0.127 Cl
ENDBRANCH   2   6
TORSDOF 1
ENDMDL
MODEL 9
REMARK VINA RESULT:      -3.0     12.465     13.210
REMARK  1 active torsions:
REMARK  status: ('A' for Active; 'I' for Inactive)
REMARK    1  A    between atoms: C2_2  and  C5_5 
ROOT
HETATM    1  C1  UNL     1     -34.589  14.612  -5.311  1.00 20.00     0.153 A 
HETATM    2  C2  UNL     1     -33.946  15.759  -4.552  1.00 20.00     0.096 A 
HETATM    3  C3  UNL     1     -34.702  13.232  -4.769  1.00 20.00     0.042 C 
HETATM    4  C4  UNL     1     -33.438  16.934  -5.327  1.00 20.00     0.050 C 
HETATM    5  O6  UNL     1     -35.373  15.595  -4.621  1.00 20.00    -0.369 OA
ENDROOT
BRANCH   2   6
HETATM    6  C5  UNL     1     -33.377  15.565  -3.183  1.00 20.00     0.154 C 
HETATM    7 CL7  UNL     1     -34.555  16.028  -1.928  1.00 20.00    -0.127 Cl
ENDBRANCH   2   6
TORSDOF 1
ENDMDL
