MODEL 1
REMARK VINA RESULT:      -4.8      0.000      0.000
REMARK  1 active torsions:
REMARK  status: ('A' for Active; 'I' for Inactive)
REMARK    1  A    between atoms: C3_3  and  C7_7 
REMARK       I    between atoms: C3_3  and  N8_8 
ROOT
HETATM    1  C1  UNL     1     -35.217   4.825   5.937  1.00 20.00    -0.010 A 
HETATM    2  C2  UNL     1     -34.534   5.740   6.632  1.00 20.00    -0.010 A 
HETATM    3  C3  UNL     1     -33.120   6.167   3.283  1.00 20.00     0.219 C 
HETATM    4  C4  UNL     1     -34.803   4.811   4.507  1.00 20.00     0.153 A 
HETATM    5  C5  UNL     1     -33.566   6.469   5.765  1.00 20.00     0.153 A 
HETATM    6  N8  UNL     1     -33.779   5.849   4.458  1.00 20.00    -0.345 N 
HETATM    7  O9  UNL     1     -33.333   5.617   2.202  1.00 20.00    -0.273 OA
ENDROOT
BRANCH   3   8
HETATM    8  C7  UNL     1     -32.088   7.261   3.395  1.00 20.00     0.098 C 
HETATM    9  C6  UNL     1     -32.071   8.086   2.131  1.00 20.00     0.014 C 
ENDBRANCH   3   8
TORSDOF 1
ENDMDL
MODEL 2
REMARK VINA RESULT:      -4.1      9.883     10.838
REMARK  1 active torsions:
REMARK  status: ('A' for Active; 'I' for Inactive)
REMARK    1  A    between atoms: C3_3  and  C7_7 
REMARK       I    between atoms: C3_3  and  N8_8 
ROOT
HETATM    1  C1  UNL     1     -41.107   7.147  -0.912  1.00 20.00    -0.010 A 
HETATM    2  C2  UNL     1     -40.608   6.117  -0.221  1.00 20.00    -0.010 A 
HETATM    3  C3  UNL     1     -42.616   4.391  -2.748  1.00 20.00     0.219 C 
HETATM    4  C4  UNL     1     -41.980   6.681  -2.024  1.00 20.00     0.153 A 
HETATM    5  C5  UNL     1     -41.078   4.815  -0.772  1.00 20.00     0.153 A 
HETATM    6  N8  UNL     1     -41.925   5.229  -1.889  1.00 20.00    -0.345 N 
HETATM    7  O9  UNL     1     -43.319   4.785  -3.678  1.00 20.00    -0.273 OA
ENDROOT
BRANCH   3   8
HETATM    8  C7  UNL     1     -42.459   2.915  -2.478  1.00 20.00     0.098 C 
HETATM    9  C6  UNL     1     -41.508   2.306  -3.481  1.00 20.00     0.014 C 
ENDBRANCH   3   8
TORSDOF 1
ENDMDL
MODEL 3
REMARK VINA RESULT:      -4.0     11.868     13.283
REMARK  1 active torsions:
REMARK  status: ('A' for Active; 'I' for Inactive)
REMARK    1  A    between atoms: C3_3  and  C7_7 
REMARK       I    between atoms: C3_3  and  N8_8 
ROOT
HETATM    1  C1  UNL     1     -34.862  14.836  -7.364  1.00 20.00    -0.010 A 
HETATM    2  C2  UNL     1     -34.461  16.089  -7.124  1.00 20.00    -0.010 A 
HETATM    3  C3  UNL     1     -34.073  14.557  -3.822  1.00 20.00     0.219 C 
HETATM    4  C4  UNL     1     -34.791  14.000  -6.134  1.00 20.00     0.153 A 
HETATM    5  C5  UNL     1     -34.065  16.268  -5.700  1.00 20.00     0.153 A 
HETATM    6  N8  UNL     1     -34.290  14.938  -5.136  1.00 20.00    -0.345 N 
HETATM    7  O9  UNL     1     -34.277  13.422  -3.391  1.00 20.00    -0.273 OA
ENDROOT
BRANCH   3   8
HETATM    8  C7  UNL     1     -33.555  15.641  -2.911  1.00 20.00     0.098 C 
HETATM    9  C6  UNL     1     -34.639  16.071  -1.952  1.00 20.00     0.014 C 
ENDBRANCH   3   8
TORSDOF 1
ENDMDL
MODEL 4
REMARK VINA RESULT:      -3.8     11.835     12.766
REMARK  1 active torsions:
REMARK  status: ('A' for Active; 'I' for Inactive)
REMARK    1  A    between atoms: C3_3  and  C7_7 
REMARK       I    between atoms: C3_3  and  N8_8 
ROOT
HETATM    1  C1  UNL     1     -34.827  14.095  -5.801  1.00 20.00    -0.010 A 
HETATM    2  C2  UNL     1     -34.459  13.296  -4.795  1.00 20.00    -0.010 A 
HETATM    3  C3  UNL     1     -34.964  16.473  -3.049  1.00 20.00     0.219 C 
HETATM    4  C4  UNL     1     -35.094  15.480  -5.322  1.00 20.00     0.153 A 
HETATM    5  C5  UNL     1     -34.427  14.032  -3.500  1.00 20.00     0.153 A 
HETATM    6  N8  UNL     1     -34.830  15.382  -3.891  1.00 20.00    -0.345 N 
HETATM    7  O9  UNL     1     -35.308  17.594  -3.423  1.00 20.00    -0.273 OA
ENDROOT
BRANCH   3   8
HETATM    8  C7  UNL     1     -34.655  16.211  -1.596  1.00 20.00     0.098 C 
HETATM    9  C6  UNL     1     -33.847  17.353  -1.028  1.00 20.00     0.014 C 
ENDBRANCH   3   8
TORSDOF 1
ENDMDL
MODEL 5
REMARK VINA RESULT:      -3.8      1.733      4.160
REMARK  1 active torsions:
REMARK  status: ('A' for Active; 'I' for Inactive)
REMARK    1  A    between atoms: C3_3  and  C7_7 
REMARK       I    between atoms: C3_3  and  N8_8 
ROOT
HETATM    1  C1  UNL     1     -31.809   7.280   2.959  1.00 20.00    -0.010 A 
HETATM    2  C2  UNL     1     -32.498   6.374   2.260  1.00 20.00    -0.010 A 
HETATM    3  C3  UNL     1     -34.142   6.172   5.523  1.00 20.00     0.219 C 
HETATM    4  C4  UNL     1     -32.310   7.379   4.358  1.00 20.00     0.153 A 
HETATM    5  C5  UNL     1     -33.558   5.737   3.090  1.00 20.00     0.153 A 
HETATM    6  N8  UNL     1     -33.392   6.402   4.382  1.00 20.00    -0.345 N 
HETATM    7  O9  UNL     1     -33.967   6.758   6.592  1.00 20.00    -0.273 OA
ENDROOT
BRANCH   3   8
HETATM    8  C7  UNL     1     -35.224   5.131   5.389  1.00 20.00     0.098 C 
HETATM    9  C6  UNL     1     -34.707   3.788   5.845  1.00 20.00     0.014 C 
ENDBRANCH   3   8
TORSDOF 1
ENDMDL
MODEL 6
REMARK VINA RESULT:      -3.8     12.290     13.495
REMARK  1 active torsions:
REMARK  status: ('A' for Active; 'I' for Inactive)
REMARK    1  A    between atoms: C3_3  and  C7_7 
REMARK       I    between atoms: C3_3  and  N8_8 
ROOT
HETATM    1  C1  UNL     1     -34.372  15.170  -6.931  1.00 20.00    -0.010 A 
HETATM    2  C2  UNL     1     -35.083  14.219  -6.318  1.00 20.00    -0.010 A 
HETATM    3  C3  UNL     1     -34.209  16.397  -3.509  1.00 20.00     0.219 C 
HETATM    4  C4  UNL     1     -33.895  16.198  -5.965  1.00 20.00     0.153 A 
HETATM    5  C5  UNL     1     -35.183  14.475  -4.854  1.00 20.00     0.153 A 
HETATM    6  N8  UNL     1     -34.427  15.716  -4.695  1.00 20.00    -0.345 N 
HETATM    7  O9  UNL     1     -33.565  17.442  -3.423  1.00 20.00    -0.273 OA
ENDROOT
BRANCH   3   8
HETATM    8  C7  UNL     1     -34.823  15.771  -2.281  1.00 20.00     0.098 C 
HETATM    9  C6  UNL     1     -34.528  16.620  -1.068  1.00 20.00     0.014 C 
ENDBRANCH   3   8
TORSDOF 1
ENDMDL
MODEL 7
REMARK VINA RESULT:      -3.7     11.761     13.057
REMARK  1 active torsions:
REMARK  status: ('A' for Active; 'I' for Inactive)
REMARK    1  A    between atoms: C3_3  and  C7_7 
REMARK       I    between atoms: C3_3  and  N8_8 
ROOT
HETATM    1  C1  UNL     1     -34.214  16.091  -2.377  1.00 20.00    -0.010 A 
HETATM    2  C2  UNL     1     -33.921  17.057  -3.253  1.00 20.00    -0.010 A 
HETATM    3  C3  UNL     1     -34.604  14.237  -5.484  1.00 20.00     0.219 C 
HETATM    4  C4  UNL     1     -34.535  14.812  -3.068  1.00 20.00     0.153 A 
HETATM    5  C5  UNL     1     -34.004  16.562  -4.655  1.00 20.00     0.153 A 
HETATM    6  N8  UNL     1     -34.389  15.163  -4.477  1.00 20.00    -0.345 N 
HETATM    7  O9  UNL     1     -34.929  13.066  -5.286  1.00 20.00    -0.273 OA
ENDROOT
BRANCH   3   8
HETATM    8  C7  UNL     1     -34.412  14.752  -6.888  1.00 20.00     0.098 C 
HETATM    9  C6  UNL     1     -35.654  14.491  -7.707  1.00 20.00     0.014 C 
ENDBRANCH   3   8
TORSDOF 1
ENDMDL
MODEL 8
REMARK VINA RESULT:      -3.7     11.992     12.814
REMARK  1 active torsions:
REMARK  status: ('A' for Active; 'I' for Inactive)
REMARK    1  A    between atoms: C3_3  and  C7_7 
REMARK       I    between atoms: C3_3  and  N8_8 
ROOT
HETATM    1  C1  UNL     1     -34.352  18.462  -1.475  1.00 20.00    -0.010 A 
HETATM    2  C2  UNL     1     -34.820  17.395  -0.820  1.00 20.00    -0.010 A 
HETATM    3  C3  UNL     1     -33.403  15.843  -3.817  1.00 20.00     0.219 C 
HETATM    4  C4  UNL     1     -33.713  18.071  -2.762  1.00 20.00     0.153 A 
HETATM    5  C5  UNL     1     -34.561  16.138  -1.575  1.00 20.00     0.153 A 
HETATM    6  N8  UNL     1     -33.872  16.621  -2.771  1.00 20.00    -0.345 N 
HETATM    7  O9  UNL     1     -32.827  16.295  -4.807  1.00 20.00    -0.273 OA
ENDROOT
BRANCH   3   8
HETATM    8  C7  UNL     1     -33.644  14.361  -3.680  1.00 20.00     0.098 C 
HETATM    9  C6  UNL     1     -34.353  13.838  -4.906  1.00 20.00     0.014 C 
ENDBRANCH   3   8
TORSDOF 1
ENDMDL
MODEL 9
REMARK VINA RESULT:      -3.7     11.487     12.588
REMARK  1 active torsions:
REMARK  status: ('A' for Active; 'I' for Inactive)
REMARK    1  A    between atoms: C3_3  and  C7_7 
REMARK       I    between atoms: C3_3  and  N8_8 
ROOT
HETATM    1  C1  UNL     1     -33.375  13.818  -3.820  1.00 20.00    -0.010 A 
HETATM    2  C2  UNL     1     -33.136  15.110  -3.573  1.00 20.00    -0.010 A 
HETATM    3  C3  UNL     1     -36.796  15.044  -3.618  1.00 20.00     0.219 C 
HETATM    4  C4  UNL     1     -34.837  13.541  -3.887  1.00 20.00     0.153 A 
HETATM    5  C5  UNL     1     -34.404  15.880  -3.438  1.00 20.00     0.153 A 
HETATM    6  N8  UNL     1     -35.424  14.853  -3.642  1.00 20.00    -0.345 N 
HETATM    7  O9  UNL     1     -37.620  14.147  -3.795  1.00 20.00    -0.273 OA
ENDROOT
BRANCH   3   8
HETATM    8  C7  UNL     1     -37.248  16.458  -3.354  1.00 20.00     0.098 C 
HETATM    9  C6  UNL     1     -37.783  17.074  -4.625  1.00 20.00     0.014 C 
ENDBRANCH   3   8
TORSDOF 1
ENDMDL
