MODEL 1
REMARK VINA RESULT:      -3.5      0.000      0.000
REMARK  0 active torsions:
REMARK  status: ('A' for Active; 'I' for Inactive)
ROOT
HETATM    1  C1  UNL     1     -33.143  16.412  -5.112  1.00 20.00     0.280 C 
HETATM    2  C2  UNL     1     -33.785  17.457  -4.209  1.00 20.00     0.104 C 
HETATM    3  C3  UNL     1     -34.899  15.293  -2.962  1.00 20.00     0.114 C 
HETATM    4  C4  UNL     1     -34.183  14.442  -4.033  1.00 20.00     0.159 C 
HETATM    5  C5  UNL     1     -35.118  13.273  -4.414  1.00 20.00     0.049 C 
HETATM    6  C6  UNL     1     -32.873  13.830  -3.500  1.00 20.00     0.049 C 
HETATM    7  N7  UNL     1     -33.952  15.204  -5.275  1.00 20.00     0.093 N 
HETATM    8  S8  UNL     1     -34.017  16.823  -2.527  1.00 20.00    -0.165 SA
HETATM    9  H21 UNL     1     -34.846  15.459  -5.688  1.00 20.00     0.316 HD
ENDROOT
TORSDOF 0
ENDMDL
MODEL 2
REMARK VINA RESULT:      -3.5      1.731      2.053
REMARK  0 active torsions:
REMARK  status: ('A' for Active; 'I' for Inactive)
ROOT
HETATM    1  C1  UNL     1     -33.025  15.360  -3.538  1.00 20.00     0.280 C 
HETATM    2  C2  UNL     1     -33.993  16.302  -2.834  1.00 20.00     0.104 C 
HETATM    3  C3  UNL     1     -35.691  15.633  -4.870  1.00 20.00     0.114 C 
HETATM    4  C4  UNL     1     -34.526  14.782  -5.419  1.00 20.00     0.159 C 
HETATM    5  C5  UNL     1     -34.544  14.889  -6.960  1.00 20.00     0.049 C 
HETATM    6  C6  UNL     1     -34.682  13.292  -5.059  1.00 20.00     0.049 C 
HETATM    7  N7  UNL     1     -33.215  15.303  -4.987  1.00 20.00     0.093 N 
HETATM    8  S8  UNL     1     -35.711  15.771  -3.056  1.00 20.00    -0.165 SA
HETATM    9  H21 UNL     1     -33.075  16.233  -5.375  1.00 20.00     0.316 HD
ENDROOT
TORSDOF 0
ENDMDL
MODEL 3
REMARK VINA RESULT:      -3.5      1.974      2.944
REMARK  0 active torsions:
REMARK  status: ('A' for Active; 'I' for Inactive)
ROOT
HETATM    1  C1  UNL     1     -34.699  13.286  -4.975  1.00 20.00     0.280 C 
HETATM    2  C2  UNL     1     -35.208  14.053  -6.188  1.00 20.00     0.104 C 
HETATM    3  C3  UNL     1     -34.583  16.265  -4.706  1.00 20.00     0.114 C 
HETATM    4  C4  UNL     1     -34.177  15.273  -3.594  1.00 20.00     0.159 C 
HETATM    5  C5  UNL     1     -34.595  15.883  -2.238  1.00 20.00     0.049 C 
HETATM    6  C6  UNL     1     -32.652  15.052  -3.549  1.00 20.00     0.049 C 
HETATM    7  N7  UNL     1     -34.900  13.993  -3.710  1.00 20.00     0.093 N 
HETATM    8  S8  UNL     1     -34.331  15.626  -6.390  1.00 20.00    -0.165 SA
HETATM    9  H21 UNL     1     -35.897  14.153  -3.577  1.00 20.00     0.316 HD
ENDROOT
TORSDOF 0
ENDMDL
MODEL 4
REMARK VINA RESULT:      -3.4      1.667      2.058
REMARK  0 active torsions:
REMARK  status: ('A' for Active; 'I' for Inactive)
ROOT
HETATM    1  C1  UNL     1     -33.397  17.160  -5.235  1.00 20.00     0.280 C 
HETATM    2  C2  UNL     1     -34.574  17.142  -6.201  1.00 20.00     0.104 C 
HETATM    3  C3  UNL     1     -35.283  14.867  -4.858  1.00 20.00     0.114 C 
HETATM    4  C4  UNL     1     -33.989  15.074  -4.042  1.00 20.00     0.159 C 
HETATM    5  C5  UNL     1     -33.374  13.685  -3.764  1.00 20.00     0.049 C 
HETATM    6  C6  UNL     1     -34.269  15.734  -2.677  1.00 20.00     0.049 C 
HETATM    7  N7  UNL     1     -32.975  15.828  -4.802  1.00 20.00     0.093 N 
HETATM    8  S8  UNL     1     -36.046  16.415  -5.433  1.00 20.00    -0.165 SA
HETATM    9  H21 UNL     1     -32.694  15.289  -5.619  1.00 20.00     0.316 HD
ENDROOT
TORSDOF 0
ENDMDL
MODEL 5
REMARK VINA RESULT:      -3.3     11.778     13.191
REMARK  0 active torsions:
REMARK  status: ('A' for Active; 'I' for Inactive)
ROOT
HETATM    1  C1  UNL     1     -40.819   5.860  -0.257  1.00 20.00     0.280 C 
HETATM    2  C2  UNL     1     -41.156   7.153  -0.988  1.00 20.00     0.104 C 
HETATM    3  C3  UNL     1     -42.529   5.510  -2.688  1.00 20.00     0.114 C 
HETATM    4  C4  UNL     1     -42.011   4.348  -1.813  1.00 20.00     0.159 C 
HETATM    5  C5  UNL     1     -41.690   3.159  -2.745  1.00 20.00     0.049 C 
HETATM    6  C6  UNL     1     -43.072   3.870  -0.804  1.00 20.00     0.049 C 
HETATM    7  N7  UNL     1     -40.746   4.694  -1.137  1.00 20.00     0.093 N 
HETATM    8  S8  UNL     1     -42.786   7.062  -1.774  1.00 20.00    -0.165 SA
HETATM    9  H21 UNL     1     -40.021   4.850  -1.833  1.00 20.00     0.316 HD
ENDROOT
TORSDOF 0
ENDMDL
MODEL 6
REMARK VINA RESULT:      -3.3      1.930      2.789
REMARK  0 active torsions:
REMARK  status: ('A' for Active; 'I' for Inactive)
ROOT
HETATM    1  C1  UNL     1     -33.899  13.986  -3.906  1.00 20.00     0.280 C 
HETATM    2  C2  UNL     1     -32.906  15.113  -3.659  1.00 20.00     0.104 C 
HETATM    3  C3  UNL     1     -34.026  16.218  -5.896  1.00 20.00     0.114 C 
HETATM    4  C4  UNL     1     -34.891  14.940  -5.963  1.00 20.00     0.159 C 
HETATM    5  C5  UNL     1     -35.062  14.560  -7.450  1.00 20.00     0.049 C 
HETATM    6  C6  UNL     1     -36.300  15.168  -5.381  1.00 20.00     0.049 C 
HETATM    7  N7  UNL     1     -34.225  13.792  -5.319  1.00 20.00     0.093 N 
HETATM    8  S8  UNL     1     -33.569  16.709  -4.205  1.00 20.00    -0.165 SA
HETATM    9  H21 UNL     1     -33.372  13.567  -5.826  1.00 20.00     0.316 HD
ENDROOT
TORSDOF 0
ENDMDL
MODEL 7
REMARK VINA RESULT:      -3.3      1.925      3.422
REMARK  0 active torsions:
REMARK  status: ('A' for Active; 'I' for Inactive)
ROOT
HETATM    1  C1  UNL     1     -36.419  15.004  -3.567  1.00 20.00     0.280 C 
HETATM    2  C2  UNL     1     -35.619  13.977  -4.356  1.00 20.00     0.104 C 
HETATM    3  C3  UNL     1     -33.490  15.585  -3.759  1.00 20.00     0.114 C 
HETATM    4  C4  UNL     1     -34.516  16.504  -3.061  1.00 20.00     0.159 C 
HETATM    5  C5  UNL     1     -34.095  17.967  -3.317  1.00 20.00     0.049 C 
HETATM    6  C6  UNL     1     -34.534  16.290  -1.535  1.00 20.00     0.049 C 
HETATM    7  N7  UNL     1     -35.866  16.356  -3.638  1.00 20.00     0.093 N 
HETATM    8  S8  UNL     1     -33.931  13.821  -3.716  1.00 20.00    -0.165 SA
HETATM    9  H21 UNL     1     -35.853  16.658  -4.610  1.00 20.00     0.316 HD
ENDROOT
TORSDOF 0
ENDMDL
MODEL 8
REMARK VINA RESULT:      -3.3      2.456      3.276
REMARK  0 active torsions:
REMARK  status: ('A' for Active; 'I' for Inactive)
ROOT
HETATM    1  C1  UNL     1     -37.202  14.739  -4.143  1.00 20.00     0.280 C 
HETATM    2  C2  UNL     1     -37.217  15.721  -5.307  1.00 20.00     0.104 C 
HETATM    3  C3  UNL     1     -34.850  16.587  -4.248  1.00 20.00     0.114 C 
HETATM    4  C4  UNL     1     -35.088  15.542  -3.136  1.00 20.00     0.159 C 
HETATM    5  C5  UNL     1     -34.598  16.148  -1.802  1.00 20.00     0.049 C 
HETATM    6  C6  UNL     1     -34.284  14.250  -3.378  1.00 20.00     0.049 C 
HETATM    7  N7  UNL     1     -36.523  15.254  -2.954  1.00 20.00     0.093 N 
HETATM    8  S8  UNL     1     -35.538  16.112  -5.864  1.00 20.00    -0.165 SA
HETATM    9  H21 UNL     1     -37.001  16.095  -2.639  1.00 20.00     0.316 HD
ENDROOT
TORSDOF 0
ENDMDL
MODEL 9
REMARK VINA RESULT:      -3.2      2.330      2.696
REMARK  0 active torsions:
REMARK  status: ('A' for Active; 'I' for Inactive)
ROOT
HETATM    1  C1  UNL     1     -33.248  16.345  -4.757  1.00 20.00     0.280 C 
HETATM    2  C2  UNL     1     -33.235  15.401  -3.563  1.00 20.00     0.104 C 
HETATM    3  C3  UNL     1     -35.417  14.284  -4.774  1.00 20.00     0.114 C 
HETATM    4  C4  UNL     1     -35.254  15.385  -5.844  1.00 20.00     0.159 C 
HETATM    5  C5  UNL     1     -36.665  15.839  -6.278  1.00 20.00     0.049 C 
HETATM    6  C6  UNL     1     -34.531  14.863  -7.101  1.00 20.00     0.049 C 
HETATM    7  N7  UNL     1     -34.585  16.583  -5.300  1.00 20.00     0.093 N 
HETATM    8  S8  UNL     1     -33.850  13.757  -4.014  1.00 20.00    -0.165 SA
HETATM    9  H21 UNL     1     -35.168  16.996  -4.575  1.00 20.00     0.316 HD
ENDROOT
TORSDOF 0
ENDMDL
