MODEL 1
REMARK VINA RESULT:      -3.9      0.000      0.000
REMARK  3 active torsions:
REMARK  status: ('A' for Active; 'I' for Inactive)
REMARK    1  A    between atoms: C2_2  and  C3_3 
REMARK    2  A    between atoms: C3_3  and  N8_8 
REMARK    3  A    between atoms: C7_7  and  N8_8 
ROOT
HETATM    1  C3  UNL     1     -34.022   6.389   5.093  1.00 20.00     0.102 C 
HETATM    2  S9  UNL     1     -33.571   6.982   6.602  1.00 20.00    -0.060 SA
ENDROOT
BRANCH   1   3
HETATM    3  C2  UNL     1     -34.895   5.196   4.910  1.00 20.00    -0.034 C 
HETATM    4  C1  UNL     1     -35.691   5.172   3.832  1.00 20.00     0.021 C 
HETATM    5  C4  UNL     1     -34.840   4.115   5.941  1.00 20.00     0.050 C 
ENDBRANCH   1   3
BRANCH   1   6
HETATM    6  N8  UNL     1     -33.571   7.014   3.951  1.00 20.00    -0.377 N 
HETATM    7  H22 UNL     1     -34.234   7.613   3.470  1.00 20.00     0.160 HD
BRANCH   6   8
HETATM    8  C7  UNL     1     -32.242   6.925   3.374  1.00 20.00     0.074 C 
HETATM    9  C5  UNL     1     -32.099   7.985   2.291  1.00 20.00     0.031 C 
HETATM   10  C6  UNL     1     -32.039   5.523   2.820  1.00 20.00     0.031 C 
ENDBRANCH   6   8
ENDBRANCH   1   6
TORSDOF 3
ENDMDL
MODEL 2
REMARK VINA RESULT:      -3.7      1.777      2.270
REMARK  3 active torsions:
REMARK  status: ('A' for Active; 'I' for Inactive)
REMARK    1  A    between atoms: C2_2  and  C3_3 
REMARK    2  A    between atoms: C3_3  and  N8_8 
REMARK    3  A    between atoms: C7_7  and  N8_8 
ROOT
HETATM    1  C3  UNL     1     -33.975   5.989   4.066  1.00 20.00     0.102 C 
HETATM    2  S9  UNL     1     -34.432   4.999   2.784  1.00 20.00    -0.060 SA
ENDROOT
BRANCH   1   3
HETATM    3  C2  UNL     1     -34.284   5.680   5.490  1.00 20.00    -0.034 C 
HETATM    4  C1  UNL     1     -33.950   6.597   6.408  1.00 20.00     0.021 C 
HETATM    5  C4  UNL     1     -34.926   4.367   5.804  1.00 20.00     0.050 C 
ENDBRANCH   1   3
BRANCH   1   6
HETATM    6  N8  UNL     1     -33.286   7.156   3.816  1.00 20.00    -0.377 N 
HETATM    7  H22 UNL     1     -33.718   8.015   4.140  1.00 20.00     0.160 HD
BRANCH   6   8
HETATM    8  C7  UNL     1     -31.999   7.287   3.158  1.00 20.00     0.074 C 
HETATM    9  C5  UNL     1     -30.978   7.806   4.160  1.00 20.00     0.031 C 
HETATM   10  C6  UNL     1     -32.148   8.226   1.969  1.00 20.00     0.031 C 
ENDBRANCH   6   8
ENDBRANCH   1   6
TORSDOF 3
ENDMDL
MODEL 3
REMARK VINA RESULT:      -3.7     12.130     13.830
REMARK  3 active torsions:
REMARK  status: ('A' for Active; 'I' for Inactive)
REMARK    1  A    between atoms: C2_2  and  C3_3 
REMARK    2  A    between atoms: C3_3  and  N8_8 
REMARK    3  A    between atoms: C7_7  and  N8_8 
ROOT
HETATM    1  C3  UNL     1     -33.773  16.552  -5.554  1.00 20.00     0.102 C 
HETATM    2  S9  UNL     1     -33.677  18.232  -5.506  1.00 20.00    -0.060 SA
ENDROOT
BRANCH   1   3
HETATM    3  C2  UNL     1     -34.842  15.814  -6.283  1.00 20.00    -0.034 C 
HETATM    4  C1  UNL     1     -34.461  14.985  -7.264  1.00 20.00     0.021 C 
HETATM    5  C4  UNL     1     -36.263  16.055  -5.886  1.00 20.00     0.050 C 
ENDBRANCH   1   3
BRANCH   1   6
HETATM    6  N8  UNL     1     -32.833  15.795  -4.889  1.00 20.00    -0.377 N 
HETATM    7  H22 UNL     1     -31.929  15.697  -5.340  1.00 20.00     0.160 HD
BRANCH   6   8
HETATM    8  C7  UNL     1     -32.989  15.142  -3.603  1.00 20.00     0.074 C 
HETATM    9  C5  UNL     1     -33.476  13.717  -3.824  1.00 20.00     0.031 C 
HETATM   10  C6  UNL     1     -33.965  15.947  -2.757  1.00 20.00     0.031 C 
ENDBRANCH   6   8
ENDBRANCH   1   6
TORSDOF 3
ENDMDL
MODEL 4
REMARK VINA RESULT:      -3.6     11.866     12.770
REMARK  3 active torsions:
REMARK  status: ('A' for Active; 'I' for Inactive)
REMARK    1  A    between atoms: C2_2  and  C3_3 
REMARK    2  A    between atoms: C3_3  and  N8_8 
REMARK    3  A    between atoms: C7_7  and  N8_8 
ROOT
HETATM    1  C3  UNL     1     -33.790  17.193  -2.487  1.00 20.00     0.102 C 
HETATM    2  S9  UNL     1     -33.889  18.334  -3.721  1.00 20.00    -0.060 SA
ENDROOT
BRANCH   1   3
HETATM    3  C2  UNL     1     -33.854  17.544  -1.041  1.00 20.00    -0.034 C 
HETATM    4  C1  UNL     1     -34.769  16.914  -0.292  1.00 20.00     0.021 C 
HETATM    5  C4  UNL     1     -32.911  18.583  -0.523  1.00 20.00     0.050 C 
ENDBRANCH   1   3
BRANCH   1   6
HETATM    6  N8  UNL     1     -33.633  15.861  -2.799  1.00 20.00    -0.377 N 
HETATM    7  H22 UNL     1     -32.944  15.347  -2.260  1.00 20.00     0.160 HD
BRANCH   6   8
HETATM    8  C7  UNL     1     -34.363  15.107  -3.802  1.00 20.00     0.074 C 
HETATM    9  C5  UNL     1     -35.827  15.026  -3.395  1.00 20.00     0.031 C 
HETATM   10  C6  UNL     1     -33.737  13.726  -3.931  1.00 20.00     0.031 C 
ENDBRANCH   6   8
ENDBRANCH   1   6
TORSDOF 3
ENDMDL
MODEL 5
REMARK VINA RESULT:      -3.5     11.503     12.411
REMARK  3 active torsions:
REMARK  status: ('A' for Active; 'I' for Inactive)
REMARK    1  A    between atoms: C2_2  and  C3_3 
REMARK    2  A    between atoms: C3_3  and  N8_8 
REMARK    3  A    between atoms: C7_7  and  N8_8 
ROOT
HETATM    1  C3  UNL     1     -35.637  14.869  -3.480  1.00 20.00     0.102 C 
HETATM    2  S9  UNL     1     -37.271  15.011  -3.861  1.00 20.00    -0.060 SA
ENDROOT
BRANCH   1   3
HETATM    3  C2  UNL     1     -34.644  14.202  -4.367  1.00 20.00    -0.034 C 
HETATM    4  C1  UNL     1     -33.535  13.715  -3.795  1.00 20.00     0.021 C 
HETATM    5  C4  UNL     1     -34.939  14.133  -5.831  1.00 20.00     0.050 C 
ENDBRANCH   1   3
BRANCH   1   6
HETATM    6  N8  UNL     1     -35.167  15.381  -2.290  1.00 20.00    -0.377 N 
HETATM    7  H22 UNL     1     -34.891  14.705  -1.584  1.00 20.00     0.160 HD
BRANCH   6   8
HETATM    8  C7  UNL     1     -35.004  16.781  -1.944  1.00 20.00     0.074 C 
HETATM    9  C5  UNL     1     -33.889  17.376  -2.792  1.00 20.00     0.031 C 
HETATM   10  C6  UNL     1     -34.698  16.888  -0.457  1.00 20.00     0.031 C 
ENDBRANCH   6   8
ENDBRANCH   1   6
TORSDOF 3
ENDMDL
MODEL 6
REMARK VINA RESULT:      -3.5     11.614     12.559
REMARK  3 active torsions:
REMARK  status: ('A' for Active; 'I' for Inactive)
REMARK    1  A    between atoms: C2_2  and  C3_3 
REMARK    2  A    between atoms: C3_3  and  N8_8 
REMARK    3  A    between atoms: C7_7  and  N8_8 
ROOT
HETATM    1  C3  UNL     1     -33.789  15.797  -3.762  1.00 20.00     0.102 C 
HETATM    2  S9  UNL     1     -33.445  16.770  -5.091  1.00 20.00    -0.060 SA
ENDROOT
BRANCH   1   3
HETATM    3  C2  UNL     1     -34.136  14.353  -3.872  1.00 20.00    -0.034 C 
HETATM    4  C1  UNL     1     -33.154  13.464  -3.668  1.00 20.00     0.021 C 
HETATM    5  C4  UNL     1     -35.544  13.989  -4.218  1.00 20.00     0.050 C 
ENDBRANCH   1   3
BRANCH   1   6
HETATM    6  N8  UNL     1     -33.764  16.338  -2.495  1.00 20.00    -0.377 N 
HETATM    7  H22 UNL     1     -32.868  16.682  -2.166  1.00 20.00     0.160 HD
BRANCH   6   8
HETATM    8  C7  UNL     1     -34.887  16.489  -1.587  1.00 20.00     0.074 C 
HETATM    9  C5  UNL     1     -35.992  17.266  -2.288  1.00 20.00     0.031 C 
HETATM   10  C6  UNL     1     -34.410  17.200  -0.329  1.00 20.00     0.031 C 
ENDBRANCH   6   8
ENDBRANCH   1   6
TORSDOF 3
ENDMDL
MODEL 7
REMARK VINA RESULT:      -3.5     12.089     13.349
REMARK  3 active torsions:
REMARK  status: ('A' for Active; 'I' for Inactive)
REMARK    1  A    between atoms: C2_2  and  C3_3 
REMARK    2  A    between atoms: C3_3  and  N8_8 
REMARK    3  A    between atoms: C7_7  and  N8_8 
ROOT
HETATM    1  C3  UNL     1     -34.208  15.008  -4.542  1.00 20.00     0.102 C 
HETATM    2  S9  UNL     1     -34.606  13.374  -4.611  1.00 20.00    -0.060 SA
ENDROOT
BRANCH   1   3
HETATM    3  C2  UNL     1     -33.991  15.849  -5.752  1.00 20.00    -0.034 C 
HETATM    4  C1  UNL     1     -33.515  17.088  -5.565  1.00 20.00     0.021 C 
HETATM    5  C4  UNL     1     -34.330  15.268  -7.086  1.00 20.00     0.050 C 
ENDBRANCH   1   3
BRANCH   1   6
HETATM    6  N8  UNL     1     -34.061  15.624  -3.318  1.00 20.00    -0.377 N 
HETATM    7  H22 UNL     1     -33.133  15.966  -3.092  1.00 20.00     0.160 HD
BRANCH   6   8
HETATM    8  C7  UNL     1     -35.096  15.856  -2.327  1.00 20.00     0.074 C 
HETATM    9  C5  UNL     1     -36.224  16.656  -2.964  1.00 20.00     0.031 C 
HETATM   10  C6  UNL     1     -34.486  16.589  -1.141  1.00 20.00     0.031 C 
ENDBRANCH   6   8
ENDBRANCH   1   6
TORSDOF 3
ENDMDL
MODEL 8
REMARK VINA RESULT:      -3.5     12.118     13.053
REMARK  3 active torsions:
REMARK  status: ('A' for Active; 'I' for Inactive)
REMARK    1  A    between atoms: C2_2  and  C3_3 
REMARK    2  A    between atoms: C3_3  and  N8_8 
REMARK    3  A    between atoms: C7_7  and  N8_8 
ROOT
HETATM    1  C3  UNL     1     -34.256  14.847  -4.039  1.00 20.00     0.102 C 
HETATM    2  S9  UNL     1     -34.421  13.275  -4.616  1.00 20.00    -0.060 SA
ENDROOT
BRANCH   1   3
HETATM    3  C2  UNL     1     -35.184  15.455  -3.045  1.00 20.00    -0.034 C 
HETATM    4  C1  UNL     1     -36.497  15.394  -3.308  1.00 20.00     0.021 C 
HETATM    5  C4  UNL     1     -34.596  16.106  -1.835  1.00 20.00     0.050 C 
ENDBRANCH   1   3
BRANCH   1   6
HETATM    6  N8  UNL     1     -33.224  15.638  -4.495  1.00 20.00    -0.377 N 
HETATM    7  H22 UNL     1     -32.315  15.487  -4.070  1.00 20.00     0.160 HD
BRANCH   6   8
HETATM    8  C7  UNL     1     -33.292  16.648  -5.535  1.00 20.00     0.074 C 
HETATM    9  C5  UNL     1     -33.556  18.004  -4.895  1.00 20.00     0.031 C 
HETATM   10  C6  UNL     1     -34.388  16.268  -6.520  1.00 20.00     0.031 C 
ENDBRANCH   6   8
ENDBRANCH   1   6
TORSDOF 3
ENDMDL
MODEL 9
REMARK VINA RESULT:      -3.4     11.958     12.807
REMARK  3 active torsions:
REMARK  status: ('A' for Active; 'I' for Inactive)
REMARK    1  A    between atoms: C2_2  and  C3_3 
REMARK    2  A    between atoms: C3_3  and  N8_8 
REMARK    3  A    between atoms: C7_7  and  N8_8 
ROOT
HETATM    1  C3  UNL     1     -35.445  14.827  -3.371  1.00 20.00     0.102 C 
HETATM    2  S9  UNL     1     -35.149  13.521  -4.391  1.00 20.00    -0.060 SA
ENDROOT
BRANCH   1   3
HETATM    3  C2  UNL     1     -34.364  15.647  -2.758  1.00 20.00    -0.034 C 
HETATM    4  C1  UNL     1     -33.187  15.697  -3.397  1.00 20.00     0.021 C 
HETATM    5  C4  UNL     1     -34.653  16.346  -1.468  1.00 20.00     0.050 C 
ENDBRANCH   1   3
BRANCH   1   6
HETATM    6  N8  UNL     1     -36.743  15.173  -3.064  1.00 20.00    -0.377 N 
HETATM    7  H22 UNL     1     -37.040  15.010  -2.107  1.00 20.00     0.160 HD
BRANCH   6   8
HETATM    8  C7  UNL     1     -37.723  15.765  -3.955  1.00 20.00     0.074 C 
HETATM    9  C5  UNL     1     -37.992  17.198  -3.517  1.00 20.00     0.031 C 
HETATM   10  C6  UNL     1     -38.988  14.920  -3.926  1.00 20.00     0.031 C 
ENDBRANCH   6   8
ENDBRANCH   1   6
TORSDOF 3
ENDMDL
