MODEL 1
REMARK VINA RESULT:      -4.4      0.000      0.000
REMARK  4 active torsions:
REMARK  status: ('A' for Active; 'I' for Inactive)
REMARK    1  A    between atoms: C1_1  and  C7_7 
REMARK    2  A    between atoms: C1_1  and  O11_11 
REMARK    3  A    between atoms: C7_7  and  C8_8 
REMARK    4  A    between atoms: C8_8  and  C9_9 
ROOT
HETATM    1  C2  UNL     1     -33.298  16.438  -4.405  1.00 20.00     0.011 C 
HETATM    2  C8  UNL     1     -33.790  15.937  -3.033  1.00 20.00    -0.002 C 
ENDROOT
BRANCH   2   3
HETATM    3  C7  UNL     1     -34.689  14.696  -3.244  1.00 20.00     0.116 C 
BRANCH   3   4
HETATM    4  C1  UNL     1     -33.936  13.505  -3.803  1.00 20.00     0.258 C 
HETATM    5  O10 UNL     1     -32.815  13.157  -3.460  1.00 20.00    -0.265 OA
BRANCH   4   6
HETATM    6  O11 UNL     1     -34.726  12.869  -4.719  1.00 20.00    -0.326 OA
HETATM    7  C6  UNL     1     -35.159  13.670  -5.824  1.00 20.00     0.213 C 
ENDBRANCH   4   6
ENDBRANCH   3   4
ENDBRANCH   2   3
BRANCH   2   8
HETATM    8  C9  UNL     1     -34.476  17.065  -2.171  1.00 20.00    -0.048 C 
HETATM    9  C3  UNL     1     -34.610  16.671  -0.689  1.00 20.00     0.015 C 
HETATM   10  C4  UNL     1     -35.885  17.386  -2.716  1.00 20.00     0.015 C 
HETATM   11  C5  UNL     1     -33.654  18.372  -2.253  1.00 20.00     0.015 C 
ENDBRANCH   2   8
TORSDOF 4
ENDMDL
MODEL 2
REMARK VINA RESULT:      -4.4      0.038      1.298
REMARK  4 active torsions:
REMARK  status: ('A' for Active; 'I' for Inactive)
REMARK    1  A    between atoms: C1_1  and  C7_7 
REMARK    2  A    between atoms: C1_1  and  O11_11 
REMARK    3  A    between atoms: C7_7  and  C8_8 
REMARK    4  A    between atoms: C8_8  and  C9_9 
ROOT
HETATM    1  C2  UNL     1     -33.284  16.444  -4.416  1.00 20.00     0.011 C 
HETATM    2  C8  UNL     1     -33.772  15.960  -3.037  1.00 20.00    -0.002 C 
ENDROOT
BRANCH   2   3
HETATM    3  C7  UNL     1     -34.685  14.726  -3.233  1.00 20.00     0.116 C 
BRANCH   3   4
HETATM    4  C1  UNL     1     -33.946  13.521  -3.781  1.00 20.00     0.258 C 
HETATM    5  O10 UNL     1     -32.820  13.175  -3.451  1.00 20.00    -0.265 OA
BRANCH   4   6
HETATM    6  O11 UNL     1     -34.753  12.870  -4.671  1.00 20.00    -0.326 OA
HETATM    7  C6  UNL     1     -35.152  13.632  -5.815  1.00 20.00     0.213 C 
ENDBRANCH   4   6
ENDBRANCH   3   4
ENDBRANCH   2   3
BRANCH   2   8
HETATM    8  C9  UNL     1     -34.442  17.101  -2.181  1.00 20.00    -0.048 C 
HETATM    9  C3  UNL     1     -33.629  18.408  -2.207  1.00 20.00     0.015 C 
HETATM   10  C4  UNL     1     -34.599  16.658  -0.709  1.00 20.00     0.015 C 
HETATM   11  C5  UNL     1     -35.862  17.403  -2.713  1.00 20.00     0.015 C 
ENDBRANCH   2   8
TORSDOF 4
ENDMDL
MODEL 3
REMARK VINA RESULT:      -4.2      1.592      2.262
REMARK  4 active torsions:
REMARK  status: ('A' for Active; 'I' for Inactive)
REMARK    1  A    between atoms: C1_1  and  C7_7 
REMARK    2  A    between atoms: C1_1  and  O11_11 
REMARK    3  A    between atoms: C7_7  and  C8_8 
REMARK    4  A    between atoms: C8_8  and  C9_9 
ROOT
HETATM    1  C2  UNL     1     -32.921  15.415  -3.507  1.00 20.00     0.011 C 
HETATM    2  C8  UNL     1     -34.376  15.499  -3.007  1.00 20.00    -0.002 C 
ENDROOT
BRANCH   2   3
HETATM    3  C7  UNL     1     -35.330  15.220  -4.192  1.00 20.00     0.116 C 
BRANCH   3   4
HETATM    4  C1  UNL     1     -35.982  13.854  -4.121  1.00 20.00     0.258 C 
HETATM    5  O10 UNL     1     -35.410  12.790  -4.317  1.00 20.00    -0.265 OA
BRANCH   4   6
HETATM    6  O11 UNL     1     -37.293  14.002  -3.769  1.00 20.00    -0.326 OA
HETATM    7  C6  UNL     1     -38.054  14.899  -4.585  1.00 20.00     0.213 C 
ENDBRANCH   4   6
ENDBRANCH   3   4
ENDBRANCH   2   3
BRANCH   2   8
HETATM    8  C9  UNL     1     -34.695  16.845  -2.252  1.00 20.00    -0.048 C 
HETATM    9  C3  UNL     1     -33.731  17.980  -2.643  1.00 20.00     0.015 C 
HETATM   10  C4  UNL     1     -34.612  16.646  -0.723  1.00 20.00     0.015 C 
HETATM   11  C5  UNL     1     -36.137  17.304  -2.568  1.00 20.00     0.015 C 
ENDBRANCH   2   8
TORSDOF 4
ENDMDL
MODEL 4
REMARK VINA RESULT:      -4.0     11.213     12.629
REMARK  4 active torsions:
REMARK  status: ('A' for Active; 'I' for Inactive)
REMARK    1  A    between atoms: C1_1  and  C7_7 
REMARK    2  A    between atoms: C1_1  and  O11_11 
REMARK    3  A    between atoms: C7_7  and  C8_8 
REMARK    4  A    between atoms: C8_8  and  C9_9 
ROOT
HETATM    1  C2  UNL     1     -33.682   7.031   6.564  1.00 20.00     0.011 C 
HETATM    2  C8  UNL     1     -33.594   6.060   5.370  1.00 20.00    -0.002 C 
ENDROOT
BRANCH   2   3
HETATM    3  C7  UNL     1     -33.604   6.877   4.057  1.00 20.00     0.116 C 
BRANCH   3   4
HETATM    4  C1  UNL     1     -32.377   6.638   3.199  1.00 20.00     0.258 C 
HETATM    5  O10 UNL     1     -32.028   5.552   2.758  1.00 20.00    -0.265 OA
BRANCH   4   6
HETATM    6  O11 UNL     1     -31.753   7.831   2.971  1.00 20.00    -0.326 OA
HETATM    7  C6  UNL     1     -32.078   8.471   1.732  1.00 20.00     0.213 C 
ENDBRANCH   4   6
ENDBRANCH   3   4
ENDBRANCH   2   3
BRANCH   2   8
HETATM    8  C9  UNL     1     -34.691   4.929   5.409  1.00 20.00    -0.048 C 
HETATM    9  C3  UNL     1     -35.478   4.920   6.733  1.00 20.00     0.015 C 
HETATM   10  C4  UNL     1     -34.047   3.538   5.220  1.00 20.00     0.015 C 
HETATM   11  C5  UNL     1     -35.695   5.121   4.249  1.00 20.00     0.015 C 
ENDBRANCH   2   8
TORSDOF 4
ENDMDL
MODEL 5
REMARK VINA RESULT:      -4.0      2.356      3.827
REMARK  4 active torsions:
REMARK  status: ('A' for Active; 'I' for Inactive)
REMARK    1  A    between atoms: C1_1  and  C7_7 
REMARK    2  A    between atoms: C1_1  and  O11_11 
REMARK    3  A    between atoms: C7_7  and  C8_8 
REMARK    4  A    between atoms: C8_8  and  C9_9 
ROOT
HETATM    1  C2  UNL     1     -34.762  13.269  -4.625  1.00 20.00     0.011 C 
HETATM    2  C8  UNL     1     -35.029  14.582  -3.864  1.00 20.00    -0.002 C 
ENDROOT
BRANCH   2   3
HETATM    3  C7  UNL     1     -36.171  15.349  -4.572  1.00 20.00     0.116 C 
BRANCH   3   4
HETATM    4  C1  UNL     1     -37.504  15.221  -3.862  1.00 20.00     0.258 C 
HETATM    5  O10 UNL     1     -38.113  14.174  -3.692  1.00 20.00    -0.265 OA
BRANCH   4   6
HETATM    6  O11 UNL     1     -37.890  16.452  -3.414  1.00 20.00    -0.326 OA
HETATM    7  C6  UNL     1     -37.078  17.549  -3.845  1.00 20.00     0.213 C 
ENDBRANCH   4   6
ENDBRANCH   3   4
ENDBRANCH   2   3
BRANCH   2   8
HETATM    8  C9  UNL     1     -33.732  15.450  -3.652  1.00 20.00    -0.048 C 
HETATM    9  C3  UNL     1     -33.489  16.436  -4.810  1.00 20.00     0.015 C 
HETATM   10  C4  UNL     1     -32.486  14.546  -3.518  1.00 20.00     0.015 C 
HETATM   11  C5  UNL     1     -33.842  16.261  -2.340  1.00 20.00     0.015 C 
ENDBRANCH   2   8
TORSDOF 4
ENDMDL
MODEL 6
REMARK VINA RESULT:      -4.0      2.693      3.641
REMARK  4 active torsions:
REMARK  status: ('A' for Active; 'I' for Inactive)
REMARK    1  A    between atoms: C1_1  and  C7_7 
REMARK    2  A    between atoms: C1_1  and  O11_11 
REMARK    3  A    between atoms: C7_7  and  C8_8 
REMARK    4  A    between atoms: C8_8  and  C9_9 
ROOT
HETATM    1  C2  UNL     1     -34.725  13.164  -4.688  1.00 20.00     0.011 C 
HETATM    2  C8  UNL     1     -35.086  14.428  -3.885  1.00 20.00    -0.002 C 
ENDROOT
BRANCH   2   3
HETATM    3  C7  UNL     1     -36.255  15.155  -4.593  1.00 20.00     0.116 C 
BRANCH   3   4
HETATM    4  C1  UNL     1     -37.453  15.373  -3.691  1.00 20.00     0.258 C 
HETATM    5  O10 UNL     1     -37.654  16.375  -3.018  1.00 20.00    -0.265 OA
BRANCH   4   6
HETATM    6  O11 UNL     1     -38.283  14.293  -3.782  1.00 20.00    -0.326 OA
HETATM    7  C6  UNL     1     -39.534  14.528  -4.437  1.00 20.00     0.213 C 
ENDBRANCH   4   6
ENDBRANCH   3   4
ENDBRANCH   2   3
BRANCH   2   8
HETATM    8  C9  UNL     1     -33.847  15.362  -3.609  1.00 20.00    -0.048 C 
HETATM    9  C3  UNL     1     -34.007  16.181  -2.316  1.00 20.00     0.015 C 
HETATM   10  C4  UNL     1     -33.634  16.345  -4.781  1.00 20.00     0.015 C 
HETATM   11  C5  UNL     1     -32.559  14.516  -3.491  1.00 20.00     0.015 C 
ENDBRANCH   2   8
TORSDOF 4
ENDMDL
MODEL 7
REMARK VINA RESULT:      -4.0      1.362      2.546
REMARK  4 active torsions:
REMARK  status: ('A' for Active; 'I' for Inactive)
REMARK    1  A    between atoms: C1_1  and  C7_7 
REMARK    2  A    between atoms: C1_1  and  O11_11 
REMARK    3  A    between atoms: C7_7  and  C8_8 
REMARK    4  A    between atoms: C8_8  and  C9_9 
ROOT
HETATM    1  C2  UNL     1     -34.457  16.318  -1.487  1.00 20.00     0.011 C 
HETATM    2  C8  UNL     1     -34.932  16.084  -2.934  1.00 20.00    -0.002 C 
ENDROOT
BRANCH   2   3
HETATM    3  C7  UNL     1     -34.568  14.640  -3.354  1.00 20.00     0.116 C 
BRANCH   3   4
HETATM    4  C1  UNL     1     -35.645  13.974  -4.186  1.00 20.00     0.258 C 
HETATM    5  O10 UNL     1     -36.833  13.931  -3.897  1.00 20.00    -0.265 OA
BRANCH   4   6
HETATM    6  O11 UNL     1     -35.081  13.466  -5.322  1.00 20.00    -0.326 OA
HETATM    7  C6  UNL     1     -35.339  14.204  -6.522  1.00 20.00     0.213 C 
ENDBRANCH   4   6
ENDBRANCH   3   4
ENDBRANCH   2   3
BRANCH   2   8
HETATM    8  C9  UNL     1     -34.410  17.177  -3.942  1.00 20.00    -0.048 C 
HETATM    9  C3  UNL     1     -33.239  16.670  -4.804  1.00 20.00     0.015 C 
HETATM   10  C4  UNL     1     -33.942  18.439  -3.184  1.00 20.00     0.015 C 
HETATM   11  C5  UNL     1     -35.552  17.619  -4.887  1.00 20.00     0.015 C 
ENDBRANCH   2   8
TORSDOF 4
ENDMDL
MODEL 8
REMARK VINA RESULT:      -4.0      2.400      4.483
REMARK  4 active torsions:
REMARK  status: ('A' for Active; 'I' for Inactive)
REMARK    1  A    between atoms: C1_1  and  C7_7 
REMARK    2  A    between atoms: C1_1  and  O11_11 
REMARK    3  A    between atoms: C7_7  and  C8_8 
REMARK    4  A    between atoms: C8_8  and  C9_9 
ROOT
HETATM    1  C2  UNL     1     -33.285  16.667  -5.012  1.00 20.00     0.011 C 
HETATM    2  C8  UNL     1     -34.376  16.034  -4.127  1.00 20.00    -0.002 C 
ENDROOT
BRANCH   2   3
HETATM    3  C7  UNL     1     -33.910  16.077  -2.652  1.00 20.00     0.116 C 
BRANCH   3   4
HETATM    4  C1  UNL     1     -34.924  16.721  -1.727  1.00 20.00     0.258 C 
HETATM    5  O10 UNL     1     -35.988  17.209  -2.080  1.00 20.00    -0.265 OA
BRANCH   4   6
HETATM    6  O11 UNL     1     -34.474  16.632  -0.441  1.00 20.00    -0.326 OA
HETATM    7  C6  UNL     1     -35.139  17.475   0.506  1.00 20.00     0.213 C 
ENDBRANCH   4   6
ENDBRANCH   3   4
ENDBRANCH   2   3
BRANCH   2   8
HETATM    8  C9  UNL     1     -34.804  14.595  -4.605  1.00 20.00    -0.048 C 
HETATM    9  C3  UNL     1     -34.737  14.441  -6.135  1.00 20.00     0.015 C 
HETATM   10  C4  UNL     1     -36.245  14.276  -4.149  1.00 20.00     0.015 C 
HETATM   11  C5  UNL     1     -33.885  13.527  -3.969  1.00 20.00     0.015 C 
ENDBRANCH   2   8
TORSDOF 4
ENDMDL
MODEL 9
REMARK VINA RESULT:      -3.9      2.368      4.380
REMARK  4 active torsions:
REMARK  status: ('A' for Active; 'I' for Inactive)
REMARK    1  A    between atoms: C1_1  and  C7_7 
REMARK    2  A    between atoms: C1_1  and  O11_11 
REMARK    3  A    between atoms: C7_7  and  C8_8 
REMARK    4  A    between atoms: C8_8  and  C9_9 
ROOT
HETATM    1  C2  UNL     1     -33.287  16.668  -5.194  1.00 20.00     0.011 C 
HETATM    2  C8  UNL     1     -34.231  15.999  -4.177  1.00 20.00    -0.002 C 
ENDROOT
BRANCH   2   3
HETATM    3  C7  UNL     1     -33.517  15.920  -2.807  1.00 20.00     0.116 C 
BRANCH   3   4
HETATM    4  C1  UNL     1     -33.951  17.009  -1.846  1.00 20.00     0.258 C 
HETATM    5  O10 UNL     1     -33.699  18.199  -1.971  1.00 20.00    -0.265 OA
BRANCH   4   6
HETATM    6  O11 UNL     1     -34.696  16.451  -0.846  1.00 20.00    -0.326 OA
HETATM    7  C6  UNL     1     -34.923  17.286   0.294  1.00 20.00     0.213 C 
ENDBRANCH   4   6
ENDBRANCH   3   4
ENDBRANCH   2   3
BRANCH   2   8
HETATM    8  C9  UNL     1     -34.790  14.610  -4.670  1.00 20.00    -0.048 C 
HETATM    9  C3  UNL     1     -33.924  13.428  -4.198  1.00 20.00     0.015 C 
HETATM   10  C4  UNL     1     -34.864  14.569  -6.212  1.00 20.00     0.015 C 
HETATM   11  C5  UNL     1     -36.228  14.398  -4.145  1.00 20.00     0.015 C 
ENDBRANCH   2   8
TORSDOF 4
ENDMDL
