MODEL 1
REMARK VINA RESULT:      -5.0      0.000      0.000
REMARK  2 active torsions:
REMARK  status: ('A' for Active; 'I' for Inactive)
REMARK    1  A    between atoms: C4_4  and  C8_8 
REMARK    2  A    between atoms: C5_5  and  O9_9 
ROOT
HETATM    1  C1  UNL     1     -33.471   6.022   5.464  1.00 20.00     0.007 C 
HETATM    2  C2  UNL     1     -34.739   5.532   6.146  1.00 20.00     0.032 C 
HETATM    3  C3  UNL     1     -35.081   5.493   3.730  1.00 20.00     0.036 C 
HETATM    4  C4  UNL     1     -33.981   6.498   4.106  1.00 20.00    -0.009 C 
HETATM    5  C5  UNL     1     -35.475   4.793   5.035  1.00 20.00     0.118 C 
ENDROOT
BRANCH   4   6
HETATM    6  C8  UNL     1     -32.882   6.603   3.062  1.00 20.00    -0.019 C 
HETATM    7  C6  UNL     1     -31.827   7.628   3.482  1.00 20.00     0.010 C 
HETATM    8  C7  UNL     1     -32.231   5.240   2.816  1.00 20.00     0.010 C 
ENDBRANCH   4   6
BRANCH   5   9
HETATM    9  O9  UNL     1     -35.028   3.441   4.979  1.00 20.00    -0.396 OA
HETATM   10  H25 UNL     1     -34.966   3.132   5.897  1.00 20.00     0.210 HD
ENDBRANCH   5   9
TORSDOF 2
ENDMDL
MODEL 2
REMARK VINA RESULT:      -4.6     11.609     12.727
REMARK  2 active torsions:
REMARK  status: ('A' for Active; 'I' for Inactive)
REMARK    1  A    between atoms: C4_4  and  C8_8 
REMARK    2  A    between atoms: C5_5  and  O9_9 
ROOT
HETATM    1  C1  UNL     1     -34.845  15.512  -4.959  1.00 20.00     0.007 C 
HETATM    2  C2  UNL     1     -34.765  14.234  -5.780  1.00 20.00     0.032 C 
HETATM    3  C3  UNL     1     -33.449  13.944  -3.745  1.00 20.00     0.036 C 
HETATM    4  C4  UNL     1     -33.591  15.434  -4.092  1.00 20.00    -0.009 C 
HETATM    5  C5  UNL     1     -34.307  13.191  -4.767  1.00 20.00     0.118 C 
ENDROOT
BRANCH   4   6
HETATM    6  C8  UNL     1     -33.658  16.331  -2.867  1.00 20.00    -0.019 C 
HETATM    7  C6  UNL     1     -33.796  17.800  -3.274  1.00 20.00     0.010 C 
HETATM    8  C7  UNL     1     -34.816  15.921  -1.955  1.00 20.00     0.010 C 
ENDBRANCH   4   6
BRANCH   5   9
HETATM    9  O9  UNL     1     -35.439  12.644  -4.096  1.00 20.00    -0.396 OA
HETATM   10  H25 UNL     1     -36.224  13.021  -4.526  1.00 20.00     0.210 HD
ENDBRANCH   5   9
TORSDOF 2
ENDMDL
MODEL 3
REMARK VINA RESULT:      -4.3     11.932     12.951
REMARK  2 active torsions:
REMARK  status: ('A' for Active; 'I' for Inactive)
REMARK    1  A    between atoms: C4_4  and  C8_8 
REMARK    2  A    between atoms: C5_5  and  O9_9 
ROOT
HETATM    1  C1  UNL     1     -33.890  13.895  -3.591  1.00 20.00     0.007 C 
HETATM    2  C2  UNL     1     -34.660  13.269  -4.744  1.00 20.00     0.032 C 
HETATM    3  C3  UNL     1     -35.228  15.639  -4.615  1.00 20.00     0.036 C 
HETATM    4  C4  UNL     1     -34.729  15.126  -3.255  1.00 20.00    -0.009 C 
HETATM    5  C5  UNL     1     -35.065  14.469  -5.592  1.00 20.00     0.118 C 
ENDROOT
BRANCH   4   6
HETATM    6  C8  UNL     1     -33.959  16.172  -2.466  1.00 20.00    -0.019 C 
HETATM    7  C6  UNL     1     -33.807  17.462  -3.275  1.00 20.00     0.010 C 
HETATM    8  C7  UNL     1     -34.646  16.460  -1.130  1.00 20.00     0.010 C 
ENDBRANCH   4   6
BRANCH   5   9
HETATM    9  O9  UNL     1     -34.021  14.784  -6.509  1.00 20.00    -0.396 OA
HETATM   10  H25 UNL     1     -34.241  15.648  -6.892  1.00 20.00     0.210 HD
ENDBRANCH   5   9
TORSDOF 2
ENDMDL
MODEL 4
REMARK VINA RESULT:      -4.1     11.920     12.586
REMARK  2 active torsions:
REMARK  status: ('A' for Active; 'I' for Inactive)
REMARK    1  A    between atoms: C4_4  and  C8_8 
REMARK    2  A    between atoms: C5_5  and  O9_9 
ROOT
HETATM    1  C1  UNL     1     -35.532  15.611  -2.823  1.00 20.00     0.007 C 
HETATM    2  C2  UNL     1     -35.547  14.713  -4.050  1.00 20.00     0.032 C 
HETATM    3  C3  UNL     1     -33.242  15.363  -3.579  1.00 20.00     0.036 C 
HETATM    4  C4  UNL     1     -34.226  16.384  -2.986  1.00 20.00    -0.009 C 
HETATM    5  C5  UNL     1     -34.103  14.234  -4.155  1.00 20.00     0.118 C 
ENDROOT
BRANCH   4   6
HETATM    6  C8  UNL     1     -33.736  17.004  -1.688  1.00 20.00    -0.019 C 
HETATM    7  C6  UNL     1     -33.515  18.509  -1.852  1.00 20.00     0.010 C 
HETATM    8  C7  UNL     1     -34.720  16.732  -0.549  1.00 20.00     0.010 C 
ENDBRANCH   4   6
BRANCH   5   9
HETATM    9  O9  UNL     1     -33.924  13.070  -3.353  1.00 20.00    -0.396 OA
HETATM   10  H25 UNL     1     -34.731  12.540  -3.450  1.00 20.00     0.210 HD
ENDBRANCH   5   9
TORSDOF 2
ENDMDL
MODEL 5
REMARK VINA RESULT:      -4.1     12.326     13.608
REMARK  2 active torsions:
REMARK  status: ('A' for Active; 'I' for Inactive)
REMARK    1  A    between atoms: C4_4  and  C8_8 
REMARK    2  A    between atoms: C5_5  and  O9_9 
ROOT
HETATM    1  C1  UNL     1     -33.290  15.977  -4.694  1.00 20.00     0.007 C 
HETATM    2  C2  UNL     1     -33.491  15.340  -3.327  1.00 20.00     0.032 C 
HETATM    3  C3  UNL     1     -34.706  14.031  -4.989  1.00 20.00     0.036 C 
HETATM    4  C4  UNL     1     -34.497  15.471  -5.481  1.00 20.00    -0.009 C 
HETATM    5  C5  UNL     1     -33.952  13.926  -3.659  1.00 20.00     0.118 C 
ENDROOT
BRANCH   4   6
HETATM    6  C8  UNL     1     -34.308  15.569  -6.986  1.00 20.00    -0.019 C 
HETATM    7  C6  UNL     1     -35.217  14.577  -7.714  1.00 20.00     0.010 C 
HETATM    8  C7  UNL     1     -34.574  16.994  -7.476  1.00 20.00     0.010 C 
ENDBRANCH   4   6
BRANCH   5   9
HETATM    9  O9  UNL     1     -32.819  13.082  -3.843  1.00 20.00    -0.396 OA
HETATM   10  H25 UNL     1     -32.290  13.480  -4.554  1.00 20.00     0.210 HD
ENDBRANCH   5   9
TORSDOF 2
ENDMDL
MODEL 6
REMARK VINA RESULT:      -4.0     12.258     13.032
REMARK  2 active torsions:
REMARK  status: ('A' for Active; 'I' for Inactive)
REMARK    1  A    between atoms: C4_4  and  C8_8 
REMARK    2  A    between atoms: C5_5  and  O9_9 
ROOT
HETATM    1  C1  UNL     1     -35.051  16.086  -3.196  1.00 20.00     0.007 C 
HETATM    2  C2  UNL     1     -33.614  16.119  -2.698  1.00 20.00     0.032 C 
HETATM    3  C3  UNL     1     -33.940  14.099  -4.029  1.00 20.00     0.036 C 
HETATM    4  C4  UNL     1     -35.280  14.602  -3.469  1.00 20.00    -0.009 C 
HETATM    5  C5  UNL     1     -32.896  15.146  -3.628  1.00 20.00     0.118 C 
ENDROOT
BRANCH   4   6
HETATM    6  C8  UNL     1     -36.453  14.343  -4.400  1.00 20.00    -0.019 C 
HETATM    7  C6  UNL     1     -37.753  14.884  -3.801  1.00 20.00     0.010 C 
HETATM    8  C7  UNL     1     -36.204  14.963  -5.776  1.00 20.00     0.010 C 
ENDBRANCH   4   6
BRANCH   5   9
HETATM    9  O9  UNL     1     -32.466  15.832  -4.800  1.00 20.00    -0.396 OA
HETATM   10  H25 UNL     1     -32.780  15.311  -5.557  1.00 20.00     0.210 HD
ENDBRANCH   5   9
TORSDOF 2
ENDMDL
MODEL 7
REMARK VINA RESULT:      -4.0      1.779      3.593
REMARK  2 active torsions:
REMARK  status: ('A' for Active; 'I' for Inactive)
REMARK    1  A    between atoms: C4_4  and  C8_8 
REMARK    2  A    between atoms: C5_5  and  O9_9 
ROOT
HETATM    1  C1  UNL     1     -34.684   4.983   3.794  1.00 20.00     0.007 C 
HETATM    2  C2  UNL     1     -34.126   5.414   2.446  1.00 20.00     0.032 C 
HETATM    3  C3  UNL     1     -33.248   6.899   4.172  1.00 20.00     0.036 C 
HETATM    4  C4  UNL     1     -34.565   6.254   4.631  1.00 20.00    -0.009 C 
HETATM    5  C5  UNL     1     -32.914   6.261   2.820  1.00 20.00     0.118 C 
ENDROOT
BRANCH   4   6
HETATM    6  C8  UNL     1     -34.613   5.988   6.127  1.00 20.00    -0.019 C 
HETATM    7  C6  UNL     1     -34.320   4.517   6.428  1.00 20.00     0.010 C 
HETATM    8  C7  UNL     1     -33.628   6.890   6.872  1.00 20.00     0.010 C 
ENDBRANCH   4   6
BRANCH   5   9
HETATM    9  O9  UNL     1     -31.774   5.422   2.980  1.00 20.00    -0.396 OA
HETATM   10  H25 UNL     1     -31.040   6.001   3.243  1.00 20.00     0.210 HD
ENDBRANCH   5   9
TORSDOF 2
ENDMDL
MODEL 8
REMARK VINA RESULT:      -4.0      9.021     10.367
REMARK  2 active torsions:
REMARK  status: ('A' for Active; 'I' for Inactive)
REMARK    1  A    between atoms: C4_4  and  C8_8 
REMARK    2  A    between atoms: C5_5  and  O9_9 
ROOT
HETATM    1  C1  UNL     1     -42.115   5.060  -2.151  1.00 20.00     0.007 C 
HETATM    2  C2  UNL     1     -40.948   4.520  -1.337  1.00 20.00     0.032 C 
HETATM    3  C3  UNL     1     -41.089   6.934  -1.003  1.00 20.00     0.036 C 
HETATM    4  C4  UNL     1     -41.747   6.531  -2.332  1.00 20.00    -0.009 C 
HETATM    5  C5  UNL     1     -40.688   5.624  -0.317  1.00 20.00     0.118 C 
ENDROOT
BRANCH   4   6
HETATM    6  C8  UNL     1     -42.939   7.400  -2.699  1.00 20.00    -0.019 C 
HETATM    7  C6  UNL     1     -43.410   8.215  -1.493  1.00 20.00     0.010 C 
HETATM    8  C7  UNL     1     -42.598   8.327  -3.867  1.00 20.00     0.010 C 
ENDBRANCH   4   6
BRANCH   5   9
HETATM    9  O9  UNL     1     -41.521   5.431   0.822  1.00 20.00    -0.396 OA
HETATM   10  H25 UNL     1     -41.990   4.592   0.683  1.00 20.00     0.210 HD
ENDBRANCH   5   9
TORSDOF 2
ENDMDL
MODEL 9
REMARK VINA RESULT:      -3.8     12.290     13.411
REMARK  2 active torsions:
REMARK  status: ('A' for Active; 'I' for Inactive)
REMARK    1  A    between atoms: C4_4  and  C8_8 
REMARK    2  A    between atoms: C5_5  and  O9_9 
ROOT
HETATM    1  C1  UNL     1     -34.452  15.389  -2.690  1.00 20.00     0.007 C 
HETATM    2  C2  UNL     1     -33.962  16.731  -2.170  1.00 20.00     0.032 C 
HETATM    3  C3  UNL     1     -33.375  16.541  -4.531  1.00 20.00     0.036 C 
HETATM    4  C4  UNL     1     -33.558  15.151  -3.904  1.00 20.00    -0.009 C 
HETATM    5  C5  UNL     1     -33.754  17.549  -3.440  1.00 20.00     0.118 C 
ENDROOT
BRANCH   4   6
HETATM    6  C8  UNL     1     -34.130  14.128  -4.872  1.00 20.00    -0.019 C 
HETATM    7  C6  UNL     1     -35.321  13.396  -4.250  1.00 20.00     0.010 C 
HETATM    8  C7  UNL     1     -34.542  14.792  -6.187  1.00 20.00     0.010 C 
ENDBRANCH   4   6
BRANCH   5   9
HETATM    9  O9  UNL     1     -34.976  18.181  -3.809  1.00 20.00    -0.396 OA
HETATM   10  H25 UNL     1     -35.515  17.506  -4.250  1.00 20.00     0.210 HD
ENDBRANCH   5   9
TORSDOF 2
ENDMDL
