MODEL 1
REMARK VINA RESULT:      -4.9      0.000      0.000
REMARK  0 active torsions:
REMARK  status: ('A' for Active; 'I' for Inactive)
ROOT
HETATM    1  C1  UNL     1     -34.634  14.947  -2.847  1.00 20.00     0.047 A 
HETATM    2  C2  UNL     1     -34.501  14.963  -4.247  1.00 20.00     0.026 A 
HETATM    3  C3  UNL     1     -34.187  16.199  -4.736  1.00 20.00    -0.001 A 
HETATM    4  C4  UNL     1     -34.410  16.212  -2.328  1.00 20.00     0.075 A 
HETATM    5  C5  UNL     1     -34.606  14.034  -5.342  1.00 20.00     0.175 A 
HETATM    6  C6  UNL     1     -34.017  16.268  -6.210  1.00 20.00     0.071 A 
HETATM    7  C7  UNL     1     -34.361  14.812  -6.644  1.00 20.00     0.137 A 
HETATM    8  O8  UNL     1     -34.867  12.845  -5.242  1.00 20.00    -0.291 OA
HETATM    9  S9  UNL     1     -34.043  17.377  -3.555  1.00 20.00    -0.082 SA
HETATM   10 CL10 UNL     1     -34.460  16.697  -0.684  1.00 20.00    -0.076 Cl
HETATM   11 BR11 UNL     1     -36.029  14.754  -7.634  1.00 20.00    -0.082 Br
ENDROOT
TORSDOF 0
ENDMDL
MODEL 2
REMARK VINA RESULT:      -4.5      1.912      2.183
REMARK  0 active torsions:
REMARK  status: ('A' for Active; 'I' for Inactive)
ROOT
HETATM    1  C1  UNL     1     -34.418  16.255  -1.530  1.00 20.00     0.047 A 
HETATM    2  C2  UNL     1     -33.961  16.380  -2.854  1.00 20.00     0.026 A 
HETATM    3  C3  UNL     1     -34.089  17.649  -3.342  1.00 20.00    -0.001 A 
HETATM    4  C4  UNL     1     -34.888  17.473  -1.066  1.00 20.00     0.075 A 
HETATM    5  C5  UNL     1     -33.386  15.538  -3.871  1.00 20.00     0.175 A 
HETATM    6  C6  UNL     1     -33.604  17.841  -4.732  1.00 20.00     0.071 A 
HETATM    7  C7  UNL     1     -33.179  16.396  -5.129  1.00 20.00     0.137 A 
HETATM    8  O8  UNL     1     -33.134  14.349  -3.751  1.00 20.00    -0.291 OA
HETATM    9  S9  UNL     1     -34.756  18.729  -2.250  1.00 20.00    -0.082 SA
HETATM   10 CL10 UNL     1     -35.545  17.826   0.478  1.00 20.00    -0.076 Cl
HETATM   11 BR11 UNL     1     -34.360  15.668  -6.485  1.00 20.00    -0.082 Br
ENDROOT
TORSDOF 0
ENDMDL
MODEL 3
REMARK VINA RESULT:      -4.4      4.127      5.033
REMARK  0 active torsions:
REMARK  status: ('A' for Active; 'I' for Inactive)
ROOT
HETATM    1  C1  UNL     1     -34.550  15.399  -2.673  1.00 20.00     0.047 A 
HETATM    2  C2  UNL     1     -34.303  16.678  -2.140  1.00 20.00     0.026 A 
HETATM    3  C3  UNL     1     -33.794  17.547  -3.063  1.00 20.00    -0.001 A 
HETATM    4  C4  UNL     1     -34.202  15.361  -4.014  1.00 20.00     0.075 A 
HETATM    5  C5  UNL     1     -34.431  17.351  -0.874  1.00 20.00     0.175 A 
HETATM    6  C6  UNL     1     -33.531  18.918  -2.556  1.00 20.00     0.071 A 
HETATM    7  C7  UNL     1     -33.902  18.784  -1.049  1.00 20.00     0.137 A 
HETATM    8  O8  UNL     1     -34.862  16.855   0.155  1.00 20.00    -0.291 OA
HETATM    9  S9  UNL     1     -33.591  16.878  -4.584  1.00 20.00    -0.082 SA
HETATM   10 CL10 UNL     1     -34.317  14.032  -5.092  1.00 20.00    -0.076 Cl
HETATM   11 BR11 UNL     1     -32.325  18.922   0.073  1.00 20.00    -0.082 Br
ENDROOT
TORSDOF 0
ENDMDL
MODEL 4
REMARK VINA RESULT:      -4.1      1.774      1.841
REMARK  0 active torsions:
REMARK  status: ('A' for Active; 'I' for Inactive)
ROOT
HETATM    1  C1  UNL     1     -35.361  15.934  -2.323  1.00 20.00     0.047 A 
HETATM    2  C2  UNL     1     -35.706  15.571  -3.637  1.00 20.00     0.026 A 
HETATM    3  C3  UNL     1     -34.879  16.122  -4.573  1.00 20.00    -0.001 A 
HETATM    4  C4  UNL     1     -34.257  16.770  -2.328  1.00 20.00     0.075 A 
HETATM    5  C5  UNL     1     -36.704  14.771  -4.298  1.00 20.00     0.175 A 
HETATM    6  C6  UNL     1     -35.188  15.756  -5.980  1.00 20.00     0.071 A 
HETATM    7  C7  UNL     1     -36.469  14.885  -5.813  1.00 20.00     0.137 A 
HETATM    8  O8  UNL     1     -37.589  14.138  -3.745  1.00 20.00    -0.291 OA
HETATM    9  S9  UNL     1     -33.672  17.086  -3.927  1.00 20.00    -0.082 SA
HETATM   10 CL10 UNL     1     -33.466  17.476  -0.980  1.00 20.00    -0.076 Cl
HETATM   11 BR11 UNL     1     -38.026  15.787  -6.539  1.00 20.00    -0.082 Br
ENDROOT
TORSDOF 0
ENDMDL
MODEL 5
REMARK VINA RESULT:      -3.9      1.757      1.831
REMARK  0 active torsions:
REMARK  status: ('A' for Active; 'I' for Inactive)
ROOT
HETATM    1  C1  UNL     1     -36.088  15.896  -2.930  1.00 20.00     0.047 A 
HETATM    2  C2  UNL     1     -35.910  15.435  -4.247  1.00 20.00     0.026 A 
HETATM    3  C3  UNL     1     -34.597  15.246  -4.569  1.00 20.00    -0.001 A 
HETATM    4  C4  UNL     1     -34.862  16.041  -2.301  1.00 20.00     0.075 A 
HETATM    5  C5  UNL     1     -36.730  15.101  -5.383  1.00 20.00     0.175 A 
HETATM    6  C6  UNL     1     -34.353  14.742  -5.946  1.00 20.00     0.071 A 
HETATM    7  C7  UNL     1     -35.795  14.697  -6.534  1.00 20.00     0.137 A 
HETATM    8  O8  UNL     1     -37.949  15.155  -5.420  1.00 20.00    -0.291 OA
HETATM    9  S9  UNL     1     -33.536  15.609  -3.327  1.00 20.00    -0.082 SA
HETATM   10 CL10 UNL     1     -34.560  16.572  -0.699  1.00 20.00    -0.076 Cl
HETATM   11 BR11 UNL     1     -36.026  16.038  -7.918  1.00 20.00    -0.082 Br
ENDROOT
TORSDOF 0
ENDMDL
MODEL 6
REMARK VINA RESULT:      -3.9      3.931      4.674
REMARK  0 active torsions:
REMARK  status: ('A' for Active; 'I' for Inactive)
ROOT
HETATM    1  C1  UNL     1     -35.586  16.463  -5.956  1.00 20.00     0.047 A 
HETATM    2  C2  UNL     1     -34.831  16.418  -4.769  1.00 20.00     0.026 A 
HETATM    3  C3  UNL     1     -34.426  15.154  -4.447  1.00 20.00    -0.001 A 
HETATM    4  C4  UNL     1     -35.723  15.191  -6.488  1.00 20.00     0.075 A 
HETATM    5  C5  UNL     1     -34.353  17.338  -3.771  1.00 20.00     0.175 A 
HETATM    6  C6  UNL     1     -33.610  15.051  -3.210  1.00 20.00     0.071 A 
HETATM    7  C7  UNL     1     -33.603  16.524  -2.703  1.00 20.00     0.137 A 
HETATM    8  O8  UNL     1     -34.537  18.545  -3.770  1.00 20.00    -0.291 OA
HETATM    9  S9  UNL     1     -34.928  13.984  -5.534  1.00 20.00    -0.082 SA
HETATM   10 CL10 UNL     1     -36.553  14.734  -7.917  1.00 20.00    -0.076 Cl
HETATM   11 BR11 UNL     1     -34.627  16.704  -1.065  1.00 20.00    -0.082 Br
ENDROOT
TORSDOF 0
ENDMDL
MODEL 7
REMARK VINA RESULT:      -3.9      4.041      5.114
REMARK  0 active torsions:
REMARK  status: ('A' for Active; 'I' for Inactive)
ROOT
HETATM    1  C1  UNL     1     -33.719  17.016  -4.612  1.00 20.00     0.047 A 
HETATM    2  C2  UNL     1     -33.925  17.196  -3.232  1.00 20.00     0.026 A 
HETATM    3  C3  UNL     1     -34.559  16.136  -2.649  1.00 20.00    -0.001 A 
HETATM    4  C4  UNL     1     -34.226  15.793  -5.019  1.00 20.00     0.075 A 
HETATM    5  C5  UNL     1     -33.659  18.197  -2.232  1.00 20.00     0.175 A 
HETATM    6  C6  UNL     1     -34.786  16.266  -1.186  1.00 20.00     0.071 A 
HETATM    7  C7  UNL     1     -34.233  17.693  -0.898  1.00 20.00     0.137 A 
HETATM    8  O8  UNL     1     -33.096  19.263  -2.426  1.00 20.00    -0.291 OA
HETATM    9  S9  UNL     1     -34.932  14.900  -3.714  1.00 20.00    -0.082 SA
HETATM   10 CL10 UNL     1     -34.216  15.125  -6.599  1.00 20.00    -0.076 Cl
HETATM   11 BR11 UNL     1     -35.665  18.915  -0.428  1.00 20.00    -0.082 Br
ENDROOT
TORSDOF 0
ENDMDL
MODEL 8
REMARK VINA RESULT:      -3.9      3.122      3.312
REMARK  0 active torsions:
REMARK  status: ('A' for Active; 'I' for Inactive)
ROOT
HETATM    1  C1  UNL     1     -34.977  14.330  -3.611  1.00 20.00     0.047 A 
HETATM    2  C2  UNL     1     -36.048  15.152  -4.005  1.00 20.00     0.026 A 
HETATM    3  C3  UNL     1     -35.639  16.370  -4.466  1.00 20.00    -0.001 A 
HETATM    4  C4  UNL     1     -33.771  14.988  -3.796  1.00 20.00     0.075 A 
HETATM    5  C5  UNL     1     -37.485  15.082  -4.061  1.00 20.00     0.175 A 
HETATM    6  C6  UNL     1     -36.731  17.273  -4.913  1.00 20.00     0.071 A 
HETATM    7  C7  UNL     1     -38.000  16.432  -4.585  1.00 20.00     0.137 A 
HETATM    8  O8  UNL     1     -38.163  14.123  -3.729  1.00 20.00    -0.291 OA
HETATM    9  S9  UNL     1     -33.978  16.580  -4.444  1.00 20.00    -0.082 SA
HETATM   10 CL10 UNL     1     -32.194  14.403  -3.463  1.00 20.00    -0.076 Cl
HETATM   11 BR11 UNL     1     -39.010  17.228  -3.132  1.00 20.00    -0.082 Br
ENDROOT
TORSDOF 0
ENDMDL
MODEL 9
REMARK VINA RESULT:      -3.8      4.046      4.894
REMARK  0 active torsions:
REMARK  status: ('A' for Active; 'I' for Inactive)
ROOT
HETATM    1  C1  UNL     1     -35.872  15.335  -3.616  1.00 20.00     0.047 A 
HETATM    2  C2  UNL     1     -35.419  16.326  -2.726  1.00 20.00     0.026 A 
HETATM    3  C3  UNL     1     -34.070  16.278  -2.521  1.00 20.00    -0.001 A 
HETATM    4  C4  UNL     1     -34.811  14.559  -4.053  1.00 20.00     0.075 A 
HETATM    5  C5  UNL     1     -35.979  17.399  -1.947  1.00 20.00     0.175 A 
HETATM    6  C6  UNL     1     -33.535  17.315  -1.602  1.00 20.00     0.071 A 
HETATM    7  C7  UNL     1     -34.834  18.049  -1.153  1.00 20.00     0.137 A 
HETATM    8  O8  UNL     1     -37.158  17.714  -1.913  1.00 20.00    -0.291 OA
HETATM    9  S9  UNL     1     -33.300  15.059  -3.372  1.00 20.00    -0.082 SA
HETATM   10 CL10 UNL     1     -34.857  13.232  -5.139  1.00 20.00    -0.076 Cl
HETATM   11 BR11 UNL     1     -35.213  17.715   0.720  1.00 20.00    -0.082 Br
ENDROOT
TORSDOF 0
ENDMDL
