MODEL 1
REMARK VINA RESULT:      -3.8      0.000      0.000
REMARK  1 active torsions:
REMARK  status: ('A' for Active; 'I' for Inactive)
REMARK    1  A    between atoms: C2_2  and  C6_6 
ROOT
HETATM    1  C1  UNL     1     -34.583  14.800  -3.240  1.00 20.00     0.134 A 
HETATM    2  C2  UNL     1     -34.005  16.048  -3.137  1.00 20.00     0.006 A 
HETATM    3  C3  UNL     1     -34.253  15.186  -5.373  1.00 20.00     0.167 A 
HETATM    4  N7  UNL     1     -34.727  14.304  -4.520  1.00 20.00    -0.240 NA
HETATM    5  S8  UNL     1     -33.620  16.634  -4.702  1.00 20.00    -0.061 SA
HETATM    6 CL9  UNL     1     -34.249  14.944  -7.069  1.00 20.00    -0.054 Cl
ENDROOT
BRANCH   2   7
HETATM    7  C6  UNL     1     -33.699  16.881  -1.907  1.00 20.00     0.019 C 
HETATM    8  C4  UNL     1     -34.689  16.597  -0.774  1.00 20.00     0.015 C 
HETATM    9  C5  UNL     1     -33.660  18.376  -2.234  1.00 20.00     0.015 C 
ENDBRANCH   2   7
TORSDOF 1
ENDMDL
MODEL 2
REMARK VINA RESULT:      -3.8      2.509      4.366
REMARK  1 active torsions:
REMARK  status: ('A' for Active; 'I' for Inactive)
REMARK    1  A    between atoms: C2_2  and  C6_6 
ROOT
HETATM    1  C1  UNL     1     -34.316  13.971  -4.730  1.00 20.00     0.134 A 
HETATM    2  C2  UNL     1     -34.409  15.109  -5.504  1.00 20.00     0.006 A 
HETATM    3  C3  UNL     1     -34.491  15.450  -3.120  1.00 20.00     0.167 A 
HETATM    4  N7  UNL     1     -34.363  14.165  -3.363  1.00 20.00    -0.240 NA
HETATM    5  S8  UNL     1     -34.562  16.483  -4.489  1.00 20.00    -0.061 SA
HETATM    6 CL9  UNL     1     -34.586  16.102  -1.538  1.00 20.00    -0.054 Cl
ENDROOT
BRANCH   2   7
HETATM    7  C6  UNL     1     -34.393  15.265  -7.012  1.00 20.00     0.019 C 
HETATM    8  C4  UNL     1     -34.549  16.729  -7.430  1.00 20.00     0.015 C 
HETATM    9  C5  UNL     1     -35.458  14.391  -7.680  1.00 20.00     0.015 C 
ENDBRANCH   2   7
TORSDOF 1
ENDMDL
MODEL 3
REMARK VINA RESULT:      -3.8     13.311     14.512
REMARK  1 active torsions:
REMARK  status: ('A' for Active; 'I' for Inactive)
REMARK    1  A    between atoms: C2_2  and  C6_6 
ROOT
HETATM    1  C1  UNL     1     -40.864   4.082  -1.554  1.00 20.00     0.134 A 
HETATM    2  C2  UNL     1     -41.923   3.979  -2.432  1.00 20.00     0.006 A 
HETATM    3  C3  UNL     1     -41.541   6.167  -1.499  1.00 20.00     0.167 A 
HETATM    4  N7  UNL     1     -40.643   5.336  -1.019  1.00 20.00    -0.240 NA
HETATM    5  S8  UNL     1     -42.682   5.508  -2.599  1.00 20.00    -0.061 SA
HETATM    6 CL9  UNL     1     -41.606   7.827  -1.076  1.00 20.00    -0.054 Cl
ENDROOT
BRANCH   2   7
HETATM    7  C6  UNL     1     -42.443   2.775  -3.192  1.00 20.00     0.019 C 
HETATM    8  C4  UNL     1     -43.361   1.912  -2.322  1.00 20.00     0.015 C 
HETATM    9  C5  UNL     1     -41.300   1.939  -3.773  1.00 20.00     0.015 C 
ENDBRANCH   2   7
TORSDOF 1
ENDMDL
MODEL 4
REMARK VINA RESULT:      -3.7      2.849      4.421
REMARK  1 active torsions:
REMARK  status: ('A' for Active; 'I' for Inactive)
REMARK    1  A    between atoms: C2_2  and  C6_6 
ROOT
HETATM    1  C1  UNL     1     -33.521  15.445  -4.280  1.00 20.00     0.134 A 
HETATM    2  C2  UNL     1     -34.826  15.177  -4.638  1.00 20.00     0.006 A 
HETATM    3  C3  UNL     1     -34.496  15.972  -2.388  1.00 20.00     0.167 A 
HETATM    4  N7  UNL     1     -33.330  15.902  -2.991  1.00 20.00    -0.240 NA
HETATM    5  S8  UNL     1     -35.864  15.505  -3.312  1.00 20.00    -0.061 SA
HETATM    6 CL9  UNL     1     -34.685  16.498  -0.767  1.00 20.00    -0.054 Cl
ENDROOT
BRANCH   2   7
HETATM    7  C6  UNL     1     -35.391  14.670  -5.951  1.00 20.00     0.019 C 
HETATM    8  C4  UNL     1     -34.448  14.965  -7.121  1.00 20.00     0.015 C 
HETATM    9  C5  UNL     1     -36.787  15.236  -6.220  1.00 20.00     0.015 C 
ENDBRANCH   2   7
TORSDOF 1
ENDMDL
MODEL 5
REMARK VINA RESULT:      -3.6      1.402      1.547
REMARK  1 active torsions:
REMARK  status: ('A' for Active; 'I' for Inactive)
REMARK    1  A    between atoms: C2_2  and  C6_6 
ROOT
HETATM    1  C1  UNL     1     -33.426  16.911  -4.370  1.00 20.00     0.134 A 
HETATM    2  C2  UNL     1     -33.846  16.471  -3.132  1.00 20.00     0.006 A 
HETATM    3  C3  UNL     1     -34.465  15.087  -5.004  1.00 20.00     0.167 A 
HETATM    4  N7  UNL     1     -33.779  16.118  -5.444  1.00 20.00    -0.240 NA
HETATM    5  S8  UNL     1     -34.722  15.008  -3.309  1.00 20.00    -0.061 SA
HETATM    6 CL9  UNL     1     -35.086  13.864  -6.031  1.00 20.00    -0.054 Cl
ENDROOT
BRANCH   2   7
HETATM    7  C6  UNL     1     -33.640  17.084  -1.760  1.00 20.00     0.019 C 
HETATM    8  C4  UNL     1     -34.712  16.623  -0.770  1.00 20.00     0.015 C 
HETATM    9  C5  UNL     1     -33.583  18.613  -1.829  1.00 20.00     0.015 C 
ENDBRANCH   2   7
TORSDOF 1
ENDMDL
MODEL 6
REMARK VINA RESULT:      -3.6     13.215     13.843
REMARK  1 active torsions:
REMARK  status: ('A' for Active; 'I' for Inactive)
REMARK    1  A    between atoms: C2_2  and  C6_6 
ROOT
HETATM    1  C1  UNL     1     -43.125   5.472  -3.039  1.00 20.00     0.134 A 
HETATM    2  C2  UNL     1     -42.085   5.510  -2.133  1.00 20.00     0.006 A 
HETATM    3  C3  UNL     1     -42.594   3.345  -3.057  1.00 20.00     0.167 A 
HETATM    4  N7  UNL     1     -43.417   4.231  -3.571  1.00 20.00    -0.240 NA
HETATM    5  S8  UNL     1     -41.443   3.933  -1.929  1.00 20.00    -0.061 SA
HETATM    6 CL9  UNL     1     -42.633   1.680  -3.465  1.00 20.00    -0.054 Cl
ENDROOT
BRANCH   2   7
HETATM    7  C6  UNL     1     -41.504   6.683  -1.367  1.00 20.00     0.019 C 
HETATM    8  C4  UNL     1     -40.769   6.224  -0.105  1.00 20.00     0.015 C 
HETATM    9  C5  UNL     1     -42.578   7.720  -1.026  1.00 20.00     0.015 C 
ENDBRANCH   2   7
TORSDOF 1
ENDMDL
MODEL 7
REMARK VINA RESULT:      -3.6      2.925      4.319
REMARK  1 active torsions:
REMARK  status: ('A' for Active; 'I' for Inactive)
REMARK    1  A    between atoms: C2_2  and  C6_6 
ROOT
HETATM    1  C1  UNL     1     -33.934  16.975  -4.655  1.00 20.00     0.134 A 
HETATM    2  C2  UNL     1     -34.515  15.739  -4.463  1.00 20.00     0.006 A 
HETATM    3  C3  UNL     1     -33.951  16.957  -2.462  1.00 20.00     0.167 A 
HETATM    4  N7  UNL     1     -33.610  17.675  -3.509  1.00 20.00    -0.240 NA
HETATM    5  S8  UNL     1     -34.665  15.430  -2.782  1.00 20.00    -0.061 SA
HETATM    6 CL9  UNL     1     -33.713  17.480  -0.847  1.00 20.00    -0.054 Cl
ENDROOT
BRANCH   2   7
HETATM    7  C6  UNL     1     -34.989  14.718  -5.479  1.00 20.00     0.019 C 
HETATM    8  C4  UNL     1     -34.676  13.288  -5.029  1.00 20.00     0.015 C 
HETATM    9  C5  UNL     1     -34.406  14.992  -6.868  1.00 20.00     0.015 C 
ENDBRANCH   2   7
TORSDOF 1
ENDMDL
MODEL 8
REMARK VINA RESULT:      -3.5      3.145      3.739
REMARK  1 active torsions:
REMARK  status: ('A' for Active; 'I' for Inactive)
REMARK    1  A    between atoms: C2_2  and  C6_6 
ROOT
HETATM    1  C1  UNL     1     -36.163  14.045  -3.968  1.00 20.00     0.134 A 
HETATM    2  C2  UNL     1     -35.333  15.078  -3.585  1.00 20.00     0.006 A 
HETATM    3  C3  UNL     1     -37.695  15.548  -3.518  1.00 20.00     0.167 A 
HETATM    4  N7  UNL     1     -37.518  14.312  -3.929  1.00 20.00    -0.240 NA
HETATM    5  S8  UNL     1     -36.277  16.446  -3.159  1.00 20.00    -0.061 SA
HETATM    6 CL9  UNL     1     -39.242  16.264  -3.335  1.00 20.00    -0.054 Cl
ENDROOT
BRANCH   2   7
HETATM    7  C6  UNL     1     -33.820  15.133  -3.508  1.00 20.00     0.019 C 
HETATM    8  C4  UNL     1     -33.241  16.138  -4.508  1.00 20.00     0.015 C 
HETATM    9  C5  UNL     1     -33.195  13.749  -3.703  1.00 20.00     0.015 C 
ENDBRANCH   2   7
TORSDOF 1
ENDMDL
MODEL 9
REMARK VINA RESULT:      -3.4     12.324     13.056
REMARK  1 active torsions:
REMARK  status: ('A' for Active; 'I' for Inactive)
REMARK    1  A    between atoms: C2_2  and  C6_6 
ROOT
HETATM    1  C1  UNL     1     -42.883   5.031  -2.727  1.00 20.00     0.134 A 
HETATM    2  C2  UNL     1     -42.073   5.669  -1.810  1.00 20.00     0.006 A 
HETATM    3  C3  UNL     1     -42.986   7.060  -3.552  1.00 20.00     0.167 A 
HETATM    4  N7  UNL     1     -43.407   5.827  -3.726  1.00 20.00    -0.240 NA
HETATM    5  S8  UNL     1     -41.956   7.333  -2.207  1.00 20.00    -0.061 SA
HETATM    6 CL9  UNL     1     -43.417   8.355  -4.589  1.00 20.00    -0.054 Cl
ENDROOT
BRANCH   2   7
HETATM    7  C6  UNL     1     -41.343   5.112  -0.603  1.00 20.00     0.019 C 
HETATM    8  C4  UNL     1     -42.311   4.475   0.397  1.00 20.00     0.015 C 
HETATM    9  C5  UNL     1     -40.481   6.179   0.076  1.00 20.00     0.015 C 
ENDBRANCH   2   7
TORSDOF 1
ENDMDL
