MODEL 1
REMARK VINA RESULT:      -5.4      0.000      0.000
REMARK  2 active torsions:
REMARK  status: ('A' for Active; 'I' for Inactive)
REMARK    1  A    between atoms: C6_6  and  C8_8 
REMARK    2  A    between atoms: C7_7  and  C8_8 
ROOT
HETATM    1  C1  UNL     1     -35.227   4.849   5.971  1.00 20.00     0.001 A 
HETATM    2  C2  UNL     1     -34.505   5.875   6.700  1.00 20.00     0.001 A 
HETATM    3  C3  UNL     1     -34.811   4.831   4.694  1.00 20.00     0.013 A 
HETATM    4  C4  UNL     1     -33.645   6.491   5.873  1.00 20.00     0.013 A 
HETATM    5  C5  UNL     1     -33.799   5.862   4.576  1.00 20.00    -0.018 A 
HETATM    6  C7  UNL     1     -33.127   6.179   3.466  1.00 20.00     0.028 C 
HETATM    7 CL10 UNL     1     -33.471   5.357   1.979  1.00 20.00    -0.088 Cl
ENDROOT
BRANCH   6   8
HETATM    8  C8  UNL     1     -32.087   7.254   3.391  1.00 20.00     0.121 C 
BRANCH   8   9
HETATM    9  C6  UNL     1     -32.088   7.957   2.050  1.00 20.00     0.236 C 
HETATM   10  O9  UNL     1     -32.428   9.120   1.861  1.00 20.00    -0.307 OA
ENDBRANCH   8   9
ENDBRANCH   6   8
TORSDOF 2
ENDMDL
MODEL 2
REMARK VINA RESULT:      -5.1      1.484      1.952
REMARK  2 active torsions:
REMARK  status: ('A' for Active; 'I' for Inactive)
REMARK    1  A    between atoms: C6_6  and  C8_8 
REMARK    2  A    between atoms: C7_7  and  C8_8 
ROOT
HETATM    1  C1  UNL     1     -34.761   5.385   5.919  1.00 20.00     0.001 A 
HETATM    2  C2  UNL     1     -35.263   4.928   4.637  1.00 20.00     0.001 A 
HETATM    3  C3  UNL     1     -33.715   6.204   5.724  1.00 20.00     0.013 A 
HETATM    4  C4  UNL     1     -34.526   5.464   3.651  1.00 20.00     0.013 A 
HETATM    5  C5  UNL     1     -33.521   6.289   4.290  1.00 20.00    -0.018 A 
HETATM    6  C7  UNL     1     -32.580   7.003   3.667  1.00 20.00     0.028 C 
HETATM    7 CL10 UNL     1     -31.419   7.900   4.589  1.00 20.00    -0.088 Cl
ENDROOT
BRANCH   6   8
HETATM    8  C8  UNL     1     -32.417   7.062   2.180  1.00 20.00     0.121 C 
BRANCH   8   9
HETATM    9  C6  UNL     1     -31.898   8.407   1.714  1.00 20.00     0.236 C 
HETATM   10  O9  UNL     1     -32.539   9.452   1.717  1.00 20.00    -0.307 OA
ENDBRANCH   8   9
ENDBRANCH   6   8
TORSDOF 2
ENDMDL
MODEL 3
REMARK VINA RESULT:      -4.6     11.376     12.307
REMARK  2 active torsions:
REMARK  status: ('A' for Active; 'I' for Inactive)
REMARK    1  A    between atoms: C6_6  and  C8_8 
REMARK    2  A    between atoms: C7_7  and  C8_8 
ROOT
HETATM    1  C1  UNL     1     -34.132  18.498  -1.326  1.00 20.00     0.001 A 
HETATM    2  C2  UNL     1     -34.675  17.426  -0.513  1.00 20.00     0.001 A 
HETATM    3  C3  UNL     1     -33.723  18.004  -2.506  1.00 20.00     0.013 A 
HETATM    4  C4  UNL     1     -34.600  16.269  -1.191  1.00 20.00     0.013 A 
HETATM    5  C5  UNL     1     -33.999  16.581  -2.473  1.00 20.00    -0.018 A 
HETATM    6  C7  UNL     1     -33.744  15.709  -3.452  1.00 20.00     0.028 C 
HETATM    7 CL10 UNL     1     -32.971  16.243  -4.909  1.00 20.00    -0.088 Cl
ENDROOT
BRANCH   6   8
HETATM    8  C8  UNL     1     -34.047  14.245  -3.374  1.00 20.00     0.121 C 
BRANCH   8   9
HETATM    9  C6  UNL     1     -34.429  13.667  -4.721  1.00 20.00     0.236 C 
HETATM   10  O9  UNL     1     -34.793  12.513  -4.918  1.00 20.00    -0.307 OA
ENDBRANCH   8   9
ENDBRANCH   6   8
TORSDOF 2
ENDMDL
MODEL 4
REMARK VINA RESULT:      -4.2      2.934      4.591
REMARK  2 active torsions:
REMARK  status: ('A' for Active; 'I' for Inactive)
REMARK    1  A    between atoms: C6_6  and  C8_8 
REMARK    2  A    between atoms: C7_7  and  C8_8 
ROOT
HETATM    1  C1  UNL     1     -31.863   7.124   2.784  1.00 20.00     0.001 A 
HETATM    2  C2  UNL     1     -32.808   6.164   2.245  1.00 20.00     0.001 A 
HETATM    3  C3  UNL     1     -32.124   7.328   4.085  1.00 20.00     0.013 A 
HETATM    4  C4  UNL     1     -33.654   5.777   3.214  1.00 20.00     0.013 A 
HETATM    5  C5  UNL     1     -33.261   6.491   4.413  1.00 20.00    -0.018 A 
HETATM    6  C7  UNL     1     -33.845   6.394   5.610  1.00 20.00     0.028 C 
HETATM    7 CL10 UNL     1     -33.278   7.361   6.932  1.00 20.00    -0.088 Cl
ENDROOT
BRANCH   6   8
HETATM    8  C8  UNL     1     -35.020   5.514   5.903  1.00 20.00     0.121 C 
BRANCH   8   9
HETATM    9  C6  UNL     1     -34.653   4.044   5.880  1.00 20.00     0.236 C 
HETATM   10  O9  UNL     1     -34.984   3.246   5.009  1.00 20.00    -0.307 OA
ENDBRANCH   8   9
ENDBRANCH   6   8
TORSDOF 2
ENDMDL
MODEL 5
REMARK VINA RESULT:      -4.2     11.435     12.165
REMARK  2 active torsions:
REMARK  status: ('A' for Active; 'I' for Inactive)
REMARK    1  A    between atoms: C6_6  and  C8_8 
REMARK    2  A    between atoms: C7_7  and  C8_8 
ROOT
HETATM    1  C1  UNL     1     -35.966  18.197  -1.028  1.00 20.00     0.001 A 
HETATM    2  C2  UNL     1     -34.925  17.471  -0.325  1.00 20.00     0.001 A 
HETATM    3  C3  UNL     1     -36.212  17.599  -2.205  1.00 20.00     0.013 A 
HETATM    4  C4  UNL     1     -34.527  16.426  -1.069  1.00 20.00     0.013 A 
HETATM    5  C5  UNL     1     -35.318  16.460  -2.283  1.00 20.00    -0.018 A 
HETATM    6  C7  UNL     1     -35.237  15.594  -3.296  1.00 20.00     0.028 C 
HETATM    7 CL10 UNL     1     -36.226  15.810  -4.703  1.00 20.00    -0.088 Cl
ENDROOT
BRANCH   6   8
HETATM    8  C8  UNL     1     -34.297  14.429  -3.332  1.00 20.00     0.121 C 
BRANCH   8   9
HETATM    9  C6  UNL     1     -34.371  13.676  -4.645  1.00 20.00     0.236 C 
HETATM   10  O9  UNL     1     -34.819  12.543  -4.786  1.00 20.00    -0.307 OA
ENDBRANCH   8   9
ENDBRANCH   6   8
TORSDOF 2
ENDMDL
MODEL 6
REMARK VINA RESULT:      -4.2     11.245     13.470
REMARK  2 active torsions:
REMARK  status: ('A' for Active; 'I' for Inactive)
REMARK    1  A    between atoms: C6_6  and  C8_8 
REMARK    2  A    between atoms: C7_7  and  C8_8 
ROOT
HETATM    1  C1  UNL     1     -34.006  18.974  -4.849  1.00 20.00     0.001 A 
HETATM    2  C2  UNL     1     -33.533  18.076  -5.886  1.00 20.00     0.001 A 
HETATM    3  C3  UNL     1     -34.231  18.280  -3.723  1.00 20.00     0.013 A 
HETATM    4  C4  UNL     1     -33.468  16.826  -5.399  1.00 20.00     0.013 A 
HETATM    5  C5  UNL     1     -33.903  16.899  -4.018  1.00 20.00    -0.018 A 
HETATM    6  C7  UNL     1     -33.987  15.873  -3.167  1.00 20.00     0.028 C 
HETATM    7 CL10 UNL     1     -34.578  16.128  -1.557  1.00 20.00    -0.088 Cl
ENDROOT
BRANCH   6   8
HETATM    8  C8  UNL     1     -33.636  14.460  -3.517  1.00 20.00     0.121 C 
BRANCH   8   9
HETATM    9  C6  UNL     1     -34.853  13.651  -3.918  1.00 20.00     0.236 C 
HETATM   10  O9  UNL     1     -34.836  12.655  -4.633  1.00 20.00    -0.307 OA
ENDBRANCH   8   9
ENDBRANCH   6   8
TORSDOF 2
ENDMDL
MODEL 7
REMARK VINA RESULT:      -4.1     11.618     12.653
REMARK  2 active torsions:
REMARK  status: ('A' for Active; 'I' for Inactive)
REMARK    1  A    between atoms: C6_6  and  C8_8 
REMARK    2  A    between atoms: C7_7  and  C8_8 
ROOT
HETATM    1  C1  UNL     1     -34.642  17.381  -0.378  1.00 20.00     0.001 A 
HETATM    2  C2  UNL     1     -34.033  18.487  -1.094  1.00 20.00     0.001 A 
HETATM    3  C3  UNL     1     -34.635  16.286  -1.155  1.00 20.00     0.013 A 
HETATM    4  C4  UNL     1     -33.652  18.074  -2.314  1.00 20.00     0.013 A 
HETATM    5  C5  UNL     1     -34.012  16.673  -2.406  1.00 20.00    -0.018 A 
HETATM    6  C7  UNL     1     -33.808  15.879  -3.460  1.00 20.00     0.028 C 
HETATM    7 CL10 UNL     1     -34.349  14.233  -3.423  1.00 20.00    -0.088 Cl
ENDROOT
BRANCH   6   8
HETATM    8  C8  UNL     1     -33.159  16.324  -4.734  1.00 20.00     0.121 C 
BRANCH   8   9
HETATM    9  C6  UNL     1     -34.093  16.208  -5.922  1.00 20.00     0.236 C 
HETATM   10  O9  UNL     1     -34.103  15.281  -6.725  1.00 20.00    -0.307 OA
ENDBRANCH   8   9
ENDBRANCH   6   8
TORSDOF 2
ENDMDL
MODEL 8
REMARK VINA RESULT:      -4.1     11.561     13.255
REMARK  2 active torsions:
REMARK  status: ('A' for Active; 'I' for Inactive)
REMARK    1  A    between atoms: C6_6  and  C8_8 
REMARK    2  A    between atoms: C7_7  and  C8_8 
ROOT
HETATM    1  C1  UNL     1     -34.800  15.187  -7.557  1.00 20.00     0.001 A 
HETATM    2  C2  UNL     1     -34.427  16.558  -7.263  1.00 20.00     0.001 A 
HETATM    3  C3  UNL     1     -34.742  14.456  -6.432  1.00 20.00     0.013 A 
HETATM    4  C4  UNL     1     -34.136  16.672  -5.956  1.00 20.00     0.013 A 
HETATM    5  C5  UNL     1     -34.322  15.357  -5.377  1.00 20.00    -0.018 A 
HETATM    6  C7  UNL     1     -34.137  15.032  -4.095  1.00 20.00     0.028 C 
HETATM    7 CL10 UNL     1     -34.355  13.392  -3.576  1.00 20.00    -0.088 Cl
ENDROOT
BRANCH   6   8
HETATM    8  C8  UNL     1     -33.701  15.998  -3.037  1.00 20.00     0.121 C 
BRANCH   8   9
HETATM    9  C6  UNL     1     -34.714  16.113  -1.916  1.00 20.00     0.236 C 
HETATM   10  O9  UNL     1     -34.470  16.509  -0.781  1.00 20.00    -0.307 OA
ENDBRANCH   8   9
ENDBRANCH   6   8
TORSDOF 2
ENDMDL
MODEL 9
REMARK VINA RESULT:      -4.0     11.384     11.951
REMARK  2 active torsions:
REMARK  status: ('A' for Active; 'I' for Inactive)
REMARK    1  A    between atoms: C6_6  and  C8_8 
REMARK    2  A    between atoms: C7_7  and  C8_8 
ROOT
HETATM    1  C1  UNL     1     -35.063  13.383  -4.725  1.00 20.00     0.001 A 
HETATM    2  C2  UNL     1     -33.741  13.315  -4.132  1.00 20.00     0.001 A 
HETATM    3  C3  UNL     1     -35.722  14.443  -4.231  1.00 20.00     0.013 A 
HETATM    4  C4  UNL     1     -33.584  14.333  -3.270  1.00 20.00     0.013 A 
HETATM    5  C5  UNL     1     -34.822  15.087  -3.294  1.00 20.00    -0.018 A 
HETATM    6  C7  UNL     1     -35.087  16.183  -2.579  1.00 20.00     0.028 C 
HETATM    7 CL10 UNL     1     -36.644  16.937  -2.690  1.00 20.00    -0.088 Cl
ENDROOT
BRANCH   6   8
HETATM    8  C8  UNL     1     -34.124  16.815  -1.622  1.00 20.00     0.121 C 
BRANCH   8   9
HETATM    9  C6  UNL     1     -34.736  17.028  -0.252  1.00 20.00     0.236 C 
HETATM   10  O9  UNL     1     -34.297  17.784   0.608  1.00 20.00    -0.307 OA
ENDBRANCH   8   9
ENDBRANCH   6   8
TORSDOF 2
ENDMDL
