MODEL 1
REMARK VINA RESULT:      -4.7      0.000      0.000
REMARK  2 active torsions:
REMARK  status: ('A' for Active; 'I' for Inactive)
REMARK    1  A    between atoms: C7_7  and  C8_8 
REMARK    2  A    between atoms: C8_8  and  O10_10 
ROOT
HETATM    1  C1  UNL     1     -33.542  13.877  -3.671  1.00 20.00     0.071 C 
HETATM    2  C2  UNL     1     -33.692  17.556  -3.439  1.00 20.00     0.000 C 
HETATM    3  C3  UNL     1     -33.893  16.615  -2.257  1.00 20.00     0.002 C 
HETATM    4  C4  UNL     1     -33.383  16.791  -4.721  1.00 20.00     0.002 C 
HETATM    5  C5  UNL     1     -34.967  15.564  -2.547  1.00 20.00     0.027 C 
HETATM    6  C6  UNL     1     -34.454  15.742  -5.024  1.00 20.00     0.027 C 
HETATM    7  C7  UNL     1     -34.709  14.774  -3.848  1.00 20.00     0.070 C 
HETATM    8  N9  UNL     1     -32.629  13.176  -3.532  1.00 20.00    -0.196 NA
ENDROOT
BRANCH   7   9
HETATM    9  C8  UNL     1     -35.934  13.899  -4.164  1.00 20.00     0.188 C 
BRANCH   9  10
HETATM   10  O10 UNL     1     -35.512  12.552  -4.207  1.00 20.00    -0.399 OA
HETATM   11  H23 UNL     1     -36.299  11.998  -4.057  1.00 20.00     0.209 HD
ENDBRANCH   9  10
ENDBRANCH   7   9
TORSDOF 2
ENDMDL
MODEL 2
REMARK VINA RESULT:      -4.5      1.636      1.881
REMARK  2 active torsions:
REMARK  status: ('A' for Active; 'I' for Inactive)
REMARK    1  A    between atoms: C7_7  and  C8_8 
REMARK    2  A    between atoms: C8_8  and  O10_10 
ROOT
HETATM    1  C1  UNL     1     -35.335  13.740  -4.292  1.00 20.00     0.071 C 
HETATM    2  C2  UNL     1     -33.260  16.682  -5.101  1.00 20.00     0.000 C 
HETATM    3  C3  UNL     1     -33.217  15.944  -3.768  1.00 20.00     0.002 C 
HETATM    4  C4  UNL     1     -34.239  16.031  -6.072  1.00 20.00     0.002 C 
HETATM    5  C5  UNL     1     -34.611  15.815  -3.148  1.00 20.00     0.027 C 
HETATM    6  C6  UNL     1     -35.637  15.902  -5.465  1.00 20.00     0.027 C 
HETATM    7  C7  UNL     1     -35.644  15.177  -4.101  1.00 20.00     0.070 C 
HETATM    8  N9  UNL     1     -35.093  12.616  -4.442  1.00 20.00    -0.196 NA
ENDROOT
BRANCH   7   9
HETATM    9  C8  UNL     1     -37.045  15.282  -3.476  1.00 20.00     0.188 C 
BRANCH   9  10
HETATM   10  O10 UNL     1     -37.756  14.104  -3.796  1.00 20.00    -0.399 OA
HETATM   11  H23 UNL     1     -37.309  13.694  -4.557  1.00 20.00     0.209 HD
ENDBRANCH   9  10
ENDBRANCH   7   9
TORSDOF 2
ENDMDL
MODEL 3
REMARK VINA RESULT:      -4.5      1.957      2.671
REMARK  2 active torsions:
REMARK  status: ('A' for Active; 'I' for Inactive)
REMARK    1  A    between atoms: C7_7  and  C8_8 
REMARK    2  A    between atoms: C8_8  and  O10_10 
ROOT
HETATM    1  C1  UNL     1     -36.597  14.585  -3.873  1.00 20.00     0.071 C 
HETATM    2  C2  UNL     1     -34.860  17.748  -3.100  1.00 20.00     0.000 C 
HETATM    3  C3  UNL     1     -35.517  17.437  -4.440  1.00 20.00     0.002 C 
HETATM    4  C4  UNL     1     -35.042  16.606  -2.107  1.00 20.00     0.002 C 
HETATM    5  C5  UNL     1     -35.018  16.111  -5.021  1.00 20.00     0.027 C 
HETATM    6  C6  UNL     1     -34.541  15.277  -2.674  1.00 20.00     0.027 C 
HETATM    7  C7  UNL     1     -35.164  14.926  -4.043  1.00 20.00     0.070 C 
HETATM    8  N9  UNL     1     -37.718  14.320  -3.739  1.00 20.00    -0.196 NA
ENDROOT
BRANCH   7   9
HETATM    9  C8  UNL     1     -34.451  13.694  -4.626  1.00 20.00     0.188 C 
BRANCH   9  10
HETATM   10  O10 UNL     1     -35.161  12.543  -4.220  1.00 20.00    -0.399 OA
HETATM   11  H23 UNL     1     -35.833  12.830  -3.576  1.00 20.00     0.209 HD
ENDBRANCH   9  10
ENDBRANCH   7   9
TORSDOF 2
ENDMDL
MODEL 4
REMARK VINA RESULT:      -4.4      1.788      2.552
REMARK  2 active torsions:
REMARK  status: ('A' for Active; 'I' for Inactive)
REMARK    1  A    between atoms: C7_7  and  C8_8 
REMARK    2  A    between atoms: C8_8  and  O10_10 
ROOT
HETATM    1  C1  UNL     1     -35.873  14.854  -3.884  1.00 20.00     0.071 C 
HETATM    2  C2  UNL     1     -33.605  17.508  -5.077  1.00 20.00     0.000 C 
HETATM    3  C3  UNL     1     -34.653  16.824  -5.946  1.00 20.00     0.002 C 
HETATM    4  C4  UNL     1     -33.635  16.988  -3.644  1.00 20.00     0.002 C 
HETATM    5  C5  UNL     1     -34.513  15.300  -5.907  1.00 20.00     0.027 C 
HETATM    6  C6  UNL     1     -33.490  15.466  -3.593  1.00 20.00     0.027 C 
HETATM    7  C7  UNL     1     -34.519  14.726  -4.474  1.00 20.00     0.070 C 
HETATM    8  N9  UNL     1     -36.932  14.955  -3.423  1.00 20.00    -0.196 NA
ENDROOT
BRANCH   7   9
HETATM    9  C8  UNL     1     -34.165  13.230  -4.524  1.00 20.00     0.188 C 
BRANCH   9  10
HETATM   10  O10 UNL     1     -35.312  12.495  -4.154  1.00 20.00    -0.399 OA
HETATM   11  H23 UNL     1     -35.900  13.101  -3.668  1.00 20.00     0.209 HD
ENDBRANCH   9  10
ENDBRANCH   7   9
TORSDOF 2
ENDMDL
MODEL 5
REMARK VINA RESULT:      -4.4      2.456      3.861
REMARK  2 active torsions:
REMARK  status: ('A' for Active; 'I' for Inactive)
REMARK    1  A    between atoms: C7_7  and  C8_8 
REMARK    2  A    between atoms: C8_8  and  O10_10 
ROOT
HETATM    1  C1  UNL     1     -34.613  13.847  -4.957  1.00 20.00     0.071 C 
HETATM    2  C2  UNL     1     -36.814  15.243  -7.570  1.00 20.00     0.000 C 
HETATM    3  C3  UNL     1     -35.519  14.490  -7.853  1.00 20.00     0.002 C 
HETATM    4  C4  UNL     1     -37.106  15.315  -6.076  1.00 20.00     0.002 C 
HETATM    5  C5  UNL     1     -34.337  15.087  -7.085  1.00 20.00     0.027 C 
HETATM    6  C6  UNL     1     -35.934  15.916  -5.298  1.00 20.00     0.027 C 
HETATM    7  C7  UNL     1     -34.593  15.198  -5.567  1.00 20.00     0.070 C 
HETATM    8  N9  UNL     1     -34.630  12.790  -4.481  1.00 20.00    -0.196 NA
ENDROOT
BRANCH   7   9
HETATM    9  C8  UNL     1     -33.450  15.994  -4.915  1.00 20.00     0.188 C 
BRANCH   9  10
HETATM   10  O10 UNL     1     -32.599  15.080  -4.256  1.00 20.00    -0.399 OA
HETATM   11  H23 UNL     1     -32.057  14.645  -4.939  1.00 20.00     0.209 HD
ENDBRANCH   9  10
ENDBRANCH   7   9
TORSDOF 2
ENDMDL
MODEL 6
REMARK VINA RESULT:      -4.3      1.785      2.394
REMARK  2 active torsions:
REMARK  status: ('A' for Active; 'I' for Inactive)
REMARK    1  A    between atoms: C7_7  and  C8_8 
REMARK    2  A    between atoms: C8_8  and  O10_10 
ROOT
HETATM    1  C1  UNL     1     -34.497  15.704  -5.459  1.00 20.00     0.071 C 
HETATM    2  C2  UNL     1     -34.903  16.440  -1.867  1.00 20.00     0.000 C 
HETATM    3  C3  UNL     1     -33.556  16.336  -2.572  1.00 20.00     0.002 C 
HETATM    4  C4  UNL     1     -36.063  16.240  -2.836  1.00 20.00     0.002 C 
HETATM    5  C5  UNL     1     -33.418  15.017  -3.336  1.00 20.00     0.027 C 
HETATM    6  C6  UNL     1     -35.939  14.922  -3.602  1.00 20.00     0.027 C 
HETATM    7  C7  UNL     1     -34.581  14.760  -4.320  1.00 20.00     0.070 C 
HETATM    8  N9  UNL     1     -34.431  16.443  -6.350  1.00 20.00    -0.196 NA
ENDROOT
BRANCH   7   9
HETATM    9  C8  UNL     1     -34.468  13.332  -4.879  1.00 20.00     0.188 C 
BRANCH   9  10
HETATM   10  O10 UNL     1     -35.354  12.505  -4.154  1.00 20.00    -0.399 OA
HETATM   11  H23 UNL     1     -35.549  11.731  -4.712  1.00 20.00     0.209 HD
ENDBRANCH   9  10
ENDBRANCH   7   9
TORSDOF 2
ENDMDL
MODEL 7
REMARK VINA RESULT:      -4.2      1.857      2.452
REMARK  2 active torsions:
REMARK  status: ('A' for Active; 'I' for Inactive)
REMARK    1  A    between atoms: C7_7  and  C8_8 
REMARK    2  A    between atoms: C8_8  and  O10_10 
ROOT
HETATM    1  C1  UNL     1     -34.613  13.968  -4.937  1.00 20.00     0.071 C 
HETATM    2  C2  UNL     1     -34.939  16.379  -2.164  1.00 20.00     0.000 C 
HETATM    3  C3  UNL     1     -36.119  15.782  -2.922  1.00 20.00     0.002 C 
HETATM    4  C4  UNL     1     -33.610  15.828  -2.667  1.00 20.00     0.002 C 
HETATM    5  C5  UNL     1     -35.976  15.975  -4.434  1.00 20.00     0.027 C 
HETATM    6  C6  UNL     1     -33.454  16.022  -4.176  1.00 20.00     0.027 C 
HETATM    7  C7  UNL     1     -34.635  15.449  -4.989  1.00 20.00     0.070 C 
HETATM    8  N9  UNL     1     -34.596  12.809  -4.895  1.00 20.00    -0.196 NA
ENDROOT
BRANCH   7   9
HETATM    9  C8  UNL     1     -34.493  15.873  -6.461  1.00 20.00     0.188 C 
BRANCH   9  10
HETATM   10  O10 UNL     1     -34.000  14.768  -7.190  1.00 20.00    -0.399 OA
HETATM   11  H23 UNL     1     -33.444  15.120  -7.907  1.00 20.00     0.209 HD
ENDBRANCH   9  10
ENDBRANCH   7   9
TORSDOF 2
ENDMDL
MODEL 8
REMARK VINA RESULT:      -4.1      2.371      3.386
REMARK  2 active torsions:
REMARK  status: ('A' for Active; 'I' for Inactive)
REMARK    1  A    between atoms: C7_7  and  C8_8 
REMARK    2  A    between atoms: C8_8  and  O10_10 
ROOT
HETATM    1  C1  UNL     1     -36.217  14.818  -4.705  1.00 20.00     0.071 C 
HETATM    2  C2  UNL     1     -34.622  16.684  -7.459  1.00 20.00     0.000 C 
HETATM    3  C3  UNL     1     -35.635  15.563  -7.659  1.00 20.00     0.002 C 
HETATM    4  C4  UNL     1     -34.378  16.965  -5.981  1.00 20.00     0.002 C 
HETATM    5  C5  UNL     1     -35.225  14.290  -6.913  1.00 20.00     0.027 C 
HETATM    6  C6  UNL     1     -33.961  15.701  -5.227  1.00 20.00     0.027 C 
HETATM    7  C7  UNL     1     -34.948  14.527  -5.413  1.00 20.00     0.070 C 
HETATM    8  N9  UNL     1     -37.210  15.046  -4.151  1.00 20.00    -0.196 NA
ENDROOT
BRANCH   7   9
HETATM    9  C8  UNL     1     -34.345  13.252  -4.799  1.00 20.00     0.188 C 
BRANCH   9  10
HETATM   10  O10 UNL     1     -35.375  12.561  -4.125  1.00 20.00    -0.399 OA
HETATM   11  H23 UNL     1     -35.187  11.609  -4.208  1.00 20.00     0.209 HD
ENDBRANCH   9  10
ENDBRANCH   7   9
TORSDOF 2
ENDMDL
MODEL 9
REMARK VINA RESULT:      -4.1      2.183      2.695
REMARK  2 active torsions:
REMARK  status: ('A' for Active; 'I' for Inactive)
REMARK    1  A    between atoms: C7_7  and  C8_8 
REMARK    2  A    between atoms: C8_8  and  O10_10 
ROOT
HETATM    1  C1  UNL     1     -35.492  14.572  -6.304  1.00 20.00     0.071 C 
HETATM    2  C2  UNL     1     -32.953  14.997  -3.661  1.00 20.00     0.000 C 
HETATM    3  C3  UNL     1     -33.650  13.678  -3.975  1.00 20.00     0.002 C 
HETATM    4  C4  UNL     1     -33.406  16.109  -4.599  1.00 20.00     0.002 C 
HETATM    5  C5  UNL     1     -35.173  13.826  -3.963  1.00 20.00     0.027 C 
HETATM    6  C6  UNL     1     -34.928  16.271  -4.590  1.00 20.00     0.027 C 
HETATM    7  C7  UNL     1     -35.681  14.955  -4.885  1.00 20.00     0.070 C 
HETATM    8  N9  UNL     1     -35.343  14.273  -7.414  1.00 20.00    -0.196 NA
ENDROOT
BRANCH   7   9
HETATM    9  C8  UNL     1     -37.186  15.167  -4.648  1.00 20.00     0.188 C 
BRANCH   9  10
HETATM   10  O10 UNL     1     -37.640  14.153  -3.776  1.00 20.00    -0.399 OA
HETATM   11  H23 UNL     1     -38.583  14.321  -3.603  1.00 20.00     0.209 HD
ENDBRANCH   9  10
ENDBRANCH   7   9
TORSDOF 2
ENDMDL
