MODEL 1
REMARK VINA RESULT:      -5.1      0.000      0.000
REMARK  2 active torsions:
REMARK  status: ('A' for Active; 'I' for Inactive)
REMARK    1  A    between atoms: C5_5  and  C8_8 
REMARK    2  A    between atoms: C6_6  and  N9_9 
ROOT
HETATM    1  C1  UNL     1     -34.210   5.555   3.193  1.00 20.00     0.006 C 
HETATM    2  C2  UNL     1     -33.010   6.586   5.162  1.00 20.00     0.006 C 
HETATM    3  C3  UNL     1     -35.460   5.355   4.050  1.00 20.00     0.024 C 
HETATM    4  C4  UNL     1     -34.253   6.392   6.031  1.00 20.00     0.024 C 
HETATM    5  C5  UNL     1     -33.370   6.742   3.679  1.00 20.00    -0.015 C 
HETATM    6  C6  UNL     1     -35.153   5.256   5.544  1.00 20.00     0.109 C 
ENDROOT
BRANCH   5   7
HETATM    7  C8  UNL     1     -32.108   6.892   2.832  1.00 20.00     0.000 C 
HETATM    8  C7  UNL     1     -32.089   8.194   2.099  1.00 20.00     0.005 C 
ENDBRANCH   5   7
BRANCH   6   9
HETATM    9  N9  UNL     1     -34.522   3.961   5.837  1.00 20.00    -0.059 NA
HETATM   10  O10 UNL     1     -34.875   3.099   5.037  1.00 20.00    -0.101 OA
ENDBRANCH   6   9
TORSDOF 2
ENDMDL
MODEL 2
REMARK VINA RESULT:      -4.9     12.021     12.572
REMARK  2 active torsions:
REMARK  status: ('A' for Active; 'I' for Inactive)
REMARK    1  A    between atoms: C5_5  and  C8_8 
REMARK    2  A    between atoms: C6_6  and  N9_9 
ROOT
HETATM    1  C1  UNL     1     -33.310  15.895  -2.928  1.00 20.00     0.006 C 
HETATM    2  C2  UNL     1     -35.772  15.332  -2.893  1.00 20.00     0.006 C 
HETATM    3  C3  UNL     1     -33.257  15.603  -4.428  1.00 20.00     0.024 C 
HETATM    4  C4  UNL     1     -35.733  15.037  -4.393  1.00 20.00     0.024 C 
HETATM    5  C5  UNL     1     -34.704  16.355  -2.487  1.00 20.00    -0.015 C 
HETATM    6  C6  UNL     1     -34.345  14.634  -4.889  1.00 20.00     0.109 C 
ENDROOT
BRANCH   5   7
HETATM    7  C8  UNL     1     -34.739  16.598  -0.979  1.00 20.00     0.000 C 
HETATM    8  C7  UNL     1     -33.782  17.672  -0.573  1.00 20.00     0.005 C 
ENDBRANCH   5   7
BRANCH   6   9
HETATM    9  N9  UNL     1     -34.028  13.275  -4.428  1.00 20.00    -0.059 NA
HETATM   10  O10 UNL     1     -34.976  12.512  -4.596  1.00 20.00    -0.101 OA
ENDBRANCH   6   9
TORSDOF 2
ENDMDL
MODEL 3
REMARK VINA RESULT:      -4.8     12.201     12.685
REMARK  2 active torsions:
REMARK  status: ('A' for Active; 'I' for Inactive)
REMARK    1  A    between atoms: C5_5  and  C8_8 
REMARK    2  A    between atoms: C6_6  and  N9_9 
ROOT
HETATM    1  C1  UNL     1     -35.729  15.509  -3.436  1.00 20.00     0.006 C 
HETATM    2  C2  UNL     1     -33.272  14.925  -3.341  1.00 20.00     0.006 C 
HETATM    3  C3  UNL     1     -36.027  14.172  -4.117  1.00 20.00     0.024 C 
HETATM    4  C4  UNL     1     -33.557  13.586  -4.021  1.00 20.00     0.024 C 
HETATM    5  C5  UNL     1     -34.484  15.428  -2.545  1.00 20.00    -0.015 C 
HETATM    6  C6  UNL     1     -34.827  13.603  -4.872  1.00 20.00     0.109 C 
ENDROOT
BRANCH   5   7
HETATM    7  C8  UNL     1     -34.185  16.786  -1.912  1.00 20.00     0.000 C 
HETATM    8  C7  UNL     1     -34.681  16.858  -0.504  1.00 20.00     0.005 C 
ENDBRANCH   5   7
BRANCH   6   9
HETATM    9  N9  UNL     1     -34.594  14.383  -6.096  1.00 20.00    -0.059 NA
HETATM   10  O10 UNL     1     -35.432  14.127  -6.957  1.00 20.00    -0.101 OA
ENDBRANCH   6   9
TORSDOF 2
ENDMDL
MODEL 4
REMARK VINA RESULT:      -4.4     11.675     13.348
REMARK  2 active torsions:
REMARK  status: ('A' for Active; 'I' for Inactive)
REMARK    1  A    between atoms: C5_5  and  C8_8 
REMARK    2  A    between atoms: C6_6  and  N9_9 
ROOT
HETATM    1  C1  UNL     1     -35.662  15.777  -5.014  1.00 20.00     0.006 C 
HETATM    2  C2  UNL     1     -33.173  16.174  -4.838  1.00 20.00     0.006 C 
HETATM    3  C3  UNL     1     -35.631  14.963  -3.720  1.00 20.00     0.024 C 
HETATM    4  C4  UNL     1     -33.128  15.363  -3.543  1.00 20.00     0.024 C 
HETATM    5  C5  UNL     1     -34.545  16.827  -5.053  1.00 20.00    -0.015 C 
HETATM    6  C6  UNL     1     -34.263  14.344  -3.433  1.00 20.00     0.109 C 
ENDROOT
BRANCH   5   7
HETATM    7  C8  UNL     1     -34.574  17.595  -6.372  1.00 20.00     0.000 C 
HETATM    8  C7  UNL     1     -34.669  16.673  -7.544  1.00 20.00     0.005 C 
ENDBRANCH   5   7
BRANCH   6   9
HETATM    9  N9  UNL     1     -34.019  13.227  -4.357  1.00 20.00    -0.059 NA
HETATM   10  O10 UNL     1     -35.016  12.519  -4.478  1.00 20.00    -0.101 OA
ENDBRANCH   6   9
TORSDOF 2
ENDMDL
MODEL 5
REMARK VINA RESULT:      -4.3     11.810     13.337
REMARK  2 active torsions:
REMARK  status: ('A' for Active; 'I' for Inactive)
REMARK    1  A    between atoms: C5_5  and  C8_8 
REMARK    2  A    between atoms: C6_6  and  N9_9 
ROOT
HETATM    1  C1  UNL     1     -34.335  16.022  -5.699  1.00 20.00     0.006 C 
HETATM    2  C2  UNL     1     -34.757  13.612  -5.069  1.00 20.00     0.006 C 
HETATM    3  C3  UNL     1     -33.346  16.159  -4.541  1.00 20.00     0.024 C 
HETATM    4  C4  UNL     1     -33.770  13.736  -3.907  1.00 20.00     0.024 C 
HETATM    5  C5  UNL     1     -34.416  14.579  -6.210  1.00 20.00    -0.015 C 
HETATM    6  C6  UNL     1     -33.611  15.171  -3.405  1.00 20.00     0.109 C 
ENDROOT
BRANCH   5   7
HETATM    7  C8  UNL     1     -35.441  14.464  -7.337  1.00 20.00     0.000 C 
HETATM    8  C7  UNL     1     -36.720  15.154  -6.990  1.00 20.00     0.005 C 
ENDBRANCH   5   7
BRANCH   6   9
HETATM    9  N9  UNL     1     -34.815  15.575  -2.665  1.00 20.00    -0.059 NA
HETATM   10  O10 UNL     1     -34.528  16.076  -1.581  1.00 20.00    -0.101 OA
ENDBRANCH   6   9
TORSDOF 2
ENDMDL
MODEL 6
REMARK VINA RESULT:      -4.3     12.408     13.368
REMARK  2 active torsions:
REMARK  status: ('A' for Active; 'I' for Inactive)
REMARK    1  A    between atoms: C5_5  and  C8_8 
REMARK    2  A    between atoms: C6_6  and  N9_9 
ROOT
HETATM    1  C1  UNL     1     -34.385  14.533  -3.268  1.00 20.00     0.006 C 
HETATM    2  C2  UNL     1     -33.969  16.548  -4.734  1.00 20.00     0.006 C 
HETATM    3  C3  UNL     1     -34.369  13.626  -4.499  1.00 20.00     0.024 C 
HETATM    4  C4  UNL     1     -33.950  15.653  -5.972  1.00 20.00     0.024 C 
HETATM    5  C5  UNL     1     -33.530  15.788  -3.475  1.00 20.00    -0.015 C 
HETATM    6  C6  UNL     1     -34.741  14.357  -5.788  1.00 20.00     0.109 C 
ENDROOT
BRANCH   5   7
HETATM    7  C8  UNL     1     -33.598  16.695  -2.248  1.00 20.00     0.000 C 
HETATM    8  C7  UNL     1     -34.743  16.332  -1.359  1.00 20.00     0.005 C 
ENDBRANCH   5   7
BRANCH   6   9
HETATM    9  N9  UNL     1     -36.182  14.650  -5.796  1.00 20.00    -0.059 NA
HETATM   10  O10 UNL     1     -36.557  15.026  -6.904  1.00 20.00    -0.101 OA
ENDBRANCH   6   9
TORSDOF 2
ENDMDL
MODEL 7
REMARK VINA RESULT:      -4.3      9.203     10.292
REMARK  2 active torsions:
REMARK  status: ('A' for Active; 'I' for Inactive)
REMARK    1  A    between atoms: C5_5  and  C8_8 
REMARK    2  A    between atoms: C6_6  and  N9_9 
ROOT
HETATM    1  C1  UNL     1     -41.606   7.397  -1.066  1.00 20.00     0.006 C 
HETATM    2  C2  UNL     1     -42.526   5.575  -2.555  1.00 20.00     0.006 C 
HETATM    3  C3  UNL     1     -40.715   6.377  -0.357  1.00 20.00     0.024 C 
HETATM    4  C4  UNL     1     -41.640   4.545  -1.855  1.00 20.00     0.024 C 
HETATM    5  C5  UNL     1     -41.911   6.980  -2.509  1.00 20.00    -0.015 C 
HETATM    6  C6  UNL     1     -41.260   4.951  -0.430  1.00 20.00     0.109 C 
ENDROOT
BRANCH   5   7
HETATM    7  C8  UNL     1     -42.837   7.994  -3.179  1.00 20.00     0.000 C 
HETATM    8  C7  UNL     1     -42.275   8.479  -4.476  1.00 20.00     0.005 C 
ENDBRANCH   5   7
BRANCH   6   9
HETATM    9  N9  UNL     1     -42.427   4.818   0.453  1.00 20.00    -0.059 NA
HETATM   10  O10 UNL     1     -42.946   3.709   0.346  1.00 20.00    -0.101 OA
ENDBRANCH   6   9
TORSDOF 2
ENDMDL
MODEL 8
REMARK VINA RESULT:      -4.2     12.735     13.674
REMARK  2 active torsions:
REMARK  status: ('A' for Active; 'I' for Inactive)
REMARK    1  A    between atoms: C5_5  and  C8_8 
REMARK    2  A    between atoms: C6_6  and  N9_9 
ROOT
HETATM    1  C1  UNL     1     -34.606  14.830  -3.072  1.00 20.00     0.006 C 
HETATM    2  C2  UNL     1     -33.917  17.206  -3.583  1.00 20.00     0.006 C 
HETATM    3  C3  UNL     1     -34.034  14.368  -4.413  1.00 20.00     0.024 C 
HETATM    4  C4  UNL     1     -33.340  16.758  -4.927  1.00 20.00     0.024 C 
HETATM    5  C5  UNL     1     -33.886  16.077  -2.545  1.00 20.00    -0.015 C 
HETATM    6  C6  UNL     1     -33.988  15.480  -5.461  1.00 20.00     0.109 C 
ENDROOT
BRANCH   5   7
HETATM    7  C8  UNL     1     -34.505  16.540  -1.228  1.00 20.00     0.000 C 
HETATM    8  C7  UNL     1     -33.736  17.671  -0.627  1.00 20.00     0.005 C 
ENDBRANCH   5   7
BRANCH   6   9
HETATM    9  N9  UNL     1     -35.348  15.773  -5.934  1.00 20.00    -0.059 NA
HETATM   10  O10 UNL     1     -35.342  16.639  -6.806  1.00 20.00    -0.101 OA
ENDBRANCH   6   9
TORSDOF 2
ENDMDL
MODEL 9
REMARK VINA RESULT:      -4.1     12.615     13.681
REMARK  2 active torsions:
REMARK  status: ('A' for Active; 'I' for Inactive)
REMARK    1  A    between atoms: C5_5  and  C8_8 
REMARK    2  A    between atoms: C6_6  and  N9_9 
ROOT
HETATM    1  C1  UNL     1     -33.602  18.588  -2.138  1.00 20.00     0.006 C 
HETATM    2  C2  UNL     1     -34.546  16.506  -1.062  1.00 20.00     0.006 C 
HETATM    3  C3  UNL     1     -34.294  18.230  -3.453  1.00 20.00     0.024 C 
HETATM    4  C4  UNL     1     -35.244  16.137  -2.371  1.00 20.00     0.024 C 
HETATM    5  C5  UNL     1     -34.354  18.022  -0.927  1.00 20.00    -0.015 C 
HETATM    6  C6  UNL     1     -34.562  16.733  -3.603  1.00 20.00     0.109 C 
ENDROOT
BRANCH   5   7
HETATM    7  C8  UNL     1     -33.618  18.358   0.369  1.00 20.00     0.000 C 
HETATM    8  C7  UNL     1     -32.228  18.837   0.104  1.00 20.00     0.005 C 
ENDBRANCH   5   7
BRANCH   6   9
HETATM    9  N9  UNL     1     -33.300  16.025  -3.863  1.00 20.00    -0.059 NA
HETATM   10  O10 UNL     1     -32.785  16.399  -4.914  1.00 20.00    -0.101 OA
ENDBRANCH   6   9
TORSDOF 2
ENDMDL
