MODEL 1
REMARK VINA RESULT:      -4.5      0.000      0.000
REMARK  1 active torsions:
REMARK  status: ('A' for Active; 'I' for Inactive)
REMARK    1  A    between atoms: C1_1  and  C8_8 
ROOT
HETATM    1  C2  UNL     1     -34.507  13.384  -4.557  1.00 20.00     0.000 C 
HETATM    2  C3  UNL     1     -33.285  13.713  -3.706  1.00 20.00     0.001 C 
HETATM    3  C4  UNL     1     -35.760  14.037  -3.984  1.00 20.00     0.006 C 
HETATM    4  C5  UNL     1     -32.979  15.208  -3.741  1.00 20.00     0.019 C 
HETATM    5  C6  UNL     1     -35.058  16.486  -4.582  1.00 20.00     0.025 A 
HETATM    6  C7  UNL     1     -35.578  15.475  -3.607  1.00 20.00     0.004 A 
HETATM    7  C8  UNL     1     -34.187  16.062  -3.406  1.00 20.00     0.040 A 
ENDROOT
BRANCH   7   8
HETATM    8  C1  UNL     1     -34.038  17.039  -2.304  1.00 20.00     0.228 C 
HETATM    9  O9  UNL     1     -33.503  18.130  -2.478  1.00 20.00    -0.279 OA
HETATM   10 CL10 UNL     1     -34.696  16.446  -0.809  1.00 20.00    -0.043 Cl
ENDBRANCH   7   8
TORSDOF 1
ENDMDL
MODEL 2
REMARK VINA RESULT:      -4.5      2.667      3.744
REMARK  1 active torsions:
REMARK  status: ('A' for Active; 'I' for Inactive)
REMARK    1  A    between atoms: C1_1  and  C8_8 
ROOT
HETATM    1  C2  UNL     1     -33.465  17.542  -5.311  1.00 20.00     0.000 C 
HETATM    2  C3  UNL     1     -34.353  16.748  -6.263  1.00 20.00     0.001 C 
HETATM    3  C4  UNL     1     -33.889  17.326  -3.863  1.00 20.00     0.006 C 
HETATM    4  C5  UNL     1     -34.186  15.247  -6.043  1.00 20.00     0.019 C 
HETATM    5  C6  UNL     1     -33.092  14.837  -3.741  1.00 20.00     0.025 A 
HETATM    6  C7  UNL     1     -34.130  15.891  -3.508  1.00 20.00     0.004 A 
HETATM    7  C8  UNL     1     -34.357  14.844  -4.590  1.00 20.00     0.040 A 
ENDROOT
BRANCH   7   8
HETATM    8  C1  UNL     1     -35.362  13.798  -4.294  1.00 20.00     0.228 C 
HETATM    9  O9  UNL     1     -35.093  12.604  -4.377  1.00 20.00    -0.279 OA
HETATM   10 CL10 UNL     1     -36.895  14.475  -3.835  1.00 20.00    -0.043 Cl
ENDBRANCH   7   8
TORSDOF 1
ENDMDL
MODEL 3
REMARK VINA RESULT:      -4.5      3.009      4.023
REMARK  1 active torsions:
REMARK  status: ('A' for Active; 'I' for Inactive)
REMARK    1  A    between atoms: C1_1  and  C8_8 
ROOT
HETATM    1  C2  UNL     1     -33.793  17.309  -3.111  1.00 20.00     0.000 C 
HETATM    2  C3  UNL     1     -34.322  17.291  -4.541  1.00 20.00     0.001 C 
HETATM    3  C4  UNL     1     -34.313  16.111  -2.323  1.00 20.00     0.006 C 
HETATM    4  C5  UNL     1     -33.792  16.080  -5.306  1.00 20.00     0.019 C 
HETATM    5  C6  UNL     1     -32.908  14.330  -3.628  1.00 20.00     0.025 A 
HETATM    6  C7  UNL     1     -34.207  14.809  -3.057  1.00 20.00     0.004 A 
HETATM    7  C8  UNL     1     -34.021  14.774  -4.568  1.00 20.00     0.040 A 
ENDROOT
BRANCH   7   8
HETATM    8  C1  UNL     1     -34.742  13.706  -5.296  1.00 20.00     0.228 C 
HETATM    9  O9  UNL     1     -34.900  12.590  -4.811  1.00 20.00    -0.279 OA
HETATM   10 CL10 UNL     1     -35.301  14.237  -6.853  1.00 20.00    -0.043 Cl
ENDBRANCH   7   8
TORSDOF 1
ENDMDL
MODEL 4
REMARK VINA RESULT:      -4.4      2.737      3.542
REMARK  1 active torsions:
REMARK  status: ('A' for Active; 'I' for Inactive)
REMARK    1  A    between atoms: C1_1  and  C8_8 
ROOT
HETATM    1  C2  UNL     1     -32.884  14.976  -3.675  1.00 20.00     0.000 C 
HETATM    2  C3  UNL     1     -33.849  16.090  -3.287  1.00 20.00     0.001 C 
HETATM    3  C4  UNL     1     -33.587  13.623  -3.682  1.00 20.00     0.006 C 
HETATM    4  C5  UNL     1     -34.953  16.246  -4.330  1.00 20.00     0.019 C 
HETATM    5  C6  UNL     1     -35.056  14.120  -5.790  1.00 20.00     0.025 A 
HETATM    6  C7  UNL     1     -34.911  13.631  -4.383  1.00 20.00     0.004 A 
HETATM    7  C8  UNL     1     -35.649  14.936  -4.648  1.00 20.00     0.040 A 
ENDROOT
BRANCH   7   8
HETATM    8  C1  UNL     1     -37.122  14.902  -4.503  1.00 20.00     0.228 C 
HETATM    9  O9  UNL     1     -37.677  14.111  -3.747  1.00 20.00    -0.279 OA
HETATM   10 CL10 UNL     1     -37.906  16.083  -5.508  1.00 20.00    -0.043 Cl
ENDBRANCH   7   8
TORSDOF 1
ENDMDL
MODEL 5
REMARK VINA RESULT:      -4.3      2.962      4.051
REMARK  1 active torsions:
REMARK  status: ('A' for Active; 'I' for Inactive)
REMARK    1  A    between atoms: C1_1  and  C8_8 
ROOT
HETATM    1  C2  UNL     1     -35.704  17.542  -5.849  1.00 20.00     0.000 C 
HETATM    2  C3  UNL     1     -36.421  16.729  -4.777  1.00 20.00     0.001 C 
HETATM    3  C4  UNL     1     -34.214  17.221  -5.870  1.00 20.00     0.006 C 
HETATM    4  C5  UNL     1     -36.363  15.236  -5.092  1.00 20.00     0.019 C 
HETATM    5  C6  UNL     1     -34.496  14.799  -6.820  1.00 20.00     0.025 A 
HETATM    6  C7  UNL     1     -33.907  15.755  -5.830  1.00 20.00     0.004 A 
HETATM    7  C8  UNL     1     -34.953  14.749  -5.367  1.00 20.00     0.040 A 
ENDROOT
BRANCH   7   8
HETATM    8  C1  UNL     1     -34.460  13.614  -4.555  1.00 20.00     0.228 C 
HETATM    9  O9  UNL     1     -35.063  12.546  -4.507  1.00 20.00    -0.279 OA
HETATM   10 CL10 UNL     1     -32.982  13.995  -3.725  1.00 20.00    -0.043 Cl
ENDBRANCH   7   8
TORSDOF 1
ENDMDL
MODEL 6
REMARK VINA RESULT:      -4.3      2.474      3.437
REMARK  1 active torsions:
REMARK  status: ('A' for Active; 'I' for Inactive)
REMARK    1  A    between atoms: C1_1  and  C8_8 
ROOT
HETATM    1  C2  UNL     1     -34.562  18.097  -4.454  1.00 20.00     0.000 C 
HETATM    2  C3  UNL     1     -33.635  17.212  -5.279  1.00 20.00     0.001 C 
HETATM    3  C4  UNL     1     -35.761  17.304  -3.944  1.00 20.00     0.006 C 
HETATM    4  C5  UNL     1     -33.019  16.111  -4.418  1.00 20.00     0.019 C 
HETATM    5  C6  UNL     1     -34.394  15.853  -2.249  1.00 20.00     0.025 A 
HETATM    6  C7  UNL     1     -35.403  15.977  -3.349  1.00 20.00     0.004 A 
HETATM    7  C8  UNL     1     -34.057  15.326  -3.639  1.00 20.00     0.040 A 
ENDROOT
BRANCH   7   8
HETATM    8  C1  UNL     1     -34.060  13.856  -3.810  1.00 20.00     0.228 C 
HETATM    9  O9  UNL     1     -33.063  13.178  -3.583  1.00 20.00    -0.279 OA
HETATM   10 CL10 UNL     1     -35.601  13.263  -4.353  1.00 20.00    -0.043 Cl
ENDBRANCH   7   8
TORSDOF 1
ENDMDL
MODEL 7
REMARK VINA RESULT:      -4.3      1.027      2.055
REMARK  1 active torsions:
REMARK  status: ('A' for Active; 'I' for Inactive)
REMARK    1  A    between atoms: C1_1  and  C8_8 
ROOT
HETATM    1  C2  UNL     1     -35.120  14.445  -5.759  1.00 20.00     0.000 C 
HETATM    2  C3  UNL     1     -36.087  14.877  -4.662  1.00 20.00     0.001 C 
HETATM    3  C4  UNL     1     -34.037  15.496  -5.975  1.00 20.00     0.006 C 
HETATM    4  C5  UNL     1     -35.379  14.968  -3.313  1.00 20.00     0.019 C 
HETATM    5  C6  UNL     1     -32.828  15.076  -3.692  1.00 20.00     0.025 A 
HETATM    6  C7  UNL     1     -33.422  16.004  -4.706  1.00 20.00     0.004 A 
HETATM    7  C8  UNL     1     -34.121  15.815  -3.367  1.00 20.00     0.040 A 
ENDROOT
BRANCH   7   8
HETATM    8  C1  UNL     1     -34.021  16.937  -2.407  1.00 20.00     0.228 C 
HETATM    9  O9  UNL     1     -33.578  18.032  -2.739  1.00 20.00    -0.279 OA
HETATM   10 CL10 UNL     1     -34.594  16.499  -0.826  1.00 20.00    -0.043 Cl
ENDBRANCH   7   8
TORSDOF 1
ENDMDL
MODEL 8
REMARK VINA RESULT:      -4.3      2.968      3.850
REMARK  1 active torsions:
REMARK  status: ('A' for Active; 'I' for Inactive)
REMARK    1  A    between atoms: C1_1  and  C8_8 
ROOT
HETATM    1  C2  UNL     1     -34.927  17.279  -2.710  1.00 20.00     0.000 C 
HETATM    2  C3  UNL     1     -33.753  16.315  -2.836  1.00 20.00     0.001 C 
HETATM    3  C4  UNL     1     -35.760  17.294  -3.986  1.00 20.00     0.006 C 
HETATM    4  C5  UNL     1     -34.240  14.875  -2.982  1.00 20.00     0.019 C 
HETATM    5  C6  UNL     1     -36.727  14.881  -3.676  1.00 20.00     0.025 A 
HETATM    6  C7  UNL     1     -36.073  15.930  -4.522  1.00 20.00     0.004 A 
HETATM    7  C8  UNL     1     -35.269  14.713  -4.086  1.00 20.00     0.040 A 
ENDROOT
BRANCH   7   8
HETATM    8  C1  UNL     1     -34.985  13.703  -5.130  1.00 20.00     0.228 C 
HETATM    9  O9  UNL     1     -34.768  12.528  -4.848  1.00 20.00    -0.279 OA
HETATM   10 CL10 UNL     1     -35.003  14.388  -6.726  1.00 20.00    -0.043 Cl
ENDBRANCH   7   8
TORSDOF 1
ENDMDL
MODEL 9
REMARK VINA RESULT:      -4.3      2.770      3.656
REMARK  1 active torsions:
REMARK  status: ('A' for Active; 'I' for Inactive)
REMARK    1  A    between atoms: C1_1  and  C8_8 
ROOT
HETATM    1  C2  UNL     1     -33.782  16.761  -2.169  1.00 20.00     0.000 C 
HETATM    2  C3  UNL     1     -33.710  17.498  -3.501  1.00 20.00     0.001 C 
HETATM    3  C4  UNL     1     -34.890  15.714  -2.184  1.00 20.00     0.006 C 
HETATM    4  C5  UNL     1     -33.316  16.550  -4.631  1.00 20.00     0.019 C 
HETATM    5  C6  UNL     1     -33.693  14.112  -3.872  1.00 20.00     0.025 A 
HETATM    6  C7  UNL     1     -34.906  14.864  -3.417  1.00 20.00     0.004 A 
HETATM    7  C8  UNL     1     -34.183  15.306  -4.683  1.00 20.00     0.040 A 
ENDROOT
BRANCH   7   8
HETATM    8  C1  UNL     1     -34.857  15.006  -5.966  1.00 20.00     0.228 C 
HETATM    9  O9  UNL     1     -34.222  14.809  -6.997  1.00 20.00    -0.279 OA
HETATM   10 CL10 UNL     1     -36.587  14.975  -5.804  1.00 20.00    -0.043 Cl
ENDBRANCH   7   8
TORSDOF 1
ENDMDL
