MODEL 1
REMARK VINA RESULT:      -3.9      0.000      0.000
REMARK  2 active torsions:
REMARK  status: ('A' for Active; 'I' for Inactive)
REMARK    1  A    between atoms: C2_2  and  C6_6 
REMARK    2  A    between atoms: C3_3  and  C7_7 
ROOT
HETATM    1  C1  UNL     1     -35.998  15.155  -3.736  1.00 20.00     0.133 A 
HETATM    2  C2  UNL     1     -34.858  14.737  -4.388  1.00 20.00     0.016 A 
HETATM    3  C3  UNL     1     -34.512  16.153  -2.470  1.00 20.00     0.078 A 
HETATM    4  N8  UNL     1     -35.802  15.967  -2.636  1.00 20.00    -0.257 NA
HETATM    5  S9  UNL     1     -33.476  15.381  -3.600  1.00 20.00    -0.076 SA
ENDROOT
BRANCH   3   6
HETATM    6  C7  UNL     1     -33.900  16.990  -1.362  1.00 20.00     0.037 C 
HETATM    7  C4  UNL     1     -34.810  17.046  -0.132  1.00 20.00     0.016 C 
HETATM    8  C5  UNL     1     -33.554  18.400  -1.849  1.00 20.00     0.016 C 
ENDBRANCH   3   6
BRANCH   2   9
HETATM    9  C6  UNL     1     -34.709  13.876  -5.577  1.00 20.00     0.162 C 
HETATM   10 CL10 UNL     1     -34.389  14.847  -7.039  1.00 20.00    -0.125 Cl
ENDBRANCH   2   9
TORSDOF 2
ENDMDL
MODEL 2
REMARK VINA RESULT:      -3.9      1.376      1.531
REMARK  2 active torsions:
REMARK  status: ('A' for Active; 'I' for Inactive)
REMARK    1  A    between atoms: C2_2  and  C6_6 
REMARK    2  A    between atoms: C3_3  and  C7_7 
ROOT
HETATM    1  C1  UNL     1     -33.695  16.169  -5.272  1.00 20.00     0.133 A 
HETATM    2  C2  UNL     1     -34.394  15.032  -4.926  1.00 20.00     0.016 A 
HETATM    3  C3  UNL     1     -33.806  16.497  -3.107  1.00 20.00     0.078 A 
HETATM    4  N8  UNL     1     -33.358  17.011  -4.231  1.00 20.00    -0.257 NA
HETATM    5  S9  UNL     1     -34.644  15.004  -3.229  1.00 20.00    -0.076 SA
ENDROOT
BRANCH   3   6
HETATM    6  C7  UNL     1     -33.631  17.135  -1.741  1.00 20.00     0.037 C 
HETATM    7  C4  UNL     1     -34.711  16.670  -0.761  1.00 20.00     0.016 C 
HETATM    8  C5  UNL     1     -33.600  18.663  -1.834  1.00 20.00     0.016 C 
ENDBRANCH   3   6
BRANCH   2   9
HETATM    9  C6  UNL     1     -34.903  13.939  -5.777  1.00 20.00     0.162 C 
HETATM   10 CL10 UNL     1     -35.208  14.506  -7.441  1.00 20.00    -0.125 Cl
ENDBRANCH   2   9
TORSDOF 2
ENDMDL
MODEL 3
REMARK VINA RESULT:      -3.8     12.176     13.140
REMARK  2 active torsions:
REMARK  status: ('A' for Active; 'I' for Inactive)
REMARK    1  A    between atoms: C2_2  and  C6_6 
REMARK    2  A    between atoms: C3_3  and  C7_7 
ROOT
HETATM    1  C1  UNL     1     -40.950   4.228  -1.576  1.00 20.00     0.133 A 
HETATM    2  C2  UNL     1     -41.956   3.780  -2.406  1.00 20.00     0.016 A 
HETATM    3  C3  UNL     1     -41.892   6.157  -2.023  1.00 20.00     0.078 A 
HETATM    4  N8  UNL     1     -40.912   5.591  -1.356  1.00 20.00    -0.257 NA
HETATM    5  S9  UNL     1     -42.899   5.111  -2.938  1.00 20.00    -0.076 SA
ENDROOT
BRANCH   3   6
HETATM    6  C7  UNL     1     -42.177   7.648  -2.032  1.00 20.00     0.037 C 
HETATM    7  C4  UNL     1     -43.207   8.030  -0.965  1.00 20.00     0.016 C 
HETATM    8  C5  UNL     1     -42.622   8.127  -3.416  1.00 20.00     0.016 C 
ENDBRANCH   3   6
BRANCH   2   9
HETATM    9  C6  UNL     1     -42.279   2.409  -2.846  1.00 20.00     0.162 C 
HETATM   10 CL10 UNL     1     -41.091   1.818  -4.039  1.00 20.00    -0.125 Cl
ENDBRANCH   2   9
TORSDOF 2
ENDMDL
MODEL 4
REMARK VINA RESULT:      -3.8      2.843      4.833
REMARK  2 active torsions:
REMARK  status: ('A' for Active; 'I' for Inactive)
REMARK    1  A    between atoms: C2_2  and  C6_6 
REMARK    2  A    between atoms: C3_3  and  C7_7 
ROOT
HETATM    1  C1  UNL     1     -34.458  15.056  -3.177  1.00 20.00     0.133 A 
HETATM    2  C2  UNL     1     -33.952  16.332  -3.044  1.00 20.00     0.016 A 
HETATM    3  C3  UNL     1     -34.253  15.553  -5.303  1.00 20.00     0.078 A 
HETATM    4  N8  UNL     1     -34.632  14.608  -4.472  1.00 20.00    -0.257 NA
HETATM    5  S9  UNL     1     -33.677  17.007  -4.597  1.00 20.00    -0.076 SA
ENDROOT
BRANCH   3   6
HETATM    6  C7  UNL     1     -34.295  15.434  -6.816  1.00 20.00     0.037 C 
HETATM    7  C4  UNL     1     -34.576  16.785  -7.478  1.00 20.00     0.016 C 
HETATM    8  C5  UNL     1     -35.313  14.384  -7.268  1.00 20.00     0.016 C 
ENDBRANCH   3   6
BRANCH   2   9
HETATM    9  C6  UNL     1     -33.649  17.106  -1.825  1.00 20.00     0.162 C 
HETATM   10 CL10 UNL     1     -34.726  16.641  -0.481  1.00 20.00    -0.125 Cl
ENDBRANCH   2   9
TORSDOF 2
ENDMDL
MODEL 5
REMARK VINA RESULT:      -3.8      2.744      4.723
REMARK  2 active torsions:
REMARK  status: ('A' for Active; 'I' for Inactive)
REMARK    1  A    between atoms: C2_2  and  C6_6 
REMARK    2  A    between atoms: C3_3  and  C7_7 
ROOT
HETATM    1  C1  UNL     1     -33.714  17.660  -3.900  1.00 20.00     0.133 A 
HETATM    2  C2  UNL     1     -33.921  17.073  -2.670  1.00 20.00     0.016 A 
HETATM    3  C3  UNL     1     -34.543  15.748  -4.583  1.00 20.00     0.078 A 
HETATM    4  N8  UNL     1     -34.070  16.901  -4.998  1.00 20.00    -0.257 NA
HETATM    5  S9  UNL     1     -34.589  15.508  -2.884  1.00 20.00    -0.076 SA
ENDROOT
BRANCH   3   6
HETATM    6  C7  UNL     1     -35.038  14.642  -5.497  1.00 20.00     0.037 C 
HETATM    7  C4  UNL     1     -34.663  13.259  -4.961  1.00 20.00     0.016 C 
HETATM    8  C5  UNL     1     -34.529  14.828  -6.929  1.00 20.00     0.016 C 
ENDBRANCH   3   6
BRANCH   2   9
HETATM    9  C6  UNL     1     -33.656  17.596  -1.316  1.00 20.00     0.162 C 
HETATM   10 CL10 UNL     1     -34.801  16.919  -0.127  1.00 20.00    -0.125 Cl
ENDBRANCH   2   9
TORSDOF 2
ENDMDL
MODEL 6
REMARK VINA RESULT:      -3.7      1.887      2.255
REMARK  2 active torsions:
REMARK  status: ('A' for Active; 'I' for Inactive)
REMARK    1  A    between atoms: C2_2  and  C6_6 
REMARK    2  A    between atoms: C3_3  and  C7_7 
ROOT
HETATM    1  C1  UNL     1     -33.652  17.036  -4.553  1.00 20.00     0.133 A 
HETATM    2  C2  UNL     1     -34.155  15.787  -4.253  1.00 20.00     0.016 A 
HETATM    3  C3  UNL     1     -34.100  17.361  -2.431  1.00 20.00     0.078 A 
HETATM    4  N8  UNL     1     -33.621  17.940  -3.509  1.00 20.00    -0.257 NA
HETATM    5  S9  UNL     1     -34.608  15.731  -2.600  1.00 20.00    -0.076 SA
ENDROOT
BRANCH   3   6
HETATM    6  C7  UNL     1     -34.229  18.037  -1.078  1.00 20.00     0.037 C 
HETATM    7  C4  UNL     1     -32.888  18.602  -0.602  1.00 20.00     0.016 C 
HETATM    8  C5  UNL     1     -34.824  17.091  -0.032  1.00 20.00     0.016 C 
ENDBRANCH   3   6
BRANCH   2   9
HETATM    9  C6  UNL     1     -34.328  14.605  -5.119  1.00 20.00     0.162 C 
HETATM   10 CL10 UNL     1     -35.063  13.251  -4.220  1.00 20.00    -0.125 Cl
ENDBRANCH   2   9
TORSDOF 2
ENDMDL
MODEL 7
REMARK VINA RESULT:      -3.6      2.736      4.625
REMARK  2 active torsions:
REMARK  status: ('A' for Active; 'I' for Inactive)
REMARK    1  A    between atoms: C2_2  and  C6_6 
REMARK    2  A    between atoms: C3_3  and  C7_7 
ROOT
HETATM    1  C1  UNL     1     -34.425  16.289  -1.868  1.00 20.00     0.133 A 
HETATM    2  C2  UNL     1     -33.963  17.418  -2.512  1.00 20.00     0.016 A 
HETATM    3  C3  UNL     1     -34.640  15.598  -3.938  1.00 20.00     0.078 A 
HETATM    4  N8  UNL     1     -34.814  15.245  -2.684  1.00 20.00    -0.257 NA
HETATM    5  S9  UNL     1     -34.012  17.172  -4.209  1.00 20.00    -0.076 SA
ENDROOT
BRANCH   3   6
HETATM    6  C7  UNL     1     -34.956  14.714  -5.130  1.00 20.00     0.037 C 
HETATM    7  C4  UNL     1     -34.560  13.258  -4.872  1.00 20.00     0.016 C 
HETATM    8  C5  UNL     1     -34.297  15.239  -6.409  1.00 20.00     0.016 C 
ENDBRANCH   3   6
BRANCH   2   9
HETATM    9  C6  UNL     1     -33.477  18.694  -1.953  1.00 20.00     0.162 C 
HETATM   10 CL10 UNL     1     -32.782  18.461  -0.326  1.00 20.00    -0.125 Cl
ENDBRANCH   2   9
TORSDOF 2
ENDMDL
MODEL 8
REMARK VINA RESULT:      -3.5     11.928     12.330
REMARK  2 active torsions:
REMARK  status: ('A' for Active; 'I' for Inactive)
REMARK    1  A    between atoms: C2_2  and  C6_6 
REMARK    2  A    between atoms: C3_3  and  C7_7 
ROOT
HETATM    1  C1  UNL     1     -33.285   5.939   2.232  1.00 20.00     0.133 A 
HETATM    2  C2  UNL     1     -32.624   7.003   2.808  1.00 20.00     0.016 A 
HETATM    3  C3  UNL     1     -34.112   5.784   4.257  1.00 20.00     0.078 A 
HETATM    4  N8  UNL     1     -34.138   5.239   3.062  1.00 20.00    -0.257 NA
HETATM    5  S9  UNL     1     -33.082   7.143   4.455  1.00 20.00    -0.076 SA
ENDROOT
BRANCH   3   6
HETATM    6  C7  UNL     1     -34.920   5.292   5.444  1.00 20.00     0.037 C 
HETATM    7  C4  UNL     1     -34.445   5.931   6.751  1.00 20.00     0.016 C 
HETATM    8  C5  UNL     1     -34.898   3.765   5.544  1.00 20.00     0.016 C 
ENDBRANCH   3   6
BRANCH   2   9
HETATM    9  C6  UNL     1     -31.655   7.946   2.217  1.00 20.00     0.162 C 
HETATM   10 CL10 UNL     1     -32.466   9.430   1.648  1.00 20.00    -0.125 Cl
ENDBRANCH   2   9
TORSDOF 2
ENDMDL
MODEL 9
REMARK VINA RESULT:      -3.5      2.744      4.591
REMARK  2 active torsions:
REMARK  status: ('A' for Active; 'I' for Inactive)
REMARK    1  A    between atoms: C2_2  and  C6_6 
REMARK    2  A    between atoms: C3_3  and  C7_7 
ROOT
HETATM    1  C1  UNL     1     -36.707  17.260  -3.845  1.00 20.00     0.133 A 
HETATM    2  C2  UNL     1     -35.909  16.969  -2.759  1.00 20.00     0.016 A 
HETATM    3  C3  UNL     1     -35.721  15.467  -4.633  1.00 20.00     0.078 A 
HETATM    4  N8  UNL     1     -36.601  16.400  -4.920  1.00 20.00    -0.257 NA
HETATM    5  S9  UNL     1     -34.983  15.562  -3.087  1.00 20.00    -0.076 SA
ENDROOT
BRANCH   3   6
HETATM    6  C7  UNL     1     -35.330  14.338  -5.569  1.00 20.00     0.037 C 
HETATM    7  C4  UNL     1     -34.571  13.233  -4.830  1.00 20.00     0.016 C 
HETATM    8  C5  UNL     1     -34.519  14.852  -6.761  1.00 20.00     0.016 C 
ENDBRANCH   3   6
BRANCH   2   9
HETATM    9  C6  UNL     1     -35.776  17.669  -1.467  1.00 20.00     0.162 C 
HETATM   10 CL10 UNL     1     -34.676  16.793  -0.369  1.00 20.00    -0.125 Cl
ENDBRANCH   2   9
TORSDOF 2
ENDMDL
