MODEL 1
REMARK VINA RESULT:      -5.1      0.000      0.000
REMARK  0 active torsions:
REMARK  status: ('A' for Active; 'I' for Inactive)
ROOT
HETATM    1  C1  UNL     1     -34.712  13.307  -5.497  1.00 20.00     0.097 A 
HETATM    2  C2  UNL     1     -34.218  13.937  -3.297  1.00 20.00     0.097 A 
HETATM    3  C3  UNL     1     -34.620  14.627  -5.936  1.00 20.00    -0.016 A 
HETATM    4  C4  UNL     1     -34.111  15.277  -3.665  1.00 20.00    -0.016 A 
HETATM    5  C5  UNL     1     -34.289  15.641  -5.015  1.00 20.00     0.045 A 
HETATM    6  C6  UNL     1     -34.826  14.938  -7.393  1.00 20.00     0.044 C 
HETATM    7  C7  UNL     1     -33.757  16.304  -2.623  1.00 20.00     0.044 C 
HETATM    8  C8  UNL     1     -35.158  16.411  -7.601  1.00 20.00     0.025 C 
HETATM    9  C9  UNL     1     -34.146  17.706  -3.077  1.00 20.00     0.025 C 
HETATM   10  C10 UNL     1     -34.168  17.288  -6.847  1.00 20.00     0.123 C 
HETATM   11  C11 UNL     1     -33.642  17.962  -4.491  1.00 20.00     0.123 C 
HETATM   12  N12 UNL     1     -34.511  13.007  -4.211  1.00 20.00    -0.374 N 
HETATM   13  N13 UNL     1     -34.179  16.972  -5.420  1.00 20.00    -0.380 N 
HETATM   14  H28 UNL     1     -34.583  12.033  -3.915  1.00 20.00     0.164 HD
ENDROOT
TORSDOF 0
ENDMDL
MODEL 2
REMARK VINA RESULT:      -4.9      0.713      3.259
REMARK  0 active torsions:
REMARK  status: ('A' for Active; 'I' for Inactive)
ROOT
HETATM    1  C1  UNL     1     -34.397  13.792  -3.423  1.00 20.00     0.097 A 
HETATM    2  C2  UNL     1     -34.707  13.648  -5.740  1.00 20.00     0.097 A 
HETATM    3  C3  UNL     1     -34.433  15.185  -3.467  1.00 20.00    -0.016 A 
HETATM    4  C4  UNL     1     -34.751  15.037  -5.857  1.00 20.00    -0.016 A 
HETATM    5  C5  UNL     1     -34.638  15.834  -4.700  1.00 20.00     0.045 A 
HETATM    6  C6  UNL     1     -34.302  15.969  -2.189  1.00 20.00     0.044 C 
HETATM    7  C7  UNL     1     -34.970  15.657  -7.211  1.00 20.00     0.044 C 
HETATM    8  C8  UNL     1     -33.890  17.410  -2.466  1.00 20.00     0.025 C 
HETATM    9  C9  UNL     1     -34.523  17.114  -7.229  1.00 20.00     0.025 C 
HETATM   10  C10 UNL     1     -34.771  18.013  -3.552  1.00 20.00     0.123 C 
HETATM   11  C11 UNL     1     -35.100  17.858  -6.031  1.00 20.00     0.123 C 
HETATM   12  N12 UNL     1     -34.533  13.077  -4.543  1.00 20.00    -0.374 N 
HETATM   13  N13 UNL     1     -34.689  17.227  -4.781  1.00 20.00    -0.380 N 
HETATM   14  H28 UNL     1     -34.505  12.060  -4.485  1.00 20.00     0.164 HD
ENDROOT
TORSDOF 0
ENDMDL
MODEL 3
REMARK VINA RESULT:      -4.8      2.508      2.934
REMARK  0 active torsions:
REMARK  status: ('A' for Active; 'I' for Inactive)
ROOT
HETATM    1  C1  UNL     1     -35.495  13.365  -4.530  1.00 20.00     0.097 A 
HETATM    2  C2  UNL     1     -33.598  14.237  -3.468  1.00 20.00     0.097 A 
HETATM    3  C3  UNL     1     -36.283  14.421  -4.072  1.00 20.00    -0.016 A 
HETATM    4  C4  UNL     1     -34.326  15.319  -2.976  1.00 20.00    -0.016 A 
HETATM    5  C5  UNL     1     -35.693  15.440  -3.298  1.00 20.00     0.045 A 
HETATM    6  C6  UNL     1     -37.737  14.478  -4.455  1.00 20.00     0.044 C 
HETATM    7  C7  UNL     1     -33.626  16.367  -2.152  1.00 20.00     0.044 C 
HETATM    8  C8  UNL     1     -38.519  15.386  -3.513  1.00 20.00     0.025 C 
HETATM    9  C9  UNL     1     -34.621  17.176  -1.328  1.00 20.00     0.025 C 
HETATM   10  C10 UNL     1     -37.801  16.718  -3.344  1.00 20.00     0.123 C 
HETATM   11  C11 UNL     1     -35.772  17.650  -2.206  1.00 20.00     0.123 C 
HETATM   12  N12 UNL     1     -34.197  13.306  -4.218  1.00 20.00    -0.374 N 
HETATM   13  N13 UNL     1     -36.449  16.516  -2.831  1.00 20.00    -0.380 N 
HETATM   14  H28 UNL     1     -33.642  12.525  -4.566  1.00 20.00     0.164 HD
ENDROOT
TORSDOF 0
ENDMDL
MODEL 4
REMARK VINA RESULT:      -4.8      1.151      4.570
REMARK  0 active torsions:
REMARK  status: ('A' for Active; 'I' for Inactive)
ROOT
HETATM    1  C1  UNL     1     -33.449  18.718  -4.245  1.00 20.00     0.097 A 
HETATM    2  C2  UNL     1     -33.743  18.207  -6.512  1.00 20.00     0.097 A 
HETATM    3  C3  UNL     1     -33.836  17.432  -3.867  1.00 20.00    -0.016 A 
HETATM    4  C4  UNL     1     -34.140  16.906  -6.206  1.00 20.00    -0.016 A 
HETATM    5  C5  UNL     1     -34.167  16.489  -4.860  1.00 20.00     0.045 A 
HETATM    6  C6  UNL     1     -33.844  17.061  -2.409  1.00 20.00     0.044 C 
HETATM    7  C7  UNL     1     -34.482  15.956  -7.322  1.00 20.00     0.044 C 
HETATM    8  C8  UNL     1     -34.718  15.838  -2.156  1.00 20.00     0.025 C 
HETATM    9  C9  UNL     1     -35.323  14.790  -6.815  1.00 20.00     0.025 C 
HETATM   10  C10 UNL     1     -34.376  14.730  -3.143  1.00 20.00     0.123 C 
HETATM   11  C11 UNL     1     -34.691  14.185  -5.569  1.00 20.00     0.123 C 
HETATM   12  N12 UNL     1     -33.415  19.060  -5.536  1.00 20.00    -0.374 N 
HETATM   13  N13 UNL     1     -34.550  15.190  -4.519  1.00 20.00    -0.380 N 
HETATM   14  H28 UNL     1     -33.128  20.006  -5.787  1.00 20.00     0.164 HD
ENDROOT
TORSDOF 0
ENDMDL
MODEL 5
REMARK VINA RESULT:      -4.7      1.636      1.730
REMARK  0 active torsions:
REMARK  status: ('A' for Active; 'I' for Inactive)
ROOT
HETATM    1  C1  UNL     1     -34.749  13.504  -5.519  1.00 20.00     0.097 A 
HETATM    2  C2  UNL     1     -33.702  13.961  -3.474  1.00 20.00     0.097 A 
HETATM    3  C3  UNL     1     -35.499  14.677  -5.439  1.00 20.00    -0.016 A 
HETATM    4  C4  UNL     1     -34.420  15.147  -3.329  1.00 20.00    -0.016 A 
HETATM    5  C5  UNL     1     -35.323  15.538  -4.338  1.00 20.00     0.045 A 
HETATM    6  C6  UNL     1     -36.446  15.026  -6.555  1.00 20.00     0.044 C 
HETATM    7  C7  UNL     1     -34.178  16.014  -2.123  1.00 20.00     0.044 C 
HETATM    8  C8  UNL     1     -37.490  16.036  -6.096  1.00 20.00     0.025 C 
HETATM    9  C9  UNL     1     -35.340  16.973  -1.892  1.00 20.00     0.025 C 
HETATM   10  C10 UNL     1     -36.821  17.200  -5.377  1.00 20.00     0.123 C 
HETATM   11  C11 UNL     1     -35.702  17.687  -3.188  1.00 20.00     0.123 C 
HETATM   12  N12 UNL     1     -33.886  13.187  -4.549  1.00 20.00    -0.374 N 
HETATM   13  N13 UNL     1     -36.050  16.725  -4.230  1.00 20.00    -0.380 N 
HETATM   14  H28 UNL     1     -33.348  12.325  -4.631  1.00 20.00     0.164 HD
ENDROOT
TORSDOF 0
ENDMDL
MODEL 6
REMARK VINA RESULT:      -4.7      1.138      3.237
REMARK  0 active torsions:
REMARK  status: ('A' for Active; 'I' for Inactive)
ROOT
HETATM    1  C1  UNL     1     -34.294  16.689  -7.011  1.00 20.00     0.097 A 
HETATM    2  C2  UNL     1     -33.803  18.358  -5.443  1.00 20.00     0.097 A 
HETATM    3  C3  UNL     1     -34.557  15.765  -6.001  1.00 20.00    -0.016 A 
HETATM    4  C4  UNL     1     -34.050  17.486  -4.383  1.00 20.00    -0.016 A 
HETATM    5  C5  UNL     1     -34.461  16.165  -4.654  1.00 20.00     0.045 A 
HETATM    6  C6  UNL     1     -34.989  14.371  -6.368  1.00 20.00     0.044 C 
HETATM    7  C7  UNL     1     -33.922  17.987  -2.970  1.00 20.00     0.044 C 
HETATM    8  C8  UNL     1     -34.769  13.403  -5.211  1.00 20.00     0.025 C 
HETATM    9  C9  UNL     1     -33.757  16.833  -1.989  1.00 20.00     0.025 C 
HETATM   10  C10 UNL     1     -35.340  13.980  -3.923  1.00 20.00     0.123 C 
HETATM   11  C11 UNL     1     -34.813  15.765  -2.246  1.00 20.00     0.123 C 
HETATM   12  N12 UNL     1     -33.931  17.938  -6.706  1.00 20.00    -0.374 N 
HETATM   13  N13 UNL     1     -34.726  15.270  -3.617  1.00 20.00    -0.380 N 
HETATM   14  H28 UNL     1     -33.745  18.595  -7.463  1.00 20.00     0.164 HD
ENDROOT
TORSDOF 0
ENDMDL
MODEL 7
REMARK VINA RESULT:      -4.7      1.686      3.668
REMARK  0 active torsions:
REMARK  status: ('A' for Active; 'I' for Inactive)
ROOT
HETATM    1  C1  UNL     1     -33.811  13.987  -3.414  1.00 20.00     0.097 A 
HETATM    2  C2  UNL     1     -34.731  13.572  -5.526  1.00 20.00     0.097 A 
HETATM    3  C3  UNL     1     -34.588  15.135  -3.259  1.00 20.00    -0.016 A 
HETATM    4  C4  UNL     1     -35.537  14.706  -5.439  1.00 20.00    -0.016 A 
HETATM    5  C5  UNL     1     -35.493  15.500  -4.275  1.00 20.00     0.045 A 
HETATM    6  C6  UNL     1     -34.483  15.933  -1.988  1.00 20.00     0.044 C 
HETATM    7  C7  UNL     1     -36.477  15.033  -6.569  1.00 20.00     0.044 C 
HETATM    8  C8  UNL     1     -35.010  17.350  -2.182  1.00 20.00     0.025 C 
HETATM    9  C9  UNL     1     -36.901  16.497  -6.526  1.00 20.00     0.025 C 
HETATM   10  C10 UNL     1     -36.373  17.319  -2.862  1.00 20.00     0.123 C 
HETATM   11  C11 UNL     1     -37.357  16.875  -5.123  1.00 20.00     0.123 C 
HETATM   12  N12 UNL     1     -33.905  13.253  -4.525  1.00 20.00    -0.374 N 
HETATM   13  N13 UNL     1     -36.294  16.636  -4.151  1.00 20.00    -0.380 N 
HETATM   14  H28 UNL     1     -33.326  12.417  -4.614  1.00 20.00     0.164 HD
ENDROOT
TORSDOF 0
ENDMDL
MODEL 8
REMARK VINA RESULT:      -4.6      1.176      3.809
REMARK  0 active torsions:
REMARK  status: ('A' for Active; 'I' for Inactive)
ROOT
HETATM    1  C1  UNL     1     -33.928  16.668  -2.526  1.00 20.00     0.097 A 
HETATM    2  C2  UNL     1     -33.703  18.417  -4.067  1.00 20.00     0.097 A 
HETATM    3  C3  UNL     1     -34.256  15.767  -3.539  1.00 20.00    -0.016 A 
HETATM    4  C4  UNL     1     -34.025  17.572  -5.129  1.00 20.00    -0.016 A 
HETATM    5  C5  UNL     1     -34.285  16.210  -4.876  1.00 20.00     0.045 A 
HETATM    6  C6  UNL     1     -34.524  14.328  -3.191  1.00 20.00     0.044 C 
HETATM    7  C7  UNL     1     -34.039  18.120  -6.531  1.00 20.00     0.044 C 
HETATM    8  C8  UNL     1     -35.307  13.630  -4.296  1.00 20.00     0.025 C 
HETATM    9  C9  UNL     1     -34.848  17.226  -7.464  1.00 20.00     0.025 C 
HETATM   10  C10 UNL     1     -34.665  13.900  -5.651  1.00 20.00     0.123 C 
HETATM   11  C11 UNL     1     -34.426  15.772  -7.299  1.00 20.00     0.123 C 
HETATM   12  N12 UNL     1     -33.666  17.945  -2.817  1.00 20.00    -0.374 N 
HETATM   13  N13 UNL     1     -34.600  15.334  -5.917  1.00 20.00    -0.380 N 
HETATM   14  H28 UNL     1     -33.427  18.584  -2.058  1.00 20.00     0.164 HD
ENDROOT
TORSDOF 0
ENDMDL
MODEL 9
REMARK VINA RESULT:      -4.6      1.207      3.226
REMARK  0 active torsions:
REMARK  status: ('A' for Active; 'I' for Inactive)
ROOT
HETATM    1  C1  UNL     1     -35.210  14.371  -7.128  1.00 20.00     0.097 A 
HETATM    2  C2  UNL     1     -35.179  16.683  -7.503  1.00 20.00     0.097 A 
HETATM    3  C3  UNL     1     -34.764  14.541  -5.818  1.00 20.00    -0.016 A 
HETATM    4  C4  UNL     1     -34.731  16.925  -6.205  1.00 20.00    -0.016 A 
HETATM    5  C5  UNL     1     -34.539  15.841  -5.325  1.00 20.00     0.045 A 
HETATM    6  C6  UNL     1     -34.578  13.334  -4.938  1.00 20.00     0.044 C 
HETATM    7  C7  UNL     1     -34.510  18.344  -5.753  1.00 20.00     0.044 C 
HETATM    8  C8  UNL     1     -33.664  13.646  -3.759  1.00 20.00     0.025 C 
HETATM    9  C9  UNL     1     -33.598  18.397  -4.532  1.00 20.00     0.025 C 
HETATM   10  C10 UNL     1     -34.105  14.932  -3.074  1.00 20.00     0.123 C 
HETATM   11  C11 UNL     1     -34.070  17.406  -3.477  1.00 20.00     0.123 C 
HETATM   12  N12 UNL     1     -35.401  15.432  -7.918  1.00 20.00    -0.374 N 
HETATM   13  N13 UNL     1     -34.101  16.049  -4.016  1.00 20.00    -0.380 N 
HETATM   14  H28 UNL     1     -35.729  15.282  -8.872  1.00 20.00     0.164 HD
ENDROOT
TORSDOF 0
ENDMDL
