MODEL 1
REMARK VINA RESULT:      -5.2      0.000      0.000
REMARK  1 active torsions:
REMARK  status: ('A' for Active; 'I' for Inactive)
REMARK    1  A    between atoms: C5_5  and  C8_8 
ROOT
HETATM    1  C1  UNL     1     -35.589  13.857  -4.094  1.00 20.00     0.052 C 
HETATM    2  C2  UNL     1     -36.472  14.807  -3.749  1.00 20.00    -0.080 C 
HETATM    3  C3  UNL     1     -34.161  13.977  -3.709  1.00 20.00     0.150 C 
HETATM    4  C6  UNL     1     -36.103  16.002  -2.908  1.00 20.00     0.043 C 
HETATM    5  C7  UNL     1     -33.706  15.236  -3.008  1.00 20.00     0.092 C 
HETATM    6  C8  UNL     1     -34.809  15.790  -2.108  1.00 20.00     0.024 C 
HETATM    7  C9  UNL     1     -37.905  14.735  -4.191  1.00 20.00     0.043 C 
HETATM    8  O11 UNL     1     -33.370  13.089  -4.020  1.00 20.00    -0.293 OA
ENDROOT
BRANCH   6   9
HETATM    9  C5  UNL     1     -34.374  17.060  -1.442  1.00 20.00    -0.088 C 
HETATM   10  C4  UNL     1     -33.692  18.010  -2.101  1.00 20.00     0.014 C 
HETATM   11  C10 UNL     1     -34.746  17.211   0.004  1.00 20.00     0.043 C 
ENDBRANCH   6   9
TORSDOF 1
ENDMDL
MODEL 2
REMARK VINA RESULT:      -5.0      1.988      2.443
REMARK  1 active torsions:
REMARK  status: ('A' for Active; 'I' for Inactive)
REMARK    1  A    between atoms: C5_5  and  C8_8 
ROOT
HETATM    1  C1  UNL     1     -34.767  14.404  -5.839  1.00 20.00     0.052 C 
HETATM    2  C2  UNL     1     -34.532  15.719  -5.964  1.00 20.00    -0.080 C 
HETATM    3  C3  UNL     1     -34.743  13.756  -4.505  1.00 20.00     0.150 C 
HETATM    4  C6  UNL     1     -34.300  16.627  -4.782  1.00 20.00     0.043 C 
HETATM    5  C7  UNL     1     -34.352  14.588  -3.305  1.00 20.00     0.092 C 
HETATM    6  C8  UNL     1     -34.822  16.033  -3.466  1.00 20.00     0.024 C 
HETATM    7  C9  UNL     1     -34.483  16.377  -7.313  1.00 20.00     0.043 C 
HETATM    8  O11 UNL     1     -34.976  12.552  -4.408  1.00 20.00    -0.293 OA
ENDROOT
BRANCH   6   9
HETATM    9  C5  UNL     1     -34.402  16.870  -2.295  1.00 20.00    -0.088 C 
HETATM   10  C4  UNL     1     -34.610  16.474  -1.030  1.00 20.00     0.014 C 
HETATM   11  C10 UNL     1     -33.734  18.173  -2.618  1.00 20.00     0.043 C 
ENDBRANCH   6   9
TORSDOF 1
ENDMDL
MODEL 3
REMARK VINA RESULT:      -4.9      2.684      3.846
REMARK  1 active torsions:
REMARK  status: ('A' for Active; 'I' for Inactive)
REMARK    1  A    between atoms: C5_5  and  C8_8 
ROOT
HETATM    1  C1  UNL     1     -34.565  14.320  -3.296  1.00 20.00     0.052 C 
HETATM    2  C2  UNL     1     -34.543  15.644  -3.077  1.00 20.00    -0.080 C 
HETATM    3  C3  UNL     1     -34.657  13.785  -4.677  1.00 20.00     0.150 C 
HETATM    4  C6  UNL     1     -34.542  16.660  -4.192  1.00 20.00     0.043 C 
HETATM    5  C7  UNL     1     -34.825  14.760  -5.819  1.00 20.00     0.092 C 
HETATM    6  C8  UNL     1     -34.090  16.068  -5.535  1.00 20.00     0.024 C 
HETATM    7  C9  UNL     1     -34.521  16.203  -1.684  1.00 20.00     0.043 C 
HETATM    8  O11 UNL     1     -34.660  12.569  -4.859  1.00 20.00    -0.293 OA
ENDROOT
BRANCH   6   9
HETATM    9  C5  UNL     1     -34.287  17.051  -6.649  1.00 20.00    -0.088 C 
HETATM   10  C4  UNL     1     -34.825  16.692  -7.824  1.00 20.00     0.014 C 
HETATM   11  C10 UNL     1     -33.850  18.460  -6.375  1.00 20.00     0.043 C 
ENDBRANCH   6   9
TORSDOF 1
ENDMDL
MODEL 4
REMARK VINA RESULT:      -4.9      2.105      2.774
REMARK  1 active torsions:
REMARK  status: ('A' for Active; 'I' for Inactive)
REMARK    1  A    between atoms: C5_5  and  C8_8 
ROOT
HETATM    1  C1  UNL     1     -34.028  15.796  -4.811  1.00 20.00     0.052 C 
HETATM    2  C2  UNL     1     -34.409  15.053  -3.761  1.00 20.00    -0.080 C 
HETATM    3  C3  UNL     1     -33.708  17.235  -4.642  1.00 20.00     0.150 C 
HETATM    4  C6  UNL     1     -34.474  15.593  -2.354  1.00 20.00     0.043 C 
HETATM    5  C7  UNL     1     -33.917  17.866  -3.284  1.00 20.00     0.092 C 
HETATM    6  C8  UNL     1     -33.633  16.864  -2.166  1.00 20.00     0.024 C 
HETATM    7  C9  UNL     1     -34.803  13.614  -3.927  1.00 20.00     0.043 C 
HETATM    8  O11 UNL     1     -33.346  17.897  -5.613  1.00 20.00    -0.293 OA
ENDROOT
BRANCH   6   9
HETATM    9  C5  UNL     1     -33.876  17.476  -0.820  1.00 20.00    -0.088 C 
HETATM   10  C4  UNL     1     -34.901  17.095  -0.042  1.00 20.00     0.014 C 
HETATM   11  C10 UNL     1     -32.907  18.537  -0.389  1.00 20.00     0.043 C 
ENDBRANCH   6   9
TORSDOF 1
ENDMDL
MODEL 5
REMARK VINA RESULT:      -4.8      2.102      2.655
REMARK  1 active torsions:
REMARK  status: ('A' for Active; 'I' for Inactive)
REMARK    1  A    between atoms: C5_5  and  C8_8 
ROOT
HETATM    1  C1  UNL     1     -34.037  15.809  -4.791  1.00 20.00     0.052 C 
HETATM    2  C2  UNL     1     -34.402  15.086  -3.721  1.00 20.00    -0.080 C 
HETATM    3  C3  UNL     1     -33.694  17.245  -4.652  1.00 20.00     0.150 C 
HETATM    4  C6  UNL     1     -34.425  15.648  -2.322  1.00 20.00     0.043 C 
HETATM    5  C7  UNL     1     -33.860  17.899  -3.299  1.00 20.00     0.092 C 
HETATM    6  C8  UNL     1     -33.562  16.909  -2.173  1.00 20.00     0.024 C 
HETATM    7  C9  UNL     1     -34.820  13.651  -3.856  1.00 20.00     0.043 C 
HETATM    8  O11 UNL     1     -33.346  17.888  -5.641  1.00 20.00    -0.293 OA
ENDROOT
BRANCH   6   9
HETATM    9  C5  UNL     1     -33.764  17.544  -0.831  1.00 20.00    -0.088 C 
HETATM   10  C4  UNL     1     -32.924  18.475  -0.352  1.00 20.00     0.014 C 
HETATM   11  C10 UNL     1     -34.959  17.080  -0.052  1.00 20.00     0.043 C 
ENDBRANCH   6   9
TORSDOF 1
ENDMDL
MODEL 6
REMARK VINA RESULT:      -4.8      2.458      4.588
REMARK  1 active torsions:
REMARK  status: ('A' for Active; 'I' for Inactive)
REMARK    1  A    between atoms: C5_5  and  C8_8 
ROOT
HETATM    1  C1  UNL     1     -33.925  17.893  -2.827  1.00 20.00     0.052 C 
HETATM    2  C2  UNL     1     -34.300  16.732  -2.269  1.00 20.00    -0.080 C 
HETATM    3  C3  UNL     1     -33.592  17.965  -4.271  1.00 20.00     0.150 C 
HETATM    4  C6  UNL     1     -34.473  15.460  -3.061  1.00 20.00     0.043 C 
HETATM    5  C7  UNL     1     -33.588  16.685  -5.075  1.00 20.00     0.092 C 
HETATM    6  C8  UNL     1     -34.652  15.715  -4.565  1.00 20.00     0.024 C 
HETATM    7  C9  UNL     1     -34.573  16.627  -0.797  1.00 20.00     0.043 C 
HETATM    8  O11 UNL     1     -33.265  19.041  -4.768  1.00 20.00    -0.293 OA
ENDROOT
BRANCH   6   9
HETATM    9  C5  UNL     1     -34.625  14.430  -5.336  1.00 20.00    -0.088 C 
HETATM   10  C4  UNL     1     -34.490  13.241  -4.728  1.00 20.00     0.014 C 
HETATM   11  C10 UNL     1     -34.757  14.548  -6.825  1.00 20.00     0.043 C 
ENDBRANCH   6   9
TORSDOF 1
ENDMDL
MODEL 7
REMARK VINA RESULT:      -4.6      0.799      3.902
REMARK  1 active torsions:
REMARK  status: ('A' for Active; 'I' for Inactive)
REMARK    1  A    between atoms: C5_5  and  C8_8 
ROOT
HETATM    1  C1  UNL     1     -33.724  14.811  -2.925  1.00 20.00     0.052 C 
HETATM    2  C2  UNL     1     -34.593  15.745  -2.509  1.00 20.00    -0.080 C 
HETATM    3  C3  UNL     1     -34.140  13.771  -3.898  1.00 20.00     0.150 C 
HETATM    4  C6  UNL     1     -36.002  15.846  -3.035  1.00 20.00     0.043 C 
HETATM    5  C7  UNL     1     -35.588  13.727  -4.331  1.00 20.00     0.092 C 
HETATM    6  C8  UNL     1     -36.187  15.132  -4.382  1.00 20.00     0.024 C 
HETATM    7  C9  UNL     1     -34.207  16.761  -1.473  1.00 20.00     0.043 C 
HETATM    8  O11 UNL     1     -33.326  12.933  -4.280  1.00 20.00    -0.293 OA
ENDROOT
BRANCH   6   9
HETATM    9  C5  UNL     1     -37.633  15.088  -4.774  1.00 20.00    -0.088 C 
HETATM   10  C4  UNL     1     -38.599  14.798  -3.889  1.00 20.00     0.014 C 
HETATM   11  C10 UNL     1     -37.939  15.387  -6.211  1.00 20.00     0.043 C 
ENDBRANCH   6   9
TORSDOF 1
ENDMDL
MODEL 8
REMARK VINA RESULT:      -4.5      3.241      5.215
REMARK  1 active torsions:
REMARK  status: ('A' for Active; 'I' for Inactive)
REMARK    1  A    between atoms: C5_5  and  C8_8 
ROOT
HETATM    1  C1  UNL     1     -33.073  17.775  -0.930  1.00 20.00     0.052 C 
HETATM    2  C2  UNL     1     -34.269  17.181  -0.794  1.00 20.00    -0.080 C 
HETATM    3  C3  UNL     1     -32.589  18.740   0.087  1.00 20.00     0.150 C 
HETATM    4  C6  UNL     1     -35.157  17.391   0.406  1.00 20.00     0.043 C 
HETATM    5  C7  UNL     1     -33.512  19.112   1.225  1.00 20.00     0.092 C 
HETATM    6  C8  UNL     1     -34.393  17.930   1.624  1.00 20.00     0.024 C 
HETATM    7  C9  UNL     1     -34.804  16.257  -1.849  1.00 20.00     0.043 C 
HETATM    8  O11 UNL     1     -31.484  19.263  -0.046  1.00 20.00    -0.293 OA
ENDROOT
BRANCH   6   9
HETATM    9  C5  UNL     1     -35.335  18.307   2.727  1.00 20.00    -0.088 C 
HETATM   10  C4  UNL     1     -36.646  18.495   2.507  1.00 20.00     0.014 C 
HETATM   11  C10 UNL     1     -34.731  18.463   4.091  1.00 20.00     0.043 C 
ENDBRANCH   6   9
TORSDOF 1
ENDMDL
MODEL 9
REMARK VINA RESULT:      -4.4      2.093      2.610
REMARK  1 active torsions:
REMARK  status: ('A' for Active; 'I' for Inactive)
REMARK    1  A    between atoms: C5_5  and  C8_8 
ROOT
HETATM    1  C1  UNL     1     -36.096  14.702  -5.427  1.00 20.00     0.052 C 
HETATM    2  C2  UNL     1     -34.951  15.359  -5.669  1.00 20.00    -0.080 C 
HETATM    3  C3  UNL     1     -36.705  14.718  -4.074  1.00 20.00     0.150 C 
HETATM    4  C6  UNL     1     -34.252  16.197  -4.629  1.00 20.00     0.043 C 
HETATM    5  C7  UNL     1     -35.958  15.406  -2.955  1.00 20.00     0.092 C 
HETATM    6  C8  UNL     1     -35.179  16.612  -3.477  1.00 20.00     0.024 C 
HETATM    7  C9  UNL     1     -34.286  15.294  -7.013  1.00 20.00     0.043 C 
HETATM    8  O11 UNL     1     -37.763  14.123  -3.875  1.00 20.00    -0.293 OA
ENDROOT
BRANCH   6   9
HETATM    9  C5  UNL     1     -34.406  17.273  -2.376  1.00 20.00    -0.088 C 
HETATM   10  C4  UNL     1     -33.669  18.374  -2.588  1.00 20.00     0.014 C 
HETATM   11  C10 UNL     1     -34.505  16.635  -1.022  1.00 20.00     0.043 C 
ENDBRANCH   6   9
TORSDOF 1
ENDMDL
