MODEL 1
REMARK VINA RESULT:      -4.1      0.000      0.000
REMARK  4 active torsions:
REMARK  status: ('A' for Active; 'I' for Inactive)
REMARK    1  A    between atoms: C1_1  and  C7_7 
REMARK    2  A    between atoms: C1_1  and  C8_8 
REMARK    3  A    between atoms: C7_7  and  O10_10 
REMARK    4  A    between atoms: C7_7  and  O11_11 
ROOT
HETATM    1  C1  UNL     1     -35.261  14.050  -4.236  1.00 20.00     0.188 C 
HETATM    2  O9  UNL     1     -35.216  12.824  -4.374  1.00 20.00    -0.292 OA
ENDROOT
BRANCH   1   3
HETATM    3  C7  UNL     1     -36.567  14.800  -4.477  1.00 20.00     0.330 C 
BRANCH   3   4
HETATM    4  O10 UNL     1     -36.737  14.750  -5.894  1.00 20.00    -0.359 OA
HETATM    5  C5  UNL     1     -36.752  16.045  -6.478  1.00 20.00     0.205 C 
ENDBRANCH   3   4
BRANCH   3   6
HETATM    6  O11 UNL     1     -37.626  14.129  -3.805  1.00 20.00    -0.359 OA
HETATM    7  C6  UNL     1     -38.821  14.899  -3.764  1.00 20.00     0.205 C 
ENDBRANCH   3   6
ENDBRANCH   1   3
BRANCH   1   8
HETATM    8  C8  UNL     1     -34.023  14.851  -3.772  1.00 20.00     0.015 C 
HETATM    9  C2  UNL     1     -34.387  15.612  -2.491  1.00 20.00     0.023 C 
HETATM   10  C3  UNL     1     -32.873  13.876  -3.462  1.00 20.00     0.023 C 
HETATM   11  C4  UNL     1     -33.548  15.830  -4.853  1.00 20.00     0.023 C 
ENDBRANCH   1   8
TORSDOF 4
ENDMDL
MODEL 2
REMARK VINA RESULT:      -4.1      0.041      1.310
REMARK  4 active torsions:
REMARK  status: ('A' for Active; 'I' for Inactive)
REMARK    1  A    between atoms: C1_1  and  C7_7 
REMARK    2  A    between atoms: C1_1  and  C8_8 
REMARK    3  A    between atoms: C7_7  and  O10_10 
REMARK    4  A    between atoms: C7_7  and  O11_11 
ROOT
HETATM    1  C1  UNL     1     -35.243  14.044  -4.217  1.00 20.00     0.188 C 
HETATM    2  O9  UNL     1     -35.189  12.822  -4.379  1.00 20.00    -0.292 OA
ENDROOT
BRANCH   1   3
HETATM    3  C7  UNL     1     -36.549  14.793  -4.467  1.00 20.00     0.330 C 
BRANCH   3   4
HETATM    4  O10 UNL     1     -36.719  14.725  -5.882  1.00 20.00    -0.359 OA
HETATM    5  C5  UNL     1     -36.722  16.012  -6.485  1.00 20.00     0.205 C 
ENDBRANCH   3   4
BRANCH   3   6
HETATM    6  O11 UNL     1     -37.609  14.133  -3.785  1.00 20.00    -0.359 OA
HETATM    7  C6  UNL     1     -38.808  14.896  -3.772  1.00 20.00     0.205 C 
ENDBRANCH   3   6
ENDBRANCH   1   3
BRANCH   1   8
HETATM    8  C8  UNL     1     -34.019  14.841  -3.711  1.00 20.00     0.015 C 
HETATM    9  C2  UNL     1     -32.875  13.857  -3.439  1.00 20.00     0.023 C 
HETATM   10  C3  UNL     1     -33.574  15.834  -4.799  1.00 20.00     0.023 C 
HETATM   11  C4  UNL     1     -34.350  15.634  -2.440  1.00 20.00     0.023 C 
ENDBRANCH   1   8
TORSDOF 4
ENDMDL
MODEL 3
REMARK VINA RESULT:      -4.0      0.040      1.310
REMARK  4 active torsions:
REMARK  status: ('A' for Active; 'I' for Inactive)
REMARK    1  A    between atoms: C1_1  and  C7_7 
REMARK    2  A    between atoms: C1_1  and  C8_8 
REMARK    3  A    between atoms: C7_7  and  O10_10 
REMARK    4  A    between atoms: C7_7  and  O11_11 
ROOT
HETATM    1  C1  UNL     1     -35.243  14.030  -4.254  1.00 20.00     0.188 C 
HETATM    2  O9  UNL     1     -35.203  12.806  -4.409  1.00 20.00    -0.292 OA
ENDROOT
BRANCH   1   3
HETATM    3  C7  UNL     1     -36.546  14.789  -4.485  1.00 20.00     0.330 C 
BRANCH   3   4
HETATM    4  O10 UNL     1     -36.738  14.720  -5.898  1.00 20.00    -0.359 OA
HETATM    5  C5  UNL     1     -36.772  16.008  -6.498  1.00 20.00     0.205 C 
ENDBRANCH   3   4
BRANCH   3   6
HETATM    6  O11 UNL     1     -37.601  14.137  -3.787  1.00 20.00    -0.359 OA
HETATM    7  C6  UNL     1     -38.789  14.916  -3.743  1.00 20.00     0.205 C 
ENDBRANCH   3   6
ENDBRANCH   1   3
BRANCH   1   8
HETATM    8  C8  UNL     1     -34.003  14.819  -3.776  1.00 20.00     0.015 C 
HETATM    9  C2  UNL     1     -33.589  15.796  -4.883  1.00 20.00     0.023 C 
HETATM   10  C3  UNL     1     -34.365  15.621  -2.513  1.00 20.00     0.023 C 
HETATM   11  C4  UNL     1     -32.837  13.882  -3.435  1.00 20.00     0.023 C 
ENDBRANCH   1   8
TORSDOF 4
ENDMDL
MODEL 4
REMARK VINA RESULT:      -3.8      1.172      1.836
REMARK  4 active torsions:
REMARK  status: ('A' for Active; 'I' for Inactive)
REMARK    1  A    between atoms: C1_1  and  C7_7 
REMARK    2  A    between atoms: C1_1  and  C8_8 
REMARK    3  A    between atoms: C7_7  and  O10_10 
REMARK    4  A    between atoms: C7_7  and  O11_11 
ROOT
HETATM    1  C1  UNL     1     -34.859  14.113  -4.647  1.00 20.00     0.188 C 
HETATM    2  O9  UNL     1     -34.990  12.895  -4.492  1.00 20.00    -0.292 OA
ENDROOT
BRANCH   1   3
HETATM    3  C7  UNL     1     -35.755  14.860  -5.631  1.00 20.00     0.330 C 
BRANCH   3   4
HETATM    4  O10 UNL     1     -35.606  14.134  -6.851  1.00 20.00    -0.359 OA
HETATM    5  C5  UNL     1     -34.924  14.890  -7.844  1.00 20.00     0.205 C 
ENDBRANCH   3   4
BRANCH   3   6
HETATM    6  O11 UNL     1     -37.099  14.821  -5.167  1.00 20.00    -0.359 OA
HETATM    7  C6  UNL     1     -37.551  16.084  -4.697  1.00 20.00     0.205 C 
ENDBRANCH   3   6
ENDBRANCH   1   3
BRANCH   1   8
HETATM    8  C8  UNL     1     -33.831  14.921  -3.823  1.00 20.00     0.015 C 
HETATM    9  C2  UNL     1     -32.681  13.987  -3.427  1.00 20.00     0.023 C 
HETATM   10  C3  UNL     1     -33.271  16.063  -4.689  1.00 20.00     0.023 C 
HETATM   11  C4  UNL     1     -34.471  15.533  -2.571  1.00 20.00     0.023 C 
ENDBRANCH   1   8
TORSDOF 4
ENDMDL
MODEL 5
REMARK VINA RESULT:      -3.8      1.178      1.310
REMARK  4 active torsions:
REMARK  status: ('A' for Active; 'I' for Inactive)
REMARK    1  A    between atoms: C1_1  and  C7_7 
REMARK    2  A    between atoms: C1_1  and  C8_8 
REMARK    3  A    between atoms: C7_7  and  O10_10 
REMARK    4  A    between atoms: C7_7  and  O11_11 
ROOT
HETATM    1  C1  UNL     1     -34.887  14.093  -4.641  1.00 20.00     0.188 C 
HETATM    2  O9  UNL     1     -35.065  12.889  -4.435  1.00 20.00    -0.292 OA
ENDROOT
BRANCH   1   3
HETATM    3  C7  UNL     1     -35.742  14.829  -5.668  1.00 20.00     0.330 C 
BRANCH   3   4
HETATM    4  O10 UNL     1     -35.543  14.090  -6.873  1.00 20.00    -0.359 OA
HETATM    5  C5  UNL     1     -34.951  14.880  -7.895  1.00 20.00     0.205 C 
ENDBRANCH   3   4
BRANCH   3   6
HETATM    6  O11 UNL     1     -37.103  14.795  -5.259  1.00 20.00    -0.359 OA
HETATM    7  C6  UNL     1     -37.547  16.041  -4.738  1.00 20.00     0.205 C 
ENDBRANCH   3   6
ENDBRANCH   1   3
BRANCH   1   8
HETATM    8  C8  UNL     1     -33.840  14.897  -3.837  1.00 20.00     0.015 C 
HETATM    9  C2  UNL     1     -34.514  15.454  -2.577  1.00 20.00     0.023 C 
HETATM   10  C3  UNL     1     -32.693  13.962  -3.417  1.00 20.00     0.023 C 
HETATM   11  C4  UNL     1     -33.249  16.042  -4.670  1.00 20.00     0.023 C 
ENDBRANCH   1   8
TORSDOF 4
ENDMDL
MODEL 6
REMARK VINA RESULT:      -3.8      2.563      3.617
REMARK  4 active torsions:
REMARK  status: ('A' for Active; 'I' for Inactive)
REMARK    1  A    between atoms: C1_1  and  C7_7 
REMARK    2  A    between atoms: C1_1  and  C8_8 
REMARK    3  A    between atoms: C7_7  and  O10_10 
REMARK    4  A    between atoms: C7_7  and  O11_11 
ROOT
HETATM    1  C1  UNL     1     -35.026  15.572  -3.136  1.00 20.00     0.188 C 
HETATM    2  O9  UNL     1     -36.252  15.447  -3.058  1.00 20.00    -0.292 OA
ENDROOT
BRANCH   1   3
HETATM    3  C7  UNL     1     -34.293  16.525  -2.197  1.00 20.00     0.330 C 
BRANCH   3   4
HETATM    4  O10 UNL     1     -34.739  17.819  -2.602  1.00 20.00    -0.359 OA
HETATM    5  C5  UNL     1     -33.833  18.439  -3.504  1.00 20.00     0.205 C 
ENDBRANCH   3   4
BRANCH   3   6
HETATM    6  O11 UNL     1     -34.669  16.245  -0.854  1.00 20.00    -0.359 OA
HETATM    7  C6  UNL     1     -34.684  17.409  -0.038  1.00 20.00     0.205 C 
ENDBRANCH   3   6
ENDBRANCH   1   3
BRANCH   1   8
HETATM    8  C8  UNL     1     -34.198  14.739  -4.140  1.00 20.00     0.015 C 
HETATM    9  C2  UNL     1     -32.745  14.692  -3.652  1.00 20.00     0.023 C 
HETATM   10  C3  UNL     1     -34.753  13.305  -4.192  1.00 20.00     0.023 C 
HETATM   11  C4  UNL     1     -34.263  15.334  -5.552  1.00 20.00     0.023 C 
ENDBRANCH   1   8
TORSDOF 4
ENDMDL
MODEL 7
REMARK VINA RESULT:      -3.8      2.892      4.029
REMARK  4 active torsions:
REMARK  status: ('A' for Active; 'I' for Inactive)
REMARK    1  A    between atoms: C1_1  and  C7_7 
REMARK    2  A    between atoms: C1_1  and  C8_8 
REMARK    3  A    between atoms: C7_7  and  O10_10 
REMARK    4  A    between atoms: C7_7  and  O11_11 
ROOT
HETATM    1  C1  UNL     1     -33.795  16.081  -4.231  1.00 20.00     0.188 C 
HETATM    2  O9  UNL     1     -32.815  16.462  -4.877  1.00 20.00    -0.292 OA
ENDROOT
BRANCH   1   3
HETATM    3  C7  UNL     1     -34.441  17.005  -3.202  1.00 20.00     0.330 C 
BRANCH   3   4
HETATM    4  O10 UNL     1     -33.691  16.771  -2.011  1.00 20.00    -0.359 OA
HETATM    5  C5  UNL     1     -34.523  16.686  -0.862  1.00 20.00     0.205 C 
ENDBRANCH   3   4
BRANCH   3   6
HETATM    6  O11 UNL     1     -34.315  18.354  -3.637  1.00 20.00    -0.359 OA
HETATM    7  C6  UNL     1     -35.465  18.811  -4.337  1.00 20.00     0.205 C 
ENDBRANCH   3   6
ENDBRANCH   1   3
BRANCH   1   8
HETATM    8  C8  UNL     1     -34.426  14.691  -4.475  1.00 20.00     0.015 C 
HETATM    9  C2  UNL     1     -33.516  13.626  -3.851  1.00 20.00     0.023 C 
HETATM   10  C3  UNL     1     -35.804  14.631  -3.793  1.00 20.00     0.023 C 
HETATM   11  C4  UNL     1     -34.615  14.414  -5.972  1.00 20.00     0.023 C 
ENDBRANCH   1   8
TORSDOF 4
ENDMDL
MODEL 8
REMARK VINA RESULT:      -3.8      2.618      3.782
REMARK  4 active torsions:
REMARK  status: ('A' for Active; 'I' for Inactive)
REMARK    1  A    between atoms: C1_1  and  C7_7 
REMARK    2  A    between atoms: C1_1  and  C8_8 
REMARK    3  A    between atoms: C7_7  and  O10_10 
REMARK    4  A    between atoms: C7_7  and  O11_11 
ROOT
HETATM    1  C1  UNL     1     -34.984  15.658  -3.079  1.00 20.00     0.188 C 
HETATM    2  O9  UNL     1     -36.215  15.570  -3.038  1.00 20.00    -0.292 OA
ENDROOT
BRANCH   1   3
HETATM    3  C7  UNL     1     -34.250  16.587  -2.117  1.00 20.00     0.330 C 
BRANCH   3   4
HETATM    4  O10 UNL     1     -34.685  17.892  -2.499  1.00 20.00    -0.359 OA
HETATM    5  C5  UNL     1     -33.789  18.509  -3.414  1.00 20.00     0.205 C 
ENDBRANCH   3   4
BRANCH   3   6
HETATM    6  O11 UNL     1     -34.637  16.283  -0.782  1.00 20.00    -0.359 OA
HETATM    7  C6  UNL     1     -34.813  17.448   0.014  1.00 20.00     0.205 C 
ENDBRANCH   3   6
ENDBRANCH   1   3
BRANCH   1   8
HETATM    8  C8  UNL     1     -34.152  14.802  -4.061  1.00 20.00     0.015 C 
HETATM    9  C2  UNL     1     -34.758  13.395  -4.118  1.00 20.00     0.023 C 
HETATM   10  C3  UNL     1     -34.216  15.431  -5.464  1.00 20.00     0.023 C 
HETATM   11  C4  UNL     1     -32.680  14.727  -3.633  1.00 20.00     0.023 C 
ENDBRANCH   1   8
TORSDOF 4
ENDMDL
MODEL 9
REMARK VINA RESULT:      -3.7      1.362      2.540
REMARK  4 active torsions:
REMARK  status: ('A' for Active; 'I' for Inactive)
REMARK    1  A    between atoms: C1_1  and  C7_7 
REMARK    2  A    between atoms: C1_1  and  C8_8 
REMARK    3  A    between atoms: C7_7  and  O10_10 
REMARK    4  A    between atoms: C7_7  and  O11_11 
ROOT
HETATM    1  C1  UNL     1     -36.190  15.857  -3.496  1.00 20.00     0.188 C 
HETATM    2  O9  UNL     1     -36.899  16.825  -3.207  1.00 20.00    -0.292 OA
ENDROOT
BRANCH   1   3
HETATM    3  C7  UNL     1     -36.766  14.701  -4.307  1.00 20.00     0.330 C 
BRANCH   3   4
HETATM    4  O10 UNL     1     -37.962  14.353  -3.609  1.00 20.00    -0.359 OA
HETATM    5  C5  UNL     1     -39.128  14.624  -4.375  1.00 20.00     0.205 C 
ENDBRANCH   3   4
BRANCH   3   6
HETATM    6  O11 UNL     1     -37.049  15.147  -5.628  1.00 20.00    -0.359 OA
HETATM    7  C6  UNL     1     -36.011  14.829  -6.545  1.00 20.00     0.205 C 
ENDBRANCH   3   6
ENDBRANCH   1   3
BRANCH   1   8
HETATM    8  C8  UNL     1     -34.698  15.807  -3.094  1.00 20.00     0.015 C 
HETATM    9  C2  UNL     1     -34.579  16.177  -1.611  1.00 20.00     0.023 C 
HETATM   10  C3  UNL     1     -34.164  14.378  -3.297  1.00 20.00     0.023 C 
HETATM   11  C4  UNL     1     -33.854  16.763  -3.947  1.00 20.00     0.023 C 
ENDBRANCH   1   8
TORSDOF 4
ENDMDL
