MODEL 1
REMARK VINA RESULT:      -4.8      0.000      0.000
REMARK  2 active torsions:
REMARK  status: ('A' for Active; 'I' for Inactive)
REMARK    1  A    between atoms: C4_4  and  C7_7 
REMARK    2  A    between atoms: C5_5  and  O8_8 
ROOT
HETATM    1  C1  UNL     1     -34.703   5.377   3.337  1.00 20.00     0.007 C 
HETATM    2  C2  UNL     1     -35.485   4.869   4.553  1.00 20.00     0.032 C 
HETATM    3  C3  UNL     1     -33.762   6.426   5.266  1.00 20.00     0.036 C 
HETATM    4  C4  UNL     1     -33.372   5.883   3.892  1.00 20.00    -0.012 C 
HETATM    5  C5  UNL     1     -34.736   5.376   5.786  1.00 20.00     0.118 C 
ENDROOT
BRANCH   4   6
HETATM    6  C7  UNL     1     -32.710   6.923   3.004  1.00 20.00     0.000 C 
HETATM    7  C6  UNL     1     -31.520   7.546   3.664  1.00 20.00     0.005 C 
ENDBRANCH   4   6
BRANCH   5   8
HETATM    8  O8  UNL     1     -33.994   4.309   6.371  1.00 20.00    -0.396 OA
HETATM    9  H22 UNL     1     -34.501   4.011   7.143  1.00 20.00     0.210 HD
ENDBRANCH   5   8
TORSDOF 2
ENDMDL
MODEL 2
REMARK VINA RESULT:      -4.6      1.540      2.093
REMARK  2 active torsions:
REMARK  status: ('A' for Active; 'I' for Inactive)
REMARK    1  A    between atoms: C4_4  and  C7_7 
REMARK    2  A    between atoms: C5_5  and  O8_8 
ROOT
HETATM    1  C1  UNL     1     -33.543   6.302   5.327  1.00 20.00     0.007 C 
HETATM    2  C2  UNL     1     -34.760   5.383   5.478  1.00 20.00     0.032 C 
HETATM    3  C3  UNL     1     -33.977   5.352   3.178  1.00 20.00     0.036 C 
HETATM    4  C4  UNL     1     -33.466   6.632   3.837  1.00 20.00    -0.012 C 
HETATM    5  C5  UNL     1     -35.154   4.958   4.063  1.00 20.00     0.118 C 
ENDROOT
BRANCH   4   6
HETATM    6  C7  UNL     1     -32.069   7.022   3.382  1.00 20.00     0.000 C 
HETATM    7  C6  UNL     1     -32.102   8.003   2.253  1.00 20.00     0.005 C 
ENDBRANCH   4   6
BRANCH   5   8
HETATM    8  O8  UNL     1     -36.307   5.683   3.645  1.00 20.00    -0.396 OA
HETATM    9  H22 UNL     1     -36.116   6.016   2.754  1.00 20.00     0.210 HD
ENDBRANCH   5   8
TORSDOF 2
ENDMDL
MODEL 3
REMARK VINA RESULT:      -4.4      2.079      3.441
REMARK  2 active torsions:
REMARK  status: ('A' for Active; 'I' for Inactive)
REMARK    1  A    between atoms: C4_4  and  C7_7 
REMARK    2  A    between atoms: C5_5  and  O8_8 
ROOT
HETATM    1  C1  UNL     1     -34.795   5.370   3.717  1.00 20.00     0.007 C 
HETATM    2  C2  UNL     1     -33.921   5.549   2.472  1.00 20.00     0.032 C 
HETATM    3  C3  UNL     1     -32.679   6.195   4.457  1.00 20.00     0.036 C 
HETATM    4  C4  UNL     1     -34.170   6.266   4.786  1.00 20.00    -0.012 C 
HETATM    5  C5  UNL     1     -32.659   6.278   2.936  1.00 20.00     0.118 C 
ENDROOT
BRANCH   4   6
HETATM    6  C7  UNL     1     -34.491   5.822   6.203  1.00 20.00     0.000 C 
HETATM    7  C6  UNL     1     -35.016   4.422   6.244  1.00 20.00     0.005 C 
ENDBRANCH   4   6
BRANCH   5   8
HETATM    8  O8  UNL     1     -32.722   7.647   2.548  1.00 20.00    -0.396 OA
HETATM    9  H22 UNL     1     -32.693   7.661   1.578  1.00 20.00     0.210 HD
ENDBRANCH   5   8
TORSDOF 2
ENDMDL
MODEL 4
REMARK VINA RESULT:      -4.4     11.996     12.442
REMARK  2 active torsions:
REMARK  status: ('A' for Active; 'I' for Inactive)
REMARK    1  A    between atoms: C4_4  and  C7_7 
REMARK    2  A    between atoms: C5_5  and  O8_8 
ROOT
HETATM    1  C1  UNL     1     -33.665  15.416  -4.645  1.00 20.00     0.007 C 
HETATM    2  C2  UNL     1     -34.529  14.442  -5.453  1.00 20.00     0.032 C 
HETATM    3  C3  UNL     1     -35.583  14.907  -3.315  1.00 20.00     0.036 C 
HETATM    4  C4  UNL     1     -34.094  15.229  -3.190  1.00 20.00    -0.012 C 
HETATM    5  C5  UNL     1     -35.631  13.961  -4.508  1.00 20.00     0.118 C 
ENDROOT
BRANCH   4   6
HETATM    6  C7  UNL     1     -33.816  16.445  -2.323  1.00 20.00     0.000 C 
HETATM    7  C6  UNL     1     -34.682  16.472  -1.103  1.00 20.00     0.005 C 
ENDBRANCH   4   6
BRANCH   5   8
HETATM    8  O8  UNL     1     -35.339  12.640  -4.061  1.00 20.00    -0.396 OA
HETATM    9  H22 UNL     1     -35.186  12.700  -3.106  1.00 20.00     0.210 HD
ENDBRANCH   5   8
TORSDOF 2
ENDMDL
MODEL 5
REMARK VINA RESULT:      -4.1     11.749     12.384
REMARK  2 active torsions:
REMARK  status: ('A' for Active; 'I' for Inactive)
REMARK    1  A    between atoms: C4_4  and  C7_7 
REMARK    2  A    between atoms: C5_5  and  O8_8 
ROOT
HETATM    1  C1  UNL     1     -34.293  14.132  -3.454  1.00 20.00     0.007 C 
HETATM    2  C2  UNL     1     -35.311  13.554  -4.442  1.00 20.00     0.032 C 
HETATM    3  C3  UNL     1     -35.925  15.830  -3.855  1.00 20.00     0.036 C 
HETATM    4  C4  UNL     1     -35.013  15.286  -2.757  1.00 20.00    -0.012 C 
HETATM    5  C5  UNL     1     -36.456  14.564  -4.517  1.00 20.00     0.118 C 
ENDROOT
BRANCH   4   6
HETATM    6  C7  UNL     1     -34.064  16.331  -2.195  1.00 20.00     0.000 C 
HETATM    7  C6  UNL     1     -34.461  16.765  -0.820  1.00 20.00     0.005 C 
ENDBRANCH   4   6
BRANCH   5   8
HETATM    8  O8  UNL     1     -37.571  14.086  -3.770  1.00 20.00    -0.396 OA
HETATM    9  H22 UNL     1     -37.361  13.174  -3.515  1.00 20.00     0.210 HD
ENDBRANCH   5   8
TORSDOF 2
ENDMDL
MODEL 6
REMARK VINA RESULT:      -4.1     12.229     13.174
REMARK  2 active torsions:
REMARK  status: ('A' for Active; 'I' for Inactive)
REMARK    1  A    between atoms: C4_4  and  C7_7 
REMARK    2  A    between atoms: C5_5  and  O8_8 
ROOT
HETATM    1  C1  UNL     1     -33.985  17.517  -3.270  1.00 20.00     0.007 C 
HETATM    2  C2  UNL     1     -33.431  16.916  -4.566  1.00 20.00     0.032 C 
HETATM    3  C3  UNL     1     -34.050  15.141  -3.028  1.00 20.00     0.036 C 
HETATM    4  C4  UNL     1     -33.837  16.419  -2.217  1.00 20.00    -0.012 C 
HETATM    5  C5  UNL     1     -33.276  15.416  -4.312  1.00 20.00     0.118 C 
ENDROOT
BRANCH   4   6
HETATM    6  C7  UNL     1     -34.813  16.562  -1.062  1.00 20.00     0.000 C 
HETATM    7  C6  UNL     1     -34.333  17.550  -0.045  1.00 20.00     0.005 C 
ENDBRANCH   4   6
BRANCH   5   8
HETATM    8  O8  UNL     1     -31.903  15.103  -4.098  1.00 20.00    -0.396 OA
HETATM    9  H22 UNL     1     -31.744  14.250  -4.532  1.00 20.00     0.210 HD
ENDBRANCH   5   8
TORSDOF 2
ENDMDL
MODEL 7
REMARK VINA RESULT:      -4.0     11.729     12.966
REMARK  2 active torsions:
REMARK  status: ('A' for Active; 'I' for Inactive)
REMARK    1  A    between atoms: C4_4  and  C7_7 
REMARK    2  A    between atoms: C5_5  and  O8_8 
ROOT
HETATM    1  C1  UNL     1     -33.452  15.215  -3.523  1.00 20.00     0.007 C 
HETATM    2  C2  UNL     1     -33.284  13.702  -3.699  1.00 20.00     0.032 C 
HETATM    3  C3  UNL     1     -34.783  14.575  -5.400  1.00 20.00     0.036 C 
HETATM    4  C4  UNL     1     -34.756  15.566  -4.238  1.00 20.00    -0.012 C 
HETATM    5  C5  UNL     1     -34.304  13.279  -4.757  1.00 20.00     0.118 C 
ENDROOT
BRANCH   4   6
HETATM    6  C7  UNL     1     -34.821  17.016  -4.687  1.00 20.00     0.000 C 
HETATM    7  C6  UNL     1     -33.589  17.427  -5.430  1.00 20.00     0.005 C 
ENDBRANCH   4   6
BRANCH   5   8
HETATM    8  O8  UNL     1     -35.412  12.639  -4.131  1.00 20.00    -0.396 OA
HETATM    9  H22 UNL     1     -36.057  13.335  -3.933  1.00 20.00     0.210 HD
ENDBRANCH   5   8
TORSDOF 2
ENDMDL
MODEL 8
REMARK VINA RESULT:      -3.9      9.334     10.692
REMARK  2 active torsions:
REMARK  status: ('A' for Active; 'I' for Inactive)
REMARK    1  A    between atoms: C4_4  and  C7_7 
REMARK    2  A    between atoms: C5_5  and  O8_8 
ROOT
HETATM    1  C1  UNL     1     -40.886   4.531  -0.918  1.00 20.00     0.007 C 
HETATM    2  C2  UNL     1     -40.830   6.021  -0.568  1.00 20.00     0.032 C 
HETATM    3  C3  UNL     1     -42.628   5.607  -2.149  1.00 20.00     0.036 C 
HETATM    4  C4  UNL     1     -41.631   4.453  -2.250  1.00 20.00    -0.012 C 
HETATM    5  C5  UNL     1     -41.799   6.722  -1.522  1.00 20.00     0.118 C 
ENDROOT
BRANCH   4   6
HETATM    6  C7  UNL     1     -42.296   3.108  -2.487  1.00 20.00     0.000 C 
HETATM    7  C6  UNL     1     -41.515   2.257  -3.437  1.00 20.00     0.005 C 
ENDBRANCH   4   6
BRANCH   5   8
HETATM    8  O8  UNL     1     -41.069   7.387  -2.548  1.00 20.00    -0.396 OA
HETATM    9  H22 UNL     1     -40.285   6.844  -2.725  1.00 20.00     0.210 HD
ENDBRANCH   5   8
TORSDOF 2
ENDMDL
MODEL 9
REMARK VINA RESULT:      -3.9      1.932      2.918
REMARK  2 active torsions:
REMARK  status: ('A' for Active; 'I' for Inactive)
REMARK    1  A    between atoms: C4_4  and  C7_7 
REMARK    2  A    between atoms: C5_5  and  O8_8 
ROOT
HETATM    1  C1  UNL     1     -34.518   4.790   6.173  1.00 20.00     0.007 C 
HETATM    2  C2  UNL     1     -35.087   4.104   4.927  1.00 20.00     0.032 C 
HETATM    3  C3  UNL     1     -33.932   6.145   4.295  1.00 20.00     0.036 C 
HETATM    4  C4  UNL     1     -34.307   6.250   5.772  1.00 20.00    -0.012 C 
HETATM    5  C5  UNL     1     -34.894   5.086   3.771  1.00 20.00     0.118 C 
ENDROOT
BRANCH   4   6
HETATM    6  C7  UNL     1     -33.251   6.953   6.609  1.00 20.00     0.000 C 
HETATM    7  C6  UNL     1     -33.855   7.948   7.549  1.00 20.00     0.005 C 
ENDBRANCH   4   6
BRANCH   5   8
HETATM    8  O8  UNL     1     -36.136   5.708   3.455  1.00 20.00    -0.396 OA
HETATM    9  H22 UNL     1     -36.745   4.997   3.201  1.00 20.00     0.210 HD
ENDBRANCH   5   8
TORSDOF 2
ENDMDL
