MODEL 1
REMARK VINA RESULT:      -4.7      0.000      0.000
REMARK  2 active torsions:
REMARK  status: ('A' for Active; 'I' for Inactive)
REMARK    1  A    between atoms: C4_4  and  C8_8 
REMARK    2  A    between atoms: C5_5  and  O9_9 
ROOT
HETATM    1  C1  UNL     1     -35.397  15.779  -4.223  1.00 20.00     0.007 C 
HETATM    2  C2  UNL     1     -35.420  14.650  -5.261  1.00 20.00     0.032 C 
HETATM    3  C3  UNL     1     -33.574  14.307  -3.730  1.00 20.00     0.036 C 
HETATM    4  C4  UNL     1     -34.567  15.249  -3.053  1.00 20.00    -0.009 C 
HETATM    5  C5  UNL     1     -34.435  13.592  -4.764  1.00 20.00     0.118 C 
ENDROOT
BRANCH   4   6
HETATM    6  C8  UNL     1     -33.895  16.349  -2.249  1.00 20.00    -0.019 C 
HETATM    7  C6  UNL     1     -33.824  17.648  -3.055  1.00 20.00     0.010 C 
HETATM    8  C7  UNL     1     -34.629  16.584  -0.928  1.00 20.00     0.010 C 
ENDBRANCH   4   6
BRANCH   5   9
HETATM    9  O9  UNL     1     -35.165  12.539  -4.142  1.00 20.00    -0.396 OA
HETATM   10  H25 UNL     1     -34.898  12.531  -3.209  1.00 20.00     0.210 HD
ENDBRANCH   5   9
TORSDOF 2
ENDMDL
MODEL 2
REMARK VINA RESULT:      -4.6     11.799     12.620
REMARK  2 active torsions:
REMARK  status: ('A' for Active; 'I' for Inactive)
REMARK    1  A    between atoms: C4_4  and  C8_8 
REMARK    2  A    between atoms: C5_5  and  O9_9 
ROOT
HETATM    1  C1  UNL     1     -33.592   6.342   5.696  1.00 20.00     0.007 C 
HETATM    2  C2  UNL     1     -34.775   5.574   6.296  1.00 20.00     0.032 C 
HETATM    3  C3  UNL     1     -34.897   5.489   3.879  1.00 20.00     0.036 C 
HETATM    4  C4  UNL     1     -33.459   5.840   4.257  1.00 20.00    -0.009 C 
HETATM    5  C5  UNL     1     -35.425   4.816   5.139  1.00 20.00     0.118 C 
ENDROOT
BRANCH   4   6
HETATM    6  C8  UNL     1     -32.827   6.857   3.324  1.00 20.00    -0.019 C 
HETATM    7  C6  UNL     1     -31.642   7.554   3.997  1.00 20.00     0.010 C 
HETATM    8  C7  UNL     1     -32.381   6.196   2.018  1.00 20.00     0.010 C 
ENDBRANCH   4   6
BRANCH   5   9
HETATM    9  O9  UNL     1     -34.996   3.458   5.180  1.00 20.00    -0.396 OA
HETATM   10  H25 UNL     1     -34.757   3.216   4.271  1.00 20.00     0.210 HD
ENDBRANCH   5   9
TORSDOF 2
ENDMDL
MODEL 3
REMARK VINA RESULT:      -4.4      0.673      1.361
REMARK  2 active torsions:
REMARK  status: ('A' for Active; 'I' for Inactive)
REMARK    1  A    between atoms: C4_4  and  C8_8 
REMARK    2  A    between atoms: C5_5  and  O9_9 
ROOT
HETATM    1  C1  UNL     1     -35.326  15.640  -5.023  1.00 20.00     0.007 C 
HETATM    2  C2  UNL     1     -34.910  14.315  -5.672  1.00 20.00     0.032 C 
HETATM    3  C3  UNL     1     -34.068  14.405  -3.403  1.00 20.00     0.036 C 
HETATM    4  C4  UNL     1     -35.206  15.418  -3.515  1.00 20.00    -0.009 C 
HETATM    5  C5  UNL     1     -34.359  13.441  -4.546  1.00 20.00     0.118 C 
ENDROOT
BRANCH   4   6
HETATM    6  C8  UNL     1     -34.944  16.697  -2.740  1.00 20.00    -0.019 C 
HETATM    7  C6  UNL     1     -34.614  16.392  -1.277  1.00 20.00     0.010 C 
HETATM    8  C7  UNL     1     -33.812  17.501  -3.381  1.00 20.00     0.010 C 
ENDBRANCH   4   6
BRANCH   5   9
HETATM    9  O9  UNL     1     -35.362  12.510  -4.153  1.00 20.00    -0.396 OA
HETATM   10  H25 UNL     1     -34.985  11.626  -4.281  1.00 20.00     0.210 HD
ENDBRANCH   5   9
TORSDOF 2
ENDMDL
MODEL 4
REMARK VINA RESULT:      -4.2      1.906      2.703
REMARK  2 active torsions:
REMARK  status: ('A' for Active; 'I' for Inactive)
REMARK    1  A    between atoms: C4_4  and  C8_8 
REMARK    2  A    between atoms: C5_5  and  O9_9 
ROOT
HETATM    1  C1  UNL     1     -34.657  15.599  -2.331  1.00 20.00     0.007 C 
HETATM    2  C2  UNL     1     -34.525  15.071  -3.764  1.00 20.00     0.032 C 
HETATM    3  C3  UNL     1     -33.716  17.352  -3.662  1.00 20.00     0.036 C 
HETATM    4  C4  UNL     1     -33.708  16.795  -2.240  1.00 20.00    -0.009 C 
HETATM    5  C5  UNL     1     -33.677  16.094  -4.520  1.00 20.00     0.118 C 
ENDROOT
BRANCH   4   6
HETATM    6  C8  UNL     1     -34.128  17.815  -1.197  1.00 20.00    -0.019 C 
HETATM    7  C6  UNL     1     -34.856  17.139  -0.033  1.00 20.00     0.010 C 
HETATM    8  C7  UNL     1     -32.919  18.598  -0.681  1.00 20.00     0.010 C 
ENDBRANCH   4   6
BRANCH   5   9
HETATM    9  O9  UNL     1     -32.340  15.608  -4.608  1.00 20.00    -0.396 OA
HETATM   10  H25 UNL     1     -32.400  14.640  -4.641  1.00 20.00     0.210 HD
ENDBRANCH   5   9
TORSDOF 2
ENDMDL
MODEL 5
REMARK VINA RESULT:      -4.0      1.182      1.673
REMARK  2 active torsions:
REMARK  status: ('A' for Active; 'I' for Inactive)
REMARK    1  A    between atoms: C4_4  and  C8_8 
REMARK    2  A    between atoms: C5_5  and  O9_9 
ROOT
HETATM    1  C1  UNL     1     -33.038  14.809  -3.454  1.00 20.00     0.007 C 
HETATM    2  C2  UNL     1     -33.798  13.652  -4.111  1.00 20.00     0.032 C 
HETATM    3  C3  UNL     1     -35.366  15.118  -2.989  1.00 20.00     0.036 C 
HETATM    4  C4  UNL     1     -34.077  15.905  -3.215  1.00 20.00    -0.009 C 
HETATM    5  C5  UNL     1     -35.280  14.018  -4.039  1.00 20.00     0.118 C 
ENDROOT
BRANCH   4   6
HETATM    6  C8  UNL     1     -33.725  16.822  -2.057  1.00 20.00    -0.019 C 
HETATM    7  C6  UNL     1     -33.775  18.290  -2.487  1.00 20.00     0.010 C 
HETATM    8  C7  UNL     1     -34.663  16.586  -0.871  1.00 20.00     0.010 C 
ENDBRANCH   4   6
BRANCH   5   9
HETATM    9  O9  UNL     1     -35.692  14.523  -5.305  1.00 20.00    -0.396 OA
HETATM   10  H25 UNL     1     -35.575  13.801  -5.943  1.00 20.00     0.210 HD
ENDBRANCH   5   9
TORSDOF 2
ENDMDL
MODEL 6
REMARK VINA RESULT:      -4.0      1.785      3.442
REMARK  2 active torsions:
REMARK  status: ('A' for Active; 'I' for Inactive)
REMARK    1  A    between atoms: C4_4  and  C8_8 
REMARK    2  A    between atoms: C5_5  and  O9_9 
ROOT
HETATM    1  C1  UNL     1     -33.808  15.530  -4.418  1.00 20.00     0.007 C 
HETATM    2  C2  UNL     1     -34.565  14.773  -3.321  1.00 20.00     0.032 C 
HETATM    3  C3  UNL     1     -35.744  14.545  -5.425  1.00 20.00     0.036 C 
HETATM    4  C4  UNL     1     -34.306  14.949  -5.742  1.00 20.00    -0.009 C 
HETATM    5  C5  UNL     1     -35.626  13.935  -4.034  1.00 20.00     0.118 C 
ENDROOT
BRANCH   4   6
HETATM    6  C8  UNL     1     -34.201  15.925  -6.901  1.00 20.00    -0.019 C 
HETATM    7  C6  UNL     1     -35.321  15.687  -7.918  1.00 20.00     0.010 C 
HETATM    8  C7  UNL     1     -34.238  17.370  -6.403  1.00 20.00     0.010 C 
ENDBRANCH   4   6
BRANCH   5   9
HETATM    9  O9  UNL     1     -35.162  12.591  -4.132  1.00 20.00    -0.396 OA
HETATM   10  H25 UNL     1     -34.427  12.598  -4.765  1.00 20.00     0.210 HD
ENDBRANCH   5   9
TORSDOF 2
ENDMDL
MODEL 7
REMARK VINA RESULT:      -3.9      1.799      3.678
REMARK  2 active torsions:
REMARK  status: ('A' for Active; 'I' for Inactive)
REMARK    1  A    between atoms: C4_4  and  C8_8 
REMARK    2  A    between atoms: C5_5  and  O9_9 
ROOT
HETATM    1  C1  UNL     1     -34.219  15.969  -4.669  1.00 20.00     0.007 C 
HETATM    2  C2  UNL     1     -34.197  15.084  -3.418  1.00 20.00     0.032 C 
HETATM    3  C3  UNL     1     -34.771  13.741  -5.351  1.00 20.00     0.036 C 
HETATM    4  C4  UNL     1     -34.092  15.013  -5.856  1.00 20.00    -0.009 C 
HETATM    5  C5  UNL     1     -34.274  13.640  -3.914  1.00 20.00     0.118 C 
ENDROOT
BRANCH   4   6
HETATM    6  C8  UNL     1     -34.714  15.555  -7.131  1.00 20.00    -0.019 C 
HETATM    7  C6  UNL     1     -35.593  14.497  -7.802  1.00 20.00     0.010 C 
HETATM    8  C7  UNL     1     -35.530  16.818  -6.846  1.00 20.00     0.010 C 
ENDBRANCH   4   6
BRANCH   5   9
HETATM    9  O9  UNL     1     -32.968  13.074  -3.891  1.00 20.00    -0.396 OA
HETATM   10  H25 UNL     1     -32.758  12.900  -2.959  1.00 20.00     0.210 HD
ENDBRANCH   5   9
TORSDOF 2
ENDMDL
MODEL 8
REMARK VINA RESULT:      -3.9     11.085     11.962
REMARK  2 active torsions:
REMARK  status: ('A' for Active; 'I' for Inactive)
REMARK    1  A    between atoms: C4_4  and  C8_8 
REMARK    2  A    between atoms: C5_5  and  O9_9 
ROOT
HETATM    1  C1  UNL     1     -32.542   7.212   5.042  1.00 20.00     0.007 C 
HETATM    2  C2  UNL     1     -31.487   7.812   4.106  1.00 20.00     0.032 C 
HETATM    3  C3  UNL     1     -32.692   6.059   2.949  1.00 20.00     0.036 C 
HETATM    4  C4  UNL     1     -33.548   6.505   4.133  1.00 20.00    -0.009 C 
HETATM    5  C5  UNL     1     -31.787   7.261   2.713  1.00 20.00     0.118 C 
ENDROOT
BRANCH   4   6
HETATM    6  C8  UNL     1     -34.269   5.355   4.815  1.00 20.00    -0.019 C 
HETATM    7  C6  UNL     1     -34.486   5.653   6.301  1.00 20.00     0.010 C 
HETATM    8  C7  UNL     1     -35.606   5.067   4.132  1.00 20.00     0.010 C 
ENDBRANCH   4   6
BRANCH   5   9
HETATM    9  O9  UNL     1     -32.484   8.254   1.966  1.00 20.00    -0.396 OA
HETATM   10  H25 UNL     1     -32.508   9.050   2.520  1.00 20.00     0.210 HD
ENDBRANCH   5   9
TORSDOF 2
ENDMDL
MODEL 9
REMARK VINA RESULT:      -3.8      2.026      2.954
REMARK  2 active torsions:
REMARK  status: ('A' for Active; 'I' for Inactive)
REMARK    1  A    between atoms: C4_4  and  C8_8 
REMARK    2  A    between atoms: C5_5  and  O9_9 
ROOT
HETATM    1  C1  UNL     1     -35.789  16.691  -3.802  1.00 20.00     0.007 C 
HETATM    2  C2  UNL     1     -37.252  16.524  -4.227  1.00 20.00     0.032 C 
HETATM    3  C3  UNL     1     -36.210  14.346  -4.036  1.00 20.00     0.036 C 
HETATM    4  C4  UNL     1     -35.364  15.335  -3.236  1.00 20.00    -0.009 C 
HETATM    5  C5  UNL     1     -37.568  15.034  -4.099  1.00 20.00     0.118 C 
ENDROOT
BRANCH   4   6
HETATM    6  C8  UNL     1     -33.872  15.077  -3.355  1.00 20.00    -0.019 C 
HETATM    7  C6  UNL     1     -33.602  13.659  -3.862  1.00 20.00     0.010 C 
HETATM    8  C7  UNL     1     -33.213  16.104  -4.279  1.00 20.00     0.010 C 
ENDBRANCH   4   6
BRANCH   5   9
HETATM    9  O9  UNL     1     -38.278  14.817  -2.884  1.00 20.00    -0.396 OA
HETATM   10  H25 UNL     1     -37.636  14.465  -2.247  1.00 20.00     0.210 HD
ENDBRANCH   5   9
TORSDOF 2
ENDMDL
