MODEL 1
REMARK VINA RESULT:      -4.8      0.000      0.000
REMARK  0 active torsions:
REMARK  status: ('A' for Active; 'I' for Inactive)
ROOT
HETATM    1  C1  UNL     1     -34.280  15.147  -2.819  1.00 20.00     0.047 A 
HETATM    2  C2  UNL     1     -34.430  14.871  -4.190  1.00 20.00     0.025 A 
HETATM    3  C3  UNL     1     -34.203  15.963  -4.978  1.00 20.00    -0.002 A 
HETATM    4  C4  UNL     1     -33.937  16.476  -2.629  1.00 20.00     0.075 A 
HETATM    5  C5  UNL     1     -34.760  13.748  -5.026  1.00 20.00     0.161 A 
HETATM    6  C6  UNL     1     -34.347  15.727  -6.433  1.00 20.00     0.055 A 
HETATM    7  C7  UNL     1     -34.730  14.215  -6.489  1.00 20.00     0.089 A 
HETATM    8  O8  UNL     1     -35.018  12.620  -4.639  1.00 20.00    -0.292 OA
HETATM    9  S9  UNL     1     -33.808  17.347  -4.121  1.00 20.00    -0.082 SA
HETATM   10 CL10 UNL     1     -33.649  17.284  -1.144  1.00 20.00    -0.076 Cl
ENDROOT
TORSDOF 0
ENDMDL
MODEL 2
REMARK VINA RESULT:      -4.4      2.488      3.253
REMARK  0 active torsions:
REMARK  status: ('A' for Active; 'I' for Inactive)
ROOT
HETATM    1  C1  UNL     1     -35.148  15.288  -6.468  1.00 20.00     0.047 A 
HETATM    2  C2  UNL     1     -34.417  14.783  -5.377  1.00 20.00     0.025 A 
HETATM    3  C3  UNL     1     -33.614  15.722  -4.797  1.00 20.00    -0.002 A 
HETATM    4  C4  UNL     1     -34.853  16.627  -6.667  1.00 20.00     0.075 A 
HETATM    5  C5  UNL     1     -34.265  13.536  -4.677  1.00 20.00     0.161 A 
HETATM    6  C6  UNL     1     -32.821  15.241  -3.642  1.00 20.00     0.055 A 
HETATM    7  C7  UNL     1     -33.251  13.743  -3.542  1.00 20.00     0.089 A 
HETATM    8  O8  UNL     1     -34.842  12.492  -4.940  1.00 20.00    -0.292 OA
HETATM    9  S9  UNL     1     -33.698  17.228  -5.524  1.00 20.00    -0.082 SA
HETATM   10 CL10 UNL     1     -35.487  17.675  -7.867  1.00 20.00    -0.076 Cl
ENDROOT
TORSDOF 0
ENDMDL
MODEL 3
REMARK VINA RESULT:      -4.4      1.962      2.074
REMARK  0 active torsions:
REMARK  status: ('A' for Active; 'I' for Inactive)
ROOT
HETATM    1  C1  UNL     1     -33.683  16.137  -2.417  1.00 20.00     0.047 A 
HETATM    2  C2  UNL     1     -34.360  15.130  -3.129  1.00 20.00     0.025 A 
HETATM    3  C3  UNL     1     -35.661  15.450  -3.390  1.00 20.00    -0.002 A 
HETATM    4  C4  UNL     1     -34.531  17.203  -2.165  1.00 20.00     0.075 A 
HETATM    5  C5  UNL     1     -34.076  13.831  -3.677  1.00 20.00     0.161 A 
HETATM    6  C6  UNL     1     -36.421  14.423  -4.140  1.00 20.00     0.055 A 
HETATM    7  C7  UNL     1     -35.354  13.303  -4.346  1.00 20.00     0.089 A 
HETATM    8  O8  UNL     1     -33.004  13.249  -3.619  1.00 20.00    -0.292 OA
HETATM    9  S9  UNL     1     -36.122  16.949  -2.800  1.00 20.00    -0.082 SA
HETATM   10 CL10 UNL     1     -34.170  18.658  -1.332  1.00 20.00    -0.076 Cl
ENDROOT
TORSDOF 0
ENDMDL
MODEL 4
REMARK VINA RESULT:      -4.4      2.604      3.051
REMARK  0 active torsions:
REMARK  status: ('A' for Active; 'I' for Inactive)
ROOT
HETATM    1  C1  UNL     1     -37.146  14.777  -3.900  1.00 20.00     0.047 A 
HETATM    2  C2  UNL     1     -35.752  14.614  -3.796  1.00 20.00     0.025 A 
HETATM    3  C3  UNL     1     -35.128  15.711  -3.275  1.00 20.00    -0.002 A 
HETATM    4  C4  UNL     1     -37.521  16.028  -3.438  1.00 20.00     0.075 A 
HETATM    5  C5  UNL     1     -34.768  13.607  -4.086  1.00 20.00     0.161 A 
HETATM    6  C6  UNL     1     -33.658  15.593  -3.144  1.00 20.00     0.055 A 
HETATM    7  C7  UNL     1     -33.388  14.158  -3.696  1.00 20.00     0.089 A 
HETATM    8  O8  UNL     1     -34.991  12.504  -4.560  1.00 20.00    -0.292 OA
HETATM    9  S9  UNL     1     -36.170  16.966  -2.894  1.00 20.00    -0.082 SA
HETATM   10 CL10 UNL     1     -39.101  16.688  -3.363  1.00 20.00    -0.076 Cl
ENDROOT
TORSDOF 0
ENDMDL
MODEL 5
REMARK VINA RESULT:      -4.2      1.207      1.402
REMARK  0 active torsions:
REMARK  status: ('A' for Active; 'I' for Inactive)
ROOT
HETATM    1  C1  UNL     1     -34.733  15.507  -2.463  1.00 20.00     0.047 A 
HETATM    2  C2  UNL     1     -34.404  15.703  -3.817  1.00 20.00     0.025 A 
HETATM    3  C3  UNL     1     -33.954  16.966  -4.074  1.00 20.00    -0.002 A 
HETATM    4  C4  UNL     1     -34.509  16.667  -1.740  1.00 20.00     0.075 A 
HETATM    5  C5  UNL     1     -34.403  14.945  -5.038  1.00 20.00     0.161 A 
HETATM    6  C6  UNL     1     -33.593  17.227  -5.487  1.00 20.00     0.055 A 
HETATM    7  C7  UNL     1     -33.895  15.854  -6.167  1.00 20.00     0.089 A 
HETATM    8  O8  UNL     1     -34.748  13.780  -5.157  1.00 20.00    -0.292 OA
HETATM    9  S9  UNL     1     -33.908  17.958  -2.726  1.00 20.00    -0.082 SA
HETATM   10 CL10 UNL     1     -34.759  16.924  -0.062  1.00 20.00    -0.076 Cl
ENDROOT
TORSDOF 0
ENDMDL
MODEL 6
REMARK VINA RESULT:      -4.2     12.156     13.150
REMARK  0 active torsions:
REMARK  status: ('A' for Active; 'I' for Inactive)
ROOT
HETATM    1  C1  UNL     1     -32.865   7.269   4.248  1.00 20.00     0.047 A 
HETATM    2  C2  UNL     1     -33.710   6.343   4.888  1.00 20.00     0.025 A 
HETATM    3  C3  UNL     1     -34.188   5.388   4.038  1.00 20.00    -0.002 A 
HETATM    4  C4  UNL     1     -32.741   6.959   2.904  1.00 20.00     0.075 A 
HETATM    5  C5  UNL     1     -34.230   6.103   6.207  1.00 20.00     0.161 A 
HETATM    6  C6  UNL     1     -35.084   4.386   4.661  1.00 20.00     0.055 A 
HETATM    7  C7  UNL     1     -35.129   4.858   6.148  1.00 20.00     0.089 A 
HETATM    8  O8  UNL     1     -33.998   6.773   7.200  1.00 20.00    -0.292 OA
HETATM    9  S9  UNL     1     -33.654   5.557   2.459  1.00 20.00    -0.082 SA
HETATM   10 CL10 UNL     1     -31.824   7.789   1.716  1.00 20.00    -0.076 Cl
ENDROOT
TORSDOF 0
ENDMDL
MODEL 7
REMARK VINA RESULT:      -4.1     12.110     13.128
REMARK  0 active torsions:
REMARK  status: ('A' for Active; 'I' for Inactive)
ROOT
HETATM    1  C1  UNL     1     -33.456   5.819   2.997  1.00 20.00     0.047 A 
HETATM    2  C2  UNL     1     -33.951   5.601   4.296  1.00 20.00     0.025 A 
HETATM    3  C3  UNL     1     -33.525   6.540   5.190  1.00 20.00    -0.002 A 
HETATM    4  C4  UNL     1     -32.654   6.949   2.971  1.00 20.00     0.075 A 
HETATM    5  C5  UNL     1     -34.795   4.654   4.973  1.00 20.00     0.161 A 
HETATM    6  C6  UNL     1     -34.018   6.357   6.574  1.00 20.00     0.055 A 
HETATM    7  C7  UNL     1     -34.890   5.068   6.450  1.00 20.00     0.089 A 
HETATM    8  O8  UNL     1     -35.341   3.689   4.463  1.00 20.00    -0.292 OA
HETATM    9  S9  UNL     1     -32.526   7.707   4.522  1.00 20.00    -0.082 SA
HETATM   10 CL10 UNL     1     -31.828   7.619   1.625  1.00 20.00    -0.076 Cl
ENDROOT
TORSDOF 0
ENDMDL
MODEL 8
REMARK VINA RESULT:      -4.1     12.480     13.362
REMARK  0 active torsions:
REMARK  status: ('A' for Active; 'I' for Inactive)
ROOT
HETATM    1  C1  UNL     1     -41.099   4.004  -1.650  1.00 20.00     0.047 A 
HETATM    2  C2  UNL     1     -41.461   5.349  -1.450  1.00 20.00     0.025 A 
HETATM    3  C3  UNL     1     -42.487   5.747  -2.257  1.00 20.00    -0.002 A 
HETATM    4  C4  UNL     1     -41.895   3.432  -2.628  1.00 20.00     0.075 A 
HETATM    5  C5  UNL     1     -41.055   6.455  -0.625  1.00 20.00     0.161 A 
HETATM    6  C6  UNL     1     -42.909   7.157  -2.087  1.00 20.00     0.055 A 
HETATM    7  C7  UNL     1     -41.938   7.663  -0.974  1.00 20.00     0.089 A 
HETATM    8  O8  UNL     1     -40.163   6.437   0.207  1.00 20.00    -0.292 OA
HETATM    9  S9  UNL     1     -43.055   4.543  -3.275  1.00 20.00    -0.082 SA
HETATM   10 CL10 UNL     1     -41.837   1.823  -3.220  1.00 20.00    -0.076 Cl
ENDROOT
TORSDOF 0
ENDMDL
MODEL 9
REMARK VINA RESULT:      -4.0      6.565      7.720
REMARK  0 active torsions:
REMARK  status: ('A' for Active; 'I' for Inactive)
ROOT
HETATM    1  C1  UNL     1     -32.079  19.020   3.219  1.00 20.00     0.047 A 
HETATM    2  C2  UNL     1     -32.675  18.777   1.968  1.00 20.00     0.025 A 
HETATM    3  C3  UNL     1     -33.956  18.317   2.072  1.00 20.00    -0.002 A 
HETATM    4  C4  UNL     1     -32.966  18.722   4.241  1.00 20.00     0.075 A 
HETATM    5  C5  UNL     1     -32.320  18.873   0.577  1.00 20.00     0.161 A 
HETATM    6  C6  UNL     1     -34.631  18.046   0.782  1.00 20.00     0.055 A 
HETATM    7  C7  UNL     1     -33.527  18.419  -0.258  1.00 20.00     0.089 A 
HETATM    8  O8  UNL     1     -31.247  19.251   0.137  1.00 20.00    -0.292 OA
HETATM    9  S9  UNL     1     -34.493  18.158   3.650  1.00 20.00    -0.082 SA
HETATM   10 CL10 UNL     1     -32.703  18.854   5.930  1.00 20.00    -0.076 Cl
ENDROOT
TORSDOF 0
ENDMDL
