MODEL 1
REMARK VINA RESULT:      -5.7      0.000      0.000
REMARK  1 active torsions:
REMARK  status: ('A' for Active; 'I' for Inactive)
REMARK    1  A    between atoms: C5_5  and  O10_10 
ROOT
HETATM    1  C1  UNL     1     -35.008   4.529   4.660  1.00 20.00     0.050 A 
HETATM    2  C2  UNL     1     -34.465   5.659   6.747  1.00 20.00     0.079 A 
HETATM    3  C3  UNL     1     -34.139   5.389   4.010  1.00 20.00    -0.046 A 
HETATM    4  C4  UNL     1     -33.443   6.379   4.713  1.00 20.00    -0.018 A 
HETATM    5  C5  UNL     1     -33.601   6.530   6.080  1.00 20.00     0.075 A 
HETATM    6  C6  UNL     1     -35.164   4.666   6.042  1.00 20.00     0.119 A 
HETATM    7  C7  UNL     1     -33.839   5.464   2.547  1.00 20.00     0.039 C 
HETATM    8  C8  UNL     1     -32.611   7.207   3.784  1.00 20.00     0.042 C 
HETATM    9  C9  UNL     1     -32.547   6.295   2.550  1.00 20.00     0.009 C 
HETATM   10  F11 UNL     1     -35.994   3.846   6.701  1.00 20.00    -0.206 F 
ENDROOT
BRANCH   5  11
HETATM   11  O10 UNL     1     -32.939   7.498   6.764  1.00 20.00    -0.360 OA
HETATM   12  H20 UNL     1     -33.030   8.355   6.314  1.00 20.00     0.217 HD
ENDBRANCH   5  11
TORSDOF 1
ENDMDL
MODEL 2
REMARK VINA RESULT:      -5.2      2.800      4.334
REMARK  1 active torsions:
REMARK  status: ('A' for Active; 'I' for Inactive)
REMARK    1  A    between atoms: C5_5  and  O10_10 
ROOT
HETATM    1  C1  UNL     1     -32.681   7.099   5.053  1.00 20.00     0.050 A 
HETATM    2  C2  UNL     1     -32.700   6.472   2.701  1.00 20.00     0.079 A 
HETATM    3  C3  UNL     1     -33.715   6.201   5.263  1.00 20.00    -0.046 A 
HETATM    4  C4  UNL     1     -34.243   5.449   4.208  1.00 20.00    -0.018 A 
HETATM    5  C5  UNL     1     -33.750   5.578   2.920  1.00 20.00     0.075 A 
HETATM    6  C6  UNL     1     -32.169   7.227   3.759  1.00 20.00     0.119 A 
HETATM    7  C7  UNL     1     -34.447   5.921   6.537  1.00 20.00     0.039 C 
HETATM    8  C8  UNL     1     -35.378   4.594   4.679  1.00 20.00     0.042 C 
HETATM    9  C9  UNL     1     -35.138   4.592   6.196  1.00 20.00     0.009 C 
HETATM   10  F11 UNL     1     -31.166   8.083   3.524  1.00 20.00    -0.206 F 
ENDROOT
BRANCH   5  11
HETATM   11  O10 UNL     1     -34.269   4.862   1.891  1.00 20.00    -0.360 OA
HETATM   12  H20 UNL     1     -35.238   4.826   1.956  1.00 20.00     0.217 HD
ENDBRANCH   5  11
TORSDOF 1
ENDMDL
MODEL 3
REMARK VINA RESULT:      -5.2     12.522     13.861
REMARK  1 active torsions:
REMARK  status: ('A' for Active; 'I' for Inactive)
REMARK    1  A    between atoms: C5_5  and  O10_10 
ROOT
HETATM    1  C1  UNL     1     -33.726  16.461  -4.405  1.00 20.00     0.050 A 
HETATM    2  C2  UNL     1     -34.341  14.467  -3.151  1.00 20.00     0.079 A 
HETATM    3  C3  UNL     1     -34.217  15.851  -5.547  1.00 20.00    -0.046 A 
HETATM    4  C4  UNL     1     -34.760  14.561  -5.500  1.00 20.00    -0.018 A 
HETATM    5  C5  UNL     1     -34.822  13.855  -4.311  1.00 20.00     0.075 A 
HETATM    6  C6  UNL     1     -33.796  15.761  -3.199  1.00 20.00     0.119 A 
HETATM    7  C7  UNL     1     -34.216  16.377  -6.947  1.00 20.00     0.039 C 
HETATM    8  C8  UNL     1     -35.173  14.106  -6.864  1.00 20.00     0.042 C 
HETATM    9  C9  UNL     1     -35.236  15.444  -7.616  1.00 20.00     0.009 C 
HETATM   10  F11 UNL     1     -33.334  16.326  -2.075  1.00 20.00    -0.206 F 
ENDROOT
BRANCH   5  11
HETATM   11  O10 UNL     1     -35.333  12.598  -4.262  1.00 20.00    -0.360 OA
HETATM   12  H20 UNL     1     -35.913  12.497  -3.488  1.00 20.00     0.217 HD
ENDBRANCH   5  11
TORSDOF 1
ENDMDL
MODEL 4
REMARK VINA RESULT:      -4.8     12.760     14.046
REMARK  1 active torsions:
REMARK  status: ('A' for Active; 'I' for Inactive)
REMARK    1  A    between atoms: C5_5  and  O10_10 
ROOT
HETATM    1  C1  UNL     1     -34.088  16.279  -5.908  1.00 20.00     0.050 A 
HETATM    2  C2  UNL     1     -34.774  13.944  -5.874  1.00 20.00     0.079 A 
HETATM    3  C3  UNL     1     -34.185  16.290  -4.527  1.00 20.00    -0.046 A 
HETATM    4  C4  UNL     1     -34.578  15.147  -3.821  1.00 20.00    -0.018 A 
HETATM    5  C5  UNL     1     -34.882  13.969  -4.482  1.00 20.00     0.075 A 
HETATM    6  C6  UNL     1     -34.381  15.091  -6.582  1.00 20.00     0.119 A 
HETATM    7  C7  UNL     1     -33.964  17.441  -3.597  1.00 20.00     0.039 C 
HETATM    8  C8  UNL     1     -34.655  15.427  -2.353  1.00 20.00     0.042 C 
HETATM    9  C9  UNL     1     -33.820  16.713  -2.252  1.00 20.00     0.009 C 
HETATM   10  F11 UNL     1     -34.291  15.046  -7.918  1.00 20.00    -0.206 F 
ENDROOT
BRANCH   5  11
HETATM   11  O10 UNL     1     -35.278  12.862  -3.803  1.00 20.00    -0.360 OA
HETATM   12  H20 UNL     1     -36.247  12.833  -3.736  1.00 20.00     0.217 HD
ENDBRANCH   5  11
TORSDOF 1
ENDMDL
MODEL 5
REMARK VINA RESULT:      -4.8     12.453     12.919
REMARK  1 active torsions:
REMARK  status: ('A' for Active; 'I' for Inactive)
REMARK    1  A    between atoms: C5_5  and  O10_10 
ROOT
HETATM    1  C1  UNL     1     -33.636  14.534  -3.728  1.00 20.00     0.050 A 
HETATM    2  C2  UNL     1     -35.926  13.828  -4.154  1.00 20.00     0.079 A 
HETATM    3  C3  UNL     1     -34.135  15.559  -2.942  1.00 20.00    -0.046 A 
HETATM    4  C4  UNL     1     -35.514  15.726  -2.765  1.00 20.00    -0.018 A 
HETATM    5  C5  UNL     1     -36.421  14.873  -3.370  1.00 20.00     0.075 A 
HETATM    6  C6  UNL     1     -34.544  13.661  -4.332  1.00 20.00     0.119 A 
HETATM    7  C7  UNL     1     -33.373  16.633  -2.234  1.00 20.00     0.039 C 
HETATM    8  C8  UNL     1     -35.800  16.927  -1.919  1.00 20.00     0.042 C 
HETATM    9  C9  UNL     1     -34.435  17.154  -1.254  1.00 20.00     0.009 C 
HETATM   10  F11 UNL     1     -34.092  12.656  -5.094  1.00 20.00    -0.206 F 
ENDROOT
BRANCH   5  11
HETATM   11  O10 UNL     1     -37.759  15.039  -3.213  1.00 20.00    -0.360 OA
HETATM   12  H20 UNL     1     -38.059  14.622  -2.388  1.00 20.00     0.217 HD
ENDBRANCH   5  11
TORSDOF 1
ENDMDL
MODEL 6
REMARK VINA RESULT:      -4.8     12.177     13.285
REMARK  1 active torsions:
REMARK  status: ('A' for Active; 'I' for Inactive)
REMARK    1  A    between atoms: C5_5  and  O10_10 
ROOT
HETATM    1  C1  UNL     1     -33.566  16.144  -3.480  1.00 20.00     0.050 A 
HETATM    2  C2  UNL     1     -33.538  13.734  -3.820  1.00 20.00     0.079 A 
HETATM    3  C3  UNL     1     -34.947  16.105  -3.569  1.00 20.00    -0.046 A 
HETATM    4  C4  UNL     1     -35.622  14.898  -3.788  1.00 20.00    -0.018 A 
HETATM    5  C5  UNL     1     -34.931  13.706  -3.922  1.00 20.00     0.075 A 
HETATM    6  C6  UNL     1     -32.861  14.944  -3.601  1.00 20.00     0.119 A 
HETATM    7  C7  UNL     1     -35.907  17.250  -3.513  1.00 20.00     0.039 C 
HETATM    8  C8  UNL     1     -37.097  15.125  -3.896  1.00 20.00     0.042 C 
HETATM    9  C9  UNL     1     -37.231  16.515  -3.256  1.00 20.00     0.009 C 
HETATM   10  F11 UNL     1     -31.524  14.948  -3.514  1.00 20.00    -0.206 F 
ENDROOT
BRANCH   5  11
HETATM   11  O10 UNL     1     -35.579  12.535  -4.149  1.00 20.00    -0.360 OA
HETATM   12  H20 UNL     1     -35.463  11.931  -3.397  1.00 20.00     0.217 HD
ENDBRANCH   5  11
TORSDOF 1
ENDMDL
MODEL 7
REMARK VINA RESULT:      -4.7     12.816     13.674
REMARK  1 active torsions:
REMARK  status: ('A' for Active; 'I' for Inactive)
REMARK    1  A    between atoms: C5_5  and  O10_10 
ROOT
HETATM    1  C1  UNL     1     -35.962  15.841  -3.033  1.00 20.00     0.050 A 
HETATM    2  C2  UNL     1     -33.542  15.951  -2.796  1.00 20.00     0.079 A 
HETATM    3  C3  UNL     1     -35.783  15.616  -4.388  1.00 20.00    -0.046 A 
HETATM    4  C4  UNL     1     -34.501  15.564  -4.948  1.00 20.00    -0.018 A 
HETATM    5  C5  UNL     1     -33.372  15.736  -4.165  1.00 20.00     0.075 A 
HETATM    6  C6  UNL     1     -34.828  16.003  -2.234  1.00 20.00     0.119 A 
HETATM    7  C7  UNL     1     -36.832  15.455  -5.442  1.00 20.00     0.039 C 
HETATM    8  C8  UNL     1     -34.574  15.361  -6.429  1.00 20.00     0.042 C 
HETATM    9  C9  UNL     1     -36.011  14.841  -6.586  1.00 20.00     0.009 C 
HETATM   10  F11 UNL     1     -34.968  16.217  -0.919  1.00 20.00    -0.206 F 
ENDROOT
BRANCH   5  11
HETATM   11  O10 UNL     1     -32.127  15.701  -4.705  1.00 20.00    -0.360 OA
HETATM   12  H20 UNL     1     -31.570  16.398  -4.320  1.00 20.00     0.217 HD
ENDBRANCH   5  11
TORSDOF 1
ENDMDL
MODEL 8
REMARK VINA RESULT:      -4.6     12.878     14.071
REMARK  1 active torsions:
REMARK  status: ('A' for Active; 'I' for Inactive)
REMARK    1  A    between atoms: C5_5  and  O10_10 
ROOT
HETATM    1  C1  UNL     1     -34.321  14.974  -3.164  1.00 20.00     0.050 A 
HETATM    2  C2  UNL     1     -33.613  16.085  -5.211  1.00 20.00     0.079 A 
HETATM    3  C3  UNL     1     -34.267  16.201  -2.522  1.00 20.00    -0.046 A 
HETATM    4  C4  UNL     1     -33.885  17.359  -3.210  1.00 20.00    -0.018 A 
HETATM    5  C5  UNL     1     -33.550  17.315  -4.553  1.00 20.00     0.075 A 
HETATM    6  C6  UNL     1     -33.996  14.923  -4.521  1.00 20.00     0.119 A 
HETATM    7  C7  UNL     1     -34.527  16.499  -1.080  1.00 20.00     0.039 C 
HETATM    8  C8  UNL     1     -33.857  18.539  -2.291  1.00 20.00     0.042 C 
HETATM    9  C9  UNL     1     -34.706  18.024  -1.120  1.00 20.00     0.009 C 
HETATM   10  F11 UNL     1     -34.043  13.752  -5.171  1.00 20.00    -0.206 F 
ENDROOT
BRANCH   5  11
HETATM   11  O10 UNL     1     -33.165  18.432  -5.221  1.00 20.00    -0.360 OA
HETATM   12  H20 UNL     1     -33.644  19.209  -4.887  1.00 20.00     0.217 HD
ENDBRANCH   5  11
TORSDOF 1
ENDMDL
MODEL 9
REMARK VINA RESULT:      -4.6     12.938     14.095
REMARK  1 active torsions:
REMARK  status: ('A' for Active; 'I' for Inactive)
REMARK    1  A    between atoms: C5_5  and  O10_10 
ROOT
HETATM    1  C1  UNL     1     -34.815  15.132  -3.181  1.00 20.00     0.050 A 
HETATM    2  C2  UNL     1     -33.760  17.323  -3.066  1.00 20.00     0.079 A 
HETATM    3  C3  UNL     1     -34.745  15.210  -4.562  1.00 20.00    -0.046 A 
HETATM    4  C4  UNL     1     -34.196  16.332  -5.194  1.00 20.00    -0.018 A 
HETATM    5  C5  UNL     1     -33.705  17.398  -4.459  1.00 20.00     0.075 A 
HETATM    6  C6  UNL     1     -34.311  16.198  -2.431  1.00 20.00     0.119 A 
HETATM    7  C7  UNL     1     -35.249  14.225  -5.567  1.00 20.00     0.039 C 
HETATM    8  C8  UNL     1     -34.280  16.199  -6.682  1.00 20.00     0.042 C 
HETATM    9  C9  UNL     1     -34.511  14.688  -6.832  1.00 20.00     0.009 C 
HETATM   10  F11 UNL     1     -34.359  16.150  -1.093  1.00 20.00    -0.206 F 
ENDROOT
BRANCH   5  11
HETATM   11  O10 UNL     1     -33.185  18.494  -5.068  1.00 20.00    -0.360 OA
HETATM   12  H20 UNL     1     -32.307  18.700  -4.705  1.00 20.00     0.217 HD
ENDBRANCH   5  11
TORSDOF 1
ENDMDL
