MODEL 1
REMARK VINA RESULT:      -4.8      0.000      0.000
REMARK  2 active torsions:
REMARK  status: ('A' for Active; 'I' for Inactive)
REMARK    1  A    between atoms: C4_4  and  C7_7 
REMARK    2  A    between atoms: C5_5  and  O8_8 
ROOT
HETATM    1  C1  UNL     1     -35.298   5.563   3.756  1.00 20.00     0.007 C 
HETATM    2  C2  UNL     1     -35.265   4.363   4.697  1.00 20.00     0.032 C 
HETATM    3  C3  UNL     1     -34.250   6.329   5.758  1.00 20.00     0.036 C 
HETATM    4  C4  UNL     1     -34.158   6.458   4.235  1.00 20.00    -0.012 C 
HETATM    5  C5  UNL     1     -34.715   4.896   6.021  1.00 20.00     0.118 C 
ENDROOT
BRANCH   4   6
HETATM    6  C7  UNL     1     -32.801   6.012   3.695  1.00 20.00     0.000 C 
HETATM    7  C6  UNL     1     -32.111   7.107   2.943  1.00 20.00     0.005 C 
ENDBRANCH   4   6
BRANCH   5   8
HETATM    8  O8  UNL     1     -33.613   4.106   6.447  1.00 20.00    -0.396 OA
HETATM    9  H22 UNL     1     -33.341   3.574   5.683  1.00 20.00     0.210 HD
ENDBRANCH   5   8
TORSDOF 2
ENDMDL
MODEL 2
REMARK VINA RESULT:      -4.5     11.791     12.659
REMARK  2 active torsions:
REMARK  status: ('A' for Active; 'I' for Inactive)
REMARK    1  A    between atoms: C4_4  and  C7_7 
REMARK    2  A    between atoms: C5_5  and  O8_8 
ROOT
HETATM    1  C1  UNL     1     -33.056  15.179  -3.667  1.00 20.00     0.007 C 
HETATM    2  C2  UNL     1     -33.220  13.665  -3.733  1.00 20.00     0.032 C 
HETATM    3  C3  UNL     1     -34.984  14.788  -5.016  1.00 20.00     0.036 C 
HETATM    4  C4  UNL     1     -34.455  15.729  -3.931  1.00 20.00    -0.012 C 
HETATM    5  C5  UNL     1     -34.375  13.420  -4.705  1.00 20.00     0.118 C 
ENDROOT
BRANCH   4   6
HETATM    6  C7  UNL     1     -35.330  15.723  -2.679  1.00 20.00     0.000 C 
HETATM    7  C6  UNL     1     -34.633  16.340  -1.507  1.00 20.00     0.005 C 
ENDBRANCH   4   6
BRANCH   5   8
HETATM    8  O8  UNL     1     -35.355  12.586  -4.102  1.00 20.00    -0.396 OA
HETATM    9  H22 UNL     1     -36.166  12.688  -4.625  1.00 20.00     0.210 HD
ENDBRANCH   5   8
TORSDOF 2
ENDMDL
MODEL 3
REMARK VINA RESULT:      -4.0     12.172     13.495
REMARK  2 active torsions:
REMARK  status: ('A' for Active; 'I' for Inactive)
REMARK    1  A    between atoms: C4_4  and  C7_7 
REMARK    2  A    between atoms: C5_5  and  O8_8 
ROOT
HETATM    1  C1  UNL     1     -34.956  13.430  -4.214  1.00 20.00     0.007 C 
HETATM    2  C2  UNL     1     -33.509  13.671  -3.799  1.00 20.00     0.032 C 
HETATM    3  C3  UNL     1     -34.617  15.787  -4.360  1.00 20.00     0.036 C 
HETATM    4  C4  UNL     1     -35.310  14.631  -5.086  1.00 20.00    -0.012 C 
HETATM    5  C5  UNL     1     -33.339  15.191  -3.766  1.00 20.00     0.118 C 
ENDROOT
BRANCH   4   6
HETATM    6  C7  UNL     1     -34.822  14.472  -6.524  1.00 20.00     0.000 C 
HETATM    7  C6  UNL     1     -34.592  15.795  -7.186  1.00 20.00     0.005 C 
ENDBRANCH   4   6
BRANCH   5   8
HETATM    8  O8  UNL     1     -32.221  15.577  -4.554  1.00 20.00    -0.396 OA
HETATM    9  H22 UNL     1     -31.558  14.875  -4.457  1.00 20.00     0.210 HD
ENDBRANCH   5   8
TORSDOF 2
ENDMDL
MODEL 4
REMARK VINA RESULT:      -3.9     12.284     12.902
REMARK  2 active torsions:
REMARK  status: ('A' for Active; 'I' for Inactive)
REMARK    1  A    between atoms: C4_4  and  C7_7 
REMARK    2  A    between atoms: C5_5  and  O8_8 
ROOT
HETATM    1  C1  UNL     1     -34.709  16.139  -4.781  1.00 20.00     0.007 C 
HETATM    2  C2  UNL     1     -34.446  14.724  -5.283  1.00 20.00     0.032 C 
HETATM    3  C3  UNL     1     -36.298  14.745  -3.673  1.00 20.00     0.036 C 
HETATM    4  C4  UNL     1     -35.382  15.947  -3.425  1.00 20.00    -0.012 C 
HETATM    5  C5  UNL     1     -35.550  13.860  -4.673  1.00 20.00     0.118 C 
ENDROOT
BRANCH   4   6
HETATM    6  C7  UNL     1     -34.375  15.688  -2.306  1.00 20.00     0.000 C 
HETATM    7  C6  UNL     1     -34.647  16.534  -1.102  1.00 20.00     0.005 C 
ENDBRANCH   4   6
BRANCH   5   8
HETATM    8  O8  UNL     1     -34.983  12.747  -3.994  1.00 20.00    -0.396 OA
HETATM    9  H22 UNL     1     -34.048  12.712  -4.251  1.00 20.00     0.210 HD
ENDBRANCH   5   8
TORSDOF 2
ENDMDL
MODEL 5
REMARK VINA RESULT:      -3.9     12.209     13.328
REMARK  2 active torsions:
REMARK  status: ('A' for Active; 'I' for Inactive)
REMARK    1  A    between atoms: C4_4  and  C7_7 
REMARK    2  A    between atoms: C5_5  and  O8_8 
ROOT
HETATM    1  C1  UNL     1     -34.905  15.745  -2.307  1.00 20.00     0.007 C 
HETATM    2  C2  UNL     1     -33.554  16.344  -2.681  1.00 20.00     0.032 C 
HETATM    3  C3  UNL     1     -34.936  15.997  -4.679  1.00 20.00     0.036 C 
HETATM    4  C4  UNL     1     -35.374  15.034  -3.573  1.00 20.00    -0.012 C 
HETATM    5  C5  UNL     1     -33.632  16.626  -4.183  1.00 20.00     0.118 C 
ENDROOT
BRANCH   4   6
HETATM    6  C7  UNL     1     -34.751  13.648  -3.728  1.00 20.00     0.000 C 
HETATM    7  C6  UNL     1     -34.716  13.208  -5.158  1.00 20.00     0.005 C 
ENDBRANCH   4   6
BRANCH   5   8
HETATM    8  O8  UNL     1     -32.529  16.029  -4.852  1.00 20.00    -0.396 OA
HETATM    9  H22 UNL     1     -32.202  16.685  -5.488  1.00 20.00     0.210 HD
ENDBRANCH   5   8
TORSDOF 2
ENDMDL
MODEL 6
REMARK VINA RESULT:      -3.9     12.445     13.192
REMARK  2 active torsions:
REMARK  status: ('A' for Active; 'I' for Inactive)
REMARK    1  A    between atoms: C4_4  and  C7_7 
REMARK    2  A    between atoms: C5_5  and  O8_8 
ROOT
HETATM    1  C1  UNL     1     -36.190  14.564  -3.887  1.00 20.00     0.007 C 
HETATM    2  C2  UNL     1     -36.029  14.943  -5.355  1.00 20.00     0.032 C 
HETATM    3  C3  UNL     1     -34.193  13.488  -4.625  1.00 20.00     0.036 C 
HETATM    4  C4  UNL     1     -34.776  14.229  -3.420  1.00 20.00    -0.012 C 
HETATM    5  C5  UNL     1     -34.824  14.144  -5.855  1.00 20.00     0.118 C 
ENDROOT
BRANCH   4   6
HETATM    6  C7  UNL     1     -33.971  15.475  -3.058  1.00 20.00     0.000 C 
HETATM    7  C6  UNL     1     -34.525  16.170  -1.854  1.00 20.00     0.005 C 
ENDBRANCH   4   6
BRANCH   5   8
HETATM    8  O8  UNL     1     -33.882  15.012  -6.471  1.00 20.00    -0.396 OA
HETATM    9  H22 UNL     1     -34.377  15.788  -6.776  1.00 20.00     0.210 HD
ENDBRANCH   5   8
TORSDOF 2
ENDMDL
MODEL 7
REMARK VINA RESULT:      -3.9     12.604     13.422
REMARK  2 active torsions:
REMARK  status: ('A' for Active; 'I' for Inactive)
REMARK    1  A    between atoms: C4_4  and  C7_7 
REMARK    2  A    between atoms: C5_5  and  O8_8 
ROOT
HETATM    1  C1  UNL     1     -35.827  16.146  -3.586  1.00 20.00     0.007 C 
HETATM    2  C2  UNL     1     -34.970  16.431  -4.814  1.00 20.00     0.032 C 
HETATM    3  C3  UNL     1     -33.988  14.631  -3.465  1.00 20.00     0.036 C 
HETATM    4  C4  UNL     1     -34.863  15.522  -2.580  1.00 20.00    -0.012 C 
HETATM    5  C5  UNL     1     -33.868  15.369  -4.800  1.00 20.00     0.118 C 
ENDROOT
BRANCH   4   6
HETATM    6  C7  UNL     1     -34.049  16.571  -1.826  1.00 20.00     0.000 C 
HETATM    7  C6  UNL     1     -34.647  16.889  -0.491  1.00 20.00     0.005 C 
ENDBRANCH   4   6
BRANCH   5   8
HETATM    8  O8  UNL     1     -32.591  15.987  -4.892  1.00 20.00    -0.396 OA
HETATM    9  H22 UNL     1     -32.596  16.728  -4.266  1.00 20.00     0.210 HD
ENDBRANCH   5   8
TORSDOF 2
ENDMDL
MODEL 8
REMARK VINA RESULT:      -3.8     12.238     13.160
REMARK  2 active torsions:
REMARK  status: ('A' for Active; 'I' for Inactive)
REMARK    1  A    between atoms: C4_4  and  C7_7 
REMARK    2  A    between atoms: C5_5  and  O8_8 
ROOT
HETATM    1  C1  UNL     1     -33.468  13.698  -3.725  1.00 20.00     0.007 C 
HETATM    2  C2  UNL     1     -34.453  13.280  -4.810  1.00 20.00     0.032 C 
HETATM    3  C3  UNL     1     -33.896  15.661  -5.012  1.00 20.00     0.036 C 
HETATM    4  C4  UNL     1     -33.685  15.201  -3.567  1.00 20.00    -0.012 C 
HETATM    5  C5  UNL     1     -34.619  14.506  -5.709  1.00 20.00     0.118 C 
ENDROOT
BRANCH   4   6
HETATM    6  C7  UNL     1     -34.880  15.526  -2.673  1.00 20.00     0.000 C 
HETATM    7  C6  UNL     1     -34.490  16.379  -1.507  1.00 20.00     0.005 C 
ENDBRANCH   4   6
BRANCH   5   8
HETATM    8  O8  UNL     1     -35.997  14.824  -5.856  1.00 20.00    -0.396 OA
HETATM    9  H22 UNL     1     -36.037  15.706  -6.258  1.00 20.00     0.210 HD
ENDBRANCH   5   8
TORSDOF 2
ENDMDL
MODEL 9
REMARK VINA RESULT:      -3.8     12.116     13.044
REMARK  2 active torsions:
REMARK  status: ('A' for Active; 'I' for Inactive)
REMARK    1  A    between atoms: C4_4  and  C7_7 
REMARK    2  A    between atoms: C5_5  and  O8_8 
ROOT
HETATM    1  C1  UNL     1     -33.817  15.640  -4.046  1.00 20.00     0.007 C 
HETATM    2  C2  UNL     1     -33.572  14.150  -3.838  1.00 20.00     0.032 C 
HETATM    3  C3  UNL     1     -35.422  14.517  -5.407  1.00 20.00     0.036 C 
HETATM    4  C4  UNL     1     -35.275  15.732  -4.487  1.00 20.00    -0.012 C 
HETATM    5  C5  UNL     1     -34.512  13.440  -4.813  1.00 20.00     0.118 C 
ENDROOT
BRANCH   4   6
HETATM    6  C7  UNL     1     -36.245  15.688  -3.309  1.00 20.00     0.000 C 
HETATM    7  C6  UNL     1     -37.587  15.159  -3.708  1.00 20.00     0.005 C 
ENDBRANCH   4   6
BRANCH   5   8
HETATM    8  O8  UNL     1     -35.299  12.478  -4.123  1.00 20.00    -0.396 OA
HETATM    9  H22 UNL     1     -36.095  12.939  -3.815  1.00 20.00     0.210 HD
ENDBRANCH   5   8
TORSDOF 2
ENDMDL
