MODEL 1
REMARK VINA RESULT:      -3.9      0.000      0.000
REMARK  2 active torsions:
REMARK  status: ('A' for Active; 'I' for Inactive)
REMARK    1  A    between atoms: C2_2  and  C5_5 
REMARK    2  A    between atoms: C9_9  and  N10_10 
ROOT
HETATM    1  C3  UNL     1     -33.762  13.730  -3.774  1.00 20.00     0.070 C 
HETATM    2  C4  UNL     1     -34.554  13.836  -5.092  1.00 20.00     0.277 C 
HETATM    3  C5  UNL     1     -34.726  14.829  -3.268  1.00 20.00     0.247 C 
HETATM    4  N10 UNL     1     -34.907  15.224  -4.694  1.00 20.00     0.105 N 
ENDROOT
BRANCH   4   5
HETATM    5  C9  UNL     1     -36.312  15.495  -4.983  1.00 20.00     0.150 C 
HETATM    6  C6  UNL     1     -37.192  14.664  -4.044  1.00 20.00     0.048 C 
HETATM    7  C7  UNL     1     -36.589  16.987  -4.770  1.00 20.00     0.048 C 
HETATM    8  C8  UNL     1     -36.610  15.115  -6.438  1.00 20.00     0.048 C 
ENDBRANCH   4   5
BRANCH   3   9
HETATM    9  C2  UNL     1     -34.112  15.910  -2.477  1.00 20.00    -0.002 C 
HETATM   10  C1  UNL     1     -34.640  16.409  -1.355  1.00 20.00     0.009 C 
ENDBRANCH   3   9
TORSDOF 2
ENDMDL
MODEL 2
REMARK VINA RESULT:      -3.9      1.531      1.725
REMARK  2 active torsions:
REMARK  status: ('A' for Active; 'I' for Inactive)
REMARK    1  A    between atoms: C2_2  and  C5_5 
REMARK    2  A    between atoms: C9_9  and  N10_10 
ROOT
HETATM    1  C3  UNL     1     -34.726  13.634  -3.797  1.00 20.00     0.070 C 
HETATM    2  C4  UNL     1     -34.501  13.968  -5.284  1.00 20.00     0.277 C 
HETATM    3  C5  UNL     1     -34.796  15.167  -3.606  1.00 20.00     0.247 C 
HETATM    4  N10 UNL     1     -33.972  15.285  -4.843  1.00 20.00     0.105 N 
ENDROOT
BRANCH   4   5
HETATM    5  C9  UNL     1     -34.477  16.350  -5.704  1.00 20.00     0.150 C 
HETATM    6  C6  UNL     1     -35.935  16.648  -5.339  1.00 20.00     0.048 C 
HETATM    7  C7  UNL     1     -33.623  17.606  -5.500  1.00 20.00     0.048 C 
HETATM    8  C8  UNL     1     -34.395  15.899  -7.167  1.00 20.00     0.048 C 
ENDBRANCH   4   5
BRANCH   3   9
HETATM    9  C2  UNL     1     -34.090  15.703  -2.429  1.00 20.00    -0.002 C 
HETATM   10  C1  UNL     1     -34.681  16.408  -1.459  1.00 20.00     0.009 C 
ENDBRANCH   3   9
TORSDOF 2
ENDMDL
MODEL 3
REMARK VINA RESULT:      -3.8      1.233      2.880
REMARK  2 active torsions:
REMARK  status: ('A' for Active; 'I' for Inactive)
REMARK    1  A    between atoms: C2_2  and  C5_5 
REMARK    2  A    between atoms: C9_9  and  N10_10 
ROOT
HETATM    1  C3  UNL     1     -36.590  16.759  -3.218  1.00 20.00     0.070 C 
HETATM    2  C4  UNL     1     -36.383  15.738  -4.353  1.00 20.00     0.277 C 
HETATM    3  C5  UNL     1     -35.102  16.492  -2.893  1.00 20.00     0.247 C 
HETATM    4  N10 UNL     1     -35.274  15.163  -3.546  1.00 20.00     0.105 N 
ENDROOT
BRANCH   4   5
HETATM    5  C9  UNL     1     -34.132  14.853  -4.400  1.00 20.00     0.150 C 
HETATM    6  C6  UNL     1     -33.322  16.130  -4.647  1.00 20.00     0.048 C 
HETATM    7  C7  UNL     1     -33.254  13.807  -3.704  1.00 20.00     0.048 C 
HETATM    8  C8  UNL     1     -34.637  14.298  -5.738  1.00 20.00     0.048 C 
ENDBRANCH   4   5
BRANCH   3   9
HETATM    9  C2  UNL     1     -34.770  16.356  -1.463  1.00 20.00    -0.002 C 
HETATM   10  C1  UNL     1     -34.007  17.221  -0.787  1.00 20.00     0.009 C 
ENDBRANCH   3   9
TORSDOF 2
ENDMDL
MODEL 4
REMARK VINA RESULT:      -3.8      1.815      3.957
REMARK  2 active torsions:
REMARK  status: ('A' for Active; 'I' for Inactive)
REMARK    1  A    between atoms: C2_2  and  C5_5 
REMARK    2  A    between atoms: C9_9  and  N10_10 
ROOT
HETATM    1  C3  UNL     1     -33.905  17.551  -6.062  1.00 20.00     0.070 C 
HETATM    2  C4  UNL     1     -33.640  17.409  -4.551  1.00 20.00     0.277 C 
HETATM    3  C5  UNL     1     -34.621  16.187  -5.923  1.00 20.00     0.247 C 
HETATM    4  N10 UNL     1     -33.759  15.939  -4.732  1.00 20.00     0.105 N 
ENDROOT
BRANCH   4   5
HETATM    5  C9  UNL     1     -34.535  15.353  -3.644  1.00 20.00     0.150 C 
HETATM    6  C6  UNL     1     -36.025  15.625  -3.879  1.00 20.00     0.048 C 
HETATM    7  C7  UNL     1     -34.283  13.842  -3.605  1.00 20.00     0.048 C 
HETATM    8  C8  UNL     1     -34.101  15.986  -2.316  1.00 20.00     0.048 C 
ENDBRANCH   4   5
BRANCH   3   9
HETATM    9  C2  UNL     1     -34.359  15.211  -6.996  1.00 20.00    -0.002 C 
HETATM   10  C1  UNL     1     -35.311  14.501  -7.610  1.00 20.00     0.009 C 
ENDBRANCH   3   9
TORSDOF 2
ENDMDL
MODEL 5
REMARK VINA RESULT:      -3.8      1.507      2.551
REMARK  2 active torsions:
REMARK  status: ('A' for Active; 'I' for Inactive)
REMARK    1  A    between atoms: C2_2  and  C5_5 
REMARK    2  A    between atoms: C9_9  and  N10_10 
ROOT
HETATM    1  C3  UNL     1     -33.558  17.835  -4.017  1.00 20.00     0.070 C 
HETATM    2  C4  UNL     1     -33.859  16.944  -5.237  1.00 20.00     0.277 C 
HETATM    3  C5  UNL     1     -34.043  16.623  -3.187  1.00 20.00     0.247 C 
HETATM    4  N10 UNL     1     -34.832  16.213  -4.383  1.00 20.00     0.105 N 
ENDROOT
BRANCH   4   5
HETATM    5  C9  UNL     1     -34.725  14.774  -4.606  1.00 20.00     0.150 C 
HETATM    6  C6  UNL     1     -33.489  14.239  -3.876  1.00 20.00     0.048 C 
HETATM    7  C7  UNL     1     -35.985  14.089  -4.068  1.00 20.00     0.048 C 
HETATM    8  C8  UNL     1     -34.590  14.505  -6.110  1.00 20.00     0.048 C 
ENDBRANCH   4   5
BRANCH   3   9
HETATM    9  C2  UNL     1     -34.915  16.936  -2.041  1.00 20.00    -0.002 C 
HETATM   10  C1  UNL     1     -34.619  16.637  -0.772  1.00 20.00     0.009 C 
ENDBRANCH   3   9
TORSDOF 2
ENDMDL
MODEL 6
REMARK VINA RESULT:      -3.7      1.262      3.828
REMARK  2 active torsions:
REMARK  status: ('A' for Active; 'I' for Inactive)
REMARK    1  A    between atoms: C2_2  and  C5_5 
REMARK    2  A    between atoms: C9_9  and  N10_10 
ROOT
HETATM    1  C3  UNL     1     -37.233  14.704  -4.257  1.00 20.00     0.070 C 
HETATM    2  C4  UNL     1     -36.356  15.365  -3.176  1.00 20.00     0.277 C 
HETATM    3  C5  UNL     1     -35.931  14.663  -5.092  1.00 20.00     0.247 C 
HETATM    4  N10 UNL     1     -35.456  15.814  -4.272  1.00 20.00     0.105 N 
ENDROOT
BRANCH   4   5
HETATM    5  C9  UNL     1     -34.059  15.636  -3.888  1.00 20.00     0.150 C 
HETATM    6  C6  UNL     1     -33.731  14.140  -3.850  1.00 20.00     0.048 C 
HETATM    7  C7  UNL     1     -33.164  16.339  -4.914  1.00 20.00     0.048 C 
HETATM    8  C8  UNL     1     -33.835  16.246  -2.499  1.00 20.00     0.048 C 
ENDBRANCH   4   5
BRANCH   3   9
HETATM    9  C2  UNL     1     -36.066  15.027  -6.513  1.00 20.00    -0.002 C 
HETATM   10  C1  UNL     1     -35.394  14.432  -7.505  1.00 20.00     0.009 C 
ENDBRANCH   3   9
TORSDOF 2
ENDMDL
MODEL 7
REMARK VINA RESULT:      -3.6      1.926      3.602
REMARK  2 active torsions:
REMARK  status: ('A' for Active; 'I' for Inactive)
REMARK    1  A    between atoms: C2_2  and  C5_5 
REMARK    2  A    between atoms: C9_9  and  N10_10 
ROOT
HETATM    1  C3  UNL     1     -33.714  16.275  -5.885  1.00 20.00     0.070 C 
HETATM    2  C4  UNL     1     -33.501  17.515  -4.995  1.00 20.00     0.277 C 
HETATM    3  C5  UNL     1     -34.438  15.685  -4.653  1.00 20.00     0.247 C 
HETATM    4  N10 UNL     1     -33.619  16.611  -3.820  1.00 20.00     0.105 N 
ENDROOT
BRANCH   4   5
HETATM    5  C9  UNL     1     -34.435  17.232  -2.781  1.00 20.00     0.150 C 
HETATM    6  C6  UNL     1     -35.854  17.454  -3.314  1.00 20.00     0.048 C 
HETATM    7  C7  UNL     1     -34.477  16.309  -1.558  1.00 20.00     0.048 C 
HETATM    8  C8  UNL     1     -33.816  18.581  -2.392  1.00 20.00     0.048 C 
ENDBRANCH   4   5
BRANCH   3   9
HETATM    9  C2  UNL     1     -34.144  14.274  -4.347  1.00 20.00    -0.002 C 
HETATM   10  C1  UNL     1     -35.077  13.325  -4.224  1.00 20.00     0.009 C 
ENDBRANCH   3   9
TORSDOF 2
ENDMDL
MODEL 8
REMARK VINA RESULT:      -3.5     11.126     12.390
REMARK  2 active torsions:
REMARK  status: ('A' for Active; 'I' for Inactive)
REMARK    1  A    between atoms: C2_2  and  C5_5 
REMARK    2  A    between atoms: C9_9  and  N10_10 
ROOT
HETATM    1  C3  UNL     1     -40.612   6.176  -0.036  1.00 20.00     0.070 C 
HETATM    2  C4  UNL     1     -40.485   4.839  -0.792  1.00 20.00     0.277 C 
HETATM    3  C5  UNL     1     -42.011   6.254  -0.691  1.00 20.00     0.247 C 
HETATM    4  N10 UNL     1     -41.478   5.368  -1.764  1.00 20.00     0.105 N 
ENDROOT
BRANCH   4   5
HETATM    5  C9  UNL     1     -42.447   4.335  -2.113  1.00 20.00     0.150 C 
HETATM    6  C6  UNL     1     -41.709   3.118  -2.682  1.00 20.00     0.048 C 
HETATM    7  C7  UNL     1     -43.224   3.930  -0.856  1.00 20.00     0.048 C 
HETATM    8  C8  UNL     1     -43.416   4.886  -3.167  1.00 20.00     0.048 C 
ENDBRANCH   4   5
BRANCH   3   9
HETATM    9  C2  UNL     1     -42.402   7.573  -1.219  1.00 20.00    -0.002 C 
HETATM   10  C1  UNL     1     -43.416   8.301  -0.738  1.00 20.00     0.009 C 
ENDBRANCH   3   9
TORSDOF 2
ENDMDL
MODEL 9
REMARK VINA RESULT:      -3.3      1.222      3.394
REMARK  2 active torsions:
REMARK  status: ('A' for Active; 'I' for Inactive)
REMARK    1  A    between atoms: C2_2  and  C5_5 
REMARK    2  A    between atoms: C9_9  and  N10_10 
ROOT
HETATM    1  C3  UNL     1     -35.756  14.806  -6.768  1.00 20.00     0.070 C 
HETATM    2  C4  UNL     1     -34.968  13.905  -5.797  1.00 20.00     0.277 C 
HETATM    3  C5  UNL     1     -35.389  15.946  -5.788  1.00 20.00     0.247 C 
HETATM    4  N10 UNL     1     -35.266  14.899  -4.733  1.00 20.00     0.105 N 
ENDROOT
BRANCH   4   5
HETATM    5  C9  UNL     1     -34.085  15.131  -3.908  1.00 20.00     0.150 C 
HETATM    6  C6  UNL     1     -34.516  15.705  -2.555  1.00 20.00     0.048 C 
HETATM    7  C7  UNL     1     -33.351  13.802  -3.698  1.00 20.00     0.048 C 
HETATM    8  C8  UNL     1     -33.160  16.127  -4.618  1.00 20.00     0.048 C 
ENDBRANCH   4   5
BRANCH   3   9
HETATM    9  C2  UNL     1     -36.467  16.903  -5.481  1.00 20.00    -0.002 C 
HETATM   10  C1  UNL     1     -36.282  18.220  -5.346  1.00 20.00     0.009 C 
ENDBRANCH   3   9
TORSDOF 2
ENDMDL
