MODEL 1
REMARK VINA RESULT:      -3.6      0.000      0.000
REMARK  0 active torsions:
REMARK  status: ('A' for Active; 'I' for Inactive)
ROOT
HETATM    1  C1  UNL     1     -33.496  13.877  -3.821  1.00 20.00     0.136 A 
HETATM    2  C2  UNL     1     -32.874  15.122  -3.724  1.00 20.00     0.136 A 
HETATM    3  C3  UNL     1     -35.331  14.414  -6.815  1.00 20.00     0.083 A 
HETATM    4  C4  UNL     1     -34.223  16.632  -6.643  1.00 20.00     0.083 A 
HETATM    5  C5  UNL     1     -34.521  14.513  -5.710  1.00 20.00     0.092 A 
HETATM    6  C6  UNL     1     -33.882  15.793  -5.611  1.00 20.00     0.092 A 
HETATM    7  N7  UNL     1     -34.346  13.509  -4.813  1.00 20.00    -0.257 NA
HETATM    8  N8  UNL     1     -33.033  16.139  -4.609  1.00 20.00    -0.257 NA
HETATM    9  S9  UNL     1     -35.317  15.870  -7.731  1.00 20.00    -0.109 SA
ENDROOT
TORSDOF 0
ENDMDL
MODEL 2
REMARK VINA RESULT:      -3.6      0.016      2.047
REMARK  0 active torsions:
REMARK  status: ('A' for Active; 'I' for Inactive)
ROOT
HETATM    1  C1  UNL     1     -32.864  15.125  -3.722  1.00 20.00     0.136 A 
HETATM    2  C2  UNL     1     -33.474  13.875  -3.820  1.00 20.00     0.136 A 
HETATM    3  C3  UNL     1     -34.237  16.631  -6.632  1.00 20.00     0.083 A 
HETATM    4  C4  UNL     1     -35.323  14.403  -6.807  1.00 20.00     0.083 A 
HETATM    5  C5  UNL     1     -33.885  15.792  -5.603  1.00 20.00     0.092 A 
HETATM    6  C6  UNL     1     -34.511  14.506  -5.704  1.00 20.00     0.092 A 
HETATM    7  N7  UNL     1     -33.037  16.144  -4.603  1.00 20.00    -0.257 NA
HETATM    8  N8  UNL     1     -34.324  13.502  -4.810  1.00 20.00    -0.257 NA
HETATM    9  S9  UNL     1     -35.326  15.862  -7.718  1.00 20.00    -0.109 SA
ENDROOT
TORSDOF 0
ENDMDL
MODEL 3
REMARK VINA RESULT:      -3.4      3.404      3.783
REMARK  0 active torsions:
REMARK  status: ('A' for Active; 'I' for Inactive)
ROOT
HETATM    1  C1  UNL     1     -38.261  15.329  -3.621  1.00 20.00     0.136 A 
HETATM    2  C2  UNL     1     -37.672  16.528  -3.223  1.00 20.00     0.136 A 
HETATM    3  C3  UNL     1     -35.312  13.427  -4.171  1.00 20.00     0.083 A 
HETATM    4  C4  UNL     1     -34.261  15.564  -3.462  1.00 20.00     0.083 A 
HETATM    5  C5  UNL     1     -36.239  14.397  -3.878  1.00 20.00     0.092 A 
HETATM    6  C6  UNL     1     -35.632  15.630  -3.469  1.00 20.00     0.092 A 
HETATM    7  N7  UNL     1     -37.580  14.207  -3.967  1.00 20.00    -0.257 NA
HETATM    8  N8  UNL     1     -36.334  16.741  -3.127  1.00 20.00    -0.257 NA
HETATM    9  S9  UNL     1     -33.709  14.009  -3.950  1.00 20.00    -0.109 SA
ENDROOT
TORSDOF 0
ENDMDL
MODEL 4
REMARK VINA RESULT:      -3.4      2.348      3.174
REMARK  0 active torsions:
REMARK  status: ('A' for Active; 'I' for Inactive)
ROOT
HETATM    1  C1  UNL     1     -32.882  14.925  -3.637  1.00 20.00     0.136 A 
HETATM    2  C2  UNL     1     -33.403  13.642  -3.795  1.00 20.00     0.136 A 
HETATM    3  C3  UNL     1     -35.923  16.761  -3.694  1.00 20.00     0.083 A 
HETATM    4  C4  UNL     1     -36.852  14.473  -3.976  1.00 20.00     0.083 A 
HETATM    5  C5  UNL     1     -34.947  15.795  -3.710  1.00 20.00     0.092 A 
HETATM    6  C6  UNL     1     -35.483  14.475  -3.874  1.00 20.00     0.092 A 
HETATM    7  N7  UNL     1     -33.622  16.063  -3.586  1.00 20.00    -0.257 NA
HETATM    8  N8  UNL     1     -34.723  13.351  -3.921  1.00 20.00    -0.257 NA
HETATM    9  S9  UNL     1     -37.487  16.069  -3.876  1.00 20.00    -0.109 SA
ENDROOT
TORSDOF 0
ENDMDL
MODEL 5
REMARK VINA RESULT:      -3.4      3.436      4.314
REMARK  0 active torsions:
REMARK  status: ('A' for Active; 'I' for Inactive)
ROOT
HETATM    1  C1  UNL     1     -37.738  16.558  -3.240  1.00 20.00     0.136 A 
HETATM    2  C2  UNL     1     -38.315  15.347  -3.622  1.00 20.00     0.136 A 
HETATM    3  C3  UNL     1     -34.316  15.633  -3.475  1.00 20.00     0.083 A 
HETATM    4  C4  UNL     1     -35.343  13.475  -4.154  1.00 20.00     0.083 A 
HETATM    5  C5  UNL     1     -35.689  15.682  -3.481  1.00 20.00     0.092 A 
HETATM    6  C6  UNL     1     -36.281  14.436  -3.872  1.00 20.00     0.092 A 
HETATM    7  N7  UNL     1     -36.403  16.788  -3.151  1.00 20.00    -0.257 NA
HETATM    8  N8  UNL     1     -37.620  14.229  -3.956  1.00 20.00    -0.257 NA
HETATM    9  S9  UNL     1     -33.746  14.080  -3.945  1.00 20.00    -0.109 SA
ENDROOT
TORSDOF 0
ENDMDL
MODEL 6
REMARK VINA RESULT:      -3.4      2.832      3.277
REMARK  0 active torsions:
REMARK  status: ('A' for Active; 'I' for Inactive)
ROOT
HETATM    1  C1  UNL     1     -35.162  13.363  -4.366  1.00 20.00     0.136 A 
HETATM    2  C2  UNL     1     -33.793  13.530  -4.162  1.00 20.00     0.136 A 
HETATM    3  C3  UNL     1     -36.302  16.422  -2.966  1.00 20.00     0.083 A 
HETATM    4  C4  UNL     1     -33.862  16.721  -2.601  1.00 20.00     0.083 A 
HETATM    5  C5  UNL     1     -35.567  15.356  -3.424  1.00 20.00     0.092 A 
HETATM    6  C6  UNL     1     -34.159  15.529  -3.213  1.00 20.00     0.092 A 
HETATM    7  N7  UNL     1     -36.116  14.261  -4.011  1.00 20.00    -0.257 NA
HETATM    8  N8  UNL     1     -33.223  14.616  -3.578  1.00 20.00    -0.257 NA
HETATM    9  S9  UNL     1     -35.287  17.631  -2.282  1.00 20.00    -0.109 SA
ENDROOT
TORSDOF 0
ENDMDL
MODEL 7
REMARK VINA RESULT:      -3.3      2.288      2.991
REMARK  0 active torsions:
REMARK  status: ('A' for Active; 'I' for Inactive)
ROOT
HETATM    1  C1  UNL     1     -34.672  13.303  -4.665  1.00 20.00     0.136 A 
HETATM    2  C2  UNL     1     -34.845  14.001  -5.859  1.00 20.00     0.136 A 
HETATM    3  C3  UNL     1     -33.992  16.051  -2.518  1.00 20.00     0.083 A 
HETATM    4  C4  UNL     1     -34.301  17.296  -4.646  1.00 20.00     0.083 A 
HETATM    5  C5  UNL     1     -34.279  15.222  -3.575  1.00 20.00     0.092 A 
HETATM    6  C6  UNL     1     -34.457  15.941  -4.803  1.00 20.00     0.092 A 
HETATM    7  N7  UNL     1     -34.381  13.873  -3.467  1.00 20.00    -0.257 NA
HETATM    8  N8  UNL     1     -34.748  15.349  -5.990  1.00 20.00    -0.257 NA
HETATM    9  S9  UNL     1     -33.939  17.697  -3.012  1.00 20.00    -0.109 SA
ENDROOT
TORSDOF 0
ENDMDL
MODEL 8
REMARK VINA RESULT:      -3.3      2.295      3.220
REMARK  0 active torsions:
REMARK  status: ('A' for Active; 'I' for Inactive)
ROOT
HETATM    1  C1  UNL     1     -34.818  14.016  -5.850  1.00 20.00     0.136 A 
HETATM    2  C2  UNL     1     -34.673  13.322  -4.649  1.00 20.00     0.136 A 
HETATM    3  C3  UNL     1     -34.264  17.312  -4.646  1.00 20.00     0.083 A 
HETATM    4  C4  UNL     1     -34.006  16.076  -2.506  1.00 20.00     0.083 A 
HETATM    5  C5  UNL     1     -34.429  15.957  -4.798  1.00 20.00     0.092 A 
HETATM    6  C6  UNL     1     -34.281  15.244  -3.563  1.00 20.00     0.092 A 
HETATM    7  N7  UNL     1     -34.704  15.362  -5.987  1.00 20.00    -0.257 NA
HETATM    8  N8  UNL     1     -34.398  13.896  -3.449  1.00 20.00    -0.257 NA
HETATM    9  S9  UNL     1     -33.928  17.719  -3.009  1.00 20.00    -0.109 SA
ENDROOT
TORSDOF 0
ENDMDL
MODEL 9
REMARK VINA RESULT:      -3.3      2.113      3.550
REMARK  0 active torsions:
REMARK  status: ('A' for Active; 'I' for Inactive)
ROOT
HETATM    1  C1  UNL     1     -33.686  17.973  -5.972  1.00 20.00     0.136 A 
HETATM    2  C2  UNL     1     -34.450  17.301  -6.925  1.00 20.00     0.136 A 
HETATM    3  C3  UNL     1     -33.165  15.291  -3.701  1.00 20.00     0.083 A 
HETATM    4  C4  UNL     1     -34.527  14.094  -5.399  1.00 20.00     0.083 A 
HETATM    5  C5  UNL     1     -33.533  16.102  -4.746  1.00 20.00     0.092 A 
HETATM    6  C6  UNL     1     -34.320  15.411  -5.726  1.00 20.00     0.092 A 
HETATM    7  N7  UNL     1     -33.190  17.412  -4.839  1.00 20.00    -0.257 NA
HETATM    8  N8  UNL     1     -34.805  15.992  -6.853  1.00 20.00    -0.257 NA
HETATM    9  S9  UNL     1     -33.771  13.695  -3.906  1.00 20.00    -0.109 SA
ENDROOT
TORSDOF 0
ENDMDL
