MODEL 1
REMARK VINA RESULT:      -5.0      0.000      0.000
REMARK  2 active torsions:
REMARK  status: ('A' for Active; 'I' for Inactive)
REMARK    1  A    between atoms: C7_7  and  C9_9 
REMARK    2  A    between atoms: C8_8  and  C10_10 
ROOT
HETATM    1  C1  UNL     1     -33.991  14.409  -4.101  1.00 20.00     0.131 C 
HETATM    2  C2  UNL     1     -34.815  14.680  -5.339  1.00 20.00     0.083 C 
HETATM    3  C6  UNL     1     -33.092  16.301  -5.064  1.00 20.00     0.018 C 
HETATM    4  C7  UNL     1     -33.292  15.685  -3.672  1.00 20.00     0.060 C 
HETATM    5  C8  UNL     1     -34.580  16.201  -5.440  1.00 20.00    -0.002 C 
HETATM    6  O11 UNL     1     -33.919  13.336  -3.523  1.00 20.00    -0.298 OA
ENDROOT
BRANCH   4   7
HETATM    7  C9  UNL     1     -34.321  16.651  -3.062  1.00 20.00     0.001 C 
HETATM    8  C4  UNL     1     -33.829  18.007  -2.568  1.00 20.00     0.006 C 
HETATM    9  C3  UNL     1     -33.595  17.848  -1.071  1.00 20.00     0.001 C 
HETATM   10  C5  UNL     1     -34.611  16.803  -0.623  1.00 20.00     0.005 C 
HETATM   11  C10 UNL     1     -34.820  15.877  -1.816  1.00 20.00    -0.005 C 
ENDBRANCH   4   7
TORSDOF 2
ENDMDL
MODEL 2
REMARK VINA RESULT:      -4.9      1.832      3.938
REMARK  2 active torsions:
REMARK  status: ('A' for Active; 'I' for Inactive)
REMARK    1  A    between atoms: C7_7  and  C9_9 
REMARK    2  A    between atoms: C8_8  and  C10_10 
ROOT
HETATM    1  C1  UNL     1     -34.482  13.551  -4.242  1.00 20.00     0.131 C 
HETATM    2  C2  UNL     1     -33.130  13.617  -3.570  1.00 20.00     0.083 C 
HETATM    3  C6  UNL     1     -34.332  15.658  -3.317  1.00 20.00     0.018 C 
HETATM    4  C7  UNL     1     -34.974  14.959  -4.523  1.00 20.00     0.060 C 
HETATM    5  C8  UNL     1     -32.918  15.144  -3.636  1.00 20.00    -0.002 C 
HETATM    6  O11 UNL     1     -35.075  12.524  -4.534  1.00 20.00    -0.298 OA
ENDROOT
BRANCH   4   7
HETATM    7  C9  UNL     1     -34.164  15.559  -5.684  1.00 20.00     0.001 C 
HETATM    8  C4  UNL     1     -34.352  17.039  -6.001  1.00 20.00     0.006 C 
HETATM    9  C3  UNL     1     -35.374  17.100  -7.130  1.00 20.00     0.001 C 
HETATM   10  C5  UNL     1     -35.165  15.811  -7.918  1.00 20.00     0.005 C 
HETATM   11  C10 UNL     1     -34.687  14.771  -6.911  1.00 20.00    -0.005 C 
ENDBRANCH   4   7
TORSDOF 2
ENDMDL
MODEL 3
REMARK VINA RESULT:      -4.7      1.559      1.908
REMARK  2 active torsions:
REMARK  status: ('A' for Active; 'I' for Inactive)
REMARK    1  A    between atoms: C7_7  and  C9_9 
REMARK    2  A    between atoms: C8_8  and  C10_10 
ROOT
HETATM    1  C1  UNL     1     -36.206  14.336  -4.206  1.00 20.00     0.131 C 
HETATM    2  C2  UNL     1     -35.720  14.497  -5.628  1.00 20.00     0.083 C 
HETATM    3  C6  UNL     1     -33.922  14.023  -4.140  1.00 20.00     0.018 C 
HETATM    4  C7  UNL     1     -35.050  14.565  -3.250  1.00 20.00     0.060 C 
HETATM    5  C8  UNL     1     -34.273  14.937  -5.326  1.00 20.00    -0.002 C 
HETATM    6  O11 UNL     1     -37.355  14.084  -3.877  1.00 20.00    -0.298 OA
ENDROOT
BRANCH   4   7
HETATM    7  C9  UNL     1     -34.708  16.064  -3.213  1.00 20.00     0.001 C 
HETATM    8  C4  UNL     1     -33.557  16.517  -2.321  1.00 20.00     0.006 C 
HETATM    9  C3  UNL     1     -34.194  16.976  -1.015  1.00 20.00     0.001 C 
HETATM   10  C5  UNL     1     -35.568  17.506  -1.414  1.00 20.00     0.005 C 
HETATM   11  C10 UNL     1     -35.998  16.695  -2.631  1.00 20.00    -0.005 C 
ENDBRANCH   4   7
TORSDOF 2
ENDMDL
MODEL 4
REMARK VINA RESULT:      -4.6      1.753      3.590
REMARK  2 active torsions:
REMARK  status: ('A' for Active; 'I' for Inactive)
REMARK    1  A    between atoms: C7_7  and  C9_9 
REMARK    2  A    between atoms: C8_8  and  C10_10 
ROOT
HETATM    1  C1  UNL     1     -34.669  13.647  -3.977  1.00 20.00     0.131 C 
HETATM    2  C2  UNL     1     -33.213  13.965  -3.721  1.00 20.00     0.083 C 
HETATM    3  C6  UNL     1     -34.652  15.512  -2.622  1.00 20.00     0.018 C 
HETATM    4  C7  UNL     1     -35.505  14.889  -3.735  1.00 20.00     0.060 C 
HETATM    5  C8  UNL     1     -33.356  15.476  -3.448  1.00 20.00    -0.002 C 
HETATM    6  O11 UNL     1     -35.100  12.565  -4.344  1.00 20.00    -0.298 OA
ENDROOT
BRANCH   4   7
HETATM    7  C9  UNL     1     -35.279  15.888  -4.882  1.00 20.00     0.001 C 
HETATM    8  C4  UNL     1     -35.953  17.253  -4.790  1.00 20.00     0.006 C 
HETATM    9  C3  UNL     1     -37.241  17.139  -5.596  1.00 20.00     0.001 C 
HETATM   10  C5  UNL     1     -36.931  16.123  -6.690  1.00 20.00     0.005 C 
HETATM   11  C10 UNL     1     -35.906  15.162  -6.098  1.00 20.00    -0.005 C 
ENDBRANCH   4   7
TORSDOF 2
ENDMDL
MODEL 5
REMARK VINA RESULT:      -4.4     11.755     13.002
REMARK  2 active torsions:
REMARK  status: ('A' for Active; 'I' for Inactive)
REMARK    1  A    between atoms: C7_7  and  C9_9 
REMARK    2  A    between atoms: C8_8  and  C10_10 
ROOT
HETATM    1  C1  UNL     1     -35.325   5.320   4.581  1.00 20.00     0.131 C 
HETATM    2  C2  UNL     1     -34.993   4.182   5.519  1.00 20.00     0.083 C 
HETATM    3  C6  UNL     1     -34.212   6.267   6.364  1.00 20.00     0.018 C 
HETATM    4  C7  UNL     1     -34.395   6.486   4.856  1.00 20.00     0.060 C 
HETATM    5  C8  UNL     1     -33.761   4.806   6.205  1.00 20.00    -0.002 C 
HETATM    6  O11 UNL     1     -36.191   5.294   3.720  1.00 20.00    -0.298 OA
ENDROOT
BRANCH   4   7
HETATM    7  C9  UNL     1     -32.989   6.152   4.331  1.00 20.00     0.001 C 
HETATM    8  C4  UNL     1     -31.939   7.258   4.337  1.00 20.00     0.006 C 
HETATM    9  C3  UNL     1     -31.951   7.855   2.935  1.00 20.00     0.001 C 
HETATM   10  C5  UNL     1     -32.346   6.700   2.020  1.00 20.00     0.005 C 
HETATM   11  C10 UNL     1     -33.253   5.796   2.847  1.00 20.00    -0.005 C 
ENDBRANCH   4   7
TORSDOF 2
ENDMDL
MODEL 6
REMARK VINA RESULT:      -4.3      1.980      4.387
REMARK  2 active torsions:
REMARK  status: ('A' for Active; 'I' for Inactive)
REMARK    1  A    between atoms: C7_7  and  C9_9 
REMARK    2  A    between atoms: C8_8  and  C10_10 
ROOT
HETATM    1  C1  UNL     1     -33.712  17.306  -3.597  1.00 20.00     0.131 C 
HETATM    2  C2  UNL     1     -34.260  16.648  -2.351  1.00 20.00     0.083 C 
HETATM    3  C6  UNL     1     -33.002  15.114  -3.668  1.00 20.00     0.018 C 
HETATM    4  C7  UNL     1     -33.397  16.242  -4.631  1.00 20.00     0.060 C 
HETATM    5  C8  UNL     1     -34.311  15.195  -2.865  1.00 20.00    -0.002 C 
HETATM    6  O11 UNL     1     -33.569  18.509  -3.754  1.00 20.00    -0.298 OA
ENDROOT
BRANCH   4   7
HETATM    7  C9  UNL     1     -34.710  15.693  -5.214  1.00 20.00     0.001 C 
HETATM    8  C4  UNL     1     -34.642  14.443  -6.085  1.00 20.00     0.006 C 
HETATM    9  C3  UNL     1     -34.604  14.937  -7.526  1.00 20.00     0.001 C 
HETATM   10  C5  UNL     1     -35.393  16.243  -7.513  1.00 20.00     0.005 C 
HETATM   11  C10 UNL     1     -35.189  16.848  -6.128  1.00 20.00    -0.005 C 
ENDBRANCH   4   7
TORSDOF 2
ENDMDL
MODEL 7
REMARK VINA RESULT:      -4.3      2.136      4.089
REMARK  2 active torsions:
REMARK  status: ('A' for Active; 'I' for Inactive)
REMARK    1  A    between atoms: C7_7  and  C9_9 
REMARK    2  A    between atoms: C8_8  and  C10_10 
ROOT
HETATM    1  C1  UNL     1     -35.818  17.474  -2.644  1.00 20.00     0.131 C 
HETATM    2  C2  UNL     1     -35.721  17.568  -1.138  1.00 20.00     0.083 C 
HETATM    3  C6  UNL     1     -33.601  17.117  -2.124  1.00 20.00     0.018 C 
HETATM    4  C7  UNL     1     -34.633  16.691  -3.177  1.00 20.00     0.060 C 
HETATM    5  C8  UNL     1     -34.475  16.683  -0.935  1.00 20.00    -0.002 C 
HETATM    6  O11 UNL     1     -36.723  17.937  -3.322  1.00 20.00    -0.298 OA
ENDROOT
BRANCH   4   7
HETATM    7  C9  UNL     1     -34.811  15.202  -2.837  1.00 20.00     0.001 C 
HETATM    8  C4  UNL     1     -33.724  14.229  -3.281  1.00 20.00     0.006 C 
HETATM    9  C3  UNL     1     -34.204  13.637  -4.600  1.00 20.00     0.001 C 
HETATM   10  C5  UNL     1     -35.726  13.634  -4.499  1.00 20.00     0.005 C 
HETATM   11  C10 UNL     1     -36.094  14.824  -3.619  1.00 20.00    -0.005 C 
ENDBRANCH   4   7
TORSDOF 2
ENDMDL
MODEL 8
REMARK VINA RESULT:      -4.2      1.803      2.701
REMARK  2 active torsions:
REMARK  status: ('A' for Active; 'I' for Inactive)
REMARK    1  A    between atoms: C7_7  and  C9_9 
REMARK    2  A    between atoms: C8_8  and  C10_10 
ROOT
HETATM    1  C1  UNL     1     -33.790  16.869  -4.202  1.00 20.00     0.131 C 
HETATM    2  C2  UNL     1     -33.412  15.407  -4.270  1.00 20.00     0.083 C 
HETATM    3  C6  UNL     1     -35.445  15.730  -3.072  1.00 20.00     0.018 C 
HETATM    4  C7  UNL     1     -34.736  17.091  -3.038  1.00 20.00     0.060 C 
HETATM    5  C8  UNL     1     -34.135  14.926  -2.996  1.00 20.00    -0.002 C 
HETATM    6  O11 UNL     1     -33.377  17.740  -4.953  1.00 20.00    -0.298 OA
ENDROOT
BRANCH   4   7
HETATM    7  C9  UNL     1     -33.954  16.989  -1.718  1.00 20.00     0.001 C 
HETATM    8  C4  UNL     1     -34.738  16.726  -0.436  1.00 20.00     0.006 C 
HETATM    9  C3  UNL     1     -34.972  18.091   0.200  1.00 20.00     0.001 C 
HETATM   10  C5  UNL     1     -33.767  18.928  -0.214  1.00 20.00     0.005 C 
HETATM   11  C10 UNL     1     -33.333  18.402  -1.578  1.00 20.00    -0.005 C 
ENDBRANCH   4   7
TORSDOF 2
ENDMDL
MODEL 9
REMARK VINA RESULT:      -4.2      1.650      2.479
REMARK  2 active torsions:
REMARK  status: ('A' for Active; 'I' for Inactive)
REMARK    1  A    between atoms: C7_7  and  C9_9 
REMARK    2  A    between atoms: C8_8  and  C10_10 
ROOT
HETATM    1  C1  UNL     1     -34.955  15.628  -5.354  1.00 20.00     0.131 C 
HETATM    2  C2  UNL     1     -34.509  14.184  -5.361  1.00 20.00     0.083 C 
HETATM    3  C6  UNL     1     -36.109  14.596  -3.645  1.00 20.00     0.018 C 
HETATM    4  C7  UNL     1     -35.524  15.972  -3.990  1.00 20.00     0.060 C 
HETATM    5  C8  UNL     1     -34.781  13.855  -3.879  1.00 20.00    -0.002 C 
HETATM    6  O11 UNL     1     -34.851  16.402  -6.292  1.00 20.00    -0.298 OA
ENDROOT
BRANCH   4   7
HETATM    7  C9  UNL     1     -34.378  16.076  -2.970  1.00 20.00     0.001 C 
HETATM    8  C4  UNL     1     -34.739  16.175  -1.492  1.00 20.00     0.006 C 
HETATM    9  C3  UNL     1     -34.721  17.661  -1.155  1.00 20.00     0.001 C 
HETATM   10  C5  UNL     1     -33.674  18.262  -2.088  1.00 20.00     0.005 C 
HETATM   11  C10 UNL     1     -33.698  17.414  -3.354  1.00 20.00    -0.005 C 
ENDBRANCH   4   7
TORSDOF 2
ENDMDL
