MODEL 1
REMARK VINA RESULT:      -4.6      0.000      0.000
REMARK  2 active torsions:
REMARK  status: ('A' for Active; 'I' for Inactive)
REMARK    1  A    between atoms: C1_1  and  C4_4 
REMARK    2  A    between atoms: C1_1  and  C5_5 
ROOT
HETATM    1  C2  UNL     1     -35.195   4.756   6.318  1.00 20.00     0.055 A 
HETATM    2  C3  UNL     1     -34.603   3.774   5.350  1.00 20.00     0.055 A 
HETATM    3  C4  UNL     1     -34.916   5.174   4.900  1.00 20.00     0.164 A 
HETATM    4  F7  UNL     1     -36.036   5.304   4.084  1.00 20.00    -0.235 F 
ENDROOT
BRANCH   3   5
HETATM    5  C1  UNL     1     -33.824   6.110   4.618  1.00 20.00     0.179 C 
HETATM    6  O6  UNL     1     -33.399   6.859   5.495  1.00 20.00    -0.293 OA
BRANCH   5   7
HETATM    7  C5  UNL     1     -33.283   6.080   3.206  1.00 20.00     0.196 C 
HETATM    8 CL8  UNL     1     -31.992   7.274   3.005  1.00 20.00    -0.122 Cl
ENDBRANCH   5   7
ENDBRANCH   3   5
TORSDOF 2
ENDMDL
MODEL 2
REMARK VINA RESULT:      -4.5      1.731      1.893
REMARK  2 active torsions:
REMARK  status: ('A' for Active; 'I' for Inactive)
REMARK    1  A    between atoms: C1_1  and  C4_4 
REMARK    2  A    between atoms: C1_1  and  C5_5 
ROOT
HETATM    1  C2  UNL     1     -34.237   4.325   5.472  1.00 20.00     0.055 A 
HETATM    2  C3  UNL     1     -35.481   4.948   4.910  1.00 20.00     0.055 A 
HETATM    3  C4  UNL     1     -34.182   5.703   4.873  1.00 20.00     0.164 A 
HETATM    4  F7  UNL     1     -34.071   6.748   5.786  1.00 20.00    -0.235 F 
ENDROOT
BRANCH   3   5
HETATM    5  C1  UNL     1     -33.499   5.915   3.594  1.00 20.00     0.179 C 
HETATM    6  O6  UNL     1     -33.941   5.421   2.558  1.00 20.00    -0.293 OA
BRANCH   5   7
HETATM    7  C5  UNL     1     -32.247   6.761   3.651  1.00 20.00     0.196 C 
HETATM    8 CL8  UNL     1     -32.181   7.877   2.279  1.00 20.00    -0.122 Cl
ENDBRANCH   5   7
ENDBRANCH   3   5
TORSDOF 2
ENDMDL
MODEL 3
REMARK VINA RESULT:      -4.4      2.331      3.450
REMARK  2 active torsions:
REMARK  status: ('A' for Active; 'I' for Inactive)
REMARK    1  A    between atoms: C1_1  and  C4_4 
REMARK    2  A    between atoms: C1_1  and  C5_5 
ROOT
HETATM    1  C2  UNL     1     -31.954   6.045   3.168  1.00 20.00     0.055 A 
HETATM    2  C3  UNL     1     -32.759   7.268   2.842  1.00 20.00     0.055 A 
HETATM    3  C4  UNL     1     -33.455   6.001   3.254  1.00 20.00     0.164 A 
HETATM    4  F7  UNL     1     -34.093   5.307   2.229  1.00 20.00    -0.235 F 
ENDROOT
BRANCH   3   5
HETATM    5  C1  UNL     1     -34.107   5.920   4.564  1.00 20.00     0.179 C 
HETATM    6  O6  UNL     1     -33.742   6.641   5.491  1.00 20.00    -0.293 OA
BRANCH   5   7
HETATM    7  C5  UNL     1     -35.228   4.912   4.678  1.00 20.00     0.196 C 
HETATM    8 CL8  UNL     1     -35.210   4.132   6.267  1.00 20.00    -0.122 Cl
ENDBRANCH   5   7
ENDBRANCH   3   5
TORSDOF 2
ENDMDL
MODEL 4
REMARK VINA RESULT:      -4.3      2.091      3.046
REMARK  2 active torsions:
REMARK  status: ('A' for Active; 'I' for Inactive)
REMARK    1  A    between atoms: C1_1  and  C4_4 
REMARK    2  A    between atoms: C1_1  and  C5_5 
ROOT
HETATM    1  C2  UNL     1     -33.971   5.265   2.844  1.00 20.00     0.055 A 
HETATM    2  C3  UNL     1     -33.953   6.493   3.705  1.00 20.00     0.055 A 
HETATM    3  C4  UNL     1     -35.005   5.440   3.922  1.00 20.00     0.164 A 
HETATM    4  F7  UNL     1     -36.282   5.770   3.477  1.00 20.00    -0.235 F 
ENDROOT
BRANCH   3   5
HETATM    5  C1  UNL     1     -34.957   4.598   5.120  1.00 20.00     0.179 C 
HETATM    6  O6  UNL     1     -34.884   3.375   5.024  1.00 20.00    -0.293 OA
BRANCH   5   7
HETATM    7  C5  UNL     1     -35.006   5.334   6.441  1.00 20.00     0.196 C 
HETATM    8 CL8  UNL     1     -33.778   6.607   6.495  1.00 20.00    -0.122 Cl
ENDBRANCH   5   7
ENDBRANCH   3   5
TORSDOF 2
ENDMDL
MODEL 5
REMARK VINA RESULT:      -4.2     12.525     12.921
REMARK  2 active torsions:
REMARK  status: ('A' for Active; 'I' for Inactive)
REMARK    1  A    between atoms: C1_1  and  C4_4 
REMARK    2  A    between atoms: C1_1  and  C5_5 
ROOT
HETATM    1  C2  UNL     1     -34.056  15.333  -2.954  1.00 20.00     0.055 A 
HETATM    2  C3  UNL     1     -33.287  15.761  -4.169  1.00 20.00     0.055 A 
HETATM    3  C4  UNL     1     -33.578  14.304  -3.940  1.00 20.00     0.164 A 
HETATM    4  F7  UNL     1     -32.493  13.536  -3.524  1.00 20.00    -0.235 F 
ENDROOT
BRANCH   3   5
HETATM    5  C1  UNL     1     -34.543  13.609  -4.796  1.00 20.00     0.179 C 
HETATM    6  O6  UNL     1     -35.076  12.567  -4.421  1.00 20.00    -0.293 OA
BRANCH   5   7
HETATM    7  C5  UNL     1     -34.820  14.258  -6.133  1.00 20.00     0.196 C 
HETATM    8 CL8  UNL     1     -36.402  15.051  -6.129  1.00 20.00    -0.122 Cl
ENDBRANCH   5   7
ENDBRANCH   3   5
TORSDOF 2
ENDMDL
MODEL 6
REMARK VINA RESULT:      -4.2      2.735      3.657
REMARK  2 active torsions:
REMARK  status: ('A' for Active; 'I' for Inactive)
REMARK    1  A    between atoms: C1_1  and  C4_4 
REMARK    2  A    between atoms: C1_1  and  C5_5 
ROOT
HETATM    1  C2  UNL     1     -32.741   7.372   2.955  1.00 20.00     0.055 A 
HETATM    2  C3  UNL     1     -31.929   6.149   3.265  1.00 20.00     0.055 A 
HETATM    3  C4  UNL     1     -33.282   6.331   3.896  1.00 20.00     0.164 A 
HETATM    4  F7  UNL     1     -33.272   6.680   5.243  1.00 20.00    -0.235 F 
ENDROOT
BRANCH   3   5
HETATM    5  C1  UNL     1     -34.400   5.481   3.478  1.00 20.00     0.179 C 
HETATM    6  O6  UNL     1     -34.472   5.062   2.325  1.00 20.00    -0.293 OA
BRANCH   5   7
HETATM    7  C5  UNL     1     -35.425   5.174   4.547  1.00 20.00     0.196 C 
HETATM    8 CL8  UNL     1     -34.811   3.952   5.671  1.00 20.00    -0.122 Cl
ENDBRANCH   5   7
ENDBRANCH   3   5
TORSDOF 2
ENDMDL
MODEL 7
REMARK VINA RESULT:      -4.1      2.891      3.897
REMARK  2 active torsions:
REMARK  status: ('A' for Active; 'I' for Inactive)
REMARK    1  A    between atoms: C1_1  and  C4_4 
REMARK    2  A    between atoms: C1_1  and  C5_5 
ROOT
HETATM    1  C2  UNL     1     -31.727   7.572   3.820  1.00 20.00     0.055 A 
HETATM    2  C3  UNL     1     -32.346   7.561   2.454  1.00 20.00     0.055 A 
HETATM    3  C4  UNL     1     -32.487   6.362   3.350  1.00 20.00     0.164 A 
HETATM    4  F7  UNL     1     -31.706   5.263   3.005  1.00 20.00    -0.235 F 
ENDROOT
BRANCH   3   5
HETATM    5  C1  UNL     1     -33.788   6.044   3.942  1.00 20.00     0.179 C 
HETATM    6  O6  UNL     1     -34.714   5.642   3.241  1.00 20.00    -0.293 OA
BRANCH   5   7
HETATM    7  C5  UNL     1     -33.896   6.244   5.438  1.00 20.00     0.196 C 
HETATM    8 CL8  UNL     1     -34.879   4.969   6.172  1.00 20.00    -0.122 Cl
ENDBRANCH   5   7
ENDBRANCH   3   5
TORSDOF 2
ENDMDL
MODEL 8
REMARK VINA RESULT:      -4.0     12.317     12.870
REMARK  2 active torsions:
REMARK  status: ('A' for Active; 'I' for Inactive)
REMARK    1  A    between atoms: C1_1  and  C4_4 
REMARK    2  A    between atoms: C1_1  and  C5_5 
ROOT
HETATM    1  C2  UNL     1     -34.697  13.671  -5.434  1.00 20.00     0.055 A 
HETATM    2  C3  UNL     1     -35.362  13.689  -4.089  1.00 20.00     0.055 A 
HETATM    3  C4  UNL     1     -33.963  14.217  -4.240  1.00 20.00     0.164 A 
HETATM    4  F7  UNL     1     -32.957  13.400  -3.732  1.00 20.00    -0.235 F 
ENDROOT
BRANCH   3   5
HETATM    5  C1  UNL     1     -33.712  15.657  -4.135  1.00 20.00     0.179 C 
HETATM    6  O6  UNL     1     -32.733  16.163  -4.679  1.00 20.00    -0.293 OA
BRANCH   5   7
HETATM    7  C5  UNL     1     -34.723  16.442  -3.330  1.00 20.00     0.196 C 
HETATM    8 CL8  UNL     1     -34.500  16.159  -1.597  1.00 20.00    -0.122 Cl
ENDBRANCH   5   7
ENDBRANCH   3   5
TORSDOF 2
ENDMDL
MODEL 9
REMARK VINA RESULT:      -4.0      1.989      2.068
REMARK  2 active torsions:
REMARK  status: ('A' for Active; 'I' for Inactive)
REMARK    1  A    between atoms: C1_1  and  C4_4 
REMARK    2  A    between atoms: C1_1  and  C5_5 
ROOT
HETATM    1  C2  UNL     1     -33.823   4.433   6.447  1.00 20.00     0.055 A 
HETATM    2  C3  UNL     1     -35.274   4.695   6.167  1.00 20.00     0.055 A 
HETATM    3  C4  UNL     1     -34.251   5.757   5.874  1.00 20.00     0.164 A 
HETATM    4  F7  UNL     1     -34.229   6.827   6.764  1.00 20.00    -0.235 F 
ENDROOT
BRANCH   3   5
HETATM    5  C1  UNL     1     -33.923   6.091   4.486  1.00 20.00     0.179 C 
HETATM    6  O6  UNL     1     -32.885   6.692   4.215  1.00 20.00    -0.293 OA
BRANCH   5   7
HETATM    7  C5  UNL     1     -34.932   5.651   3.449  1.00 20.00     0.196 C 
HETATM    8 CL8  UNL     1     -34.119   4.957   2.039  1.00 20.00    -0.122 Cl
ENDBRANCH   5   7
ENDBRANCH   3   5
TORSDOF 2
ENDMDL
