MODEL 1
REMARK VINA RESULT:      -3.8      0.000      0.000
REMARK  0 active torsions:
REMARK  status: ('A' for Active; 'I' for Inactive)
ROOT
HETATM    1  C1  UNL     1     -34.663   5.269   3.572  1.00 20.00     0.064 C 
HETATM    2  C2  UNL     1     -34.015   6.618   3.862  1.00 20.00     0.170 C 
HETATM    3  C3  UNL     1     -33.936   6.371   6.218  1.00 20.00     0.205 C 
HETATM    4  C4  UNL     1     -35.337   4.727   4.794  1.00 20.00     0.258 A 
HETATM    5  C5  UNL     1     -34.944   5.269   6.141  1.00 20.00     0.277 A 
HETATM    6  N6  UNL     1     -34.533   3.937   5.730  1.00 20.00     0.099 N 
HETATM    7  O7  UNL     1     -33.173   6.505   5.011  1.00 20.00    -0.389 OA
HETATM    8  H16 UNL     1     -35.118   3.234   6.182  1.00 20.00     0.317 HD
ENDROOT
TORSDOF 0
ENDMDL
MODEL 2
REMARK VINA RESULT:      -3.6      1.348      2.219
REMARK  0 active torsions:
REMARK  status: ('A' for Active; 'I' for Inactive)
ROOT
HETATM    1  C1  UNL     1     -35.156   4.435   5.918  1.00 20.00     0.064 C 
HETATM    2  C2  UNL     1     -33.993   5.253   6.468  1.00 20.00     0.170 C 
HETATM    3  C3  UNL     1     -33.578   6.487   4.487  1.00 20.00     0.205 C 
HETATM    4  C4  UNL     1     -35.140   4.425   4.421  1.00 20.00     0.258 A 
HETATM    5  C5  UNL     1     -34.360   5.488   3.696  1.00 20.00     0.277 A 
HETATM    6  N6  UNL     1     -35.813   5.521   3.719  1.00 20.00     0.099 N 
HETATM    7  O7  UNL     1     -33.990   6.546   5.860  1.00 20.00    -0.389 OA
HETATM    8  H16 UNL     1     -36.185   5.185   2.830  1.00 20.00     0.317 HD
ENDROOT
TORSDOF 0
ENDMDL
MODEL 3
REMARK VINA RESULT:      -3.6      1.623      2.784
REMARK  0 active torsions:
REMARK  status: ('A' for Active; 'I' for Inactive)
ROOT
HETATM    1  C1  UNL     1     -33.766   6.495   5.882  1.00 20.00     0.064 C 
HETATM    2  C2  UNL     1     -34.672   5.435   6.497  1.00 20.00     0.170 C 
HETATM    3  C3  UNL     1     -35.162   4.301   4.474  1.00 20.00     0.205 C 
HETATM    4  C4  UNL     1     -34.010   6.617   4.410  1.00 20.00     0.258 A 
HETATM    5  C5  UNL     1     -34.694   5.486   3.691  1.00 20.00     0.277 A 
HETATM    6  N6  UNL     1     -33.271   5.723   3.514  1.00 20.00     0.099 N 
HETATM    7  O7  UNL     1     -34.543   4.215   5.765  1.00 20.00    -0.389 OA
HETATM    8  H16 UNL     1     -33.101   6.189   2.623  1.00 20.00     0.317 HD
ENDROOT
TORSDOF 0
ENDMDL
MODEL 4
REMARK VINA RESULT:      -3.5      9.199      9.790
REMARK  0 active torsions:
REMARK  status: ('A' for Active; 'I' for Inactive)
ROOT
HETATM    1  C1  UNL     1     -42.375   4.801  -2.683  1.00 20.00     0.064 C 
HETATM    2  C2  UNL     1     -42.428   6.323  -2.605  1.00 20.00     0.170 C 
HETATM    3  C3  UNL     1     -40.921   6.547  -0.789  1.00 20.00     0.205 C 
HETATM    4  C4  UNL     1     -41.871   4.218  -1.399  1.00 20.00     0.258 A 
HETATM    5  C5  UNL     1     -41.105   5.102  -0.451  1.00 20.00     0.277 A 
HETATM    6  N6  UNL     1     -40.422   4.081  -1.229  1.00 20.00     0.099 N 
HETATM    7  O7  UNL     1     -41.160   6.823  -2.176  1.00 20.00    -0.389 OA
HETATM    8  H16 UNL     1     -40.218   3.272  -0.642  1.00 20.00     0.317 HD
ENDROOT
TORSDOF 0
ENDMDL
MODEL 5
REMARK VINA RESULT:      -3.4     12.665     13.506
REMARK  0 active torsions:
REMARK  status: ('A' for Active; 'I' for Inactive)
ROOT
HETATM    1  C1  UNL     1     -34.355  14.806  -6.090  1.00 20.00     0.064 C 
HETATM    2  C2  UNL     1     -33.903  16.198  -5.663  1.00 20.00     0.170 C 
HETATM    3  C3  UNL     1     -33.284  15.606  -3.452  1.00 20.00     0.205 C 
HETATM    4  C4  UNL     1     -34.650  13.951  -4.897  1.00 20.00     0.258 A 
HETATM    5  C5  UNL     1     -34.079  14.345  -3.562  1.00 20.00     0.277 A 
HETATM    6  N6  UNL     1     -33.541  13.208  -4.292  1.00 20.00     0.099 N 
HETATM    7  O7  UNL     1     -32.829  16.083  -4.726  1.00 20.00    -0.389 OA
HETATM    8  H16 UNL     1     -33.887  12.338  -3.889  1.00 20.00     0.317 HD
ENDROOT
TORSDOF 0
ENDMDL
MODEL 6
REMARK VINA RESULT:      -3.4     12.940     13.720
REMARK  0 active torsions:
REMARK  status: ('A' for Active; 'I' for Inactive)
ROOT
HETATM    1  C1  UNL     1     -34.419  13.422  -4.626  1.00 20.00     0.064 C 
HETATM    2  C2  UNL     1     -35.019  14.196  -5.794  1.00 20.00     0.170 C 
HETATM    3  C3  UNL     1     -33.751  16.174  -5.479  1.00 20.00     0.205 C 
HETATM    4  C4  UNL     1     -33.779  14.351  -3.642  1.00 20.00     0.258 A 
HETATM    5  C5  UNL     1     -33.413  15.741  -4.088  1.00 20.00     0.277 A 
HETATM    6  N6  UNL     1     -32.383  14.739  -3.869  1.00 20.00     0.099 N 
HETATM    7  O7  UNL     1     -34.031  15.068  -6.347  1.00 20.00    -0.389 OA
HETATM    8  H16 UNL     1     -31.920  14.901  -2.975  1.00 20.00     0.317 HD
ENDROOT
TORSDOF 0
ENDMDL
MODEL 7
REMARK VINA RESULT:      -3.4      1.662      2.220
REMARK  0 active torsions:
REMARK  status: ('A' for Active; 'I' for Inactive)
ROOT
HETATM    1  C1  UNL     1     -33.932   6.520   3.971  1.00 20.00     0.064 C 
HETATM    2  C2  UNL     1     -34.713   5.325   3.435  1.00 20.00     0.170 C 
HETATM    3  C3  UNL     1     -35.145   4.326   5.540  1.00 20.00     0.205 C 
HETATM    4  C4  UNL     1     -33.423   6.248   5.353  1.00 20.00     0.258 A 
HETATM    5  C5  UNL     1     -34.063   5.150   6.160  1.00 20.00     0.277 A 
HETATM    6  N6  UNL     1     -34.307   6.546   6.483  1.00 20.00     0.099 N 
HETATM    7  O7  UNL     1     -35.715   4.947   4.380  1.00 20.00    -0.389 OA
HETATM    8  H16 UNL     1     -33.752   6.821   7.293  1.00 20.00     0.317 HD
ENDROOT
TORSDOF 0
ENDMDL
MODEL 8
REMARK VINA RESULT:      -3.4      1.696      2.341
REMARK  0 active torsions:
REMARK  status: ('A' for Active; 'I' for Inactive)
ROOT
HETATM    1  C1  UNL     1     -35.172   4.438   4.554  1.00 20.00     0.064 C 
HETATM    2  C2  UNL     1     -34.914   4.395   6.056  1.00 20.00     0.170 C 
HETATM    3  C3  UNL     1     -33.687   6.420   6.171  1.00 20.00     0.205 C 
HETATM    4  C4  UNL     1     -34.200   5.351   3.872  1.00 20.00     0.258 A 
HETATM    5  C5  UNL     1     -33.469   6.378   4.693  1.00 20.00     0.277 A 
HETATM    6  N6  UNL     1     -34.536   6.775   3.789  1.00 20.00     0.099 N 
HETATM    7  O7  UNL     1     -34.877   5.727   6.572  1.00 20.00    -0.389 OA
HETATM    8  H16 UNL     1     -34.142   7.173   2.936  1.00 20.00     0.317 HD
ENDROOT
TORSDOF 0
ENDMDL
MODEL 9
REMARK VINA RESULT:      -3.3     12.879     13.751
REMARK  0 active torsions:
REMARK  status: ('A' for Active; 'I' for Inactive)
ROOT
HETATM    1  C1  UNL     1     -33.271  15.684  -4.334  1.00 20.00     0.064 C 
HETATM    2  C2  UNL     1     -33.539  14.491  -3.423  1.00 20.00     0.170 C 
HETATM    3  C3  UNL     1     -34.806  13.242  -4.989  1.00 20.00     0.205 C 
HETATM    4  C4  UNL     1     -34.256  15.726  -5.461  1.00 20.00     0.258 A 
HETATM    5  C5  UNL     1     -35.014  14.474  -5.811  1.00 20.00     0.277 A 
HETATM    6  N6  UNL     1     -33.948  14.961  -6.672  1.00 20.00     0.099 N 
HETATM    7  O7  UNL     1     -33.606  13.298  -4.207  1.00 20.00    -0.389 OA
HETATM    8  H16 UNL     1     -34.344  15.430  -7.487  1.00 20.00     0.317 HD
ENDROOT
TORSDOF 0
ENDMDL
