MODEL 1
REMARK VINA RESULT:      -3.9      0.000      0.000
REMARK  1 active torsions:
REMARK  status: ('A' for Active; 'I' for Inactive)
REMARK    1  A    between atoms: C2_2  and  C6_6 
ROOT
HETATM    1  C1  UNL     1     -33.300   6.629   5.606  1.00 20.00    -0.021 C 
HETATM    2  C2  UNL     1     -33.012   6.539   4.293  1.00 20.00    -0.061 C 
HETATM    3  C3  UNL     1     -34.421   5.918   6.306  1.00 20.00     0.037 C 
HETATM    4  C4  UNL     1     -33.796   5.727   3.296  1.00 20.00     0.108 C 
HETATM    5  C5  UNL     1     -35.039   4.761   5.532  1.00 20.00     0.078 C 
HETATM    6  S7  UNL     1     -35.464   5.277   3.849  1.00 20.00    -0.165 SA
ENDROOT
BRANCH   2   7
HETATM    7  C6  UNL     1     -31.835   7.277   3.718  1.00 20.00     0.149 C 
HETATM    8 CL8  UNL     1     -32.367   7.963   2.185  1.00 20.00    -0.126 Cl
ENDBRANCH   2   7
TORSDOF 1
ENDMDL
MODEL 2
REMARK VINA RESULT:      -3.8      1.116      1.979
REMARK  1 active torsions:
REMARK  status: ('A' for Active; 'I' for Inactive)
REMARK    1  A    between atoms: C2_2  and  C6_6 
ROOT
HETATM    1  C1  UNL     1     -33.471   5.848   2.946  1.00 20.00    -0.021 C 
HETATM    2  C2  UNL     1     -32.922   6.600   3.919  1.00 20.00    -0.061 C 
HETATM    3  C3  UNL     1     -34.679   4.971   3.095  1.00 20.00     0.037 C 
HETATM    4  C4  UNL     1     -33.417   6.658   5.341  1.00 20.00     0.108 C 
HETATM    5  C5  UNL     1     -35.523   5.234   4.335  1.00 20.00     0.078 C 
HETATM    6  S7  UNL     1     -34.482   5.270   5.817  1.00 20.00    -0.165 SA
ENDROOT
BRANCH   2   7
HETATM    7  C6  UNL     1     -31.727   7.467   3.633  1.00 20.00     0.149 C 
HETATM    8 CL8  UNL     1     -31.970   8.151   2.028  1.00 20.00    -0.126 Cl
ENDBRANCH   2   7
TORSDOF 1
ENDMDL
MODEL 3
REMARK VINA RESULT:      -3.6     12.015     12.590
REMARK  1 active torsions:
REMARK  status: ('A' for Active; 'I' for Inactive)
REMARK    1  A    between atoms: C2_2  and  C6_6 
ROOT
HETATM    1  C1  UNL     1     -34.921  15.040  -2.999  1.00 20.00    -0.021 C 
HETATM    2  C2  UNL     1     -34.066  16.058  -3.218  1.00 20.00    -0.061 C 
HETATM    3  C3  UNL     1     -35.349  14.024  -4.016  1.00 20.00     0.037 C 
HETATM    4  C4  UNL     1     -33.418  16.363  -4.543  1.00 20.00     0.108 C 
HETATM    5  C5  UNL     1     -34.483  13.951  -5.266  1.00 20.00     0.078 C 
HETATM    6  S7  UNL     1     -34.241  15.603  -5.969  1.00 20.00    -0.165 SA
ENDROOT
BRANCH   2   7
HETATM    7  C6  UNL     1     -33.688  16.992  -2.102  1.00 20.00     0.149 C 
HETATM    8 CL8  UNL     1     -34.664  16.537  -0.708  1.00 20.00    -0.126 Cl
ENDBRANCH   2   7
TORSDOF 1
ENDMDL
MODEL 4
REMARK VINA RESULT:      -3.5      9.998     10.921
REMARK  1 active torsions:
REMARK  status: ('A' for Active; 'I' for Inactive)
REMARK    1  A    between atoms: C2_2  and  C6_6 
ROOT
HETATM    1  C1  UNL     1     -41.207   4.514  -1.321  1.00 20.00    -0.021 C 
HETATM    2  C2  UNL     1     -42.178   4.394  -2.245  1.00 20.00    -0.061 C 
HETATM    3  C3  UNL     1     -40.731   5.802  -0.715  1.00 20.00     0.037 C 
HETATM    4  C4  UNL     1     -42.932   5.548  -2.853  1.00 20.00     0.108 C 
HETATM    5  C5  UNL     1     -41.656   6.995  -0.916  1.00 20.00     0.078 C 
HETATM    6  S7  UNL     1     -42.116   7.156  -2.660  1.00 20.00    -0.165 SA
ENDROOT
BRANCH   2   7
HETATM    7  C6  UNL     1     -42.590   3.038  -2.749  1.00 20.00     0.149 C 
HETATM    8 CL8  UNL     1     -41.163   2.318  -3.490  1.00 20.00    -0.126 Cl
ENDBRANCH   2   7
TORSDOF 1
ENDMDL
MODEL 5
REMARK VINA RESULT:      -3.5     11.694     12.837
REMARK  1 active torsions:
REMARK  status: ('A' for Active; 'I' for Inactive)
REMARK    1  A    between atoms: C2_2  and  C6_6 
ROOT
HETATM    1  C1  UNL     1     -33.749  16.332  -4.973  1.00 20.00    -0.021 C 
HETATM    2  C2  UNL     1     -33.970  15.892  -3.719  1.00 20.00    -0.061 C 
HETATM    3  C3  UNL     1     -34.088  15.589  -6.232  1.00 20.00     0.037 C 
HETATM    4  C4  UNL     1     -34.570  14.554  -3.372  1.00 20.00     0.108 C 
HETATM    5  C5  UNL     1     -35.057  14.426  -6.059  1.00 20.00     0.078 C 
HETATM    6  S7  UNL     1     -34.512  13.339  -4.717  1.00 20.00    -0.165 SA
ENDROOT
BRANCH   2   7
HETATM    7  C6  UNL     1     -33.615  16.750  -2.536  1.00 20.00     0.149 C 
HETATM    8 CL8  UNL     1     -34.709  16.294  -1.233  1.00 20.00    -0.126 Cl
ENDBRANCH   2   7
TORSDOF 1
ENDMDL
MODEL 6
REMARK VINA RESULT:      -3.4     12.188     12.897
REMARK  1 active torsions:
REMARK  status: ('A' for Active; 'I' for Inactive)
REMARK    1  A    between atoms: C2_2  and  C6_6 
ROOT
HETATM    1  C1  UNL     1     -34.591  16.558  -0.840  1.00 20.00    -0.021 C 
HETATM    2  C2  UNL     1     -34.043  17.757  -0.566  1.00 20.00    -0.061 C 
HETATM    3  C3  UNL     1     -34.648  15.912  -2.193  1.00 20.00     0.037 C 
HETATM    4  C4  UNL     1     -33.420  18.671  -1.589  1.00 20.00     0.108 C 
HETATM    5  C5  UNL     1     -33.714  16.510  -3.238  1.00 20.00     0.078 C 
HETATM    6  S7  UNL     1     -33.900  18.310  -3.300  1.00 20.00    -0.165 SA
ENDROOT
BRANCH   2   7
HETATM    7  C6  UNL     1     -34.018  18.280   0.844  1.00 20.00     0.149 C 
HETATM    8 CL8  UNL     1     -35.360  17.516   1.693  1.00 20.00    -0.126 Cl
ENDBRANCH   2   7
TORSDOF 1
ENDMDL
MODEL 7
REMARK VINA RESULT:      -3.4     12.095     12.861
REMARK  1 active torsions:
REMARK  status: ('A' for Active; 'I' for Inactive)
REMARK    1  A    between atoms: C2_2  and  C6_6 
ROOT
HETATM    1  C1  UNL     1     -34.325  15.929  -2.055  1.00 20.00    -0.021 C 
HETATM    2  C2  UNL     1     -33.945  16.435  -3.243  1.00 20.00    -0.061 C 
HETATM    3  C3  UNL     1     -34.674  16.729  -0.834  1.00 20.00     0.037 C 
HETATM    4  C4  UNL     1     -33.774  17.903  -3.536  1.00 20.00     0.108 C 
HETATM    5  C5  UNL     1     -34.944  18.208  -1.083  1.00 20.00     0.078 C 
HETATM    6  S7  UNL     1     -33.607  18.943  -2.059  1.00 20.00    -0.165 SA
ENDROOT
BRANCH   2   7
HETATM    7  C6  UNL     1     -33.656  15.524  -4.404  1.00 20.00     0.149 C 
HETATM    8 CL8  UNL     1     -33.454  13.905  -3.740  1.00 20.00    -0.126 Cl
ENDBRANCH   2   7
TORSDOF 1
ENDMDL
MODEL 8
REMARK VINA RESULT:      -3.4     12.361     13.330
REMARK  1 active torsions:
REMARK  status: ('A' for Active; 'I' for Inactive)
REMARK    1  A    between atoms: C2_2  and  C6_6 
ROOT
HETATM    1  C1  UNL     1     -34.834  13.563  -5.242  1.00 20.00    -0.021 C 
HETATM    2  C2  UNL     1     -34.829  14.584  -6.120  1.00 20.00    -0.061 C 
HETATM    3  C3  UNL     1     -34.390  13.640  -3.810  1.00 20.00     0.037 C 
HETATM    4  C4  UNL     1     -34.342  15.976  -5.816  1.00 20.00     0.108 C 
HETATM    5  C5  UNL     1     -34.261  15.049  -3.245  1.00 20.00     0.078 C 
HETATM    6  S7  UNL     1     -33.277  16.090  -4.353  1.00 20.00    -0.165 SA
ENDROOT
BRANCH   2   7
HETATM    7  C6  UNL     1     -35.334  14.386  -7.523  1.00 20.00     0.149 C 
HETATM    8 CL8  UNL     1     -37.004  14.946  -7.545  1.00 20.00    -0.126 Cl
ENDBRANCH   2   7
TORSDOF 1
ENDMDL
MODEL 9
REMARK VINA RESULT:      -3.3     12.577     13.609
REMARK  1 active torsions:
REMARK  status: ('A' for Active; 'I' for Inactive)
REMARK    1  A    between atoms: C2_2  and  C6_6 
ROOT
HETATM    1  C1  UNL     1     -34.075  15.984  -6.129  1.00 20.00    -0.021 C 
HETATM    2  C2  UNL     1     -34.658  14.781  -6.295  1.00 20.00    -0.061 C 
HETATM    3  C3  UNL     1     -33.357  16.444  -4.894  1.00 20.00     0.037 C 
HETATM    4  C4  UNL     1     -34.713  13.702  -5.246  1.00 20.00     0.108 C 
HETATM    5  C5  UNL     1     -32.976  15.341  -3.915  1.00 20.00     0.078 C 
HETATM    6  S7  UNL     1     -34.404  14.287  -3.557  1.00 20.00    -0.165 SA
ENDROOT
BRANCH   2   7
HETATM    7  C6  UNL     1     -35.318  14.426  -7.599  1.00 20.00     0.149 C 
HETATM    8 CL8  UNL     1     -36.984  14.987  -7.493  1.00 20.00    -0.126 Cl
ENDBRANCH   2   7
TORSDOF 1
ENDMDL
