MODEL 1
REMARK VINA RESULT:      -4.8      0.000      0.000
REMARK  3 active torsions:
REMARK  status: ('A' for Active; 'I' for Inactive)
REMARK    1  A    between atoms: C1_1  and  O7_7 
REMARK    2  A    between atoms: C4_4  and  C5_5 
REMARK    3  A    between atoms: C5_5  and  O7_7 
ROOT
HETATM    1  C5  UNL     1     -34.605   5.453   3.618  1.00 20.00     0.184 C 
ENDROOT
BRANCH   1   2
HETATM    2  C4  UNL     1     -35.252   5.186   4.933  1.00 20.00     0.010 A 
HETATM    3  C2  UNL     1     -34.769   4.057   5.800  1.00 20.00     0.007 A 
HETATM    4  C3  UNL     1     -34.519   5.481   6.211  1.00 20.00     0.007 A 
ENDBRANCH   1   2
BRANCH   1   5
HETATM    5  O7  UNL     1     -33.890   6.688   3.670  1.00 20.00    -0.308 OA
BRANCH   5   6
HETATM    6  C1  UNL     1     -32.623   6.680   3.142  1.00 20.00     0.357 C 
HETATM    7  O6  UNL     1     -31.859   5.726   3.251  1.00 20.00    -0.246 OA
HETATM    8 CL8  UNL     1     -32.234   8.162   2.310  1.00 20.00    -0.012 Cl
ENDBRANCH   5   6
ENDBRANCH   1   5
TORSDOF 3
ENDMDL
MODEL 2
REMARK VINA RESULT:      -4.5      2.484      3.952
REMARK  3 active torsions:
REMARK  status: ('A' for Active; 'I' for Inactive)
REMARK    1  A    between atoms: C1_1  and  O7_7 
REMARK    2  A    between atoms: C4_4  and  C5_5 
REMARK    3  A    between atoms: C5_5  and  O7_7 
ROOT
HETATM    1  C5  UNL     1     -34.010   6.580   3.842  1.00 20.00     0.184 C 
ENDROOT
BRANCH   1   2
HETATM    2  C4  UNL     1     -32.670   6.542   3.193  1.00 20.00     0.010 A 
HETATM    3  C2  UNL     1     -32.188   7.711   2.381  1.00 20.00     0.007 A 
HETATM    4  C3  UNL     1     -31.555   7.407   3.710  1.00 20.00     0.007 A 
ENDBRANCH   1   2
BRANCH   1   5
HETATM    5  O7  UNL     1     -34.570   5.266   3.879  1.00 20.00    -0.308 OA
BRANCH   5   6
HETATM    6  C1  UNL     1     -34.756   4.721   5.125  1.00 20.00     0.357 C 
HETATM    7  O6  UNL     1     -35.129   3.565   5.301  1.00 20.00    -0.246 OA
HETATM    8 CL8  UNL     1     -34.405   5.847   6.409  1.00 20.00    -0.012 Cl
ENDBRANCH   5   6
ENDBRANCH   1   5
TORSDOF 3
ENDMDL
MODEL 3
REMARK VINA RESULT:      -4.4      1.326      1.326
REMARK  3 active torsions:
REMARK  status: ('A' for Active; 'I' for Inactive)
REMARK    1  A    between atoms: C1_1  and  O7_7 
REMARK    2  A    between atoms: C4_4  and  C5_5 
REMARK    3  A    between atoms: C5_5  and  O7_7 
ROOT
HETATM    1  C5  UNL     1     -34.625   5.470   3.628  1.00 20.00     0.184 C 
ENDROOT
BRANCH   1   2
HETATM    2  C4  UNL     1     -35.266   5.134   4.929  1.00 20.00     0.010 A 
HETATM    3  C2  UNL     1     -34.727   4.011   5.771  1.00 20.00     0.007 A 
HETATM    4  C3  UNL     1     -34.560   5.435   6.221  1.00 20.00     0.007 A 
ENDBRANCH   1   2
BRANCH   1   5
HETATM    5  O7  UNL     1     -33.998   6.751   3.711  1.00 20.00    -0.308 OA
BRANCH   5   6
HETATM    6  C1  UNL     1     -32.785   6.876   3.081  1.00 20.00     0.357 C 
HETATM    7  O6  UNL     1     -32.383   7.932   2.604  1.00 20.00    -0.246 OA
HETATM    8 CL8  UNL     1     -31.895   5.376   3.038  1.00 20.00    -0.012 Cl
ENDBRANCH   5   6
ENDBRANCH   1   5
TORSDOF 3
ENDMDL
MODEL 4
REMARK VINA RESULT:      -4.0      2.486      4.478
REMARK  3 active torsions:
REMARK  status: ('A' for Active; 'I' for Inactive)
REMARK    1  A    between atoms: C1_1  and  O7_7 
REMARK    2  A    between atoms: C4_4  and  C5_5 
REMARK    3  A    between atoms: C5_5  and  O7_7 
ROOT
HETATM    1  C5  UNL     1     -32.608   6.872   2.709  1.00 20.00     0.184 C 
ENDROOT
BRANCH   1   2
HETATM    2  C4  UNL     1     -31.882   8.127   2.371  1.00 20.00     0.010 A 
HETATM    3  C2  UNL     1     -31.717   8.543   0.935  1.00 20.00     0.007 A 
HETATM    4  C3  UNL     1     -32.633   9.316   1.842  1.00 20.00     0.007 A 
ENDBRANCH   1   2
BRANCH   1   5
HETATM    5  O7  UNL     1     -32.752   6.760   4.126  1.00 20.00    -0.308 OA
BRANCH   5   6
HETATM    6  C1  UNL     1     -33.896   6.149   4.574  1.00 20.00     0.357 C 
HETATM    7  O6  UNL     1     -34.673   5.555   3.833  1.00 20.00    -0.246 OA
HETATM    8 CL8  UNL     1     -34.113   6.314   6.297  1.00 20.00    -0.012 Cl
ENDBRANCH   5   6
ENDBRANCH   1   5
TORSDOF 3
ENDMDL
MODEL 5
REMARK VINA RESULT:      -3.9     11.838     12.132
REMARK  3 active torsions:
REMARK  status: ('A' for Active; 'I' for Inactive)
REMARK    1  A    between atoms: C1_1  and  O7_7 
REMARK    2  A    between atoms: C4_4  and  C5_5 
REMARK    3  A    between atoms: C5_5  and  O7_7 
ROOT
HETATM    1  C5  UNL     1     -33.516  15.447  -3.355  1.00 20.00     0.184 C 
ENDROOT
BRANCH   1   2
HETATM    2  C4  UNL     1     -34.690  15.617  -2.454  1.00 20.00     0.010 A 
HETATM    3  C2  UNL     1     -34.584  16.479  -1.227  1.00 20.00     0.007 A 
HETATM    4  C3  UNL     1     -35.414  16.933  -2.396  1.00 20.00     0.007 A 
ENDBRANCH   1   2
BRANCH   1   5
HETATM    5  O7  UNL     1     -33.399  14.080  -3.750  1.00 20.00    -0.308 OA
BRANCH   5   6
HETATM    6  C1  UNL     1     -34.346  13.618  -4.630  1.00 20.00     0.357 C 
HETATM    7  O6  UNL     1     -35.005  12.602  -4.433  1.00 20.00    -0.246 OA
HETATM    8 CL8  UNL     1     -34.500  14.632  -6.040  1.00 20.00    -0.012 Cl
ENDBRANCH   5   6
ENDBRANCH   1   5
TORSDOF 3
ENDMDL
MODEL 6
REMARK VINA RESULT:      -3.9      1.942      2.439
REMARK  3 active torsions:
REMARK  status: ('A' for Active; 'I' for Inactive)
REMARK    1  A    between atoms: C1_1  and  O7_7 
REMARK    2  A    between atoms: C4_4  and  C5_5 
REMARK    3  A    between atoms: C5_5  and  O7_7 
ROOT
HETATM    1  C5  UNL     1     -32.510   6.544   2.989  1.00 20.00     0.184 C 
ENDROOT
BRANCH   1   2
HETATM    2  C4  UNL     1     -33.820   6.613   3.694  1.00 20.00     0.010 A 
HETATM    3  C2  UNL     1     -34.743   5.426   3.694  1.00 20.00     0.007 A 
HETATM    4  C3  UNL     1     -34.040   5.832   4.959  1.00 20.00     0.007 A 
ENDBRANCH   1   2
BRANCH   1   5
HETATM    5  O7  UNL     1     -31.889   7.830   2.991  1.00 20.00    -0.308 OA
BRANCH   5   6
HETATM    6  C1  UNL     1     -31.986   8.554   1.829  1.00 20.00     0.357 C 
HETATM    7  O6  UNL     1     -31.517   8.173   0.761  1.00 20.00    -0.246 OA
HETATM    8 CL8  UNL     1     -32.841  10.058   2.046  1.00 20.00    -0.012 Cl
ENDBRANCH   5   6
ENDBRANCH   1   5
TORSDOF 3
ENDMDL
MODEL 7
REMARK VINA RESULT:      -3.9     11.835     12.188
REMARK  3 active torsions:
REMARK  status: ('A' for Active; 'I' for Inactive)
REMARK    1  A    between atoms: C1_1  and  O7_7 
REMARK    2  A    between atoms: C4_4  and  C5_5 
REMARK    3  A    between atoms: C5_5  and  O7_7 
ROOT
HETATM    1  C5  UNL     1     -35.871  15.757  -3.297  1.00 20.00     0.184 C 
ENDROOT
BRANCH   1   2
HETATM    2  C4  UNL     1     -34.734  15.646  -2.341  1.00 20.00     0.010 A 
HETATM    3  C2  UNL     1     -33.733  16.761  -2.223  1.00 20.00     0.007 A 
HETATM    4  C3  UNL     1     -34.701  16.499  -1.104  1.00 20.00     0.007 A 
ENDBRANCH   1   2
BRANCH   1   5
HETATM    5  O7  UNL     1     -36.250  14.457  -3.754  1.00 20.00    -0.308 OA
BRANCH   5   6
HETATM    6  C1  UNL     1     -35.330  13.792  -4.525  1.00 20.00     0.357 C 
HETATM    7  O6  UNL     1     -35.009  12.624  -4.327  1.00 20.00    -0.246 OA
HETATM    8 CL8  UNL     1     -34.680  14.788  -5.801  1.00 20.00    -0.012 Cl
ENDBRANCH   5   6
ENDBRANCH   1   5
TORSDOF 3
ENDMDL
MODEL 8
REMARK VINA RESULT:      -3.8     11.223     11.918
REMARK  3 active torsions:
REMARK  status: ('A' for Active; 'I' for Inactive)
REMARK    1  A    between atoms: C1_1  and  O7_7 
REMARK    2  A    between atoms: C4_4  and  C5_5 
REMARK    3  A    between atoms: C5_5  and  O7_7 
ROOT
HETATM    1  C5  UNL     1     -34.525  15.889  -3.025  1.00 20.00     0.184 C 
ENDROOT
BRANCH   1   2
HETATM    2  C4  UNL     1     -34.561  16.193  -1.567  1.00 20.00     0.010 A 
HETATM    3  C2  UNL     1     -33.768  17.344  -1.013  1.00 20.00     0.007 A 
HETATM    4  C3  UNL     1     -35.269  17.421  -1.067  1.00 20.00     0.007 A 
ENDBRANCH   1   2
BRANCH   1   5
HETATM    5  O7  UNL     1     -35.281  14.708  -3.294  1.00 20.00    -0.308 OA
BRANCH   5   6
HETATM    6  C1  UNL     1     -34.581  13.643  -3.804  1.00 20.00     0.357 C 
HETATM    7  O6  UNL     1     -35.122  12.680  -4.339  1.00 20.00    -0.246 OA
HETATM    8 CL8  UNL     1     -32.857  13.816  -3.604  1.00 20.00    -0.012 Cl
ENDBRANCH   5   6
ENDBRANCH   1   5
TORSDOF 3
ENDMDL
MODEL 9
REMARK VINA RESULT:      -3.7     11.728     12.377
REMARK  3 active torsions:
REMARK  status: ('A' for Active; 'I' for Inactive)
REMARK    1  A    between atoms: C1_1  and  O7_7 
REMARK    2  A    between atoms: C4_4  and  C5_5 
REMARK    3  A    between atoms: C5_5  and  O7_7 
ROOT
HETATM    1  C5  UNL     1     -34.602  16.146  -3.931  1.00 20.00     0.184 C 
ENDROOT
BRANCH   1   2
HETATM    2  C4  UNL     1     -33.947  16.081  -2.595  1.00 20.00     0.010 A 
HETATM    3  C2  UNL     1     -33.718  17.337  -1.802  1.00 20.00     0.007 A 
HETATM    4  C3  UNL     1     -34.746  16.339  -1.348  1.00 20.00     0.007 A 
ENDBRANCH   1   2
BRANCH   1   5
HETATM    5  O7  UNL     1     -34.430  14.905  -4.617  1.00 20.00    -0.308 OA
BRANCH   5   6
HETATM    6  C1  UNL     1     -35.308  13.902  -4.288  1.00 20.00     0.357 C 
HETATM    7  O6  UNL     1     -34.994  12.716  -4.272  1.00 20.00    -0.246 OA
HETATM    8 CL8  UNL     1     -36.898  14.504  -3.899  1.00 20.00    -0.012 Cl
ENDBRANCH   5   6
ENDBRANCH   1   5
TORSDOF 3
ENDMDL
