MODEL 1
REMARK VINA RESULT:      -4.2      0.000      0.000
REMARK  1 active torsions:
REMARK  status: ('A' for Active; 'I' for Inactive)
REMARK    1  A    between atoms: C6_6  and  O8_8 
ROOT
HETATM    1  C1  UNL     1     -34.055  16.685  -1.679  1.00 20.00     0.015 C 
HETATM    2  C2  UNL     1     -33.882  16.020  -2.664  1.00 20.00    -0.077 C 
HETATM    3  C3  UNL     1     -34.833  15.265  -4.835  1.00 20.00     0.080 C 
HETATM    4  C4  UNL     1     -34.655  13.980  -5.619  1.00 20.00     0.171 C 
HETATM    5  C5  UNL     1     -33.581  13.722  -3.562  1.00 20.00     0.219 C 
HETATM    6  C6  UNL     1     -33.671  15.210  -3.864  1.00 20.00     0.143 C 
HETATM    7  O7  UNL     1     -34.079  13.026  -4.719  1.00 20.00    -0.387 OA
ENDROOT
BRANCH   6   8
HETATM    8  O8  UNL     1     -32.474  15.614  -4.523  1.00 20.00    -0.375 OA
HETATM    9  H16 UNL     1     -31.753  15.537  -3.876  1.00 20.00     0.211 HD
ENDBRANCH   6   8
TORSDOF 1
ENDMDL
MODEL 2
REMARK VINA RESULT:      -3.9      1.741      2.306
REMARK  1 active torsions:
REMARK  status: ('A' for Active; 'I' for Inactive)
REMARK    1  A    between atoms: C6_6  and  O8_8 
ROOT
HETATM    1  C1  UNL     1     -34.427  16.635  -1.172  1.00 20.00     0.015 C 
HETATM    2  C2  UNL     1     -34.815  15.991  -2.108  1.00 20.00    -0.077 C 
HETATM    3  C3  UNL     1     -34.472  13.953  -3.493  1.00 20.00     0.080 C 
HETATM    4  C4  UNL     1     -34.746  13.674  -4.957  1.00 20.00     0.171 C 
HETATM    5  C5  UNL     1     -35.142  15.942  -4.572  1.00 20.00     0.219 C 
HETATM    6  C6  UNL     1     -35.288  15.206  -3.249  1.00 20.00     0.143 C 
HETATM    7  O7  UNL     1     -34.938  14.945  -5.589  1.00 20.00    -0.387 OA
ENDROOT
BRANCH   6   8
HETATM    8  O8  UNL     1     -36.659  14.861  -3.070  1.00 20.00    -0.375 OA
HETATM    9  H16 UNL     1     -36.954  15.281  -2.245  1.00 20.00     0.211 HD
ENDBRANCH   6   8
TORSDOF 1
ENDMDL
MODEL 3
REMARK VINA RESULT:      -3.8     11.917     13.101
REMARK  1 active torsions:
REMARK  status: ('A' for Active; 'I' for Inactive)
REMARK    1  A    between atoms: C6_6  and  O8_8 
ROOT
HETATM    1  C1  UNL     1     -32.419   6.653   2.935  1.00 20.00     0.015 C 
HETATM    2  C2  UNL     1     -33.326   6.171   3.557  1.00 20.00    -0.077 C 
HETATM    3  C3  UNL     1     -34.350   5.860   5.802  1.00 20.00     0.080 C 
HETATM    4  C4  UNL     1     -35.181   4.733   6.382  1.00 20.00     0.171 C 
HETATM    5  C5  UNL     1     -34.432   4.063   4.275  1.00 20.00     0.219 C 
HETATM    6  C6  UNL     1     -34.431   5.584   4.315  1.00 20.00     0.143 C 
HETATM    7  O7  UNL     1     -35.014   3.609   5.509  1.00 20.00    -0.387 OA
ENDROOT
BRANCH   6   8
HETATM    8  O8  UNL     1     -35.677   6.052   3.806  1.00 20.00    -0.375 OA
HETATM    9  H16 UNL     1     -36.198   5.270   3.561  1.00 20.00     0.211 HD
ENDBRANCH   6   8
TORSDOF 1
ENDMDL
MODEL 4
REMARK VINA RESULT:      -3.7      1.900      3.191
REMARK  1 active torsions:
REMARK  status: ('A' for Active; 'I' for Inactive)
REMARK    1  A    between atoms: C6_6  and  O8_8 
ROOT
HETATM    1  C1  UNL     1     -38.221  14.794  -3.837  1.00 20.00     0.015 C 
HETATM    2  C2  UNL     1     -37.063  14.513  -3.977  1.00 20.00    -0.077 C 
HETATM    3  C3  UNL     1     -34.744  14.846  -3.139  1.00 20.00     0.080 C 
HETATM    4  C4  UNL     1     -33.405  14.827  -3.848  1.00 20.00     0.171 C 
HETATM    5  C5  UNL     1     -35.079  14.667  -5.468  1.00 20.00     0.219 C 
HETATM    6  C6  UNL     1     -35.650  14.171  -4.148  1.00 20.00     0.143 C 
HETATM    7  O7  UNL     1     -33.681  14.930  -5.250  1.00 20.00    -0.387 OA
ENDROOT
BRANCH   6   8
HETATM    8  O8  UNL     1     -35.477  12.758  -4.080  1.00 20.00    -0.375 OA
HETATM    9  H16 UNL     1     -34.905  12.577  -3.316  1.00 20.00     0.211 HD
ENDBRANCH   6   8
TORSDOF 1
ENDMDL
MODEL 5
REMARK VINA RESULT:      -3.7      1.415      3.318
REMARK  1 active torsions:
REMARK  status: ('A' for Active; 'I' for Inactive)
REMARK    1  A    between atoms: C6_6  and  O8_8 
ROOT
HETATM    1  C1  UNL     1     -34.793  13.060  -4.896  1.00 20.00     0.015 C 
HETATM    2  C2  UNL     1     -34.218  14.021  -4.465  1.00 20.00    -0.077 C 
HETATM    3  C3  UNL     1     -34.165  15.773  -2.699  1.00 20.00     0.080 C 
HETATM    4  C4  UNL     1     -33.663  17.202  -2.715  1.00 20.00     0.171 C 
HETATM    5  C5  UNL     1     -33.545  16.375  -4.895  1.00 20.00     0.219 C 
HETATM    6  C6  UNL     1     -33.516  15.193  -3.939  1.00 20.00     0.143 C 
HETATM    7  O7  UNL     1     -33.507  17.568  -4.091  1.00 20.00    -0.387 OA
ENDROOT
BRANCH   6   8
HETATM    8  O8  UNL     1     -32.157  14.865  -3.662  1.00 20.00    -0.375 OA
HETATM    9  H16 UNL     1     -31.631  15.664  -3.830  1.00 20.00     0.211 HD
ENDBRANCH   6   8
TORSDOF 1
ENDMDL
MODEL 6
REMARK VINA RESULT:      -3.6      1.597      3.521
REMARK  1 active torsions:
REMARK  status: ('A' for Active; 'I' for Inactive)
REMARK    1  A    between atoms: C6_6  and  O8_8 
ROOT
HETATM    1  C1  UNL     1     -34.455  15.167  -7.052  1.00 20.00     0.015 C 
HETATM    2  C2  UNL     1     -34.059  15.488  -5.965  1.00 20.00    -0.077 C 
HETATM    3  C3  UNL     1     -34.391  15.292  -3.507  1.00 20.00     0.080 C 
HETATM    4  C4  UNL     1     -34.101  16.254  -2.373  1.00 20.00     0.171 C 
HETATM    5  C5  UNL     1     -33.704  17.373  -4.384  1.00 20.00     0.219 C 
HETATM    6  C6  UNL     1     -33.575  15.879  -4.640  1.00 20.00     0.143 C 
HETATM    7  O7  UNL     1     -33.899  17.542  -2.968  1.00 20.00    -0.387 OA
ENDROOT
BRANCH   6   8
HETATM    8  O8  UNL     1     -32.207  15.509  -4.491  1.00 20.00    -0.375 OA
HETATM    9  H16 UNL     1     -31.763  15.709  -5.331  1.00 20.00     0.211 HD
ENDBRANCH   6   8
TORSDOF 1
ENDMDL
MODEL 7
REMARK VINA RESULT:      -3.6      2.198      2.847
REMARK  1 active torsions:
REMARK  status: ('A' for Active; 'I' for Inactive)
REMARK    1  A    between atoms: C6_6  and  O8_8 
ROOT
HETATM    1  C1  UNL     1     -32.511  14.269  -3.452  1.00 20.00     0.015 C 
HETATM    2  C2  UNL     1     -33.643  14.160  -3.837  1.00 20.00    -0.077 C 
HETATM    3  C3  UNL     1     -35.221  14.511  -5.728  1.00 20.00     0.080 C 
HETATM    4  C4  UNL     1     -36.704  14.817  -5.757  1.00 20.00     0.171 C 
HETATM    5  C5  UNL     1     -35.996  14.903  -3.534  1.00 20.00     0.219 C 
HETATM    6  C6  UNL     1     -35.022  14.026  -4.306  1.00 20.00     0.143 C 
HETATM    7  O7  UNL     1     -37.061  15.248  -4.437  1.00 20.00    -0.387 OA
ENDROOT
BRANCH   6   8
HETATM    8  O8  UNL     1     -35.447  12.669  -4.197  1.00 20.00    -0.375 OA
HETATM    9  H16 UNL     1     -35.352  12.269  -5.077  1.00 20.00     0.211 HD
ENDBRANCH   6   8
TORSDOF 1
ENDMDL
MODEL 8
REMARK VINA RESULT:      -3.5      1.598      1.795
REMARK  1 active torsions:
REMARK  status: ('A' for Active; 'I' for Inactive)
REMARK    1  A    between atoms: C6_6  and  O8_8 
ROOT
HETATM    1  C1  UNL     1     -33.689  18.363  -4.739  1.00 20.00     0.015 C 
HETATM    2  C2  UNL     1     -33.628  17.174  -4.587  1.00 20.00    -0.077 C 
HETATM    3  C3  UNL     1     -34.175  14.942  -5.541  1.00 20.00     0.080 C 
HETATM    4  C4  UNL     1     -34.497  13.617  -4.881  1.00 20.00     0.171 C 
HETATM    5  C5  UNL     1     -34.362  15.241  -3.208  1.00 20.00     0.219 C 
HETATM    6  C6  UNL     1     -33.554  15.724  -4.402  1.00 20.00     0.143 C 
HETATM    7  O7  UNL     1     -34.804  13.905  -3.511  1.00 20.00    -0.387 OA
ENDROOT
BRANCH   6   8
HETATM    8  O8  UNL     1     -32.198  15.323  -4.226  1.00 20.00    -0.375 OA
HETATM    9  H16 UNL     1     -31.652  15.915  -4.769  1.00 20.00     0.211 HD
ENDBRANCH   6   8
TORSDOF 1
ENDMDL
MODEL 9
REMARK VINA RESULT:      -3.5     12.381     13.623
REMARK  1 active torsions:
REMARK  status: ('A' for Active; 'I' for Inactive)
REMARK    1  A    between atoms: C6_6  and  O8_8 
ROOT
HETATM    1  C1  UNL     1     -42.082   2.553  -3.411  1.00 20.00     0.015 C 
HETATM    2  C2  UNL     1     -41.810   3.365  -2.570  1.00 20.00    -0.077 C 
HETATM    3  C3  UNL     1     -42.381   4.281  -0.328  1.00 20.00     0.080 C 
HETATM    4  C4  UNL     1     -42.247   5.674   0.254  1.00 20.00     0.171 C 
HETATM    5  C5  UNL     1     -41.695   5.785  -2.012  1.00 20.00     0.219 C 
HETATM    6  C6  UNL     1     -41.480   4.354  -1.543  1.00 20.00     0.143 C 
HETATM    7  O7  UNL     1     -42.038   6.562  -0.851  1.00 20.00    -0.387 OA
ENDROOT
BRANCH   6   8
HETATM    8  O8  UNL     1     -40.120   4.207  -1.143  1.00 20.00    -0.375 OA
HETATM    9  H16 UNL     1     -40.070   3.411  -0.589  1.00 20.00     0.211 HD
ENDBRANCH   6   8
TORSDOF 1
ENDMDL
