MODEL 1
REMARK VINA RESULT:      -5.0      0.000      0.000
REMARK  3 active torsions:
REMARK  status: ('A' for Active; 'I' for Inactive)
REMARK    1  A    between atoms: C2_2  and  C6_6 
REMARK    2  A    between atoms: C3_3  and  C6_6 
REMARK    3  A    between atoms: C3_3  and  C7_7 
ROOT
HETATM    1  C3  UNL     1     -32.790   6.321   3.407  1.00 20.00     0.240 C 
HETATM    2  O8  UNL     1     -32.181   5.258   3.276  1.00 20.00    -0.287 OA
ENDROOT
BRANCH   1   3
HETATM    3  C6  UNL     1     -34.176   6.393   4.042  1.00 20.00     0.088 C 
HETATM    4  C5  UNL     1     -35.106   5.485   3.234  1.00 20.00     0.023 C 
BRANCH   3   5
HETATM    5  C2  UNL     1     -34.043   6.096   5.524  1.00 20.00    -0.082 C 
HETATM    6  C1  UNL     1     -33.548   6.956   6.431  1.00 20.00     0.014 C 
HETATM    7  C4  UNL     1     -34.533   4.739   5.960  1.00 20.00     0.043 C 
ENDBRANCH   3   5
ENDBRANCH   1   3
BRANCH   1   8
HETATM    8  C7  UNL     1     -32.179   7.621   2.967  1.00 20.00     0.451 C 
HETATM    9  F9  UNL     1     -31.258   8.069   3.856  1.00 20.00    -0.163 F 
HETATM   10  F10 UNL     1     -33.106   8.602   2.832  1.00 20.00    -0.163 F 
HETATM   11  F11 UNL     1     -31.551   7.504   1.769  1.00 20.00    -0.163 F 
ENDBRANCH   1   8
TORSDOF 3
ENDMDL
MODEL 2
REMARK VINA RESULT:      -5.0      0.006      1.138
REMARK  3 active torsions:
REMARK  status: ('A' for Active; 'I' for Inactive)
REMARK    1  A    between atoms: C2_2  and  C6_6 
REMARK    2  A    between atoms: C3_3  and  C6_6 
REMARK    3  A    between atoms: C3_3  and  C7_7 
ROOT
HETATM    1  C3  UNL     1     -32.791   6.318   3.407  1.00 20.00     0.240 C 
HETATM    2  O8  UNL     1     -32.183   5.255   3.274  1.00 20.00    -0.287 OA
ENDROOT
BRANCH   1   3
HETATM    3  C6  UNL     1     -34.177   6.391   4.043  1.00 20.00     0.088 C 
HETATM    4  C5  UNL     1     -35.108   5.483   3.236  1.00 20.00     0.023 C 
BRANCH   3   5
HETATM    5  C2  UNL     1     -34.042   6.093   5.525  1.00 20.00    -0.082 C 
HETATM    6  C1  UNL     1     -33.549   6.953   6.432  1.00 20.00     0.014 C 
HETATM    7  C4  UNL     1     -34.529   4.734   5.961  1.00 20.00     0.043 C 
ENDBRANCH   3   5
ENDBRANCH   1   3
BRANCH   1   8
HETATM    8  C7  UNL     1     -32.180   7.618   2.967  1.00 20.00     0.451 C 
HETATM    9  F9  UNL     1     -33.114   8.593   2.837  1.00 20.00    -0.163 F 
HETATM   10  F10 UNL     1     -31.555   7.510   1.768  1.00 20.00    -0.163 F 
HETATM   11  F11 UNL     1     -31.257   8.068   3.854  1.00 20.00    -0.163 F 
ENDBRANCH   1   8
TORSDOF 3
ENDMDL
MODEL 3
REMARK VINA RESULT:      -4.5      1.395      2.458
REMARK  3 active torsions:
REMARK  status: ('A' for Active; 'I' for Inactive)
REMARK    1  A    between atoms: C2_2  and  C6_6 
REMARK    2  A    between atoms: C3_3  and  C6_6 
REMARK    3  A    between atoms: C3_3  and  C7_7 
ROOT
HETATM    1  C3  UNL     1     -33.506   6.923   4.040  1.00 20.00     0.240 C 
HETATM    2  O8  UNL     1     -34.440   7.602   3.613  1.00 20.00    -0.287 OA
ENDROOT
BRANCH   1   3
HETATM    3  C6  UNL     1     -33.631   6.064   5.297  1.00 20.00     0.088 C 
HETATM    4  C5  UNL     1     -33.724   7.008   6.497  1.00 20.00     0.023 C 
BRANCH   3   5
HETATM    5  C2  UNL     1     -34.776   5.088   5.100  1.00 20.00    -0.082 C 
HETATM    6  C1  UNL     1     -35.458   4.937   3.952  1.00 20.00     0.014 C 
HETATM    7  C4  UNL     1     -35.115   4.237   6.297  1.00 20.00     0.043 C 
ENDBRANCH   3   5
ENDBRANCH   1   3
BRANCH   1   8
HETATM    8  C7  UNL     1     -32.187   6.883   3.323  1.00 20.00     0.451 C 
HETATM    9  F9  UNL     1     -32.280   7.401   2.073  1.00 20.00    -0.163 F 
HETATM   10  F10 UNL     1     -31.714   5.619   3.190  1.00 20.00    -0.163 F 
HETATM   11  F11 UNL     1     -31.234   7.594   3.978  1.00 20.00    -0.163 F 
ENDBRANCH   1   8
TORSDOF 3
ENDMDL
MODEL 4
REMARK VINA RESULT:      -4.4     10.882     12.227
REMARK  3 active torsions:
REMARK  status: ('A' for Active; 'I' for Inactive)
REMARK    1  A    between atoms: C2_2  and  C6_6 
REMARK    2  A    between atoms: C3_3  and  C6_6 
REMARK    3  A    between atoms: C3_3  and  C7_7 
ROOT
HETATM    1  C3  UNL     1     -34.439  13.843  -4.891  1.00 20.00     0.240 C 
HETATM    2  O8  UNL     1     -34.774  12.662  -4.983  1.00 20.00    -0.287 OA
ENDROOT
BRANCH   1   3
HETATM    3  C6  UNL     1     -34.968  14.917  -5.838  1.00 20.00     0.088 C 
HETATM    4  C5  UNL     1     -35.297  14.242  -7.170  1.00 20.00     0.023 C 
BRANCH   3   5
HETATM    5  C2  UNL     1     -36.098  15.656  -5.144  1.00 20.00    -0.082 C 
HETATM    6  C1  UNL     1     -37.277  15.102  -4.812  1.00 20.00     0.014 C 
HETATM    7  C4  UNL     1     -35.820  17.098  -4.807  1.00 20.00     0.043 C 
ENDBRANCH   3   5
ENDBRANCH   1   3
BRANCH   1   8
HETATM    8  C7  UNL     1     -33.499  14.298  -3.811  1.00 20.00     0.451 C 
HETATM    9  F9  UNL     1     -34.162  14.632  -2.676  1.00 20.00    -0.163 F 
HETATM   10  F10 UNL     1     -32.781  15.388  -4.183  1.00 20.00    -0.163 F 
HETATM   11  F11 UNL     1     -32.605  13.332  -3.479  1.00 20.00    -0.163 F 
ENDBRANCH   1   8
TORSDOF 3
ENDMDL
MODEL 5
REMARK VINA RESULT:      -4.4      3.266      4.336
REMARK  3 active torsions:
REMARK  status: ('A' for Active; 'I' for Inactive)
REMARK    1  A    between atoms: C2_2  and  C6_6 
REMARK    2  A    between atoms: C3_3  and  C6_6 
REMARK    3  A    between atoms: C3_3  and  C7_7 
ROOT
HETATM    1  C3  UNL     1     -34.941   5.519   4.509  1.00 20.00     0.240 C 
HETATM    2  O8  UNL     1     -35.802   5.536   3.629  1.00 20.00    -0.287 OA
ENDROOT
BRANCH   1   3
HETATM    3  C6  UNL     1     -33.962   6.672   4.714  1.00 20.00     0.088 C 
HETATM    4  C5  UNL     1     -33.631   6.742   6.206  1.00 20.00     0.023 C 
BRANCH   3   5
HETATM    5  C2  UNL     1     -32.796   6.487   3.760  1.00 20.00    -0.082 C 
HETATM    6  C1  UNL     1     -32.704   5.498   2.854  1.00 20.00     0.014 C 
HETATM    7  C4  UNL     1     -31.705   7.522   3.860  1.00 20.00     0.043 C 
ENDBRANCH   3   5
ENDBRANCH   1   3
BRANCH   1   8
HETATM    8  C7  UNL     1     -34.826   4.358   5.455  1.00 20.00     0.451 C 
HETATM    9  F9  UNL     1     -35.649   4.498   6.524  1.00 20.00    -0.163 F 
HETATM   10  F10 UNL     1     -33.568   4.219   5.943  1.00 20.00    -0.163 F 
HETATM   11  F11 UNL     1     -35.149   3.184   4.856  1.00 20.00    -0.163 F 
ENDBRANCH   1   8
TORSDOF 3
ENDMDL
MODEL 6
REMARK VINA RESULT:      -4.3     10.912     12.336
REMARK  3 active torsions:
REMARK  status: ('A' for Active; 'I' for Inactive)
REMARK    1  A    between atoms: C2_2  and  C6_6 
REMARK    2  A    between atoms: C3_3  and  C6_6 
REMARK    3  A    between atoms: C3_3  and  C7_7 
ROOT
HETATM    1  C3  UNL     1     -34.812  15.631  -2.849  1.00 20.00     0.240 C 
HETATM    2  O8  UNL     1     -35.956  15.205  -3.012  1.00 20.00    -0.287 OA
ENDROOT
BRANCH   1   3
HETATM    3  C6  UNL     1     -33.652  15.221  -3.752  1.00 20.00     0.088 C 
HETATM    4  C5  UNL     1     -33.627  13.692  -3.811  1.00 20.00     0.023 C 
BRANCH   3   5
HETATM    5  C2  UNL     1     -33.787  15.957  -5.072  1.00 20.00    -0.082 C 
HETATM    6  C1  UNL     1     -33.442  17.241  -5.266  1.00 20.00     0.014 C 
HETATM    7  C4  UNL     1     -34.331  15.141  -6.217  1.00 20.00     0.043 C 
ENDBRANCH   3   5
ENDBRANCH   1   3
BRANCH   1   8
HETATM    8  C7  UNL     1     -34.502  16.611  -1.752  1.00 20.00     0.451 C 
HETATM    9  F9  UNL     1     -33.179  16.906  -1.704  1.00 20.00    -0.163 F 
HETATM   10  F10 UNL     1     -34.844  16.135  -0.529  1.00 20.00    -0.163 F 
HETATM   11  F11 UNL     1     -35.165  17.783  -1.919  1.00 20.00    -0.163 F 
ENDBRANCH   1   8
TORSDOF 3
ENDMDL
MODEL 7
REMARK VINA RESULT:      -4.3      3.379      4.259
REMARK  3 active torsions:
REMARK  status: ('A' for Active; 'I' for Inactive)
REMARK    1  A    between atoms: C2_2  and  C6_6 
REMARK    2  A    between atoms: C3_3  and  C6_6 
REMARK    3  A    between atoms: C3_3  and  C7_7 
ROOT
HETATM    1  C3  UNL     1     -34.246   5.624   5.224  1.00 20.00     0.240 C 
HETATM    2  O8  UNL     1     -33.879   6.635   5.824  1.00 20.00    -0.287 OA
ENDROOT
BRANCH   1   3
HETATM    3  C6  UNL     1     -34.290   5.550   3.700  1.00 20.00     0.088 C 
HETATM    4  C5  UNL     1     -35.679   6.007   3.252  1.00 20.00     0.023 C 
BRANCH   3   5
HETATM    5  C2  UNL     1     -33.103   6.318   3.147  1.00 20.00    -0.082 C 
HETATM    6  C1  UNL     1     -33.153   7.592   2.720  1.00 20.00     0.014 C 
HETATM    7  C4  UNL     1     -31.798   5.564   3.118  1.00 20.00     0.043 C 
ENDBRANCH   3   5
ENDBRANCH   1   3
BRANCH   1   8
HETATM    8  C7  UNL     1     -34.651   4.386   5.972  1.00 20.00     0.451 C 
HETATM    9  F9  UNL     1     -34.959   3.369   5.129  1.00 20.00    -0.163 F 
HETATM   10  F10 UNL     1     -35.739   4.593   6.754  1.00 20.00    -0.163 F 
HETATM   11  F11 UNL     1     -33.660   3.940   6.786  1.00 20.00    -0.163 F 
ENDBRANCH   1   8
TORSDOF 3
ENDMDL
MODEL 8
REMARK VINA RESULT:      -4.2     11.096     12.208
REMARK  3 active torsions:
REMARK  status: ('A' for Active; 'I' for Inactive)
REMARK    1  A    between atoms: C2_2  and  C6_6 
REMARK    2  A    between atoms: C3_3  and  C6_6 
REMARK    3  A    between atoms: C3_3  and  C7_7 
ROOT
HETATM    1  C3  UNL     1     -34.028  15.176  -4.765  1.00 20.00     0.240 C 
HETATM    2  O8  UNL     1     -34.720  15.163  -5.783  1.00 20.00    -0.287 OA
ENDROOT
BRANCH   1   3
HETATM    3  C6  UNL     1     -33.490  16.470  -4.160  1.00 20.00     0.088 C 
HETATM    4  C5  UNL     1     -33.449  17.521  -5.271  1.00 20.00     0.023 C 
BRANCH   3   5
HETATM    5  C2  UNL     1     -34.313  16.804  -2.929  1.00 20.00    -0.082 C 
HETATM    6  C1  UNL     1     -33.832  16.817  -1.674  1.00 20.00     0.014 C 
HETATM    7  C4  UNL     1     -35.755  17.158  -3.188  1.00 20.00     0.043 C 
ENDBRANCH   3   5
ENDBRANCH   1   3
BRANCH   1   8
HETATM    8  C7  UNL     1     -33.695  13.902  -4.041  1.00 20.00     0.451 C 
HETATM    9  F9  UNL     1     -32.421  13.908  -3.576  1.00 20.00    -0.163 F 
HETATM   10  F10 UNL     1     -33.817  12.813  -4.840  1.00 20.00    -0.163 F 
HETATM   11  F11 UNL     1     -34.507  13.701  -2.973  1.00 20.00    -0.163 F 
ENDBRANCH   1   8
TORSDOF 3
ENDMDL
MODEL 9
REMARK VINA RESULT:      -4.2     10.953     11.795
REMARK  3 active torsions:
REMARK  status: ('A' for Active; 'I' for Inactive)
REMARK    1  A    between atoms: C2_2  and  C6_6 
REMARK    2  A    between atoms: C3_3  and  C6_6 
REMARK    3  A    between atoms: C3_3  and  C7_7 
ROOT
HETATM    1  C3  UNL     1     -33.965  15.127  -3.428  1.00 20.00     0.240 C 
HETATM    2  O8  UNL     1     -33.004  15.890  -3.537  1.00 20.00    -0.287 OA
ENDROOT
BRANCH   1   3
HETATM    3  C6  UNL     1     -35.204  15.487  -2.611  1.00 20.00     0.088 C 
HETATM    4  C5  UNL     1     -34.762  16.418  -1.481  1.00 20.00     0.023 C 
BRANCH   3   5
HETATM    5  C2  UNL     1     -36.267  16.013  -3.559  1.00 20.00    -0.082 C 
HETATM    6  C1  UNL     1     -36.128  17.106  -4.328  1.00 20.00     0.014 C 
HETATM    7  C4  UNL     1     -37.538  15.205  -3.620  1.00 20.00     0.043 C 
ENDBRANCH   3   5
ENDBRANCH   1   3
BRANCH   1   8
HETATM    8  C7  UNL     1     -33.977  13.795  -4.123  1.00 20.00     0.451 C 
HETATM    9  F9  UNL     1     -35.013  13.023  -3.709  1.00 20.00    -0.163 F 
HETATM   10  F10 UNL     1     -32.843  13.088  -3.893  1.00 20.00    -0.163 F 
HETATM   11  F11 UNL     1     -34.093  13.928  -5.468  1.00 20.00    -0.163 F 
ENDBRANCH   1   8
TORSDOF 3
ENDMDL
