MODEL 1
REMARK VINA RESULT:      -5.1      0.000      0.000
REMARK  4 active torsions:
REMARK  status: ('A' for Active; 'I' for Inactive)
REMARK    1  A    between atoms: C1_1  and  C8_8 
REMARK    2  A    between atoms: C1_1  and  C9_9 
REMARK    3  A    between atoms: C6_6  and  C8_8 
REMARK    4  A    between atoms: C7_7  and  C9_9 
ROOT
HETATM    1  C1  UNL     1     -32.537   6.421   3.376  1.00 20.00     0.127 C 
HETATM    2  O10 UNL     1     -31.990   5.382   3.009  1.00 20.00    -0.298 OA
ENDROOT
BRANCH   1   3
HETATM    3  C8  UNL     1     -33.827   6.419   4.179  1.00 20.00     0.082 C 
BRANCH   3   4
HETATM    4  C6  UNL     1     -33.952   5.209   5.086  1.00 20.00    -0.008 A 
HETATM    5  C2  UNL     1     -34.879   5.241   6.269  1.00 20.00     0.005 A 
HETATM    6  C3  UNL     1     -35.210   4.385   5.079  1.00 20.00     0.005 A 
ENDBRANCH   3   4
ENDBRANCH   1   3
BRANCH   1   7
HETATM    7  C9  UNL     1     -31.967   7.793   3.057  1.00 20.00     0.082 C 
BRANCH   7   8
HETATM    8  C7  UNL     1     -32.572   8.404   1.805  1.00 20.00    -0.008 A 
HETATM    9  C4  UNL     1     -32.395   9.868   1.514  1.00 20.00     0.005 A 
HETATM   10  C5  UNL     1     -31.687   8.843   0.674  1.00 20.00     0.005 A 
ENDBRANCH   7   8
ENDBRANCH   1   7
TORSDOF 4
ENDMDL
MODEL 2
REMARK VINA RESULT:      -5.1      0.085      5.124
REMARK  4 active torsions:
REMARK  status: ('A' for Active; 'I' for Inactive)
REMARK    1  A    between atoms: C1_1  and  C8_8 
REMARK    2  A    between atoms: C1_1  and  C9_9 
REMARK    3  A    between atoms: C6_6  and  C8_8 
REMARK    4  A    between atoms: C7_7  and  C9_9 
ROOT
HETATM    1  C1  UNL     1     -32.551   6.396   3.352  1.00 20.00     0.127 C 
HETATM    2  O10 UNL     1     -32.030   5.348   2.976  1.00 20.00    -0.298 OA
ENDROOT
BRANCH   1   3
HETATM    3  C8  UNL     1     -31.958   7.758   3.032  1.00 20.00     0.082 C 
BRANCH   3   4
HETATM    4  C6  UNL     1     -32.579   8.393   1.803  1.00 20.00    -0.008 A 
HETATM    5  C2  UNL     1     -32.430   9.869   1.555  1.00 20.00     0.005 A 
HETATM    6  C3  UNL     1     -31.705   8.885   0.682  1.00 20.00     0.005 A 
ENDBRANCH   3   4
ENDBRANCH   1   3
BRANCH   1   7
HETATM    7  C9  UNL     1     -33.832   6.416   4.170  1.00 20.00     0.082 C 
BRANCH   7   8
HETATM    8  C7  UNL     1     -33.941   5.237   5.121  1.00 20.00    -0.008 A 
HETATM    9  C4  UNL     1     -34.780   5.340   6.364  1.00 20.00     0.005 A 
HETATM   10  C5  UNL     1     -35.226   4.466   5.226  1.00 20.00     0.005 A 
ENDBRANCH   7   8
ENDBRANCH   1   7
TORSDOF 4
ENDMDL
MODEL 3
REMARK VINA RESULT:      -5.0      0.809      1.021
REMARK  4 active torsions:
REMARK  status: ('A' for Active; 'I' for Inactive)
REMARK    1  A    between atoms: C1_1  and  C8_8 
REMARK    2  A    between atoms: C1_1  and  C9_9 
REMARK    3  A    between atoms: C6_6  and  C8_8 
REMARK    4  A    between atoms: C7_7  and  C9_9 
ROOT
HETATM    1  C1  UNL     1     -33.224   6.286   3.354  1.00 20.00     0.127 C 
HETATM    2  O10 UNL     1     -33.755   5.543   2.530  1.00 20.00    -0.298 OA
ENDROOT
BRANCH   1   3
HETATM    3  C8  UNL     1     -33.569   6.236   4.833  1.00 20.00     0.082 C 
BRANCH   3   4
HETATM    4  C6  UNL     1     -34.813   5.416   5.118  1.00 20.00    -0.008 A 
HETATM    5  C2  UNL     1     -34.694   3.966   5.498  1.00 20.00     0.005 A 
HETATM    6  C3  UNL     1     -35.125   4.978   6.522  1.00 20.00     0.005 A 
ENDBRANCH   3   4
ENDBRANCH   1   3
BRANCH   1   7
HETATM    7  C9  UNL     1     -32.179   7.317   2.960  1.00 20.00     0.082 C 
BRANCH   7   8
HETATM    8  C7  UNL     1     -32.580   8.122   1.736  1.00 20.00    -0.008 A 
HETATM    9  C4  UNL     1     -32.460   9.620   1.742  1.00 20.00     0.005 A 
HETATM   10  C5  UNL     1     -31.531   8.795   0.897  1.00 20.00     0.005 A 
ENDBRANCH   7   8
ENDBRANCH   1   7
TORSDOF 4
ENDMDL
MODEL 4
REMARK VINA RESULT:      -4.8      1.831      2.620
REMARK  4 active torsions:
REMARK  status: ('A' for Active; 'I' for Inactive)
REMARK    1  A    between atoms: C1_1  and  C8_8 
REMARK    2  A    between atoms: C1_1  and  C9_9 
REMARK    3  A    between atoms: C6_6  and  C8_8 
REMARK    4  A    between atoms: C7_7  and  C9_9 
ROOT
HETATM    1  C1  UNL     1     -35.013   5.304   3.576  1.00 20.00     0.127 C 
HETATM    2  O10 UNL     1     -36.012   5.972   3.318  1.00 20.00    -0.298 OA
ENDROOT
BRANCH   1   3
HETATM    3  C8  UNL     1     -35.046   4.133   4.544  1.00 20.00     0.082 C 
BRANCH   3   4
HETATM    4  C6  UNL     1     -35.038   4.572   5.996  1.00 20.00    -0.008 A 
HETATM    5  C2  UNL     1     -33.745   4.632   6.762  1.00 20.00     0.005 A 
HETATM    6  C3  UNL     1     -34.451   5.903   6.381  1.00 20.00     0.005 A 
ENDBRANCH   3   4
ENDBRANCH   1   3
BRANCH   1   7
HETATM    7  C9  UNL     1     -33.659   5.594   2.948  1.00 20.00     0.082 C 
BRANCH   7   8
HETATM    8  C7  UNL     1     -33.141   6.981   3.285  1.00 20.00    -0.008 A 
HETATM    9  C4  UNL     1     -31.697   7.182   3.651  1.00 20.00     0.005 A 
HETATM   10  C5  UNL     1     -32.218   7.694   2.338  1.00 20.00     0.005 A 
ENDBRANCH   7   8
ENDBRANCH   1   7
TORSDOF 4
ENDMDL
MODEL 5
REMARK VINA RESULT:      -4.8      1.835      5.003
REMARK  4 active torsions:
REMARK  status: ('A' for Active; 'I' for Inactive)
REMARK    1  A    between atoms: C1_1  and  C8_8 
REMARK    2  A    between atoms: C1_1  and  C9_9 
REMARK    3  A    between atoms: C6_6  and  C8_8 
REMARK    4  A    between atoms: C7_7  and  C9_9 
ROOT
HETATM    1  C1  UNL     1     -35.023   5.302   3.572  1.00 20.00     0.127 C 
HETATM    2  O10 UNL     1     -36.028   5.968   3.332  1.00 20.00    -0.298 OA
ENDROOT
BRANCH   1   3
HETATM    3  C8  UNL     1     -33.681   5.592   2.921  1.00 20.00     0.082 C 
BRANCH   3   4
HETATM    4  C6  UNL     1     -33.141   6.964   3.279  1.00 20.00    -0.008 A 
HETATM    5  C2  UNL     1     -31.688   7.139   3.628  1.00 20.00     0.005 A 
HETATM    6  C3  UNL     1     -32.220   7.685   2.333  1.00 20.00     0.005 A 
ENDBRANCH   3   4
ENDBRANCH   1   3
BRANCH   1   7
HETATM    7  C9  UNL     1     -35.039   4.131   4.542  1.00 20.00     0.082 C 
BRANCH   7   8
HETATM    8  C7  UNL     1     -35.022   4.572   5.995  1.00 20.00    -0.008 A 
HETATM    9  C4  UNL     1     -33.725   4.632   6.753  1.00 20.00     0.005 A 
HETATM   10  C5  UNL     1     -34.434   5.902   6.375  1.00 20.00     0.005 A 
ENDBRANCH   7   8
ENDBRANCH   1   7
TORSDOF 4
ENDMDL
MODEL 6
REMARK VINA RESULT:      -4.5     10.468     11.924
REMARK  4 active torsions:
REMARK  status: ('A' for Active; 'I' for Inactive)
REMARK    1  A    between atoms: C1_1  and  C8_8 
REMARK    2  A    between atoms: C1_1  and  C9_9 
REMARK    3  A    between atoms: C6_6  and  C8_8 
REMARK    4  A    between atoms: C7_7  and  C9_9 
ROOT
HETATM    1  C1  UNL     1     -34.909  13.742  -4.382  1.00 20.00     0.127 C 
HETATM    2  O10 UNL     1     -35.012  12.520  -4.468  1.00 20.00    -0.298 OA
ENDROOT
BRANCH   1   3
HETATM    3  C8  UNL     1     -34.186  14.416  -3.227  1.00 20.00     0.082 C 
BRANCH   3   4
HETATM    4  C6  UNL     1     -34.832  15.725  -2.815  1.00 20.00    -0.008 A 
HETATM    5  C2  UNL     1     -34.586  16.294  -1.445  1.00 20.00     0.005 A 
HETATM    6  C3  UNL     1     -33.995  16.964  -2.653  1.00 20.00     0.005 A 
ENDBRANCH   3   4
ENDBRANCH   1   3
BRANCH   1   7
HETATM    7  C9  UNL     1     -35.496  14.681  -5.423  1.00 20.00     0.082 C 
BRANCH   7   8
HETATM    8  C7  UNL     1     -34.461  15.179  -6.415  1.00 20.00    -0.008 A 
HETATM    9  C4  UNL     1     -34.872  16.059  -7.562  1.00 20.00     0.005 A 
HETATM   10  C5  UNL     1     -34.063  16.628  -6.430  1.00 20.00     0.005 A 
ENDBRANCH   7   8
ENDBRANCH   1   7
TORSDOF 4
ENDMDL
MODEL 7
REMARK VINA RESULT:      -4.5     10.456     12.259
REMARK  4 active torsions:
REMARK  status: ('A' for Active; 'I' for Inactive)
REMARK    1  A    between atoms: C1_1  and  C8_8 
REMARK    2  A    between atoms: C1_1  and  C9_9 
REMARK    3  A    between atoms: C6_6  and  C8_8 
REMARK    4  A    between atoms: C7_7  and  C9_9 
ROOT
HETATM    1  C1  UNL     1     -35.045  13.728  -4.423  1.00 20.00     0.127 C 
HETATM    2  O10 UNL     1     -34.869  12.563  -4.774  1.00 20.00    -0.298 OA
ENDROOT
BRANCH   1   3
HETATM    3  C8  UNL     1     -36.008  14.656  -5.144  1.00 20.00     0.082 C 
BRANCH   3   4
HETATM    4  C6  UNL     1     -35.538  15.018  -6.541  1.00 20.00    -0.008 A 
HETATM    5  C2  UNL     1     -35.255  16.451  -6.898  1.00 20.00     0.005 A 
HETATM    6  C3  UNL     1     -34.122  15.471  -6.770  1.00 20.00     0.005 A 
ENDBRANCH   3   4
ENDBRANCH   1   3
BRANCH   1   7
HETATM    7  C9  UNL     1     -34.314  14.336  -3.237  1.00 20.00     0.082 C 
BRANCH   7   8
HETATM    8  C7  UNL     1     -34.859  15.699  -2.848  1.00 20.00    -0.008 A 
HETATM    9  C4  UNL     1     -34.518  16.299  -1.513  1.00 20.00     0.005 A 
HETATM   10  C5  UNL     1     -33.942  16.887  -2.770  1.00 20.00     0.005 A 
ENDBRANCH   7   8
ENDBRANCH   1   7
TORSDOF 4
ENDMDL
MODEL 8
REMARK VINA RESULT:      -4.4     10.504     11.954
REMARK  4 active torsions:
REMARK  status: ('A' for Active; 'I' for Inactive)
REMARK    1  A    between atoms: C1_1  and  C8_8 
REMARK    2  A    between atoms: C1_1  and  C9_9 
REMARK    3  A    between atoms: C6_6  and  C8_8 
REMARK    4  A    between atoms: C7_7  and  C9_9 
ROOT
HETATM    1  C1  UNL     1     -33.706  13.899  -3.970  1.00 20.00     0.127 C 
HETATM    2  O10 UNL     1     -32.970  12.984  -3.604  1.00 20.00    -0.298 OA
ENDROOT
BRANCH   1   3
HETATM    3  C8  UNL     1     -34.764  13.710  -5.044  1.00 20.00     0.082 C 
BRANCH   3   4
HETATM    4  C6  UNL     1     -34.571  14.640  -6.227  1.00 20.00    -0.008 A 
HETATM    5  C2  UNL     1     -35.406  14.473  -7.467  1.00 20.00     0.005 A 
HETATM    6  C3  UNL     1     -35.623  15.659  -6.569  1.00 20.00     0.005 A 
ENDBRANCH   3   4
ENDBRANCH   1   3
BRANCH   1   7
HETATM    7  C9  UNL     1     -33.617  15.296  -3.377  1.00 20.00     0.082 C 
BRANCH   7   8
HETATM    8  C7  UNL     1     -34.789  15.624  -2.469  1.00 20.00    -0.008 A 
HETATM    9  C4  UNL     1     -34.588  16.481  -1.251  1.00 20.00     0.005 A 
HETATM   10  C5  UNL     1     -35.349  17.018  -2.430  1.00 20.00     0.005 A 
ENDBRANCH   7   8
ENDBRANCH   1   7
TORSDOF 4
ENDMDL
MODEL 9
REMARK VINA RESULT:      -4.4     11.098     12.373
REMARK  4 active torsions:
REMARK  status: ('A' for Active; 'I' for Inactive)
REMARK    1  A    between atoms: C1_1  and  C8_8 
REMARK    2  A    between atoms: C1_1  and  C9_9 
REMARK    3  A    between atoms: C6_6  and  C8_8 
REMARK    4  A    between atoms: C7_7  and  C9_9 
ROOT
HETATM    1  C1  UNL     1     -36.613  14.726  -3.897  1.00 20.00     0.127 C 
HETATM    2  O10 UNL     1     -37.701  14.167  -3.767  1.00 20.00    -0.298 OA
ENDROOT
BRANCH   1   3
HETATM    3  C8  UNL     1     -35.583  14.269  -4.917  1.00 20.00     0.082 C 
BRANCH   3   4
HETATM    4  C6  UNL     1     -35.334  15.301  -6.001  1.00 20.00    -0.008 A 
HETATM    5  C2  UNL     1     -33.979  15.940  -6.142  1.00 20.00     0.005 A 
HETATM    6  C3  UNL     1     -34.462  14.966  -7.179  1.00 20.00     0.005 A 
ENDBRANCH   3   4
ENDBRANCH   1   3
BRANCH   1   7
HETATM    7  C9  UNL     1     -36.208  15.920  -3.048  1.00 20.00     0.082 C 
BRANCH   7   8
HETATM    8  C7  UNL     1     -34.922  15.684  -2.278  1.00 20.00    -0.008 A 
HETATM    9  C4  UNL     1     -33.796  16.676  -2.360  1.00 20.00     0.005 A 
HETATM   10  C5  UNL     1     -34.584  16.538  -1.088  1.00 20.00     0.005 A 
ENDBRANCH   7   8
ENDBRANCH   1   7
TORSDOF 4
ENDMDL
