MODEL 1
REMARK VINA RESULT:      -3.9      0.000      0.000
REMARK  2 active torsions:
REMARK  status: ('A' for Active; 'I' for Inactive)
REMARK    1  A    between atoms: C1_1  and  C7_7 
REMARK    2  A    between atoms: C7_7  and  N8_8 
ROOT
HETATM    1  C1  UNL     1     -34.680  15.610  -2.639  1.00 20.00    -0.053 C 
HETATM    2  C2  UNL     1     -34.716  16.266  -1.635  1.00 20.00    -0.021 C 
HETATM    3 BR9  UNL     1     -34.774  17.305  -0.045  1.00 20.00     0.010 Br
ENDROOT
BRANCH   1   4
HETATM    4  C7  UNL     1     -34.633  14.803  -3.875  1.00 20.00     0.214 C 
HETATM    5  C3  UNL     1     -35.949  14.034  -4.046  1.00 20.00     0.063 C 
HETATM    6  C4  UNL     1     -33.457  13.821  -3.811  1.00 20.00     0.063 C 
BRANCH   4   7
HETATM    7  N8  UNL     1     -34.449  15.672  -5.041  1.00 20.00     0.100 N 
HETATM    8  C5  UNL     1     -34.518  14.890  -6.274  1.00 20.00     0.311 C 
HETATM    9  C6  UNL     1     -33.173  16.378  -4.952  1.00 20.00     0.311 C 
ENDBRANCH   4   7
ENDBRANCH   1   4
TORSDOF 2
ENDMDL
MODEL 2
REMARK VINA RESULT:      -3.9      1.217      2.219
REMARK  2 active torsions:
REMARK  status: ('A' for Active; 'I' for Inactive)
REMARK    1  A    between atoms: C1_1  and  C7_7 
REMARK    2  A    between atoms: C7_7  and  N8_8 
ROOT
HETATM    1  C1  UNL     1     -34.417  15.947  -2.314  1.00 20.00    -0.053 C 
HETATM    2  C2  UNL     1     -34.618  16.522  -1.279  1.00 20.00    -0.021 C 
HETATM    3 BR9  UNL     1     -34.934  17.430   0.360  1.00 20.00     0.010 Br
ENDROOT
BRANCH   1   4
HETATM    4  C7  UNL     1     -34.174  15.241  -3.588  1.00 20.00     0.214 C 
HETATM    5  C3  UNL     1     -32.732  14.722  -3.628  1.00 20.00     0.063 C 
HETATM    6  C4  UNL     1     -34.421  16.192  -4.765  1.00 20.00     0.063 C 
BRANCH   4   7
HETATM    7  N8  UNL     1     -35.082  14.099  -3.715  1.00 20.00     0.100 N 
HETATM    8  C5  UNL     1     -34.648  13.223  -4.802  1.00 20.00     0.311 C 
HETATM    9  C6  UNL     1     -36.450  14.559  -3.943  1.00 20.00     0.311 C 
ENDBRANCH   4   7
ENDBRANCH   1   4
TORSDOF 2
ENDMDL
MODEL 3
REMARK VINA RESULT:      -3.8      0.788      1.893
REMARK  2 active torsions:
REMARK  status: ('A' for Active; 'I' for Inactive)
REMARK    1  A    between atoms: C1_1  and  C7_7 
REMARK    2  A    between atoms: C7_7  and  N8_8 
ROOT
HETATM    1  C1  UNL     1     -34.196  15.968  -2.529  1.00 20.00    -0.053 C 
HETATM    2  C2  UNL     1     -34.456  16.507  -1.489  1.00 20.00    -0.021 C 
HETATM    3 BR9  UNL     1     -34.866  17.360   0.158  1.00 20.00     0.010 Br
ENDROOT
BRANCH   1   4
HETATM    4  C7  UNL     1     -33.879  15.302  -3.809  1.00 20.00     0.214 C 
HETATM    5  C3  UNL     1     -32.921  14.130  -3.562  1.00 20.00     0.063 C 
HETATM    6  C4  UNL     1     -33.240  16.307  -4.774  1.00 20.00     0.063 C 
BRANCH   4   7
HETATM    7  N8  UNL     1     -35.101  14.780  -4.425  1.00 20.00     0.100 N 
HETATM    8  C5  UNL     1     -35.119  13.319  -4.360  1.00 20.00     0.311 C 
HETATM    9  C6  UNL     1     -35.206  15.232  -5.810  1.00 20.00     0.311 C 
ENDBRANCH   4   7
ENDBRANCH   1   4
TORSDOF 2
ENDMDL
MODEL 4
REMARK VINA RESULT:      -3.6      1.301      2.211
REMARK  2 active torsions:
REMARK  status: ('A' for Active; 'I' for Inactive)
REMARK    1  A    between atoms: C1_1  and  C7_7 
REMARK    2  A    between atoms: C7_7  and  N8_8 
ROOT
HETATM    1  C1  UNL     1     -34.938  16.041  -2.244  1.00 20.00    -0.053 C 
HETATM    2  C2  UNL     1     -34.858  16.630  -1.201  1.00 20.00    -0.021 C 
HETATM    3 BR9  UNL     1     -34.732  17.565   0.448  1.00 20.00     0.010 Br
ENDROOT
BRANCH   1   4
HETATM    4  C7  UNL     1     -35.034  15.312  -3.525  1.00 20.00     0.214 C 
HETATM    5  C3  UNL     1     -34.707  16.258  -4.687  1.00 20.00     0.063 C 
HETATM    6  C4  UNL     1     -36.447  14.742  -3.695  1.00 20.00     0.063 C 
BRANCH   4   7
HETATM    7  N8  UNL     1     -34.079  14.201  -3.549  1.00 20.00     0.100 N 
HETATM    8  C5  UNL     1     -32.712  14.709  -3.650  1.00 20.00     0.311 C 
HETATM    9  C6  UNL     1     -34.375  13.300  -4.660  1.00 20.00     0.311 C 
ENDBRANCH   4   7
ENDBRANCH   1   4
TORSDOF 2
ENDMDL
MODEL 5
REMARK VINA RESULT:      -3.4     12.447     13.639
REMARK  2 active torsions:
REMARK  status: ('A' for Active; 'I' for Inactive)
REMARK    1  A    between atoms: C1_1  and  C7_7 
REMARK    2  A    between atoms: C7_7  and  N8_8 
ROOT
HETATM    1  C1  UNL     1     -41.847   4.035  -1.919  1.00 20.00    -0.053 C 
HETATM    2  C2  UNL     1     -41.701   3.143  -2.709  1.00 20.00    -0.021 C 
HETATM    3 BR9  UNL     1     -41.471   1.731  -3.959  1.00 20.00     0.010 Br
ENDROOT
BRANCH   1   4
HETATM    4  C7  UNL     1     -42.027   5.131  -0.945  1.00 20.00     0.214 C 
HETATM    5  C3  UNL     1     -40.662   5.719  -0.565  1.00 20.00     0.063 C 
HETATM    6  C4  UNL     1     -42.737   4.603   0.307  1.00 20.00     0.063 C 
BRANCH   4   7
HETATM    7  N8  UNL     1     -42.845   6.197  -1.528  1.00 20.00     0.100 N 
HETATM    8  C5  UNL     1     -42.098   6.899  -2.570  1.00 20.00     0.311 C 
HETATM    9  C6  UNL     1     -43.279   7.130  -0.491  1.00 20.00     0.311 C 
ENDBRANCH   4   7
ENDBRANCH   1   4
TORSDOF 2
ENDMDL
MODEL 6
REMARK VINA RESULT:      -3.4     11.727     13.046
REMARK  2 active torsions:
REMARK  status: ('A' for Active; 'I' for Inactive)
REMARK    1  A    between atoms: C1_1  and  C7_7 
REMARK    2  A    between atoms: C7_7  and  N8_8 
ROOT
HETATM    1  C1  UNL     1     -42.015   6.505  -2.255  1.00 20.00    -0.053 C 
HETATM    2  C2  UNL     1     -42.204   7.303  -3.131  1.00 20.00    -0.021 C 
HETATM    3 BR9  UNL     1     -42.503   8.568  -4.517  1.00 20.00     0.010 Br
ENDROOT
BRANCH   1   4
HETATM    4  C7  UNL     1     -41.786   5.522  -1.176  1.00 20.00     0.214 C 
HETATM    5  C3  UNL     1     -40.843   6.115  -0.123  1.00 20.00     0.063 C 
HETATM    6  C4  UNL     1     -41.180   4.241  -1.760  1.00 20.00     0.063 C 
BRANCH   4   7
HETATM    7  N8  UNL     1     -43.053   5.181  -0.525  1.00 20.00     0.100 N 
HETATM    8  C5  UNL     1     -42.957   5.396   0.918  1.00 20.00     0.311 C 
HETATM    9  C6  UNL     1     -43.417   3.796  -0.813  1.00 20.00     0.311 C 
ENDBRANCH   4   7
ENDBRANCH   1   4
TORSDOF 2
ENDMDL
MODEL 7
REMARK VINA RESULT:      -3.3      2.708      3.492
REMARK  2 active torsions:
REMARK  status: ('A' for Active; 'I' for Inactive)
REMARK    1  A    between atoms: C1_1  and  C7_7 
REMARK    2  A    between atoms: C7_7  and  N8_8 
ROOT
HETATM    1  C1  UNL     1     -34.246  16.094  -4.801  1.00 20.00    -0.053 C 
HETATM    2  C2  UNL     1     -34.349  16.824  -5.748  1.00 20.00    -0.021 C 
HETATM    3 BR9  UNL     1     -34.514  17.978  -7.248  1.00 20.00     0.010 Br
ENDROOT
BRANCH   1   4
HETATM    4  C7  UNL     1     -34.115  15.196  -3.635  1.00 20.00     0.214 C 
HETATM    5  C3  UNL     1     -34.440  15.963  -2.348  1.00 20.00     0.063 C 
HETATM    6  C4  UNL     1     -32.689  14.637  -3.566  1.00 20.00     0.063 C 
BRANCH   4   7
HETATM    7  N8  UNL     1     -35.048  14.073  -3.755  1.00 20.00     0.100 N 
HETATM    8  C5  UNL     1     -34.685  13.229  -4.892  1.00 20.00     0.311 C 
HETATM    9  C6  UNL     1     -36.417  14.563  -3.897  1.00 20.00     0.311 C 
ENDBRANCH   4   7
ENDBRANCH   1   4
TORSDOF 2
ENDMDL
MODEL 8
REMARK VINA RESULT:      -3.3      2.501      3.041
REMARK  2 active torsions:
REMARK  status: ('A' for Active; 'I' for Inactive)
REMARK    1  A    between atoms: C1_1  and  C7_7 
REMARK    2  A    between atoms: C7_7  and  N8_8 
ROOT
HETATM    1  C1  UNL     1     -36.587  14.873  -3.989  1.00 20.00    -0.053 C 
HETATM    2  C2  UNL     1     -37.775  14.798  -4.139  1.00 20.00    -0.021 C 
HETATM    3 BR9  UNL     1     -39.657  14.678  -4.376  1.00 20.00     0.010 Br
ENDROOT
BRANCH   1   4
HETATM    4  C7  UNL     1     -35.124  14.969  -3.805  1.00 20.00     0.214 C 
HETATM    5  C3  UNL     1     -34.507  13.565  -3.804  1.00 20.00     0.063 C 
HETATM    6  C4  UNL     1     -34.811  15.680  -2.485  1.00 20.00     0.063 C 
BRANCH   4   7
HETATM    7  N8  UNL     1     -34.526  15.737  -4.900  1.00 20.00     0.100 N 
HETATM    8  C5  UNL     1     -34.504  14.941  -6.127  1.00 20.00     0.311 C 
HETATM    9  C6  UNL     1     -33.175  16.165  -4.543  1.00 20.00     0.311 C 
ENDBRANCH   4   7
ENDBRANCH   1   4
TORSDOF 2
ENDMDL
MODEL 9
REMARK VINA RESULT:      -3.3      2.530      3.041
REMARK  2 active torsions:
REMARK  status: ('A' for Active; 'I' for Inactive)
REMARK    1  A    between atoms: C1_1  and  C7_7 
REMARK    2  A    between atoms: C7_7  and  N8_8 
ROOT
HETATM    1  C1  UNL     1     -36.164  14.770  -4.670  1.00 20.00    -0.053 C 
HETATM    2  C2  UNL     1     -37.318  14.879  -4.360  1.00 20.00    -0.021 C 
HETATM    3 BR9  UNL     1     -39.145  15.053  -3.869  1.00 20.00     0.010 Br
ENDROOT
BRANCH   1   4
HETATM    4  C7  UNL     1     -34.743  14.633  -5.050  1.00 20.00     0.214 C 
HETATM    5  C3  UNL     1     -34.588  14.822  -6.564  1.00 20.00     0.063 C 
HETATM    6  C4  UNL     1     -34.225  13.251  -4.638  1.00 20.00     0.063 C 
BRANCH   4   7
HETATM    7  N8  UNL     1     -33.937  15.652  -4.371  1.00 20.00     0.100 N 
HETATM    8  C5  UNL     1     -33.418  16.617  -5.339  1.00 20.00     0.311 C 
HETATM    9  C6  UNL     1     -32.842  15.026  -3.634  1.00 20.00     0.311 C 
ENDBRANCH   4   7
ENDBRANCH   1   4
TORSDOF 2
ENDMDL
