MODEL 1
REMARK VINA RESULT:      -4.7      0.000      0.000
REMARK  2 active torsions:
REMARK  status: ('A' for Active; 'I' for Inactive)
REMARK    1  A    between atoms: C1_1  and  C9_9 
REMARK    2  A    between atoms: C9_9  and  N10_10 
ROOT
HETATM    1  C2  UNL     1     -35.078   4.441   6.059  1.00 20.00     0.003 C 
HETATM    2  C3  UNL     1     -33.935   5.379   6.431  1.00 20.00     0.030 C 
HETATM    3  C4  UNL     1     -35.153   4.247   4.549  1.00 20.00     0.030 C 
HETATM    4  C5  UNL     1     -34.005   6.684   5.634  1.00 20.00     0.273 C 
HETATM    5  C6  UNL     1     -35.182   5.591   3.817  1.00 20.00     0.273 C 
HETATM    6  N10 UNL     1     -34.083   6.496   4.179  1.00 20.00     0.099 N 
ENDROOT
BRANCH   6   7
HETATM    7  C9  UNL     1     -32.807   6.077   3.605  1.00 20.00     0.287 C 
HETATM    8  C8  UNL     1     -32.993   5.331   2.297  1.00 20.00     0.051 C 
BRANCH   7   9
HETATM    9  C1  UNL     1     -31.971   7.328   3.395  1.00 20.00     0.155 C 
HETATM   10  C7  UNL     1     -32.260   8.132   2.153  1.00 20.00     0.093 C 
HETATM   11  O11 UNL     1     -31.127   7.704   4.210  1.00 20.00    -0.296 OA
ENDBRANCH   7   9
ENDBRANCH   6   7
TORSDOF 2
ENDMDL
MODEL 2
REMARK VINA RESULT:      -4.2     11.831     12.742
REMARK  2 active torsions:
REMARK  status: ('A' for Active; 'I' for Inactive)
REMARK    1  A    between atoms: C1_1  and  C9_9 
REMARK    2  A    between atoms: C9_9  and  N10_10 
ROOT
HETATM    1  C2  UNL     1     -36.029  17.970  -2.748  1.00 20.00     0.003 C 
HETATM    2  C3  UNL     1     -36.592  17.000  -3.781  1.00 20.00     0.030 C 
HETATM    3  C4  UNL     1     -34.606  17.584  -2.359  1.00 20.00     0.030 C 
HETATM    4  C5  UNL     1     -36.441  15.548  -3.320  1.00 20.00     0.273 C 
HETATM    5  C6  UNL     1     -34.523  16.111  -1.947  1.00 20.00     0.273 C 
HETATM    6  N10 UNL     1     -35.071  15.178  -2.939  1.00 20.00     0.099 N 
ENDROOT
BRANCH   6   7
HETATM    7  C9  UNL     1     -34.195  15.025  -4.099  1.00 20.00     0.287 C 
HETATM    8  C8  UNL     1     -32.754  14.782  -3.691  1.00 20.00     0.051 C 
BRANCH   7   9
HETATM    9  C1  UNL     1     -34.725  13.859  -4.917  1.00 20.00     0.155 C 
HETATM   10  C7  UNL     1     -35.030  14.137  -6.366  1.00 20.00     0.093 C 
HETATM   11  O11 UNL     1     -34.864  12.729  -4.446  1.00 20.00    -0.296 OA
ENDBRANCH   7   9
ENDBRANCH   6   7
TORSDOF 2
ENDMDL
MODEL 3
REMARK VINA RESULT:      -4.2     11.926     12.739
REMARK  2 active torsions:
REMARK  status: ('A' for Active; 'I' for Inactive)
REMARK    1  A    between atoms: C1_1  and  C9_9 
REMARK    2  A    between atoms: C9_9  and  N10_10 
ROOT
HETATM    1  C2  UNL     1     -35.331  17.501  -1.407  1.00 20.00     0.003 C 
HETATM    2  C3  UNL     1     -34.450  16.269  -1.579  1.00 20.00     0.030 C 
HETATM    3  C4  UNL     1     -36.528  17.450  -2.349  1.00 20.00     0.030 C 
HETATM    4  C5  UNL     1     -34.080  16.052  -3.049  1.00 20.00     0.273 C 
HETATM    5  C6  UNL     1     -36.088  17.192  -3.793  1.00 20.00     0.273 C 
HETATM    6  N10 UNL     1     -35.234  16.008  -3.958  1.00 20.00     0.099 N 
ENDROOT
BRANCH   6   7
HETATM    7  C9  UNL     1     -35.986  14.762  -3.840  1.00 20.00     0.287 C 
HETATM    8  C8  UNL     1     -37.436  14.935  -4.253  1.00 20.00     0.051 C 
BRANCH   7   9
HETATM    9  C1  UNL     1     -35.297  13.731  -4.719  1.00 20.00     0.155 C 
HETATM   10  C7  UNL     1     -34.957  14.162  -6.123  1.00 20.00     0.093 C 
HETATM   11  O11 UNL     1     -34.985  12.613  -4.307  1.00 20.00    -0.296 OA
ENDBRANCH   7   9
ENDBRANCH   6   7
TORSDOF 2
ENDMDL
MODEL 4
REMARK VINA RESULT:      -4.1     11.703     13.957
REMARK  2 active torsions:
REMARK  status: ('A' for Active; 'I' for Inactive)
REMARK    1  A    between atoms: C1_1  and  C9_9 
REMARK    2  A    between atoms: C9_9  and  N10_10 
ROOT
HETATM    1  C2  UNL     1     -35.551  17.171  -7.590  1.00 20.00     0.003 C 
HETATM    2  C3  UNL     1     -34.372  16.332  -7.110  1.00 20.00     0.030 C 
HETATM    3  C4  UNL     1     -36.787  16.910  -6.738  1.00 20.00     0.030 C 
HETATM    4  C5  UNL     1     -34.752  14.854  -6.994  1.00 20.00     0.273 C 
HETATM    5  C6  UNL     1     -37.085  15.412  -6.635  1.00 20.00     0.273 C 
HETATM    6  N10 UNL     1     -35.947  14.603  -6.177  1.00 20.00     0.099 N 
ENDROOT
BRANCH   6   7
HETATM    7  C9  UNL     1     -35.688  14.770  -4.749  1.00 20.00     0.287 C 
HETATM    8  C8  UNL     1     -36.963  14.695  -3.930  1.00 20.00     0.051 C 
BRANCH   7   9
HETATM    9  C1  UNL     1     -34.718  13.676  -4.334  1.00 20.00     0.155 C 
HETATM   10  C7  UNL     1     -33.421  14.125  -3.713  1.00 20.00     0.093 C 
HETATM   11  O11 UNL     1     -34.982  12.478  -4.452  1.00 20.00    -0.296 OA
ENDBRANCH   7   9
ENDBRANCH   6   7
TORSDOF 2
ENDMDL
MODEL 5
REMARK VINA RESULT:      -4.1     11.619     13.072
REMARK  2 active torsions:
REMARK  status: ('A' for Active; 'I' for Inactive)
REMARK    1  A    between atoms: C1_1  and  C9_9 
REMARK    2  A    between atoms: C9_9  and  N10_10 
ROOT
HETATM    1  C2  UNL     1     -33.171  14.041  -3.723  1.00 20.00     0.003 C 
HETATM    2  C3  UNL     1     -34.479  13.340  -4.068  1.00 20.00     0.030 C 
HETATM    3  C4  UNL     1     -33.420  15.490  -3.319  1.00 20.00     0.030 C 
HETATM    4  C5  UNL     1     -35.288  14.144  -5.090  1.00 20.00     0.273 C 
HETATM    5  C6  UNL     1     -34.265  16.221  -4.366  1.00 20.00     0.273 C 
HETATM    6  N10 UNL     1     -35.523  15.542  -4.703  1.00 20.00     0.099 N 
ENDROOT
BRANCH   6   7
HETATM    7  C9  UNL     1     -36.520  15.664  -3.642  1.00 20.00     0.287 C 
HETATM    8  C8  UNL     1     -36.647  17.093  -3.147  1.00 20.00     0.051 C 
BRANCH   7   9
HETATM    9  C1  UNL     1     -37.843  15.171  -4.204  1.00 20.00     0.155 C 
HETATM   10  C7  UNL     1     -38.403  15.934  -5.378  1.00 20.00     0.093 C 
HETATM   11  O11 UNL     1     -38.419  14.175  -3.764  1.00 20.00    -0.296 OA
ENDBRANCH   7   9
ENDBRANCH   6   7
TORSDOF 2
ENDMDL
MODEL 6
REMARK VINA RESULT:      -4.1     11.769     13.432
REMARK  2 active torsions:
REMARK  status: ('A' for Active; 'I' for Inactive)
REMARK    1  A    between atoms: C1_1  and  C9_9 
REMARK    2  A    between atoms: C9_9  and  N10_10 
ROOT
HETATM    1  C2  UNL     1     -34.673  13.507  -5.180  1.00 20.00     0.003 C 
HETATM    2  C3  UNL     1     -35.074  14.854  -5.771  1.00 20.00     0.030 C 
HETATM    3  C4  UNL     1     -34.134  13.673  -3.764  1.00 20.00     0.030 C 
HETATM    4  C5  UNL     1     -33.939  15.874  -5.649  1.00 20.00     0.273 C 
HETATM    5  C6  UNL     1     -33.031  14.733  -3.710  1.00 20.00     0.273 C 
HETATM    6  N10 UNL     1     -33.415  16.029  -4.285  1.00 20.00     0.099 N 
ENDROOT
BRANCH   6   7
HETATM    7  C9  UNL     1     -34.332  16.769  -3.420  1.00 20.00     0.287 C 
HETATM    8  C8  UNL     1     -33.888  16.739  -1.969  1.00 20.00     0.051 C 
BRANCH   7   9
HETATM    9  C1  UNL     1     -34.388  18.197  -3.935  1.00 20.00     0.155 C 
HETATM   10  C7  UNL     1     -35.753  18.734  -4.284  1.00 20.00     0.093 C 
HETATM   11  O11 UNL     1     -33.386  18.907  -4.028  1.00 20.00    -0.296 OA
ENDBRANCH   7   9
ENDBRANCH   6   7
TORSDOF 2
ENDMDL
MODEL 7
REMARK VINA RESULT:      -4.0     11.756     13.239
REMARK  2 active torsions:
REMARK  status: ('A' for Active; 'I' for Inactive)
REMARK    1  A    between atoms: C1_1  and  C9_9 
REMARK    2  A    between atoms: C9_9  and  N10_10 
ROOT
HETATM    1  C2  UNL     1     -38.781  15.943  -4.910  1.00 20.00     0.003 C 
HETATM    2  C3  UNL     1     -38.157  14.793  -4.128  1.00 20.00     0.030 C 
HETATM    3  C4  UNL     1     -37.818  16.464  -5.970  1.00 20.00     0.030 C 
HETATM    4  C5  UNL     1     -36.777  15.173  -3.586  1.00 20.00     0.273 C 
HETATM    5  C6  UNL     1     -36.449  16.788  -5.366  1.00 20.00     0.273 C 
HETATM    6  N10 UNL     1     -35.850  15.682  -4.607  1.00 20.00     0.099 N 
ENDROOT
BRANCH   6   7
HETATM    7  C9  UNL     1     -35.347  14.622  -5.477  1.00 20.00     0.287 C 
HETATM    8  C8  UNL     1     -34.437  15.165  -6.563  1.00 20.00     0.051 C 
BRANCH   7   9
HETATM    9  C1  UNL     1     -34.603  13.630  -4.599  1.00 20.00     0.155 C 
HETATM   10  C7  UNL     1     -33.413  14.162  -3.841  1.00 20.00     0.093 C 
HETATM   11  O11 UNL     1     -34.965  12.460  -4.468  1.00 20.00    -0.296 OA
ENDBRANCH   7   9
ENDBRANCH   6   7
TORSDOF 2
ENDMDL
MODEL 8
REMARK VINA RESULT:      -4.0     11.595     13.619
REMARK  2 active torsions:
REMARK  status: ('A' for Active; 'I' for Inactive)
REMARK    1  A    between atoms: C1_1  and  C9_9 
REMARK    2  A    between atoms: C9_9  and  N10_10 
ROOT
HETATM    1  C2  UNL     1     -36.447  16.596  -7.152  1.00 20.00     0.003 C 
HETATM    2  C3  UNL     1     -35.542  17.245  -6.111  1.00 20.00     0.030 C 
HETATM    3  C4  UNL     1     -36.557  15.094  -6.916  1.00 20.00     0.030 C 
HETATM    4  C5  UNL     1     -34.193  16.526  -6.021  1.00 20.00     0.273 C 
HETATM    5  C6  UNL     1     -35.173  14.448  -6.798  1.00 20.00     0.273 C 
HETATM    6  N10 UNL     1     -34.299  15.077  -5.800  1.00 20.00     0.099 N 
ENDROOT
BRANCH   6   7
HETATM    7  C9  UNL     1     -34.697  14.753  -4.432  1.00 20.00     0.287 C 
HETATM    8  C8  UNL     1     -34.962  13.269  -4.256  1.00 20.00     0.051 C 
BRANCH   7   9
HETATM    9  C1  UNL     1     -33.576  15.211  -3.513  1.00 20.00     0.155 C 
HETATM   10  C7  UNL     1     -33.949  16.192  -2.432  1.00 20.00     0.093 C 
HETATM   11  O11 UNL     1     -32.427  14.778  -3.606  1.00 20.00    -0.296 OA
ENDBRANCH   7   9
ENDBRANCH   6   7
TORSDOF 2
ENDMDL
MODEL 9
REMARK VINA RESULT:      -4.0     12.245     13.595
REMARK  2 active torsions:
REMARK  status: ('A' for Active; 'I' for Inactive)
REMARK    1  A    between atoms: C1_1  and  C9_9 
REMARK    2  A    between atoms: C9_9  and  N10_10 
ROOT
HETATM    1  C2  UNL     1     -34.390  15.169  -7.363  1.00 20.00     0.003 C 
HETATM    2  C3  UNL     1     -34.110  16.475  -6.628  1.00 20.00     0.030 C 
HETATM    3  C4  UNL     1     -35.270  14.250  -6.524  1.00 20.00     0.030 C 
HETATM    4  C5  UNL     1     -33.578  16.214  -5.216  1.00 20.00     0.273 C 
HETATM    5  C6  UNL     1     -34.698  14.065  -5.116  1.00 20.00     0.273 C 
HETATM    6  N10 UNL     1     -34.423  15.323  -4.410  1.00 20.00     0.099 N 
ENDROOT
BRANCH   6   7
HETATM    7  C9  UNL     1     -35.645  15.982  -3.954  1.00 20.00     0.287 C 
HETATM    8  C8  UNL     1     -36.690  14.981  -3.496  1.00 20.00     0.051 C 
BRANCH   7   9
HETATM    9  C1  UNL     1     -35.261  16.915  -2.818  1.00 20.00     0.155 C 
HETATM   10  C7  UNL     1     -34.653  16.275  -1.597  1.00 20.00     0.093 C 
HETATM   11  O11 UNL     1     -35.394  18.137  -2.893  1.00 20.00    -0.296 OA
ENDBRANCH   7   9
ENDBRANCH   6   7
TORSDOF 2
ENDMDL
