MODEL 1
REMARK VINA RESULT:      -4.5      0.000      0.000
REMARK  2 active torsions:
REMARK  status: ('A' for Active; 'I' for Inactive)
REMARK    1  A    between atoms: C2_2  and  C4_4 
REMARK       I    between atoms: C2_2  and  N6_6 
REMARK    2  A    between atoms: C4_4  and  C5_5 
ROOT
HETATM    1  C1  UNL     1     -32.146   7.670   2.495  1.00 20.00     0.166 C 
HETATM    2  C2  UNL     1     -33.349   6.079   3.408  1.00 20.00     0.244 C 
HETATM    3  N6  UNL     1     -32.184   6.815   3.300  1.00 20.00    -0.199 NA
HETATM    4  O7  UNL     1     -33.851   5.373   2.534  1.00 20.00    -0.271 OA
HETATM    5  S8  UNL     1     -32.058   8.840   1.416  1.00 20.00    -0.055 SA
ENDROOT
BRANCH   2   6
HETATM    6  C4  UNL     1     -33.961   6.191   4.797  1.00 20.00     0.105 C 
BRANCH   6   7
HETATM    7  C5  UNL     1     -35.130   5.236   5.029  1.00 20.00     0.005 C 
HETATM    8  C3  UNL     1     -34.750   4.049   5.905  1.00 20.00     0.005 C 
ENDBRANCH   6   7
ENDBRANCH   2   6
TORSDOF 2
ENDMDL
MODEL 2
REMARK VINA RESULT:      -4.2      1.646      2.014
REMARK  2 active torsions:
REMARK  status: ('A' for Active; 'I' for Inactive)
REMARK    1  A    between atoms: C2_2  and  C4_4 
REMARK       I    between atoms: C2_2  and  N6_6 
REMARK    2  A    between atoms: C4_4  and  C5_5 
ROOT
HETATM    1  C1  UNL     1     -33.086   6.196   2.995  1.00 20.00     0.166 C 
HETATM    2  C2  UNL     1     -34.885   5.247   3.818  1.00 20.00     0.244 C 
HETATM    3  N6  UNL     1     -33.684   5.195   3.136  1.00 20.00    -0.199 NA
HETATM    4  O7  UNL     1     -35.886   5.880   3.486  1.00 20.00    -0.271 OA
HETATM    5  S8  UNL     1     -32.245   7.533   2.787  1.00 20.00    -0.055 SA
ENDROOT
BRANCH   2   6
HETATM    6  C4  UNL     1     -34.868   4.368   5.060  1.00 20.00     0.105 C 
BRANCH   6   7
HETATM    7  C5  UNL     1     -34.987   5.150   6.366  1.00 20.00     0.005 C 
HETATM    8  C3  UNL     1     -34.063   6.359   6.410  1.00 20.00     0.005 C 
ENDBRANCH   6   7
ENDBRANCH   2   6
TORSDOF 2
ENDMDL
MODEL 3
REMARK VINA RESULT:      -4.0      2.644      4.441
REMARK  2 active torsions:
REMARK  status: ('A' for Active; 'I' for Inactive)
REMARK    1  A    between atoms: C2_2  and  C4_4 
REMARK       I    between atoms: C2_2  and  N6_6 
REMARK    2  A    between atoms: C4_4  and  C5_5 
ROOT
HETATM    1  C1  UNL     1     -34.129   6.079   4.780  1.00 20.00     0.166 C 
HETATM    2  C2  UNL     1     -32.585   6.472   3.272  1.00 20.00     0.244 C 
HETATM    3  N6  UNL     1     -33.879   6.578   3.746  1.00 20.00    -0.199 NA
HETATM    4  O7  UNL     1     -31.994   5.431   2.989  1.00 20.00    -0.271 OA
HETATM    5  S8  UNL     1     -34.506   5.416   6.178  1.00 20.00    -0.055 SA
ENDROOT
BRANCH   2   6
HETATM    6  C4  UNL     1     -31.941   7.837   3.076  1.00 20.00     0.105 C 
BRANCH   6   7
HETATM    7  C5  UNL     1     -31.941   8.312   1.625  1.00 20.00     0.005 C 
HETATM    8  C3  UNL     1     -32.464   9.735   1.476  1.00 20.00     0.005 C 
ENDBRANCH   6   7
ENDBRANCH   2   6
TORSDOF 2
ENDMDL
MODEL 4
REMARK VINA RESULT:      -3.8     11.671     11.983
REMARK  2 active torsions:
REMARK  status: ('A' for Active; 'I' for Inactive)
REMARK    1  A    between atoms: C2_2  and  C4_4 
REMARK       I    between atoms: C2_2  and  N6_6 
REMARK    2  A    between atoms: C4_4  and  C5_5 
ROOT
HETATM    1  C1  UNL     1     -34.663  14.693  -6.359  1.00 20.00     0.166 C 
HETATM    2  C2  UNL     1     -34.872  13.979  -4.295  1.00 20.00     0.244 C 
HETATM    3  N6  UNL     1     -34.207  14.690  -5.277  1.00 20.00    -0.199 NA
HETATM    4  O7  UNL     1     -35.079  12.766  -4.285  1.00 20.00    -0.271 OA
HETATM    5  S8  UNL     1     -35.252  14.721  -7.839  1.00 20.00    -0.055 SA
ENDROOT
BRANCH   2   6
HETATM    6  C4  UNL     1     -35.307  14.875  -3.145  1.00 20.00     0.105 C 
BRANCH   6   7
HETATM    7  C5  UNL     1     -34.204  15.801  -2.638  1.00 20.00     0.005 C 
HETATM    8  C3  UNL     1     -34.558  16.463  -1.313  1.00 20.00     0.005 C 
ENDBRANCH   6   7
ENDBRANCH   2   6
TORSDOF 2
ENDMDL
MODEL 5
REMARK VINA RESULT:      -3.6     11.274     11.810
REMARK  2 active torsions:
REMARK  status: ('A' for Active; 'I' for Inactive)
REMARK    1  A    between atoms: C2_2  and  C4_4 
REMARK       I    between atoms: C2_2  and  N6_6 
REMARK    2  A    between atoms: C4_4  and  C5_5 
ROOT
HETATM    1  C1  UNL     1     -36.940  14.835  -4.355  1.00 20.00     0.166 C 
HETATM    2  C2  UNL     1     -34.992  13.852  -4.135  1.00 20.00     0.244 C 
HETATM    3  N6  UNL     1     -35.792  14.879  -4.599  1.00 20.00    -0.199 NA
HETATM    4  O7  UNL     1     -35.080  12.663  -4.437  1.00 20.00    -0.271 OA
HETATM    5  S8  UNL     1     -38.502  14.811  -4.043  1.00 20.00    -0.055 SA
ENDROOT
BRANCH   2   6
HETATM    6  C4  UNL     1     -33.903  14.362  -3.202  1.00 20.00     0.105 C 
BRANCH   6   7
HETATM    7  C5  UNL     1     -33.831  15.885  -3.118  1.00 20.00     0.005 C 
HETATM    8  C3  UNL     1     -34.243  16.414  -1.750  1.00 20.00     0.005 C 
ENDBRANCH   6   7
ENDBRANCH   2   6
TORSDOF 2
ENDMDL
MODEL 6
REMARK VINA RESULT:      -3.5     11.982     12.375
REMARK  2 active torsions:
REMARK  status: ('A' for Active; 'I' for Inactive)
REMARK    1  A    between atoms: C2_2  and  C4_4 
REMARK       I    between atoms: C2_2  and  N6_6 
REMARK    2  A    between atoms: C4_4  and  C5_5 
ROOT
HETATM    1  C1  UNL     1     -33.620  16.356  -5.669  1.00 20.00     0.166 C 
HETATM    2  C2  UNL     1     -33.375  15.680  -3.597  1.00 20.00     0.244 C 
HETATM    3  N6  UNL     1     -32.938  16.368  -4.713  1.00 20.00    -0.199 NA
HETATM    4  O7  UNL     1     -33.581  14.469  -3.519  1.00 20.00    -0.271 OA
HETATM    5  S8  UNL     1     -34.519  16.364  -6.984  1.00 20.00    -0.055 SA
ENDROOT
BRANCH   2   6
HETATM    6  C4  UNL     1     -33.543  16.599  -2.396  1.00 20.00     0.105 C 
BRANCH   6   7
HETATM    7  C5  UNL     1     -34.764  16.272  -1.539  1.00 20.00     0.005 C 
HETATM    8  C3  UNL     1     -34.765  17.020  -0.213  1.00 20.00     0.005 C 
ENDBRANCH   6   7
ENDBRANCH   2   6
TORSDOF 2
ENDMDL
MODEL 7
REMARK VINA RESULT:      -3.4     11.478     12.545
REMARK  2 active torsions:
REMARK  status: ('A' for Active; 'I' for Inactive)
REMARK    1  A    between atoms: C2_2  and  C4_4 
REMARK       I    between atoms: C2_2  and  N6_6 
REMARK    2  A    between atoms: C4_4  and  C5_5 
ROOT
HETATM    1  C1  UNL     1     -35.444  15.380  -3.012  1.00 20.00     0.166 C 
HETATM    2  C2  UNL     1     -35.442  13.865  -4.598  1.00 20.00     0.244 C 
HETATM    3  N6  UNL     1     -36.082  14.804  -3.812  1.00 20.00    -0.199 NA
HETATM    4  O7  UNL     1     -34.885  12.841  -4.204  1.00 20.00    -0.271 OA
HETATM    5  S8  UNL     1     -34.610  16.184  -1.918  1.00 20.00    -0.055 SA
ENDROOT
BRANCH   2   6
HETATM    6  C4  UNL     1     -35.535  14.207  -6.077  1.00 20.00     0.105 C 
BRANCH   6   7
HETATM    7  C5  UNL     1     -34.298  14.920  -6.620  1.00 20.00     0.005 C 
HETATM    8  C3  UNL     1     -34.456  16.434  -6.637  1.00 20.00     0.005 C 
ENDBRANCH   6   7
ENDBRANCH   2   6
TORSDOF 2
ENDMDL
MODEL 8
REMARK VINA RESULT:      -3.4      9.794     10.270
REMARK  2 active torsions:
REMARK  status: ('A' for Active; 'I' for Inactive)
REMARK    1  A    between atoms: C2_2  and  C4_4 
REMARK       I    between atoms: C2_2  and  N6_6 
REMARK    2  A    between atoms: C4_4  and  C5_5 
ROOT
HETATM    1  C1  UNL     1     -41.418   3.857  -2.101  1.00 20.00     0.166 C 
HETATM    2  C2  UNL     1     -41.240   5.318  -0.474  1.00 20.00     0.244 C 
HETATM    3  N6  UNL     1     -40.688   4.503  -1.444  1.00 20.00    -0.199 NA
HETATM    4  O7  UNL     1     -41.901   4.952   0.497  1.00 20.00    -0.271 OA
HETATM    5  S8  UNL     1     -42.375   2.967  -3.012  1.00 20.00    -0.055 SA
ENDROOT
BRANCH   2   6
HETATM    6  C4  UNL     1     -40.898   6.782  -0.704  1.00 20.00     0.105 C 
BRANCH   6   7
HETATM    7  C5  UNL     1     -42.048   7.596  -1.293  1.00 20.00     0.005 C 
HETATM    8  C3  UNL     1     -42.161   7.440  -2.804  1.00 20.00     0.005 C 
ENDBRANCH   6   7
ENDBRANCH   2   6
TORSDOF 2
ENDMDL
MODEL 9
REMARK VINA RESULT:      -3.3     11.675     12.051
REMARK  2 active torsions:
REMARK  status: ('A' for Active; 'I' for Inactive)
REMARK    1  A    between atoms: C2_2  and  C4_4 
REMARK       I    between atoms: C2_2  and  N6_6 
REMARK    2  A    between atoms: C4_4  and  C5_5 
ROOT
HETATM    1  C1  UNL     1     -34.506  16.891  -2.619  1.00 20.00     0.166 C 
HETATM    2  C2  UNL     1     -33.178  15.586  -3.778  1.00 20.00     0.244 C 
HETATM    3  N6  UNL     1     -33.582  16.167  -2.591  1.00 20.00    -0.199 NA
HETATM    4  O7  UNL     1     -32.771  16.176  -4.778  1.00 20.00    -0.271 OA
HETATM    5  S8  UNL     1     -35.757  17.878  -2.617  1.00 20.00    -0.055 SA
ENDROOT
BRANCH   2   6
HETATM    6  C4  UNL     1     -33.239  14.067  -3.714  1.00 20.00     0.105 C 
BRANCH   6   7
HETATM    7  C5  UNL     1     -34.256  13.454  -4.675  1.00 20.00     0.005 C 
HETATM    8  C3  UNL     1     -35.694  13.751  -4.271  1.00 20.00     0.005 C 
ENDBRANCH   6   7
ENDBRANCH   2   6
TORSDOF 2
ENDMDL
