MODEL 1
REMARK VINA RESULT:      -5.2      0.000      0.000
REMARK  1 active torsions:
REMARK  status: ('A' for Active; 'I' for Inactive)
REMARK    1  A    between atoms: C11_11  and  N13_13 
ROOT
HETATM    1  C1  UNL     1     -34.658  13.640  -5.066  1.00 20.00     0.089 C 
HETATM    2  C11 UNL     1     -34.504  14.935  -5.727  1.00 20.00     0.395 C 
HETATM    3  N12 UNL     1     -34.782  12.610  -4.545  1.00 20.00    -0.195 NA
ENDROOT
BRANCH   2   4
HETATM    4  N13 UNL     1     -33.935  15.923  -4.811  1.00 20.00     0.101 N 
HETATM    5  C7  UNL     1     -34.079  17.278  -5.361  1.00 20.00     0.274 C 
HETATM    6  C6  UNL     1     -33.454  18.326  -4.438  1.00 20.00     0.035 C 
HETATM    7  C9  UNL     1     -34.055  18.244  -3.032  1.00 20.00    -0.007 C 
HETATM    8  C4  UNL     1     -33.404  19.245  -2.072  1.00 20.00     0.005 C 
HETATM    9  C10 UNL     1     -33.924  16.808  -2.498  1.00 20.00     0.018 C 
HETATM   10  C2  UNL     1     -33.999  19.129  -0.670  1.00 20.00     0.000 C 
HETATM   11  C3  UNL     1     -33.925  17.701  -0.135  1.00 20.00     0.000 C 
HETATM   12  C5  UNL     1     -34.548  16.695  -1.102  1.00 20.00     0.007 C 
HETATM   13  C8  UNL     1     -34.556  15.811  -3.482  1.00 20.00     0.278 C 
ENDBRANCH   2   4
TORSDOF 1
ENDMDL
MODEL 2
REMARK VINA RESULT:      -5.0      1.325      2.395
REMARK  1 active torsions:
REMARK  status: ('A' for Active; 'I' for Inactive)
REMARK    1  A    between atoms: C11_11  and  N13_13 
ROOT
HETATM    1  C1  UNL     1     -34.840  15.049  -7.191  1.00 20.00     0.089 C 
HETATM    2  C11 UNL     1     -33.930  15.948  -6.483  1.00 20.00     0.395 C 
HETATM    3  N12 UNL     1     -35.561  14.337  -7.756  1.00 20.00    -0.195 NA
ENDROOT
BRANCH   2   4
HETATM    4  N13 UNL     1     -34.393  16.189  -5.116  1.00 20.00     0.101 N 
HETATM    5  C7  UNL     1     -34.241  14.977  -4.301  1.00 20.00     0.274 C 
HETATM    6  C6  UNL     1     -34.757  15.191  -2.876  1.00 20.00     0.035 C 
HETATM    7  C9  UNL     1     -34.056  16.382  -2.215  1.00 20.00    -0.007 C 
HETATM    8  C4  UNL     1     -34.597  16.655  -0.809  1.00 20.00     0.005 C 
HETATM    9  C10 UNL     1     -34.199  17.626  -3.109  1.00 20.00     0.018 C 
HETATM   10  C2  UNL     1     -33.904  17.860  -0.177  1.00 20.00     0.000 C 
HETATM   11  C3  UNL     1     -33.990  19.098  -1.067  1.00 20.00     0.000 C 
HETATM   12  C5  UNL     1     -33.478  18.824  -2.481  1.00 20.00     0.007 C 
HETATM   13  C8  UNL     1     -33.679  17.331  -4.525  1.00 20.00     0.278 C 
ENDBRANCH   2   4
TORSDOF 1
ENDMDL
MODEL 3
REMARK VINA RESULT:      -4.9      1.487      1.517
REMARK  1 active torsions:
REMARK  status: ('A' for Active; 'I' for Inactive)
REMARK    1  A    between atoms: C11_11  and  N13_13 
ROOT
HETATM    1  C1  UNL     1     -36.942  14.388  -4.145  1.00 20.00     0.089 C 
HETATM    2  C11 UNL     1     -35.565  14.344  -4.637  1.00 20.00     0.395 C 
HETATM    3  N12 UNL     1     -38.035  14.421  -3.757  1.00 20.00    -0.195 NA
ENDROOT
BRANCH   2   4
HETATM    4  N13 UNL     1     -34.756  15.393  -4.015  1.00 20.00     0.101 N 
HETATM    5  C7  UNL     1     -34.835  16.634  -4.796  1.00 20.00     0.274 C 
HETATM    6  C6  UNL     1     -33.962  17.735  -4.188  1.00 20.00     0.035 C 
HETATM    7  C9  UNL     1     -34.343  17.988  -2.726  1.00 20.00    -0.007 C 
HETATM    8  C4  UNL     1     -33.445  19.044  -2.076  1.00 20.00     0.005 C 
HETATM    9  C10 UNL     1     -34.289  16.665  -1.943  1.00 20.00     0.018 C 
HETATM   10  C2  UNL     1     -33.824  19.263  -0.612  1.00 20.00     0.000 C 
HETATM   11  C3  UNL     1     -33.824  17.957   0.178  1.00 20.00     0.000 C 
HETATM   12  C5  UNL     1     -34.696  16.889  -0.482  1.00 20.00     0.007 C 
HETATM   13  C8  UNL     1     -35.172  15.604  -2.620  1.00 20.00     0.278 C 
ENDBRANCH   2   4
TORSDOF 1
ENDMDL
MODEL 4
REMARK VINA RESULT:      -4.9      2.123      5.384
REMARK  1 active torsions:
REMARK  status: ('A' for Active; 'I' for Inactive)
REMARK    1  A    between atoms: C11_11  and  N13_13 
ROOT
HETATM    1  C1  UNL     1     -32.572  19.155  -0.724  1.00 20.00     0.089 C 
HETATM    2  C11 UNL     1     -33.726  19.024  -1.612  1.00 20.00     0.395 C 
HETATM    3  N12 UNL     1     -31.657  19.263  -0.018  1.00 20.00    -0.195 NA
ENDROOT
BRANCH   2   4
HETATM    4  N13 UNL     1     -33.702  17.740  -2.312  1.00 20.00     0.101 N 
HETATM    5  C7  UNL     1     -34.664  16.807  -1.711  1.00 20.00     0.274 C 
HETATM    6  C6  UNL     1     -34.627  15.441  -2.401  1.00 20.00     0.035 C 
HETATM    7  C9  UNL     1     -34.877  15.583  -3.905  1.00 20.00    -0.007 C 
HETATM    8  C4  UNL     1     -34.787  14.236  -4.629  1.00 20.00     0.005 C 
HETATM    9  C10 UNL     1     -33.880  16.593  -4.500  1.00 20.00     0.018 C 
HETATM   10  C2  UNL     1     -35.012  14.403  -6.130  1.00 20.00     0.000 C 
HETATM   11  C3  UNL     1     -34.067  15.436  -6.738  1.00 20.00     0.000 C 
HETATM   12  C5  UNL     1     -34.132  16.774  -6.002  1.00 20.00     0.007 C 
HETATM   13  C8  UNL     1     -33.960  17.931  -3.748  1.00 20.00     0.278 C 
ENDBRANCH   2   4
TORSDOF 1
ENDMDL
MODEL 5
REMARK VINA RESULT:      -4.7      2.463      5.120
REMARK  1 active torsions:
REMARK  status: ('A' for Active; 'I' for Inactive)
REMARK    1  A    between atoms: C11_11  and  N13_13 
ROOT
HETATM    1  C1  UNL     1     -32.914  19.197  -0.591  1.00 20.00     0.089 C 
HETATM    2  C11 UNL     1     -34.224  19.263  -1.237  1.00 20.00     0.395 C 
HETATM    3  N12 UNL     1     -31.874  19.149  -0.078  1.00 20.00    -0.195 NA
ENDROOT
BRANCH   2   4
HETATM    4  N13 UNL     1     -34.691  17.926  -1.604  1.00 20.00     0.101 N 
HETATM    5  C7  UNL     1     -35.951  18.010  -2.354  1.00 20.00     0.274 C 
HETATM    6  C6  UNL     1     -36.483  16.621  -2.714  1.00 20.00     0.035 C 
HETATM    7  C9  UNL     1     -35.436  15.822  -3.497  1.00 20.00    -0.007 C 
HETATM    8  C4  UNL     1     -35.922  14.405  -3.817  1.00 20.00     0.005 C 
HETATM    9  C10 UNL     1     -34.119  15.783  -2.704  1.00 20.00     0.018 C 
HETATM   10  C2  UNL     1     -34.855  13.616  -4.575  1.00 20.00     0.000 C 
HETATM   11  C3  UNL     1     -33.521  13.603  -3.833  1.00 20.00     0.000 C 
HETATM   12  C5  UNL     1     -33.046  15.014  -3.484  1.00 20.00     0.007 C 
HETATM   13  C8  UNL     1     -33.656  17.209  -2.364  1.00 20.00     0.278 C 
ENDBRANCH   2   4
TORSDOF 1
ENDMDL
MODEL 6
REMARK VINA RESULT:      -4.7      1.628      1.798
REMARK  1 active torsions:
REMARK  status: ('A' for Active; 'I' for Inactive)
REMARK    1  A    between atoms: C11_11  and  N13_13 
ROOT
HETATM    1  C1  UNL     1     -34.682  13.791  -4.867  1.00 20.00     0.089 C 
HETATM    2  C11 UNL     1     -34.231  15.076  -5.401  1.00 20.00     0.395 C 
HETATM    3  N12 UNL     1     -35.038  12.770  -4.447  1.00 20.00    -0.195 NA
ENDROOT
BRANCH   2   4
HETATM    4  N13 UNL     1     -34.644  16.176  -4.530  1.00 20.00     0.101 N 
HETATM    5  C7  UNL     1     -36.047  16.532  -4.781  1.00 20.00     0.274 C 
HETATM    6  C6  UNL     1     -36.491  17.709  -3.909  1.00 20.00     0.035 C 
HETATM    7  C9  UNL     1     -36.265  17.405  -2.425  1.00 20.00    -0.007 C 
HETATM    8  C4  UNL     1     -36.646  18.592  -1.534  1.00 20.00     0.005 C 
HETATM    9  C10 UNL     1     -34.798  17.000  -2.200  1.00 20.00     0.018 C 
HETATM   10  C2  UNL     1     -36.389  18.279  -0.062  1.00 20.00     0.000 C 
HETATM   11  C3  UNL     1     -34.951  17.826   0.183  1.00 20.00     0.000 C 
HETATM   12  C5  UNL     1     -34.556  16.661  -0.724  1.00 20.00     0.007 C 
HETATM   13  C8  UNL     1     -34.419  15.827  -3.119  1.00 20.00     0.278 C 
ENDBRANCH   2   4
TORSDOF 1
ENDMDL
MODEL 7
REMARK VINA RESULT:      -4.7      2.149      5.252
REMARK  1 active torsions:
REMARK  status: ('A' for Active; 'I' for Inactive)
REMARK    1  A    between atoms: C11_11  and  N13_13 
ROOT
HETATM    1  C1  UNL     1     -33.843  17.405  -0.868  1.00 20.00     0.089 C 
HETATM    2  C11 UNL     1     -34.756  16.428  -1.460  1.00 20.00     0.395 C 
HETATM    3  N12 UNL     1     -33.120  18.180  -0.396  1.00 20.00    -0.195 NA
ENDROOT
BRANCH   2   4
HETATM    4  N13 UNL     1     -34.661  16.442  -2.919  1.00 20.00     0.101 N 
HETATM    5  C7  UNL     1     -33.383  15.867  -3.357  1.00 20.00     0.274 C 
HETATM    6  C6  UNL     1     -33.242  15.909  -4.881  1.00 20.00     0.035 C 
HETATM    7  C9  UNL     1     -34.418  15.197  -5.557  1.00 20.00    -0.007 C 
HETATM    8  C4  UNL     1     -34.332  15.276  -7.085  1.00 20.00     0.005 C 
HETATM    9  C10 UNL     1     -35.742  15.794  -5.051  1.00 20.00     0.018 C 
HETATM   10  C2  UNL     1     -35.525  14.583  -7.739  1.00 20.00     0.000 C 
HETATM   11  C3  UNL     1     -36.855  15.124  -7.218  1.00 20.00     0.000 C 
HETATM   12  C5  UNL     1     -36.935  15.075  -5.693  1.00 20.00     0.007 C 
HETATM   13  C8  UNL     1     -35.805  15.734  -3.516  1.00 20.00     0.278 C 
ENDBRANCH   2   4
TORSDOF 1
ENDMDL
MODEL 8
REMARK VINA RESULT:      -4.6      2.285      4.943
REMARK  1 active torsions:
REMARK  status: ('A' for Active; 'I' for Inactive)
REMARK    1  A    between atoms: C11_11  and  N13_13 
ROOT
HETATM    1  C1  UNL     1     -32.525  18.831   0.099  1.00 20.00     0.089 C 
HETATM    2  C11 UNL     1     -33.940  18.469   0.028  1.00 20.00     0.395 C 
HETATM    3  N12 UNL     1     -31.403  19.120   0.159  1.00 20.00    -0.195 NA
ENDROOT
BRANCH   2   4
HETATM    4  N13 UNL     1     -34.315  18.098  -1.337  1.00 20.00     0.101 N 
HETATM    5  C7  UNL     1     -33.571  18.905  -2.312  1.00 20.00     0.274 C 
HETATM    6  C6  UNL     1     -33.977  18.564  -3.748  1.00 20.00     0.035 C 
HETATM    7  C9  UNL     1     -33.792  17.069  -4.026  1.00 20.00    -0.007 C 
HETATM    8  C4  UNL     1     -34.247  16.690  -5.439  1.00 20.00     0.005 C 
HETATM    9  C10 UNL     1     -34.550  16.250  -2.968  1.00 20.00     0.018 C 
HETATM   10  C2  UNL     1     -34.079  15.192  -5.688  1.00 20.00     0.000 C 
HETATM   11  C3  UNL     1     -34.783  14.355  -4.623  1.00 20.00     0.000 C 
HETATM   12  C5  UNL     1     -34.354  14.748  -3.210  1.00 20.00     0.007 C 
HETATM   13  C8  UNL     1     -34.106  16.658  -1.555  1.00 20.00     0.278 C 
ENDBRANCH   2   4
TORSDOF 1
ENDMDL
MODEL 9
REMARK VINA RESULT:      -4.6      2.561      5.189
REMARK  1 active torsions:
REMARK  status: ('A' for Active; 'I' for Inactive)
REMARK    1  A    between atoms: C11_11  and  N13_13 
ROOT
HETATM    1  C1  UNL     1     -35.051  17.617   0.865  1.00 20.00     0.089 C 
HETATM    2  C11 UNL     1     -34.449  17.815  -0.453  1.00 20.00     0.395 C 
HETATM    3  N12 UNL     1     -35.526  17.462   1.912  1.00 20.00    -0.195 NA
ENDROOT
BRANCH   2   4
HETATM    4  N13 UNL     1     -35.084  16.953  -1.451  1.00 20.00     0.101 N 
HETATM    5  C7  UNL     1     -35.803  17.760  -2.445  1.00 20.00     0.274 C 
HETATM    6  C6  UNL     1     -36.510  16.878  -3.477  1.00 20.00     0.035 C 
HETATM    7  C9  UNL     1     -35.517  15.933  -4.160  1.00 20.00    -0.007 C 
HETATM    8  C4  UNL     1     -36.210  14.997  -5.156  1.00 20.00     0.005 C 
HETATM    9  C10 UNL     1     -34.753  15.129  -3.094  1.00 20.00     0.018 C 
HETATM   10  C2  UNL     1     -35.207  14.047  -5.806  1.00 20.00     0.000 C 
HETATM   11  C3  UNL     1     -34.400  13.271  -4.768  1.00 20.00     0.000 C 
HETATM   12  C5  UNL     1     -33.730  14.198  -3.754  1.00 20.00     0.007 C 
HETATM   13  C8  UNL     1     -34.085  16.078  -2.085  1.00 20.00     0.278 C 
ENDBRANCH   2   4
TORSDOF 1
ENDMDL
