MODEL 1
REMARK VINA RESULT:      -4.6      0.000      0.000
REMARK  0 active torsions:
REMARK  status: ('A' for Active; 'I' for Inactive)
ROOT
HETATM    1  C1  UNL     1     -34.914  13.957  -5.177  1.00 20.00     0.028 C 
HETATM    2  C2  UNL     1     -34.462  15.007  -2.960  1.00 20.00     0.033 C 
HETATM    3  C3  UNL     1     -34.143  17.412  -3.292  1.00 20.00     0.046 C 
HETATM    4  C4  UNL     1     -34.700  14.576  -6.487  1.00 20.00     0.112 C 
HETATM    5  C5  UNL     1     -34.320  14.845  -4.384  1.00 20.00    -0.025 C 
HETATM    6  C6  UNL     1     -34.356  16.245  -2.441  1.00 20.00     0.036 C 
HETATM    7  C7  UNL     1     -33.799  17.263  -4.585  1.00 20.00     0.042 C 
HETATM    8  C8  UNL     1     -33.574  15.893  -5.161  1.00 20.00     0.185 C 
HETATM    9  N9  UNL     1     -34.040  15.695  -6.553  1.00 20.00    -0.286 NA
HETATM   10 CL10 UNL     1     -34.577  16.510  -0.750  1.00 20.00    -0.084 Cl
HETATM   11 CL11 UNL     1     -33.510  18.624  -5.599  1.00 20.00    -0.086 Cl
ENDROOT
TORSDOF 0
ENDMDL
MODEL 2
REMARK VINA RESULT:      -4.4      2.270      3.817
REMARK  0 active torsions:
REMARK  status: ('A' for Active; 'I' for Inactive)
ROOT
HETATM    1  C1  UNL     1     -33.683  18.145  -5.299  1.00 20.00     0.028 C 
HETATM    2  C2  UNL     1     -33.879  15.659  -5.234  1.00 20.00     0.033 C 
HETATM    3  C3  UNL     1     -34.760  15.008  -3.045  1.00 20.00     0.046 C 
HETATM    4  C4  UNL     1     -33.750  19.048  -4.149  1.00 20.00     0.112 C 
HETATM    5  C5  UNL     1     -33.625  16.966  -4.685  1.00 20.00    -0.025 C 
HETATM    6  C6  UNL     1     -34.409  14.717  -4.431  1.00 20.00     0.036 C 
HETATM    7  C7  UNL     1     -34.342  16.144  -2.456  1.00 20.00     0.042 C 
HETATM    8  C8  UNL     1     -33.456  17.107  -3.199  1.00 20.00     0.185 C 
HETATM    9  N9  UNL     1     -33.717  18.544  -2.951  1.00 20.00    -0.286 NA
HETATM   10 CL10 UNL     1     -34.791  13.151  -5.048  1.00 20.00    -0.084 Cl
HETATM   11 CL11 UNL     1     -34.715  16.494  -0.813  1.00 20.00    -0.086 Cl
ENDROOT
TORSDOF 0
ENDMDL
MODEL 3
REMARK VINA RESULT:      -4.4      2.342      3.588
REMARK  0 active torsions:
REMARK  status: ('A' for Active; 'I' for Inactive)
ROOT
HETATM    1  C1  UNL     1     -34.393  16.638  -1.062  1.00 20.00     0.028 C 
HETATM    2  C2  UNL     1     -34.720  14.953  -2.870  1.00 20.00     0.033 C 
HETATM    3  C3  UNL     1     -33.840  15.876  -4.960  1.00 20.00     0.046 C 
HETATM    4  C4  UNL     1     -34.054  18.051  -1.247  1.00 20.00     0.112 C 
HETATM    5  C5  UNL     1     -34.653  16.280  -2.316  1.00 20.00    -0.025 C 
HETATM    6  C6  UNL     1     -34.344  14.771  -4.151  1.00 20.00     0.036 C 
HETATM    7  C7  UNL     1     -33.966  17.148  -4.537  1.00 20.00     0.042 C 
HETATM    8  C8  UNL     1     -34.680  17.457  -3.250  1.00 20.00     0.185 C 
HETATM    9  N9  UNL     1     -34.105  18.558  -2.444  1.00 20.00    -0.286 NA
HETATM   10 CL10 UNL     1     -34.346  13.194  -4.851  1.00 20.00    -0.084 Cl
HETATM   11 CL11 UNL     1     -33.409  18.469  -5.489  1.00 20.00    -0.086 Cl
ENDROOT
TORSDOF 0
ENDMDL
MODEL 4
REMARK VINA RESULT:      -4.3      2.247      2.570
REMARK  0 active torsions:
REMARK  status: ('A' for Active; 'I' for Inactive)
ROOT
HETATM    1  C1  UNL     1     -33.684  13.722  -3.929  1.00 20.00     0.028 C 
HETATM    2  C2  UNL     1     -33.383  15.873  -2.703  1.00 20.00     0.033 C 
HETATM    3  C3  UNL     1     -35.594  16.783  -2.177  1.00 20.00     0.046 C 
HETATM    4  C4  UNL     1     -34.926  13.237  -4.533  1.00 20.00     0.112 C 
HETATM    5  C5  UNL     1     -34.029  14.968  -3.618  1.00 20.00    -0.025 C 
HETATM    6  C6  UNL     1     -34.142  16.757  -2.028  1.00 20.00     0.036 C 
HETATM    7  C7  UNL     1     -36.193  16.100  -3.171  1.00 20.00     0.042 C 
HETATM    8  C8  UNL     1     -35.372  15.343  -4.179  1.00 20.00     0.185 C 
HETATM    9  N9  UNL     1     -35.937  14.050  -4.630  1.00 20.00    -0.286 NA
HETATM   10 CL10 UNL     1     -33.432  17.825  -0.874  1.00 20.00    -0.084 Cl
HETATM   11 CL11 UNL     1     -37.900  16.142  -3.387  1.00 20.00    -0.086 Cl
ENDROOT
TORSDOF 0
ENDMDL
MODEL 5
REMARK VINA RESULT:      -4.3      1.488      3.218
REMARK  0 active torsions:
REMARK  status: ('A' for Active; 'I' for Inactive)
ROOT
HETATM    1  C1  UNL     1     -34.767  13.996  -5.937  1.00 20.00     0.028 C 
HETATM    2  C2  UNL     1     -34.531  16.431  -6.418  1.00 20.00     0.033 C 
HETATM    3  C3  UNL     1     -33.668  17.538  -4.411  1.00 20.00     0.046 C 
HETATM    4  C4  UNL     1     -34.730  13.367  -4.614  1.00 20.00     0.112 C 
HETATM    5  C5  UNL     1     -34.814  15.281  -5.598  1.00 20.00    -0.025 C 
HETATM    6  C6  UNL     1     -33.997  17.521  -5.833  1.00 20.00     0.036 C 
HETATM    7  C7  UNL     1     -34.113  16.566  -3.594  1.00 20.00     0.042 C 
HETATM    8  C8  UNL     1     -35.004  15.474  -4.120  1.00 20.00     0.185 C 
HETATM    9  N9  UNL     1     -34.770  14.124  -3.557  1.00 20.00    -0.286 NA
HETATM   10 CL10 UNL     1     -33.580  18.907  -6.774  1.00 20.00    -0.084 Cl
HETATM   11 CL11 UNL     1     -33.767  16.582  -1.908  1.00 20.00    -0.086 Cl
ENDROOT
TORSDOF 0
ENDMDL
MODEL 6
REMARK VINA RESULT:      -4.3      1.942      2.075
REMARK  0 active torsions:
REMARK  status: ('A' for Active; 'I' for Inactive)
ROOT
HETATM    1  C1  UNL     1     -33.988  13.660  -4.152  1.00 20.00     0.028 C 
HETATM    2  C2  UNL     1     -34.066  15.489  -2.459  1.00 20.00     0.033 C 
HETATM    3  C3  UNL     1     -36.155  16.731  -2.754  1.00 20.00     0.046 C 
HETATM    4  C4  UNL     1     -34.848  13.535  -5.331  1.00 20.00     0.112 C 
HETATM    5  C5  UNL     1     -34.303  14.887  -3.745  1.00 20.00    -0.025 C 
HETATM    6  C6  UNL     1     -34.954  16.391  -1.998  1.00 20.00     0.036 C 
HETATM    7  C7  UNL     1     -36.290  16.346  -4.037  1.00 20.00     0.042 C 
HETATM    8  C8  UNL     1     -35.179  15.607  -4.731  1.00 20.00     0.185 C 
HETATM    9  N9  UNL     1     -35.603  14.540  -5.668  1.00 20.00    -0.286 NA
HETATM   10 CL10 UNL     1     -34.756  17.102  -0.438  1.00 20.00    -0.084 Cl
HETATM   11 CL11 UNL     1     -37.682  16.763  -4.959  1.00 20.00    -0.086 Cl
ENDROOT
TORSDOF 0
ENDMDL
MODEL 7
REMARK VINA RESULT:      -4.1      2.303      3.488
REMARK  0 active torsions:
REMARK  status: ('A' for Active; 'I' for Inactive)
ROOT
HETATM    1  C1  UNL     1     -33.763  14.706  -3.578  1.00 20.00     0.028 C 
HETATM    2  C2  UNL     1     -33.353  16.748  -4.950  1.00 20.00     0.033 C 
HETATM    3  C3  UNL     1     -34.983  16.796  -6.776  1.00 20.00     0.046 C 
HETATM    4  C4  UNL     1     -34.591  13.560  -3.959  1.00 20.00     0.112 C 
HETATM    5  C5  UNL     1     -33.720  15.373  -4.728  1.00 20.00    -0.025 C 
HETATM    6  C6  UNL     1     -33.953  17.419  -5.951  1.00 20.00     0.036 C 
HETATM    7  C7  UNL     1     -35.189  15.466  -6.726  1.00 20.00     0.042 C 
HETATM    8  C8  UNL     1     -34.322  14.592  -5.861  1.00 20.00     0.185 C 
HETATM    9  N9  UNL     1     -35.012  13.469  -5.186  1.00 20.00    -0.286 NA
HETATM   10 CL10 UNL     1     -33.598  19.085  -6.227  1.00 20.00    -0.084 Cl
HETATM   11 CL11 UNL     1     -36.375  14.704  -7.713  1.00 20.00    -0.086 Cl
ENDROOT
TORSDOF 0
ENDMDL
MODEL 8
REMARK VINA RESULT:      -4.1      1.968      2.751
REMARK  0 active torsions:
REMARK  status: ('A' for Active; 'I' for Inactive)
ROOT
HETATM    1  C1  UNL     1     -34.451  17.803  -5.889  1.00 20.00     0.028 C 
HETATM    2  C2  UNL     1     -34.823  17.320  -3.471  1.00 20.00     0.033 C 
HETATM    3  C3  UNL     1     -34.511  14.920  -3.102  1.00 20.00     0.046 C 
HETATM    4  C4  UNL     1     -34.390  16.816  -6.969  1.00 20.00     0.112 C 
HETATM    5  C5  UNL     1     -34.876  17.044  -4.883  1.00 20.00    -0.025 C 
HETATM    6  C6  UNL     1     -34.667  16.289  -2.619  1.00 20.00     0.036 C 
HETATM    7  C7  UNL     1     -34.766  14.614  -4.388  1.00 20.00     0.042 C 
HETATM    8  C8  UNL     1     -35.270  15.667  -5.337  1.00 20.00     0.185 C 
HETATM    9  N9  UNL     1     -34.746  15.590  -6.721  1.00 20.00    -0.286 NA
HETATM   10 CL10 UNL     1     -34.537  16.564  -0.921  1.00 20.00    -0.084 Cl
HETATM   11 CL11 UNL     1     -34.621  13.002  -4.973  1.00 20.00    -0.086 Cl
ENDROOT
TORSDOF 0
ENDMDL
MODEL 9
REMARK VINA RESULT:      -4.1      3.033      3.841
REMARK  0 active torsions:
REMARK  status: ('A' for Active; 'I' for Inactive)
ROOT
HETATM    1  C1  UNL     1     -35.907  14.909  -7.918  1.00 20.00     0.028 C 
HETATM    2  C2  UNL     1     -34.451  14.608  -5.916  1.00 20.00     0.033 C 
HETATM    3  C3  UNL     1     -35.880  14.175  -3.975  1.00 20.00     0.046 C 
HETATM    4  C4  UNL     1     -37.355  15.129  -7.910  1.00 20.00     0.112 C 
HETATM    5  C5  UNL     1     -35.630  15.036  -6.623  1.00 20.00    -0.025 C 
HETATM    6  C6  UNL     1     -34.578  14.213  -4.634  1.00 20.00     0.036 C 
HETATM    7  C7  UNL     1     -36.951  14.764  -4.540  1.00 20.00     0.042 C 
HETATM    8  C8  UNL     1     -36.813  15.519  -5.833  1.00 20.00     0.185 C 
HETATM    9  N9  UNL     1     -37.945  15.388  -6.780  1.00 20.00    -0.286 NA
HETATM   10 CL10 UNL     1     -33.212  13.633  -3.754  1.00 20.00    -0.084 Cl
HETATM   11 CL11 UNL     1     -38.489  14.761  -3.767  1.00 20.00    -0.086 Cl
ENDROOT
TORSDOF 0
ENDMDL
