MODEL 1
REMARK VINA RESULT:      -4.7      0.000      0.000
REMARK  3 active torsions:
REMARK  status: ('A' for Active; 'I' for Inactive)
REMARK    1  A    between atoms: C1_1  and  C6_6 
REMARK    2  A    between atoms: C5_5  and  C7_7 
REMARK    3  A    between atoms: C6_6  and  C7_7 
ROOT
HETATM    1  C2  UNL     1     -35.040   4.760   4.489  1.00 20.00     0.033 C 
HETATM    2  C3  UNL     1     -35.165   4.414   5.959  1.00 20.00     0.168 C 
HETATM    3  C4  UNL     1     -33.997   6.422   5.775  1.00 20.00     0.172 C 
HETATM    4  C5  UNL     1     -33.811   5.641   4.485  1.00 20.00     0.012 C 
HETATM    5  O9  UNL     1     -34.658   5.538   6.693  1.00 20.00    -0.391 OA
ENDROOT
BRANCH   4   6
HETATM    6  C7  UNL     1     -33.678   6.517   3.253  1.00 20.00     0.013 C 
BRANCH   6   7
HETATM    7  C6  UNL     1     -32.221   6.862   2.964  1.00 20.00     0.070 C 
BRANCH   7   8
HETATM    8  C1  UNL     1     -32.062   8.207   2.297  1.00 20.00     0.231 C 
HETATM    9  O8  UNL     1     -31.643   8.377   1.157  1.00 20.00    -0.307 OA
ENDBRANCH   7   8
ENDBRANCH   6   7
ENDBRANCH   4   6
TORSDOF 3
ENDMDL
MODEL 2
REMARK VINA RESULT:      -4.7      0.863      1.396
REMARK  3 active torsions:
REMARK  status: ('A' for Active; 'I' for Inactive)
REMARK    1  A    between atoms: C1_1  and  C6_6 
REMARK    2  A    between atoms: C5_5  and  C7_7 
REMARK    3  A    between atoms: C6_6  and  C7_7 
ROOT
HETATM    1  C2  UNL     1     -33.851   6.217   5.478  1.00 20.00     0.033 C 
HETATM    2  C3  UNL     1     -34.680   5.570   6.568  1.00 20.00     0.168 C 
HETATM    3  C4  UNL     1     -34.974   4.353   4.603  1.00 20.00     0.172 C 
HETATM    4  C5  UNL     1     -34.583   5.773   4.231  1.00 20.00     0.012 C 
HETATM    5  O9  UNL     1     -35.208   4.354   6.019  1.00 20.00    -0.391 OA
ENDROOT
BRANCH   4   6
HETATM    6  C7  UNL     1     -33.761   5.868   2.960  1.00 20.00     0.013 C 
BRANCH   6   7
HETATM    7  C6  UNL     1     -32.338   6.338   3.244  1.00 20.00     0.070 C 
BRANCH   7   8
HETATM    8  C1  UNL     1     -32.082   7.746   2.766  1.00 20.00     0.231 C 
HETATM    9  O8  UNL     1     -31.816   8.055   1.609  1.00 20.00    -0.307 OA
ENDBRANCH   7   8
ENDBRANCH   6   7
ENDBRANCH   4   6
TORSDOF 3
ENDMDL
MODEL 3
REMARK VINA RESULT:      -4.0     11.368     12.283
REMARK  3 active torsions:
REMARK  status: ('A' for Active; 'I' for Inactive)
REMARK    1  A    between atoms: C1_1  and  C6_6 
REMARK    2  A    between atoms: C5_5  and  C7_7 
REMARK    3  A    between atoms: C6_6  and  C7_7 
ROOT
HETATM    1  C2  UNL     1     -34.691  16.937  -0.396  1.00 20.00     0.033 C 
HETATM    2  C3  UNL     1     -33.795  18.110  -0.055  1.00 20.00     0.168 C 
HETATM    3  C4  UNL     1     -33.807  17.846  -2.370  1.00 20.00     0.172 C 
HETATM    4  C5  UNL     1     -34.135  16.505  -1.735  1.00 20.00     0.012 C 
HETATM    5  O9  UNL     1     -33.418  18.719  -1.298  1.00 20.00    -0.391 OA
ENDROOT
BRANCH   4   6
HETATM    6  C7  UNL     1     -35.083  15.654  -2.557  1.00 20.00     0.013 C 
BRANCH   6   7
HETATM    7  C6  UNL     1     -34.334  14.609  -3.376  1.00 20.00     0.070 C 
BRANCH   7   8
HETATM    8  C1  UNL     1     -35.260  13.696  -4.143  1.00 20.00     0.231 C 
HETATM    9  O8  UNL     1     -34.954  12.587  -4.569  1.00 20.00    -0.307 OA
ENDBRANCH   7   8
ENDBRANCH   6   7
ENDBRANCH   4   6
TORSDOF 3
ENDMDL
MODEL 4
REMARK VINA RESULT:      -4.0     11.200     11.849
REMARK  3 active torsions:
REMARK  status: ('A' for Active; 'I' for Inactive)
REMARK    1  A    between atoms: C1_1  and  C6_6 
REMARK    2  A    between atoms: C5_5  and  C7_7 
REMARK    3  A    between atoms: C6_6  and  C7_7 
ROOT
HETATM    1  C2  UNL     1     -35.382  14.611  -3.549  1.00 20.00     0.033 C 
HETATM    2  C3  UNL     1     -35.180  13.362  -4.382  1.00 20.00     0.168 C 
HETATM    3  C4  UNL     1     -33.097  14.084  -3.627  1.00 20.00     0.172 C 
HETATM    4  C5  UNL     1     -34.031  15.281  -3.669  1.00 20.00     0.012 C 
HETATM    5  O9  UNL     1     -33.797  13.001  -4.258  1.00 20.00    -0.391 OA
ENDROOT
BRANCH   4   6
HETATM    6  C7  UNL     1     -33.751  16.314  -2.594  1.00 20.00     0.013 C 
BRANCH   6   7
HETATM    7  C6  UNL     1     -34.776  16.244  -1.467  1.00 20.00     0.070 C 
BRANCH   7   8
HETATM    8  C1  UNL     1     -34.448  17.172  -0.323  1.00 20.00     0.231 C 
HETATM    9  O8  UNL     1     -35.176  17.376   0.643  1.00 20.00    -0.307 OA
ENDBRANCH   7   8
ENDBRANCH   6   7
ENDBRANCH   4   6
TORSDOF 3
ENDMDL
MODEL 5
REMARK VINA RESULT:      -4.0     10.927     12.133
REMARK  3 active torsions:
REMARK  status: ('A' for Active; 'I' for Inactive)
REMARK    1  A    between atoms: C1_1  and  C6_6 
REMARK    2  A    between atoms: C5_5  and  C7_7 
REMARK    3  A    between atoms: C6_6  and  C7_7 
ROOT
HETATM    1  C2  UNL     1     -34.626  15.062  -5.311  1.00 20.00     0.033 C 
HETATM    2  C3  UNL     1     -34.883  13.635  -5.748  1.00 20.00     0.168 C 
HETATM    3  C4  UNL     1     -34.242  13.612  -3.508  1.00 20.00     0.172 C 
HETATM    4  C5  UNL     1     -33.671  14.862  -4.155  1.00 20.00     0.012 C 
HETATM    5  O9  UNL     1     -34.792  12.819  -4.571  1.00 20.00    -0.391 OA
ENDROOT
BRANCH   4   6
HETATM    6  C7  UNL     1     -33.574  16.048  -3.215  1.00 20.00     0.013 C 
BRANCH   6   7
HETATM    7  C6  UNL     1     -34.607  15.964  -2.096  1.00 20.00     0.070 C 
BRANCH   7   8
HETATM    8  C1  UNL     1     -34.301  16.897  -0.949  1.00 20.00     0.231 C 
HETATM    9  O8  UNL     1     -34.914  16.925   0.113  1.00 20.00    -0.307 OA
ENDBRANCH   7   8
ENDBRANCH   6   7
ENDBRANCH   4   6
TORSDOF 3
ENDMDL
MODEL 6
REMARK VINA RESULT:      -3.8     11.324     12.385
REMARK  3 active torsions:
REMARK  status: ('A' for Active; 'I' for Inactive)
REMARK    1  A    between atoms: C1_1  and  C6_6 
REMARK    2  A    between atoms: C5_5  and  C7_7 
REMARK    3  A    between atoms: C6_6  and  C7_7 
ROOT
HETATM    1  C2  UNL     1     -34.762  16.282  -1.411  1.00 20.00     0.033 C 
HETATM    2  C3  UNL     1     -35.033  17.640  -0.797  1.00 20.00     0.168 C 
HETATM    3  C4  UNL     1     -33.976  17.960  -2.848  1.00 20.00     0.172 C 
HETATM    4  C5  UNL     1     -33.597  16.585  -2.326  1.00 20.00     0.012 C 
HETATM    5  O9  UNL     1     -34.682  18.619  -1.785  1.00 20.00    -0.391 OA
ENDROOT
BRANCH   4   6
HETATM    6  C7  UNL     1     -33.378  15.555  -3.417  1.00 20.00     0.013 C 
BRANCH   6   7
HETATM    7  C6  UNL     1     -34.392  14.420  -3.330  1.00 20.00     0.070 C 
BRANCH   7   8
HETATM    8  C1  UNL     1     -34.602  13.724  -4.654  1.00 20.00     0.231 C 
HETATM    9  O8  UNL     1     -34.831  12.526  -4.785  1.00 20.00    -0.307 OA
ENDBRANCH   7   8
ENDBRANCH   6   7
ENDBRANCH   4   6
TORSDOF 3
ENDMDL
MODEL 7
REMARK VINA RESULT:      -3.6     11.470     12.412
REMARK  3 active torsions:
REMARK  status: ('A' for Active; 'I' for Inactive)
REMARK    1  A    between atoms: C1_1  and  C6_6 
REMARK    2  A    between atoms: C5_5  and  C7_7 
REMARK    3  A    between atoms: C6_6  and  C7_7 
ROOT
HETATM    1  C2  UNL     1     -35.454  15.076  -3.276  1.00 20.00     0.033 C 
HETATM    2  C3  UNL     1     -34.882  16.024  -2.244  1.00 20.00     0.168 C 
HETATM    3  C4  UNL     1     -33.122  15.175  -3.513  1.00 20.00     0.172 C 
HETATM    4  C5  UNL     1     -34.269  14.179  -3.559  1.00 20.00     0.012 C 
HETATM    5  O9  UNL     1     -33.485  16.168  -2.542  1.00 20.00    -0.391 OA
ENDROOT
BRANCH   4   6
HETATM    6  C7  UNL     1     -34.364  13.416  -4.867  1.00 20.00     0.013 C 
BRANCH   6   7
HETATM    7  C6  UNL     1     -35.288  14.113  -5.859  1.00 20.00     0.070 C 
BRANCH   7   8
HETATM    8  C1  UNL     1     -34.534  14.829  -6.954  1.00 20.00     0.231 C 
HETATM    9  O8  UNL     1     -34.028  15.941  -6.843  1.00 20.00    -0.307 OA
ENDBRANCH   7   8
ENDBRANCH   6   7
ENDBRANCH   4   6
TORSDOF 3
ENDMDL
MODEL 8
REMARK VINA RESULT:      -3.5     11.392     12.748
REMARK  3 active torsions:
REMARK  status: ('A' for Active; 'I' for Inactive)
REMARK    1  A    between atoms: C1_1  and  C6_6 
REMARK    2  A    between atoms: C5_5  and  C7_7 
REMARK    3  A    between atoms: C6_6  and  C7_7 
ROOT
HETATM    1  C2  UNL     1     -33.808  15.548  -4.643  1.00 20.00     0.033 C 
HETATM    2  C3  UNL     1     -32.964  14.752  -3.669  1.00 20.00     0.168 C 
HETATM    3  C4  UNL     1     -34.510  13.310  -4.649  1.00 20.00     0.172 C 
HETATM    4  C5  UNL     1     -35.072  14.720  -4.702  1.00 20.00     0.012 C 
HETATM    5  O9  UNL     1     -33.328  13.374  -3.836  1.00 20.00    -0.391 OA
ENDROOT
BRANCH   4   6
HETATM    6  C7  UNL     1     -35.936  14.989  -5.919  1.00 20.00     0.013 C 
BRANCH   6   7
HETATM    7  C6  UNL     1     -37.325  15.481  -5.525  1.00 20.00     0.070 C 
BRANCH   7   8
HETATM    8  C1  UNL     1     -37.697  15.105  -4.111  1.00 20.00     0.231 C 
HETATM    9  O8  UNL     1     -38.432  14.171  -3.806  1.00 20.00    -0.307 OA
ENDBRANCH   7   8
ENDBRANCH   6   7
ENDBRANCH   4   6
TORSDOF 3
ENDMDL
MODEL 9
REMARK VINA RESULT:      -3.5     11.252     12.130
REMARK  3 active torsions:
REMARK  status: ('A' for Active; 'I' for Inactive)
REMARK    1  A    between atoms: C1_1  and  C6_6 
REMARK    2  A    between atoms: C5_5  and  C7_7 
REMARK    3  A    between atoms: C6_6  and  C7_7 
ROOT
HETATM    1  C2  UNL     1     -32.989  18.234  -0.614  1.00 20.00     0.033 C 
HETATM    2  C3  UNL     1     -33.686  18.635   0.669  1.00 20.00     0.168 C 
HETATM    3  C4  UNL     1     -34.861  16.860  -0.278  1.00 20.00     0.172 C 
HETATM    4  C5  UNL     1     -34.118  17.586  -1.386  1.00 20.00     0.012 C 
HETATM    5  O9  UNL     1     -34.716  17.664   0.902  1.00 20.00    -0.391 OA
ENDROOT
BRANCH   4   6
HETATM    6  C7  UNL     1     -33.660  16.679  -2.513  1.00 20.00     0.013 C 
BRANCH   6   7
HETATM    7  C6  UNL     1     -34.576  15.469  -2.667  1.00 20.00     0.070 C 
BRANCH   7   8
HETATM    8  C1  UNL     1     -33.984  14.400  -3.553  1.00 20.00     0.231 C 
HETATM    9  O8  UNL     1     -34.257  13.206  -3.486  1.00 20.00    -0.307 OA
ENDBRANCH   7   8
ENDBRANCH   6   7
ENDBRANCH   4   6
TORSDOF 3
ENDMDL
