MODEL 1
REMARK VINA RESULT:      -5.1      0.000      0.000
REMARK  1 active torsions:
REMARK  status: ('A' for Active; 'I' for Inactive)
REMARK    1  A    between atoms: C2_2  and  C6_6 
REMARK       I    between atoms: C2_2  and  N7_7 
ROOT
HETATM    1  C1  UNL     1     -32.244   7.670   2.498  1.00 20.00     0.167 C 
HETATM    2  C2  UNL     1     -33.476   5.983   3.152  1.00 20.00     0.273 C 
HETATM    3  N7  UNL     1     -32.417   6.849   3.318  1.00 20.00    -0.197 NA
HETATM    4  O8  UNL     1     -33.670   5.209   2.219  1.00 20.00    -0.268 OA
HETATM    5  S10 UNL     1     -31.981   8.798   1.404  1.00 20.00    -0.055 SA
ENDROOT
BRANCH   2   6
HETATM    6  C6  UNL     1     -34.474   6.036   4.261  1.00 20.00     0.215 C 
HETATM    7  C4  UNL     1     -33.834   6.278   5.616  1.00 20.00     0.044 C 
HETATM    8  C3  UNL     1     -34.664   5.406   6.524  1.00 20.00     0.029 C 
HETATM    9  C5  UNL     1     -34.961   4.223   5.633  1.00 20.00     0.168 C 
HETATM   10  O9  UNL     1     -35.093   4.745   4.305  1.00 20.00    -0.376 OA
ENDBRANCH   2   6
TORSDOF 1
ENDMDL
MODEL 2
REMARK VINA RESULT:      -4.2     11.727     12.444
REMARK  1 active torsions:
REMARK  status: ('A' for Active; 'I' for Inactive)
REMARK    1  A    between atoms: C2_2  and  C6_6 
REMARK       I    between atoms: C2_2  and  N7_7 
ROOT
HETATM    1  C1  UNL     1     -35.305  14.697  -6.567  1.00 20.00     0.167 C 
HETATM    2  C2  UNL     1     -34.525  13.662  -4.802  1.00 20.00     0.273 C 
HETATM    3  N7  UNL     1     -34.362  14.471  -5.906  1.00 20.00    -0.197 NA
HETATM    4  O8  UNL     1     -34.920  12.501  -4.778  1.00 20.00    -0.268 OA
HETATM    5  S10 UNL     1     -36.565  15.024  -7.485  1.00 20.00    -0.055 SA
ENDROOT
BRANCH   2   6
HETATM    6  C6  UNL     1     -34.168  14.326  -3.514  1.00 20.00     0.215 C 
HETATM    7  C4  UNL     1     -35.329  15.090  -2.905  1.00 20.00     0.044 C 
HETATM    8  C3  UNL     1     -34.648  16.308  -2.332  1.00 20.00     0.029 C 
HETATM    9  C5  UNL     1     -33.563  16.566  -3.352  1.00 20.00     0.168 C 
HETATM   10  O9  UNL     1     -33.145  15.279  -3.825  1.00 20.00    -0.376 OA
ENDBRANCH   2   6
TORSDOF 1
ENDMDL
MODEL 3
REMARK VINA RESULT:      -3.9     11.665     12.352
REMARK  1 active torsions:
REMARK  status: ('A' for Active; 'I' for Inactive)
REMARK    1  A    between atoms: C2_2  and  C6_6 
REMARK       I    between atoms: C2_2  and  N7_7 
ROOT
HETATM    1  C1  UNL     1     -34.571  16.785  -0.831  1.00 20.00     0.167 C 
HETATM    2  C2  UNL     1     -34.933  16.299  -2.935  1.00 20.00     0.273 C 
HETATM    3  N7  UNL     1     -34.181  16.220  -1.783  1.00 20.00    -0.197 NA
HETATM    4  O8  UNL     1     -35.239  17.310  -3.560  1.00 20.00    -0.268 OA
HETATM    5  S10 UNL     1     -35.072  17.540   0.480  1.00 20.00    -0.055 SA
ENDROOT
BRANCH   2   6
HETATM    6  C6  UNL     1     -35.408  14.975  -3.433  1.00 20.00     0.215 C 
HETATM    7  C4  UNL     1     -34.289  13.957  -3.557  1.00 20.00     0.044 C 
HETATM    8  C3  UNL     1     -34.666  13.215  -4.814  1.00 20.00     0.029 C 
HETATM    9  C5  UNL     1     -35.262  14.317  -5.659  1.00 20.00     0.168 C 
HETATM   10  O9  UNL     1     -35.925  15.204  -4.749  1.00 20.00    -0.376 OA
ENDBRANCH   2   6
TORSDOF 1
ENDMDL
MODEL 4
REMARK VINA RESULT:      -3.9     11.659     12.490
REMARK  1 active torsions:
REMARK  status: ('A' for Active; 'I' for Inactive)
REMARK    1  A    between atoms: C2_2  and  C6_6 
REMARK       I    between atoms: C2_2  and  N7_7 
ROOT
HETATM    1  C1  UNL     1     -37.127  14.814  -4.579  1.00 20.00     0.167 C 
HETATM    2  C2  UNL     1     -35.099  14.065  -4.237  1.00 20.00     0.273 C 
HETATM    3  N7  UNL     1     -36.000  14.871  -4.900  1.00 20.00    -0.197 NA
HETATM    4  O8  UNL     1     -35.102  12.840  -4.168  1.00 20.00    -0.268 OA
HETATM    5  S10 UNL     1     -38.666  14.763  -4.168  1.00 20.00    -0.055 SA
ENDROOT
BRANCH   2   6
HETATM    6  C6  UNL     1     -34.017  14.821  -3.540  1.00 20.00     0.215 C 
HETATM    7  C4  UNL     1     -34.508  15.533  -2.293  1.00 20.00     0.044 C 
HETATM    8  C3  UNL     1     -33.732  16.825  -2.333  1.00 20.00     0.029 C 
HETATM    9  C5  UNL     1     -33.667  17.104  -3.816  1.00 20.00     0.168 C 
HETATM   10  O9  UNL     1     -33.574  15.826  -4.459  1.00 20.00    -0.376 OA
ENDBRANCH   2   6
TORSDOF 1
ENDMDL
MODEL 5
REMARK VINA RESULT:      -3.8     11.965     12.639
REMARK  1 active torsions:
REMARK  status: ('A' for Active; 'I' for Inactive)
REMARK    1  A    between atoms: C2_2  and  C6_6 
REMARK       I    between atoms: C2_2  and  N7_7 
ROOT
HETATM    1  C1  UNL     1     -34.612  14.513  -5.515  1.00 20.00     0.167 C 
HETATM    2  C2  UNL     1     -34.958  15.128  -3.443  1.00 20.00     0.273 C 
HETATM    3  N7  UNL     1     -34.377  14.306  -4.384  1.00 20.00    -0.197 NA
HETATM    4  O8  UNL     1     -36.155  15.308  -3.244  1.00 20.00    -0.268 OA
HETATM    5  S10 UNL     1     -34.909  14.766  -7.060  1.00 20.00    -0.055 SA
ENDROOT
BRANCH   2   6
HETATM    6  C6  UNL     1     -33.971  15.861  -2.596  1.00 20.00     0.215 C 
HETATM    7  C4  UNL     1     -34.572  16.368  -1.298  1.00 20.00     0.044 C 
HETATM    8  C3  UNL     1     -33.896  17.705  -1.131  1.00 20.00     0.029 C 
HETATM    9  C5  UNL     1     -33.784  18.179  -2.561  1.00 20.00     0.168 C 
HETATM   10  O9  UNL     1     -33.564  17.005  -3.355  1.00 20.00    -0.376 OA
ENDBRANCH   2   6
TORSDOF 1
ENDMDL
MODEL 6
REMARK VINA RESULT:      -3.8     12.034     12.685
REMARK  1 active torsions:
REMARK  status: ('A' for Active; 'I' for Inactive)
REMARK    1  A    between atoms: C2_2  and  C6_6 
REMARK       I    between atoms: C2_2  and  N7_7 
ROOT
HETATM    1  C1  UNL     1     -38.906  14.647  -4.181  1.00 20.00     0.167 C 
HETATM    2  C2  UNL     1     -36.872  15.279  -3.676  1.00 20.00     0.273 C 
HETATM    3  N7  UNL     1     -37.877  14.337  -3.710  1.00 20.00    -0.197 NA
HETATM    4  O8  UNL     1     -36.890  16.372  -3.116  1.00 20.00    -0.268 OA
HETATM    5  S10 UNL     1     -40.316  15.035  -4.813  1.00 20.00    -0.055 SA
ENDROOT
BRANCH   2   6
HETATM    6  C6  UNL     1     -35.644  14.875  -4.422  1.00 20.00     0.215 C 
HETATM    7  C4  UNL     1     -35.145  13.497  -4.030  1.00 20.00     0.044 C 
HETATM    8  C3  UNL     1     -33.648  13.676  -4.062  1.00 20.00     0.029 C 
HETATM    9  C5  UNL     1     -33.493  15.095  -3.565  1.00 20.00     0.168 C 
HETATM   10  O9  UNL     1     -34.628  15.817  -4.061  1.00 20.00    -0.376 OA
ENDBRANCH   2   6
TORSDOF 1
ENDMDL
MODEL 7
REMARK VINA RESULT:      -3.8     11.652     13.254
REMARK  1 active torsions:
REMARK  status: ('A' for Active; 'I' for Inactive)
REMARK    1  A    between atoms: C2_2  and  C6_6 
REMARK       I    between atoms: C2_2  and  N7_7 
ROOT
HETATM    1  C1  UNL     1     -35.408  15.409  -3.029  1.00 20.00     0.167 C 
HETATM    2  C2  UNL     1     -35.419  13.888  -4.603  1.00 20.00     0.273 C 
HETATM    3  N7  UNL     1     -36.041  14.861  -3.851  1.00 20.00    -0.197 NA
HETATM    4  O8  UNL     1     -34.896  12.853  -4.202  1.00 20.00    -0.268 OA
HETATM    5  S10 UNL     1     -34.577  16.173  -1.904  1.00 20.00    -0.055 SA
ENDROOT
BRANCH   2   6
HETATM    6  C6  UNL     1     -35.408  14.178  -6.067  1.00 20.00     0.215 C 
HETATM    7  C4  UNL     1     -34.251  15.068  -6.482  1.00 20.00     0.044 C 
HETATM    8  C3  UNL     1     -34.880  15.945  -7.535  1.00 20.00     0.029 C 
HETATM    9  C5  UNL     1     -36.279  16.124  -6.995  1.00 20.00     0.168 C 
HETATM   10  O9  UNL     1     -36.618  14.893  -6.344  1.00 20.00    -0.376 OA
ENDBRANCH   2   6
TORSDOF 1
ENDMDL
MODEL 8
REMARK VINA RESULT:      -3.8     10.728     11.204
REMARK  1 active torsions:
REMARK  status: ('A' for Active; 'I' for Inactive)
REMARK    1  A    between atoms: C2_2  and  C6_6 
REMARK       I    between atoms: C2_2  and  N7_7 
ROOT
HETATM    1  C1  UNL     1     -43.266   2.836  -3.589  1.00 20.00     0.167 C 
HETATM    2  C2  UNL     1     -42.756   4.815  -2.802  1.00 20.00     0.273 C 
HETATM    3  N7  UNL     1     -43.192   3.518  -2.636  1.00 20.00    -0.197 NA
HETATM    4  O8  UNL     1     -43.266   5.693  -3.491  1.00 20.00    -0.268 OA
HETATM    5  S10 UNL     1     -43.377   1.883  -4.861  1.00 20.00    -0.055 SA
ENDROOT
BRANCH   2   6
HETATM    6  C6  UNL     1     -41.516   5.133  -2.036  1.00 20.00     0.215 C 
HETATM    7  C4  UNL     1     -41.656   4.859  -0.550  1.00 20.00     0.044 C 
HETATM    8  C3  UNL     1     -40.885   6.002   0.062  1.00 20.00     0.029 C 
HETATM    9  C5  UNL     1     -41.193   7.132  -0.892  1.00 20.00     0.168 C 
HETATM   10  O9  UNL     1     -41.297   6.540  -2.193  1.00 20.00    -0.376 OA
ENDBRANCH   2   6
TORSDOF 1
ENDMDL
MODEL 9
REMARK VINA RESULT:      -3.8     12.209     13.445
REMARK  1 active torsions:
REMARK  status: ('A' for Active; 'I' for Inactive)
REMARK    1  A    between atoms: C2_2  and  C6_6 
REMARK       I    between atoms: C2_2  and  N7_7 
ROOT
HETATM    1  C1  UNL     1     -33.810  15.984  -2.612  1.00 20.00     0.167 C 
HETATM    2  C2  UNL     1     -33.678  15.790  -4.788  1.00 20.00     0.273 C 
HETATM    3  N7  UNL     1     -33.384  15.363  -3.511  1.00 20.00    -0.197 NA
HETATM    4  O8  UNL     1     -33.401  16.871  -5.298  1.00 20.00    -0.268 OA
HETATM    5  S10 UNL     1     -34.373  16.804  -1.367  1.00 20.00    -0.055 SA
ENDROOT
BRANCH   2   6
HETATM    6  C6  UNL     1     -34.423  14.783  -5.600  1.00 20.00     0.215 C 
HETATM    7  C4  UNL     1     -34.317  15.036  -7.093  1.00 20.00     0.044 C 
HETATM    8  C3  UNL     1     -35.697  14.674  -7.580  1.00 20.00     0.029 C 
HETATM    9  C5  UNL     1     -36.565  15.141  -6.435  1.00 20.00     0.168 C 
HETATM   10  O9  UNL     1     -35.803  14.920  -5.240  1.00 20.00    -0.376 OA
ENDBRANCH   2   6
TORSDOF 1
ENDMDL
