MODEL 1
REMARK VINA RESULT:      -4.9      0.000      0.000
REMARK  1 active torsions:
REMARK  status: ('A' for Active; 'I' for Inactive)
REMARK    1  A    between atoms: C4_4  and  C5_5 
ROOT
HETATM    1  C1  UNL     1     -35.205   4.972   5.819  1.00 20.00     0.135 A 
HETATM    2  C2  UNL     1     -34.304   5.879   6.331  1.00 20.00     0.136 A 
HETATM    3  C3  UNL     1     -34.360   5.314   3.723  1.00 20.00     0.152 A 
HETATM    4  C4  UNL     1     -33.459   6.222   4.234  1.00 20.00     0.157 A 
HETATM    5  N6  UNL     1     -35.250   4.673   4.507  1.00 20.00    -0.269 NA
HETATM    6  N7  UNL     1     -33.414   6.521   5.547  1.00 20.00    -0.254 NA
ENDROOT
BRANCH   4   7
HETATM    7  C5  UNL     1     -32.490   6.911   3.337  1.00 20.00     0.435 C 
HETATM    8  F8  UNL     1     -33.051   7.897   2.575  1.00 20.00    -0.165 F 
HETATM    9  F9  UNL     1     -31.463   7.519   4.004  1.00 20.00    -0.165 F 
HETATM   10  F10 UNL     1     -31.894   6.060   2.451  1.00 20.00    -0.165 F 
ENDBRANCH   4   7
TORSDOF 1
ENDMDL
MODEL 2
REMARK VINA RESULT:      -4.9      0.857      1.509
REMARK  1 active torsions:
REMARK  status: ('A' for Active; 'I' for Inactive)
REMARK    1  A    between atoms: C4_4  and  C5_5 
ROOT
HETATM    1  C1  UNL     1     -35.190   5.008   5.933  1.00 20.00     0.135 A 
HETATM    2  C2  UNL     1     -35.179   4.711   4.589  1.00 20.00     0.136 A 
HETATM    3  C3  UNL     1     -33.476   6.488   5.619  1.00 20.00     0.152 A 
HETATM    4  C4  UNL     1     -33.464   6.190   4.274  1.00 20.00     0.157 A 
HETATM    5  N6  UNL     1     -34.338   5.903   6.472  1.00 20.00    -0.269 NA
HETATM    6  N7  UNL     1     -34.315   5.296   3.735  1.00 20.00    -0.254 NA
ENDROOT
BRANCH   4   7
HETATM    7  C5  UNL     1     -32.496   6.857   3.361  1.00 20.00     0.435 C 
HETATM    8  F8  UNL     1     -33.060   7.811   2.560  1.00 20.00    -0.165 F 
HETATM    9  F9  UNL     1     -31.479   7.498   4.013  1.00 20.00    -0.165 F 
HETATM   10  F10 UNL     1     -31.884   5.982   2.509  1.00 20.00    -0.165 F 
ENDBRANCH   4   7
TORSDOF 1
ENDMDL
MODEL 3
REMARK VINA RESULT:      -4.3      9.734     10.685
REMARK  1 active torsions:
REMARK  status: ('A' for Active; 'I' for Inactive)
REMARK    1  A    between atoms: C4_4  and  C5_5 
ROOT
HETATM    1  C1  UNL     1     -43.127   6.890  -3.677  1.00 20.00     0.135 A 
HETATM    2  C2  UNL     1     -42.141   7.558  -2.985  1.00 20.00     0.136 A 
HETATM    3  C3  UNL     1     -42.655   4.983  -2.508  1.00 20.00     0.152 A 
HETATM    4  C4  UNL     1     -41.668   5.650  -1.817  1.00 20.00     0.157 A 
HETATM    5  N6  UNL     1     -43.402   5.591  -3.450  1.00 20.00    -0.269 NA
HETATM    6  N7  UNL     1     -41.393   6.949  -2.043  1.00 20.00    -0.254 NA
ENDROOT
BRANCH   4   7
HETATM    7  C5  UNL     1     -40.862   4.945  -0.782  1.00 20.00     0.435 C 
HETATM    8  F8  UNL     1     -41.615   4.338   0.184  1.00 20.00    -0.165 F 
HETATM    9  F9  UNL     1     -40.068   3.953  -1.288  1.00 20.00    -0.165 F 
HETATM   10  F10 UNL     1     -40.015   5.781  -0.113  1.00 20.00    -0.165 F 
ENDBRANCH   4   7
TORSDOF 1
ENDMDL
MODEL 4
REMARK VINA RESULT:      -4.3     11.394     11.929
REMARK  1 active torsions:
REMARK  status: ('A' for Active; 'I' for Inactive)
REMARK    1  A    between atoms: C4_4  and  C5_5 
ROOT
HETATM    1  C1  UNL     1     -34.985  13.229  -4.597  1.00 20.00     0.135 A 
HETATM    2  C2  UNL     1     -36.047  14.034  -4.251  1.00 20.00     0.136 A 
HETATM    3  C3  UNL     1     -33.612  14.460  -3.246  1.00 20.00     0.152 A 
HETATM    4  C4  UNL     1     -34.674  15.266  -2.900  1.00 20.00     0.157 A 
HETATM    5  N6  UNL     1     -33.748  13.427  -4.101  1.00 20.00    -0.269 NA
HETATM    6  N7  UNL     1     -35.910  15.068  -3.396  1.00 20.00    -0.254 NA
ENDROOT
BRANCH   4   7
HETATM    7  C5  UNL     1     -34.484  16.398  -1.952  1.00 20.00     0.435 C 
HETATM    8  F8  UNL     1     -35.233  17.501  -2.255  1.00 20.00    -0.165 F 
HETATM    9  F9  UNL     1     -34.811  16.092  -0.660  1.00 20.00    -0.165 F 
HETATM   10  F10 UNL     1     -33.192  16.837  -1.904  1.00 20.00    -0.165 F 
ENDBRANCH   4   7
TORSDOF 1
ENDMDL
MODEL 5
REMARK VINA RESULT:      -4.2      2.935      3.690
REMARK  1 active torsions:
REMARK  status: ('A' for Active; 'I' for Inactive)
REMARK    1  A    between atoms: C4_4  and  C5_5 
ROOT
HETATM    1  C1  UNL     1     -33.140   6.228   2.495  1.00 20.00     0.135 A 
HETATM    2  C2  UNL     1     -32.554   6.752   3.626  1.00 20.00     0.136 A 
HETATM    3  C3  UNL     1     -34.625   5.078   3.798  1.00 20.00     0.152 A 
HETATM    4  C4  UNL     1     -34.039   5.601   4.930  1.00 20.00     0.157 A 
HETATM    5  N6  UNL     1     -34.186   5.382   2.561  1.00 20.00    -0.269 NA
HETATM    6  N7  UNL     1     -32.993   6.448   4.864  1.00 20.00    -0.254 NA
ENDROOT
BRANCH   4   7
HETATM    7  C5  UNL     1     -34.551   5.243   6.281  1.00 20.00     0.435 C 
HETATM    8  F8  UNL     1     -35.720   4.535   6.257  1.00 20.00    -0.165 F 
HETATM    9  F9  UNL     1     -33.686   4.473   7.009  1.00 20.00    -0.165 F 
HETATM   10  F10 UNL     1     -34.804   6.337   7.057  1.00 20.00    -0.165 F 
ENDBRANCH   4   7
TORSDOF 1
ENDMDL
MODEL 6
REMARK VINA RESULT:      -4.1     11.504     11.981
REMARK  1 active torsions:
REMARK  status: ('A' for Active; 'I' for Inactive)
REMARK    1  A    between atoms: C4_4  and  C5_5 
ROOT
HETATM    1  C1  UNL     1     -35.121  13.309  -4.572  1.00 20.00     0.135 A 
HETATM    2  C2  UNL     1     -33.865  13.681  -4.145  1.00 20.00     0.136 A 
HETATM    3  C3  UNL     1     -36.045  14.967  -3.298  1.00 20.00     0.152 A 
HETATM    4  C4  UNL     1     -34.790  15.339  -2.870  1.00 20.00     0.157 A 
HETATM    5  N6  UNL     1     -36.233  13.945  -4.156  1.00 20.00    -0.269 NA
HETATM    6  N7  UNL     1     -33.677  14.702  -3.285  1.00 20.00    -0.254 NA
ENDROOT
BRANCH   4   7
HETATM    7  C5  UNL     1     -34.621  16.473  -1.920  1.00 20.00     0.435 C 
HETATM    8  F8  UNL     1     -34.809  16.128  -0.611  1.00 20.00    -0.165 F 
HETATM    9  F9  UNL     1     -33.379  17.043  -1.962  1.00 20.00    -0.165 F 
HETATM   10  F10 UNL     1     -35.496  17.494  -2.157  1.00 20.00    -0.165 F 
ENDBRANCH   4   7
TORSDOF 1
ENDMDL
MODEL 7
REMARK VINA RESULT:      -4.0     12.044     13.306
REMARK  1 active torsions:
REMARK  status: ('A' for Active; 'I' for Inactive)
REMARK    1  A    between atoms: C4_4  and  C5_5 
ROOT
HETATM    1  C1  UNL     1     -34.385  16.507  -7.160  1.00 20.00     0.135 A 
HETATM    2  C2  UNL     1     -34.787  15.193  -7.254  1.00 20.00     0.136 A 
HETATM    3  C3  UNL     1     -33.811  16.175  -4.972  1.00 20.00     0.152 A 
HETATM    4  C4  UNL     1     -34.213  14.861  -5.066  1.00 20.00     0.157 A 
HETATM    5  N6  UNL     1     -33.890  17.022  -6.018  1.00 20.00    -0.269 NA
HETATM    6  N7  UNL     1     -34.708  14.346  -6.208  1.00 20.00    -0.254 NA
ENDROOT
BRANCH   4   7
HETATM    7  C5  UNL     1     -34.112  13.955  -3.889  1.00 20.00     0.435 C 
HETATM    8  F8  UNL     1     -32.885  13.367  -3.750  1.00 20.00    -0.165 F 
HETATM    9  F9  UNL     1     -34.343  14.579  -2.695  1.00 20.00    -0.165 F 
HETATM   10  F10 UNL     1     -35.006  12.924  -3.938  1.00 20.00    -0.165 F 
ENDBRANCH   4   7
TORSDOF 1
ENDMDL
MODEL 8
REMARK VINA RESULT:      -4.0     12.020     13.284
REMARK  1 active torsions:
REMARK  status: ('A' for Active; 'I' for Inactive)
REMARK    1  A    between atoms: C4_4  and  C5_5 
ROOT
HETATM    1  C1  UNL     1     -34.417  16.479  -7.147  1.00 20.00     0.135 A 
HETATM    2  C2  UNL     1     -34.816  15.163  -7.230  1.00 20.00     0.136 A 
HETATM    3  C3  UNL     1     -33.818  16.160  -4.964  1.00 20.00     0.152 A 
HETATM    4  C4  UNL     1     -34.218  14.844  -5.046  1.00 20.00     0.157 A 
HETATM    5  N6  UNL     1     -33.911  17.001  -6.013  1.00 20.00    -0.269 NA
HETATM    6  N7  UNL     1     -34.724  14.322  -6.181  1.00 20.00    -0.254 NA
ENDROOT
BRANCH   4   7
HETATM    7  C5  UNL     1     -34.101  13.944  -3.866  1.00 20.00     0.435 C 
HETATM    8  F8  UNL     1     -34.299  14.576  -2.670  1.00 20.00    -0.165 F 
HETATM    9  F9  UNL     1     -34.997  12.911  -3.873  1.00 20.00    -0.165 F 
HETATM   10  F10 UNL     1     -32.872  13.357  -3.770  1.00 20.00    -0.165 F 
ENDBRANCH   4   7
TORSDOF 1
ENDMDL
MODEL 9
REMARK VINA RESULT:      -4.0      2.844      3.948
REMARK  1 active torsions:
REMARK  status: ('A' for Active; 'I' for Inactive)
REMARK    1  A    between atoms: C4_4  and  C5_5 
ROOT
HETATM    1  C1  UNL     1     -31.956   7.169   3.450  1.00 20.00     0.135 A 
HETATM    2  C2  UNL     1     -32.583   6.293   2.592  1.00 20.00     0.136 A 
HETATM    3  C3  UNL     1     -33.415   6.587   5.111  1.00 20.00     0.152 A 
HETATM    4  C4  UNL     1     -34.043   5.711   4.253  1.00 20.00     0.157 A 
HETATM    5  N6  UNL     1     -32.360   7.331   4.725  1.00 20.00    -0.269 NA
HETATM    6  N7  UNL     1     -33.639   5.549   2.978  1.00 20.00    -0.254 NA
ENDROOT
BRANCH   4   7
HETATM    7  C5  UNL     1     -35.206   4.905   4.715  1.00 20.00     0.435 C 
HETATM    8  F8  UNL     1     -35.057   3.560   4.521  1.00 20.00    -0.165 F 
HETATM    9  F9  UNL     1     -35.474   5.043   6.049  1.00 20.00    -0.165 F 
HETATM   10  F10 UNL     1     -36.367   5.238   4.076  1.00 20.00    -0.165 F 
ENDBRANCH   4   7
TORSDOF 1
ENDMDL
