MODEL 1
REMARK VINA RESULT:      -4.4      0.000      0.000
REMARK  3 active torsions:
REMARK  status: ('A' for Active; 'I' for Inactive)
REMARK    1  A    between atoms: C4_4  and  C7_7 
REMARK    2  A    between atoms: C6_6  and  N9_9 
REMARK    3  A    between atoms: C7_7  and  N9_9 
ROOT
HETATM    1  C1  UNL     1     -32.108   8.319   1.945  1.00 20.00     0.089 C 
HETATM    2  C6  UNL     1     -32.055   7.280   2.973  1.00 20.00     0.393 C 
HETATM    3  N8  UNL     1     -32.145   9.143   1.130  1.00 20.00    -0.195 NA
ENDROOT
BRANCH   2   4
HETATM    4  N9  UNL     1     -33.321   7.180   3.669  1.00 20.00     0.100 N 
HETATM    5  H21 UNL     1     -34.063   7.582   3.112  1.00 20.00     0.317 HD
BRANCH   4   6
HETATM    6  C7  UNL     1     -33.655   5.755   3.909  1.00 20.00     0.221 C 
HETATM    7  C5  UNL     1     -34.170   5.146   2.612  1.00 20.00     0.043 C 
BRANCH   6   8
HETATM    8  C4  UNL     1     -34.688   5.667   5.022  1.00 20.00     0.018 A 
HETATM    9  C2  UNL     1     -35.069   4.331   5.599  1.00 20.00     0.007 A 
HETATM   10  C3  UNL     1     -34.266   5.302   6.419  1.00 20.00     0.007 A 
ENDBRANCH   6   8
ENDBRANCH   4   6
ENDBRANCH   2   4
TORSDOF 3
ENDMDL
MODEL 2
REMARK VINA RESULT:      -4.3      1.153      1.863
REMARK  3 active torsions:
REMARK  status: ('A' for Active; 'I' for Inactive)
REMARK    1  A    between atoms: C4_4  and  C7_7 
REMARK    2  A    between atoms: C6_6  and  N9_9 
REMARK    3  A    between atoms: C7_7  and  N9_9 
ROOT
HETATM    1  C1  UNL     1     -32.221   7.676   2.220  1.00 20.00     0.089 C 
HETATM    2  C6  UNL     1     -32.692   6.564   3.045  1.00 20.00     0.393 C 
HETATM    3  N8  UNL     1     -31.847   8.555   1.562  1.00 20.00    -0.195 NA
ENDROOT
BRANCH   2   4
HETATM    4  N9  UNL     1     -32.596   6.891   4.452  1.00 20.00     0.100 N 
HETATM    5  H21 UNL     1     -32.441   7.882   4.574  1.00 20.00     0.317 HD
BRANCH   4   6
HETATM    6  C7  UNL     1     -33.863   6.541   5.140  1.00 20.00     0.221 C 
HETATM    7  C5  UNL     1     -33.761   6.963   6.599  1.00 20.00     0.043 C 
BRANCH   6   8
HETATM    8  C4  UNL     1     -34.108   5.046   5.002  1.00 20.00     0.018 A 
HETATM    9  C2  UNL     1     -35.033   4.338   5.953  1.00 20.00     0.007 A 
HETATM   10  C3  UNL     1     -35.440   4.539   4.520  1.00 20.00     0.007 A 
ENDBRANCH   6   8
ENDBRANCH   4   6
ENDBRANCH   2   4
TORSDOF 3
ENDMDL
MODEL 3
REMARK VINA RESULT:      -4.2     10.875     12.148
REMARK  3 active torsions:
REMARK  status: ('A' for Active; 'I' for Inactive)
REMARK    1  A    between atoms: C4_4  and  C7_7 
REMARK    2  A    between atoms: C6_6  and  N9_9 
REMARK    3  A    between atoms: C7_7  and  N9_9 
ROOT
HETATM    1  C1  UNL     1     -34.048  13.491  -4.192  1.00 20.00     0.089 C 
HETATM    2  C6  UNL     1     -32.986  14.398  -3.759  1.00 20.00     0.393 C 
HETATM    3  N8  UNL     1     -34.889  12.768  -4.534  1.00 20.00    -0.195 NA
ENDROOT
BRANCH   2   4
HETATM    4  N9  UNL     1     -33.061  15.656  -4.472  1.00 20.00     0.100 N 
HETATM    5  H21 UNL     1     -33.470  15.519  -5.387  1.00 20.00     0.317 HD
BRANCH   4   6
HETATM    6  C7  UNL     1     -33.921  16.609  -3.729  1.00 20.00     0.221 C 
HETATM    7  C5  UNL     1     -33.679  18.012  -4.268  1.00 20.00     0.043 C 
BRANCH   6   8
HETATM    8  C4  UNL     1     -33.603  16.512  -2.244  1.00 20.00     0.018 A 
HETATM    9  C2  UNL     1     -33.853  17.686  -1.338  1.00 20.00     0.007 A 
HETATM   10  C3  UNL     1     -34.716  16.460  -1.234  1.00 20.00     0.007 A 
ENDBRANCH   6   8
ENDBRANCH   4   6
ENDBRANCH   2   4
TORSDOF 3
ENDMDL
MODEL 4
REMARK VINA RESULT:      -4.0     10.931     11.836
REMARK  3 active torsions:
REMARK  status: ('A' for Active; 'I' for Inactive)
REMARK    1  A    between atoms: C4_4  and  C7_7 
REMARK    2  A    between atoms: C6_6  and  N9_9 
REMARK    3  A    between atoms: C7_7  and  N9_9 
ROOT
HETATM    1  C1  UNL     1     -34.645  13.622  -4.095  1.00 20.00     0.089 C 
HETATM    2  C6  UNL     1     -34.391  14.827  -3.307  1.00 20.00     0.393 C 
HETATM    3  N8  UNL     1     -34.843  12.666  -4.720  1.00 20.00    -0.195 NA
ENDROOT
BRANCH   2   4
HETATM    4  N9  UNL     1     -35.633  15.474  -2.939  1.00 20.00     0.100 N 
HETATM    5  H21 UNL     1     -36.128  14.921  -2.252  1.00 20.00     0.317 HD
BRANCH   4   6
HETATM    6  C7  UNL     1     -35.354  16.801  -2.338  1.00 20.00     0.221 C 
HETATM    7  C5  UNL     1     -34.660  17.673  -3.375  1.00 20.00     0.043 C 
BRANCH   6   8
HETATM    8  C4  UNL     1     -34.499  16.615  -1.094  1.00 20.00     0.018 A 
HETATM    9  C2  UNL     1     -33.705  17.766  -0.541  1.00 20.00     0.007 A 
HETATM   10  C3  UNL     1     -34.904  17.254   0.205  1.00 20.00     0.007 A 
ENDBRANCH   6   8
ENDBRANCH   4   6
ENDBRANCH   2   4
TORSDOF 3
ENDMDL
MODEL 5
REMARK VINA RESULT:      -3.9     11.114     12.424
REMARK  3 active torsions:
REMARK  status: ('A' for Active; 'I' for Inactive)
REMARK    1  A    between atoms: C4_4  and  C7_7 
REMARK    2  A    between atoms: C6_6  and  N9_9 
REMARK    3  A    between atoms: C7_7  and  N9_9 
ROOT
HETATM    1  C1  UNL     1     -34.284  15.500  -6.730  1.00 20.00     0.089 C 
HETATM    2  C6  UNL     1     -33.919  16.285  -5.551  1.00 20.00     0.393 C 
HETATM    3  N8  UNL     1     -34.576  14.880  -7.665  1.00 20.00    -0.195 NA
ENDROOT
BRANCH   2   4
HETATM    4  N9  UNL     1     -32.805  15.679  -4.853  1.00 20.00     0.100 N 
HETATM    5  H21 UNL     1     -32.038  16.333  -4.778  1.00 20.00     0.317 HD
BRANCH   4   6
HETATM    6  C7  UNL     1     -33.214  15.299  -3.478  1.00 20.00     0.221 C 
HETATM    7  C5  UNL     1     -33.930  13.957  -3.532  1.00 20.00     0.043 C 
BRANCH   6   8
HETATM    8  C4  UNL     1     -34.104  16.391  -2.905  1.00 20.00     0.018 A 
HETATM    9  C2  UNL     1     -34.791  16.192  -1.582  1.00 20.00     0.007 A 
HETATM   10  C3  UNL     1     -33.660  17.175  -1.700  1.00 20.00     0.007 A 
ENDBRANCH   6   8
ENDBRANCH   4   6
ENDBRANCH   2   4
TORSDOF 3
ENDMDL
MODEL 6
REMARK VINA RESULT:      -3.8     11.334     12.061
REMARK  3 active torsions:
REMARK  status: ('A' for Active; 'I' for Inactive)
REMARK    1  A    between atoms: C4_4  and  C7_7 
REMARK    2  A    between atoms: C6_6  and  N9_9 
REMARK    3  A    between atoms: C7_7  and  N9_9 
ROOT
HETATM    1  C1  UNL     1     -36.294  14.052  -4.211  1.00 20.00     0.089 C 
HETATM    2  C6  UNL     1     -34.986  13.717  -4.773  1.00 20.00     0.393 C 
HETATM    3  N8  UNL     1     -37.333  14.318  -3.769  1.00 20.00    -0.195 NA
ENDROOT
BRANCH   2   4
HETATM    4  N9  UNL     1     -33.920  14.252  -3.953  1.00 20.00     0.100 N 
HETATM    5  H21 UNL     1     -33.022  14.080  -4.384  1.00 20.00     0.317 HD
BRANCH   4   6
HETATM    6  C7  UNL     1     -34.080  15.721  -3.810  1.00 20.00     0.221 C 
HETATM    7  C5  UNL     1     -33.234  16.412  -4.869  1.00 20.00     0.043 C 
BRANCH   6   8
HETATM    8  C4  UNL     1     -33.670  16.131  -2.403  1.00 20.00     0.018 A 
HETATM    9  C2  UNL     1     -33.911  17.536  -1.923  1.00 20.00     0.007 A 
HETATM   10  C3  UNL     1     -34.717  16.400  -1.358  1.00 20.00     0.007 A 
ENDBRANCH   6   8
ENDBRANCH   4   6
ENDBRANCH   2   4
TORSDOF 3
ENDMDL
MODEL 7
REMARK VINA RESULT:      -3.8     11.089     12.574
REMARK  3 active torsions:
REMARK  status: ('A' for Active; 'I' for Inactive)
REMARK    1  A    between atoms: C4_4  and  C7_7 
REMARK    2  A    between atoms: C6_6  and  N9_9 
REMARK    3  A    between atoms: C7_7  and  N9_9 
ROOT
HETATM    1  C1  UNL     1     -35.570  13.698  -4.231  1.00 20.00     0.089 C 
HETATM    2  C6  UNL     1     -36.474  14.837  -4.074  1.00 20.00     0.393 C 
HETATM    3  N8  UNL     1     -34.855  12.794  -4.359  1.00 20.00    -0.195 NA
ENDROOT
BRANCH   2   4
HETATM    4  N9  UNL     1     -36.287  15.469  -2.786  1.00 20.00     0.100 N 
HETATM    5  H21 UNL     1     -36.384  14.790  -2.042  1.00 20.00     0.317 HD
BRANCH   4   6
HETATM    6  C7  UNL     1     -34.923  16.046  -2.697  1.00 20.00     0.221 C 
HETATM    7  C5  UNL     1     -34.643  16.424  -1.250  1.00 20.00     0.043 C 
BRANCH   6   8
HETATM    8  C4  UNL     1     -34.832  17.251  -3.622  1.00 20.00     0.018 A 
HETATM    9  C2  UNL     1     -33.768  18.291  -3.409  1.00 20.00     0.007 A 
HETATM   10  C3  UNL     1     -33.692  17.373  -4.596  1.00 20.00     0.007 A 
ENDBRANCH   6   8
ENDBRANCH   4   6
ENDBRANCH   2   4
TORSDOF 3
ENDMDL
MODEL 8
REMARK VINA RESULT:      -3.7     11.005     12.137
REMARK  3 active torsions:
REMARK  status: ('A' for Active; 'I' for Inactive)
REMARK    1  A    between atoms: C4_4  and  C7_7 
REMARK    2  A    between atoms: C6_6  and  N9_9 
REMARK    3  A    between atoms: C7_7  and  N9_9 
ROOT
HETATM    1  C1  UNL     1     -37.749  15.309  -3.632  1.00 20.00     0.089 C 
HETATM    2  C6  UNL     1     -37.156  16.626  -3.404  1.00 20.00     0.393 C 
HETATM    3  N8  UNL     1     -38.221  14.265  -3.811  1.00 20.00    -0.195 NA
ENDROOT
BRANCH   2   4
HETATM    4  N9  UNL     1     -35.766  16.642  -3.805  1.00 20.00     0.100 N 
HETATM    5  H21 UNL     1     -35.339  17.527  -3.564  1.00 20.00     0.317 HD
BRANCH   4   6
HETATM    6  C7  UNL     1     -35.021  15.572  -3.096  1.00 20.00     0.221 C 
HETATM    7  C5  UNL     1     -34.230  16.198  -1.956  1.00 20.00     0.043 C 
BRANCH   6   8
HETATM    8  C4  UNL     1     -34.115  14.857  -4.086  1.00 20.00     0.018 A 
HETATM    9  C2  UNL     1     -33.256  13.709  -3.634  1.00 20.00     0.007 A 
HETATM   10  C3  UNL     1     -34.435  13.456  -4.530  1.00 20.00     0.007 A 
ENDBRANCH   6   8
ENDBRANCH   4   6
ENDBRANCH   2   4
TORSDOF 3
ENDMDL
MODEL 9
REMARK VINA RESULT:      -3.7     11.290     12.950
REMARK  3 active torsions:
REMARK  status: ('A' for Active; 'I' for Inactive)
REMARK    1  A    between atoms: C4_4  and  C7_7 
REMARK    2  A    between atoms: C6_6  and  N9_9 
REMARK    3  A    between atoms: C7_7  and  N9_9 
ROOT
HETATM    1  C1  UNL     1     -34.064  16.234  -2.647  1.00 20.00     0.089 C 
HETATM    2  C6  UNL     1     -33.400  16.404  -3.939  1.00 20.00     0.393 C 
HETATM    3  N8  UNL     1     -34.589  16.103  -1.622  1.00 20.00    -0.195 NA
ENDROOT
BRANCH   2   4
HETATM    4  N9  UNL     1     -33.212  15.126  -4.593  1.00 20.00     0.100 N 
HETATM    5  H21 UNL     1     -32.957  14.418  -3.918  1.00 20.00     0.317 HD
BRANCH   4   6
HETATM    6  C7  UNL     1     -34.475  14.699  -5.244  1.00 20.00     0.221 C 
HETATM    7  C5  UNL     1     -34.739  13.241  -4.894  1.00 20.00     0.043 C 
BRANCH   6   8
HETATM    8  C4  UNL     1     -34.356  14.905  -6.746  1.00 20.00     0.018 A 
HETATM    9  C2  UNL     1     -35.470  14.477  -7.661  1.00 20.00     0.007 A 
HETATM   10  C3  UNL     1     -35.202  15.939  -7.437  1.00 20.00     0.007 A 
ENDBRANCH   6   8
ENDBRANCH   4   6
ENDBRANCH   2   4
TORSDOF 3
ENDMDL
