MODEL 1
REMARK VINA RESULT:      -4.6      0.000      0.000
REMARK  3 active torsions:
REMARK  status: ('A' for Active; 'I' for Inactive)
REMARK    1  A    between atoms: C4_4  and  C7_7 
REMARK    2  A    between atoms: C6_6  and  N9_9 
REMARK    3  A    between atoms: C7_7  and  N9_9 
ROOT
HETATM    1  C1  UNL     1     -32.213   7.531   2.529  1.00 20.00     0.089 C 
HETATM    2  C6  UNL     1     -32.512   6.479   3.498  1.00 20.00     0.393 C 
HETATM    3  N8  UNL     1     -31.973   8.364   1.758  1.00 20.00    -0.195 NA
ENDROOT
BRANCH   2   4
HETATM    4  N9  UNL     1     -33.713   6.791   4.243  1.00 20.00     0.100 N 
HETATM    5  H21 UNL     1     -34.527   6.422   3.771  1.00 20.00     0.317 HD
BRANCH   4   6
HETATM    6  C7  UNL     1     -33.650   6.170   5.589  1.00 20.00     0.221 C 
HETATM    7  C5  UNL     1     -33.593   7.271   6.637  1.00 20.00     0.043 C 
BRANCH   6   8
HETATM    8  C4  UNL     1     -34.863   5.271   5.780  1.00 20.00     0.018 A 
HETATM    9  C2  UNL     1     -35.428   4.503   4.617  1.00 20.00     0.007 A 
HETATM   10  C3  UNL     1     -34.713   3.775   5.722  1.00 20.00     0.007 A 
ENDBRANCH   6   8
ENDBRANCH   4   6
ENDBRANCH   2   4
TORSDOF 3
ENDMDL
MODEL 2
REMARK VINA RESULT:      -4.4      1.193      1.947
REMARK  3 active torsions:
REMARK  status: ('A' for Active; 'I' for Inactive)
REMARK    1  A    between atoms: C4_4  and  C7_7 
REMARK    2  A    between atoms: C6_6  and  N9_9 
REMARK    3  A    between atoms: C7_7  and  N9_9 
ROOT
HETATM    1  C1  UNL     1     -32.145   7.949   2.199  1.00 20.00     0.089 C 
HETATM    2  C6  UNL     1     -32.440   6.887   3.158  1.00 20.00     0.393 C 
HETATM    3  N8  UNL     1     -31.907   8.792   1.437  1.00 20.00    -0.195 NA
ENDROOT
BRANCH   2   4
HETATM    4  N9  UNL     1     -33.708   7.121   3.813  1.00 20.00     0.100 N 
HETATM    5  H21 UNL     1     -34.251   7.803   3.300  1.00 20.00     0.317 HD
BRANCH   4   6
HETATM    6  C7  UNL     1     -34.493   5.863   3.864  1.00 20.00     0.221 C 
HETATM    7  C5  UNL     1     -34.221   5.061   2.601  1.00 20.00     0.043 C 
BRANCH   6   8
HETATM    8  C4  UNL     1     -34.111   5.088   5.117  1.00 20.00     0.018 A 
HETATM    9  C2  UNL     1     -34.408   5.654   6.479  1.00 20.00     0.007 A 
HETATM   10  C3  UNL     1     -35.177   4.464   5.976  1.00 20.00     0.007 A 
ENDBRANCH   6   8
ENDBRANCH   4   6
ENDBRANCH   2   4
TORSDOF 3
ENDMDL
MODEL 3
REMARK VINA RESULT:      -4.0     11.839     12.676
REMARK  3 active torsions:
REMARK  status: ('A' for Active; 'I' for Inactive)
REMARK    1  A    between atoms: C4_4  and  C7_7 
REMARK    2  A    between atoms: C6_6  and  N9_9 
REMARK    3  A    between atoms: C7_7  and  N9_9 
ROOT
HETATM    1  C1  UNL     1     -36.561  14.382  -4.056  1.00 20.00     0.089 C 
HETATM    2  C6  UNL     1     -35.151  14.498  -4.418  1.00 20.00     0.393 C 
HETATM    3  N8  UNL     1     -37.683  14.289  -3.772  1.00 20.00    -0.195 NA
ENDROOT
BRANCH   2   4
HETATM    4  N9  UNL     1     -34.315  14.510  -3.237  1.00 20.00     0.100 N 
HETATM    5  H21 UNL     1     -33.683  13.720  -3.243  1.00 20.00     0.317 HD
BRANCH   4   6
HETATM    6  C7  UNL     1     -33.494  15.746  -3.209  1.00 20.00     0.221 C 
HETATM    7  C5  UNL     1     -33.230  16.194  -4.638  1.00 20.00     0.043 C 
BRANCH   6   8
HETATM    8  C4  UNL     1     -34.228  16.812  -2.410  1.00 20.00     0.018 A 
HETATM    9  C2  UNL     1     -34.754  16.502  -1.035  1.00 20.00     0.007 A 
HETATM   10  C3  UNL     1     -33.582  17.429  -1.199  1.00 20.00     0.007 A 
ENDBRANCH   6   8
ENDBRANCH   4   6
ENDBRANCH   2   4
TORSDOF 3
ENDMDL
MODEL 4
REMARK VINA RESULT:      -3.9     11.541     13.929
REMARK  3 active torsions:
REMARK  status: ('A' for Active; 'I' for Inactive)
REMARK    1  A    between atoms: C4_4  and  C7_7 
REMARK    2  A    between atoms: C6_6  and  N9_9 
REMARK    3  A    between atoms: C7_7  and  N9_9 
ROOT
HETATM    1  C1  UNL     1     -34.078  13.750  -3.994  1.00 20.00     0.089 C 
HETATM    2  C6  UNL     1     -33.177  14.861  -3.695  1.00 20.00     0.393 C 
HETATM    3  N8  UNL     1     -34.794  12.868  -4.229  1.00 20.00    -0.195 NA
ENDROOT
BRANCH   2   4
HETATM    4  N9  UNL     1     -32.859  15.605  -4.893  1.00 20.00     0.100 N 
HETATM    5  H21 UNL     1     -32.723  14.977  -5.674  1.00 20.00     0.317 HD
BRANCH   4   6
HETATM    6  C7  UNL     1     -33.978  16.518  -5.235  1.00 20.00     0.221 C 
HETATM    7  C5  UNL     1     -33.563  17.946  -4.919  1.00 20.00     0.043 C 
BRANCH   6   8
HETATM    8  C4  UNL     1     -34.331  16.345  -6.705  1.00 20.00     0.018 A 
HETATM    9  C2  UNL     1     -34.425  14.969  -7.306  1.00 20.00     0.007 A 
HETATM   10  C3  UNL     1     -35.670  15.786  -7.102  1.00 20.00     0.007 A 
ENDBRANCH   6   8
ENDBRANCH   4   6
ENDBRANCH   2   4
TORSDOF 3
ENDMDL
MODEL 5
REMARK VINA RESULT:      -3.8     11.967     13.328
REMARK  3 active torsions:
REMARK  status: ('A' for Active; 'I' for Inactive)
REMARK    1  A    between atoms: C4_4  and  C7_7 
REMARK    2  A    between atoms: C6_6  and  N9_9 
REMARK    3  A    between atoms: C7_7  and  N9_9 
ROOT
HETATM    1  C1  UNL     1     -34.632  13.703  -4.957  1.00 20.00     0.089 C 
HETATM    2  C6  UNL     1     -34.171  15.002  -5.441  1.00 20.00     0.393 C 
HETATM    3  N8  UNL     1     -35.000  12.670  -4.576  1.00 20.00    -0.195 NA
ENDROOT
BRANCH   2   4
HETATM    4  N9  UNL     1     -33.126  15.528  -4.589  1.00 20.00     0.100 N 
HETATM    5  H21 UNL     1     -32.225  15.443  -5.041  1.00 20.00     0.317 HD
BRANCH   4   6
HETATM    6  C7  UNL     1     -33.366  16.968  -4.323  1.00 20.00     0.221 C 
HETATM    7  C5  UNL     1     -33.887  17.624  -5.594  1.00 20.00     0.043 C 
BRANCH   6   8
HETATM    8  C4  UNL     1     -34.352  17.105  -3.173  1.00 20.00     0.018 A 
HETATM    9  C2  UNL     1     -34.310  16.141  -2.019  1.00 20.00     0.007 A 
HETATM   10  C3  UNL     1     -33.880  17.569  -1.822  1.00 20.00     0.007 A 
ENDBRANCH   6   8
ENDBRANCH   4   6
ENDBRANCH   2   4
TORSDOF 3
ENDMDL
MODEL 6
REMARK VINA RESULT:      -3.8     11.609     12.623
REMARK  3 active torsions:
REMARK  status: ('A' for Active; 'I' for Inactive)
REMARK    1  A    between atoms: C4_4  and  C7_7 
REMARK    2  A    between atoms: C6_6  and  N9_9 
REMARK    3  A    between atoms: C7_7  and  N9_9 
ROOT
HETATM    1  C1  UNL     1     -34.300  13.607  -4.294  1.00 20.00     0.089 C 
HETATM    2  C6  UNL     1     -33.503  14.750  -3.855  1.00 20.00     0.393 C 
HETATM    3  N8  UNL     1     -34.931  12.698  -4.644  1.00 20.00    -0.195 NA
ENDROOT
BRANCH   2   4
HETATM    4  N9  UNL     1     -34.181  15.480  -2.806  1.00 20.00     0.100 N 
HETATM    5  H21 UNL     1     -34.037  15.029  -1.913  1.00 20.00     0.317 HD
BRANCH   4   6
HETATM    6  C7  UNL     1     -33.635  16.856  -2.713  1.00 20.00     0.221 C 
HETATM    7  C5  UNL     1     -33.788  17.540  -4.063  1.00 20.00     0.043 C 
BRANCH   6   8
HETATM    8  C4  UNL     1     -34.371  17.610  -1.614  1.00 20.00     0.018 A 
HETATM    9  C2  UNL     1     -34.724  16.917  -0.326  1.00 20.00     0.007 A 
HETATM   10  C3  UNL     1     -33.658  17.978  -0.341  1.00 20.00     0.007 A 
ENDBRANCH   6   8
ENDBRANCH   4   6
ENDBRANCH   2   4
TORSDOF 3
ENDMDL
MODEL 7
REMARK VINA RESULT:      -3.8     11.822     12.744
REMARK  3 active torsions:
REMARK  status: ('A' for Active; 'I' for Inactive)
REMARK    1  A    between atoms: C4_4  and  C7_7 
REMARK    2  A    between atoms: C6_6  and  N9_9 
REMARK    3  A    between atoms: C7_7  and  N9_9 
ROOT
HETATM    1  C1  UNL     1     -37.261  14.652  -4.255  1.00 20.00     0.089 C 
HETATM    2  C6  UNL     1     -36.093  14.906  -5.095  1.00 20.00     0.393 C 
HETATM    3  N8  UNL     1     -38.190  14.448  -3.590  1.00 20.00    -0.195 NA
ENDROOT
BRANCH   2   4
HETATM    4  N9  UNL     1     -35.158  15.785  -4.426  1.00 20.00     0.100 N 
HETATM    5  H21 UNL     1     -35.624  16.629  -4.119  1.00 20.00     0.317 HD
BRANCH   4   6
HETATM    6  C7  UNL     1     -34.600  15.113  -3.227  1.00 20.00     0.221 C 
HETATM    7  C5  UNL     1     -33.586  14.070  -3.674  1.00 20.00     0.043 C 
BRANCH   6   8
HETATM    8  C4  UNL     1     -33.970  16.159  -2.319  1.00 20.00     0.018 A 
HETATM    9  C2  UNL     1     -34.618  17.505  -2.148  1.00 20.00     0.007 A 
HETATM   10  C3  UNL     1     -34.623  16.520  -1.013  1.00 20.00     0.007 A 
ENDBRANCH   6   8
ENDBRANCH   4   6
ENDBRANCH   2   4
TORSDOF 3
ENDMDL
MODEL 8
REMARK VINA RESULT:      -3.8     11.876     13.495
REMARK  3 active torsions:
REMARK  status: ('A' for Active; 'I' for Inactive)
REMARK    1  A    between atoms: C4_4  and  C7_7 
REMARK    2  A    between atoms: C6_6  and  N9_9 
REMARK    3  A    between atoms: C7_7  and  N9_9 
ROOT
HETATM    1  C1  UNL     1     -33.737  17.381  -3.853  1.00 20.00     0.089 C 
HETATM    2  C6  UNL     1     -33.467  17.261  -5.284  1.00 20.00     0.393 C 
HETATM    3  N8  UNL     1     -33.951  17.480  -2.716  1.00 20.00    -0.195 NA
ENDROOT
BRANCH   2   4
HETATM    4  N9  UNL     1     -33.185  15.888  -5.642  1.00 20.00     0.100 N 
HETATM    5  H21 UNL     1     -32.721  15.412  -4.879  1.00 20.00     0.317 HD
BRANCH   4   6
HETATM    6  C7  UNL     1     -34.451  15.167  -5.924  1.00 20.00     0.221 C 
HETATM    7  C5  UNL     1     -34.591  14.988  -7.428  1.00 20.00     0.043 C 
BRANCH   6   8
HETATM    8  C4  UNL     1     -34.435  13.831  -5.196  1.00 20.00     0.018 A 
HETATM    9  C2  UNL     1     -33.742  13.698  -3.868  1.00 20.00     0.007 A 
HETATM   10  C3  UNL     1     -35.243  13.643  -3.941  1.00 20.00     0.007 A 
ENDBRANCH   6   8
ENDBRANCH   4   6
ENDBRANCH   2   4
TORSDOF 3
ENDMDL
MODEL 9
REMARK VINA RESULT:      -3.7     11.577     12.383
REMARK  3 active torsions:
REMARK  status: ('A' for Active; 'I' for Inactive)
REMARK    1  A    between atoms: C4_4  and  C7_7 
REMARK    2  A    between atoms: C6_6  and  N9_9 
REMARK    3  A    between atoms: C7_7  and  N9_9 
ROOT
HETATM    1  C1  UNL     1     -34.048  13.628  -4.185  1.00 20.00     0.089 C 
HETATM    2  C6  UNL     1     -33.171  14.700  -3.720  1.00 20.00     0.393 C 
HETATM    3  N8  UNL     1     -34.742  12.774  -4.554  1.00 20.00    -0.195 NA
ENDROOT
BRANCH   2   4
HETATM    4  N9  UNL     1     -33.908  15.934  -3.556  1.00 20.00     0.100 N 
HETATM    5  H21 UNL     1     -34.334  16.210  -4.430  1.00 20.00     0.317 HD
BRANCH   4   6
HETATM    6  C7  UNL     1     -34.992  15.748  -2.561  1.00 20.00     0.221 C 
HETATM    7  C5  UNL     1     -34.597  16.441  -1.265  1.00 20.00     0.043 C 
BRANCH   6   8
HETATM    8  C4  UNL     1     -36.289  16.309  -3.127  1.00 20.00     0.018 A 
HETATM    9  C2  UNL     1     -36.580  16.208  -4.599  1.00 20.00     0.007 A 
HETATM   10  C3  UNL     1     -37.364  15.380  -3.620  1.00 20.00     0.007 A 
ENDBRANCH   6   8
ENDBRANCH   4   6
ENDBRANCH   2   4
TORSDOF 3
ENDMDL
