MODEL 1
REMARK VINA RESULT:      -4.6      0.000      0.000
REMARK  1 active torsions:
REMARK  status: ('A' for Active; 'I' for Inactive)
REMARK    1  A    between atoms: C7_7  and  O9_9 
ROOT
HETATM    1  C1  UNL     1     -37.213  14.522  -3.785  1.00 20.00     0.097 C 
HETATM    2  C2  UNL     1     -35.305  15.687  -2.949  1.00 20.00    -0.006 C 
HETATM    3  C3  UNL     1     -35.798  14.667  -3.672  1.00 20.00     0.047 C 
HETATM    4  C4  UNL     1     -33.838  15.937  -2.752  1.00 20.00     0.028 C 
HETATM    5  C5  UNL     1     -32.948  15.109  -3.678  1.00 20.00     0.007 C 
HETATM    6  C6  UNL     1     -33.460  13.675  -3.795  1.00 20.00     0.037 C 
HETATM    7  C7  UNL     1     -34.898  13.643  -4.326  1.00 20.00     0.161 C 
HETATM    8  N8  UNL     1     -38.363  14.404  -3.877  1.00 20.00    -0.192 NA
ENDROOT
BRANCH   7   9
HETATM    9  O9  UNL     1     -34.860  13.882  -5.734  1.00 20.00    -0.390 OA
HETATM   10  H18 UNL     1     -33.924  13.915  -5.981  1.00 20.00     0.210 HD
ENDBRANCH   7   9
TORSDOF 1
ENDMDL
MODEL 2
REMARK VINA RESULT:      -4.6     11.579     12.176
REMARK  1 active torsions:
REMARK  status: ('A' for Active; 'I' for Inactive)
REMARK    1  A    between atoms: C7_7  and  O9_9 
ROOT
HETATM    1  C1  UNL     1     -32.596   7.278   3.158  1.00 20.00     0.097 C 
HETATM    2  C2  UNL     1     -33.400   6.495   5.264  1.00 20.00    -0.006 C 
HETATM    3  C3  UNL     1     -33.491   6.472   3.924  1.00 20.00     0.047 C 
HETATM    4  C4  UNL     1     -34.289   5.699   6.175  1.00 20.00     0.028 C 
HETATM    5  C5  UNL     1     -35.116   4.640   5.447  1.00 20.00     0.007 C 
HETATM    6  C6  UNL     1     -35.673   5.184   4.133  1.00 20.00     0.037 C 
HETATM    7  C7  UNL     1     -34.545   5.659   3.209  1.00 20.00     0.161 C 
HETATM    8  N8  UNL     1     -31.868   7.932   2.535  1.00 20.00    -0.192 NA
ENDROOT
BRANCH   7   9
HETATM    9  O9  UNL     1     -33.933   4.509   2.623  1.00 20.00    -0.390 OA
HETATM   10  H18 UNL     1     -34.484   4.262   1.866  1.00 20.00     0.210 HD
ENDBRANCH   7   9
TORSDOF 1
ENDMDL
MODEL 3
REMARK VINA RESULT:      -4.4      2.185      3.052
REMARK  1 active torsions:
REMARK  status: ('A' for Active; 'I' for Inactive)
REMARK    1  A    between atoms: C7_7  and  O9_9 
ROOT
HETATM    1  C1  UNL     1     -34.947  13.661  -4.158  1.00 20.00     0.097 C 
HETATM    2  C2  UNL     1     -34.090  15.328  -2.680  1.00 20.00    -0.006 C 
HETATM    3  C3  UNL     1     -35.105  14.886  -3.443  1.00 20.00     0.047 C 
HETATM    4  C4  UNL     1     -34.135  16.603  -1.890  1.00 20.00     0.028 C 
HETATM    5  C5  UNL     1     -35.533  17.212  -1.792  1.00 20.00     0.007 C 
HETATM    6  C6  UNL     1     -36.264  17.127  -3.130  1.00 20.00     0.037 C 
HETATM    7  C7  UNL     1     -36.384  15.673  -3.603  1.00 20.00     0.161 C 
HETATM    8  N8  UNL     1     -34.820  12.666  -4.739  1.00 20.00    -0.192 NA
ENDROOT
BRANCH   7   9
HETATM    9  O9  UNL     1     -37.421  15.043  -2.849  1.00 20.00    -0.390 OA
HETATM   10  H18 UNL     1     -38.061  14.704  -3.493  1.00 20.00     0.210 HD
ENDBRANCH   7   9
TORSDOF 1
ENDMDL
MODEL 4
REMARK VINA RESULT:      -4.3     12.150     12.795
REMARK  1 active torsions:
REMARK  status: ('A' for Active; 'I' for Inactive)
REMARK    1  A    between atoms: C7_7  and  O9_9 
ROOT
HETATM    1  C1  UNL     1     -32.855   6.950   3.348  1.00 20.00     0.097 C 
HETATM    2  C2  UNL     1     -34.553   5.298   3.640  1.00 20.00    -0.006 C 
HETATM    3  C3  UNL     1     -33.624   6.095   4.194  1.00 20.00     0.047 C 
HETATM    4  C4  UNL     1     -35.416   4.353   4.424  1.00 20.00     0.028 C 
HETATM    5  C5  UNL     1     -35.353   4.579   5.934  1.00 20.00     0.007 C 
HETATM    6  C6  UNL     1     -33.921   4.849   6.390  1.00 20.00     0.037 C 
HETATM    7  C7  UNL     1     -33.335   6.074   5.677  1.00 20.00     0.161 C 
HETATM    8  N8  UNL     1     -32.230   7.645   2.661  1.00 20.00    -0.192 NA
ENDROOT
BRANCH   7   9
HETATM    9  O9  UNL     1     -33.886   7.247   6.279  1.00 20.00    -0.390 OA
HETATM   10  H18 UNL     1     -33.218   7.942   6.185  1.00 20.00     0.210 HD
ENDBRANCH   7   9
TORSDOF 1
ENDMDL
MODEL 5
REMARK VINA RESULT:      -4.3     10.796     11.838
REMARK  1 active torsions:
REMARK  status: ('A' for Active; 'I' for Inactive)
REMARK    1  A    between atoms: C7_7  and  O9_9 
ROOT
HETATM    1  C1  UNL     1     -42.919   4.130  -3.221  1.00 20.00     0.097 C 
HETATM    2  C2  UNL     1     -42.440   6.377  -2.574  1.00 20.00    -0.006 C 
HETATM    3  C3  UNL     1     -42.309   5.062  -2.329  1.00 20.00     0.047 C 
HETATM    4  C4  UNL     1     -41.852   7.451  -1.706  1.00 20.00     0.028 C 
HETATM    5  C5  UNL     1     -40.848   6.925  -0.681  1.00 20.00     0.007 C 
HETATM    6  C6  UNL     1     -41.339   5.625  -0.047  1.00 20.00     0.037 C 
HETATM    7  C7  UNL     1     -41.578   4.546  -1.111  1.00 20.00     0.161 C 
HETATM    8  N8  UNL     1     -43.414   3.372  -3.946  1.00 20.00    -0.192 NA
ENDROOT
BRANCH   7   9
HETATM    9  O9  UNL     1     -40.310   4.024  -1.511  1.00 20.00    -0.390 OA
HETATM   10  H18 UNL     1     -39.722   4.117  -0.746  1.00 20.00     0.210 HD
ENDBRANCH   7   9
TORSDOF 1
ENDMDL
MODEL 6
REMARK VINA RESULT:      -4.3     12.590     13.152
REMARK  1 active torsions:
REMARK  status: ('A' for Active; 'I' for Inactive)
REMARK    1  A    between atoms: C7_7  and  O9_9 
ROOT
HETATM    1  C1  UNL     1     -33.487   7.181   6.716  1.00 20.00     0.097 C 
HETATM    2  C2  UNL     1     -34.595   5.084   6.447  1.00 20.00    -0.006 C 
HETATM    3  C3  UNL     1     -34.058   6.177   5.878  1.00 20.00     0.047 C 
HETATM    4  C4  UNL     1     -35.230   3.966   5.671  1.00 20.00     0.028 C 
HETATM    5  C5  UNL     1     -34.960   4.035   4.169  1.00 20.00     0.007 C 
HETATM    6  C6  UNL     1     -35.071   5.469   3.656  1.00 20.00     0.037 C 
HETATM    7  C7  UNL     1     -34.088   6.395   4.383  1.00 20.00     0.161 C 
HETATM    8  N8  UNL     1     -33.022   7.996   7.397  1.00 20.00    -0.192 NA
ENDROOT
BRANCH   7   9
HETATM    9  O9  UNL     1     -32.783   6.168   3.849  1.00 20.00    -0.390 OA
HETATM   10  H18 UNL     1     -32.470   7.022   3.516  1.00 20.00     0.210 HD
ENDBRANCH   7   9
TORSDOF 1
ENDMDL
MODEL 7
REMARK VINA RESULT:      -4.3      1.545      2.255
REMARK  1 active torsions:
REMARK  status: ('A' for Active; 'I' for Inactive)
REMARK    1  A    between atoms: C7_7  and  O9_9 
ROOT
HETATM    1  C1  UNL     1     -37.352  14.501  -3.793  1.00 20.00     0.097 C 
HETATM    2  C2  UNL     1     -35.168  13.608  -4.153  1.00 20.00    -0.006 C 
HETATM    3  C3  UNL     1     -35.932  14.641  -3.758  1.00 20.00     0.047 C 
HETATM    4  C4  UNL     1     -33.667  13.638  -4.168  1.00 20.00     0.028 C 
HETATM    5  C5  UNL     1     -33.073  14.834  -3.425  1.00 20.00     0.007 C 
HETATM    6  C6  UNL     1     -33.857  16.110  -3.722  1.00 20.00     0.037 C 
HETATM    7  C7  UNL     1     -35.332  15.958  -3.327  1.00 20.00     0.161 C 
HETATM    8  N8  UNL     1     -38.506  14.388  -3.821  1.00 20.00    -0.192 NA
ENDROOT
BRANCH   7   9
HETATM    9  O9  UNL     1     -35.427  16.076  -1.906  1.00 20.00    -0.390 OA
HETATM   10  H18 UNL     1     -36.270  16.518  -1.724  1.00 20.00     0.210 HD
ENDBRANCH   7   9
TORSDOF 1
ENDMDL
MODEL 8
REMARK VINA RESULT:      -4.3      2.916      3.446
REMARK  1 active torsions:
REMARK  status: ('A' for Active; 'I' for Inactive)
REMARK    1  A    between atoms: C7_7  and  O9_9 
ROOT
HETATM    1  C1  UNL     1     -34.624  13.715  -4.946  1.00 20.00     0.097 C 
HETATM    2  C2  UNL     1     -34.905  15.597  -6.388  1.00 20.00    -0.006 C 
HETATM    3  C3  UNL     1     -34.360  15.079  -5.273  1.00 20.00     0.047 C 
HETATM    4  C4  UNL     1     -34.706  17.017  -6.831  1.00 20.00     0.028 C 
HETATM    5  C5  UNL     1     -33.602  17.746  -6.067  1.00 20.00     0.007 C 
HETATM    6  C6  UNL     1     -33.658  17.421  -4.576  1.00 20.00     0.037 C 
HETATM    7  C7  UNL     1     -33.521  15.913  -4.333  1.00 20.00     0.161 C 
HETATM    8  N8  UNL     1     -34.838  12.606  -4.681  1.00 20.00    -0.192 NA
ENDROOT
BRANCH   7   9
HETATM    9  O9  UNL     1     -32.146  15.558  -4.491  1.00 20.00    -0.390 OA
HETATM   10  H18 UNL     1     -31.843  15.990  -5.304  1.00 20.00     0.210 HD
ENDBRANCH   7   9
TORSDOF 1
ENDMDL
MODEL 9
REMARK VINA RESULT:      -4.3      2.614      3.401
REMARK  1 active torsions:
REMARK  status: ('A' for Active; 'I' for Inactive)
REMARK    1  A    between atoms: C7_7  and  O9_9 
ROOT
HETATM    1  C1  UNL     1     -33.886  16.591  -2.149  1.00 20.00     0.097 C 
HETATM    2  C2  UNL     1     -35.100  14.788  -3.135  1.00 20.00    -0.006 C 
HETATM    3  C3  UNL     1     -34.206  15.780  -3.280  1.00 20.00     0.047 C 
HETATM    4  C4  UNL     1     -35.522  13.876  -4.250  1.00 20.00     0.028 C 
HETATM    5  C5  UNL     1     -34.638  13.980  -5.491  1.00 20.00     0.007 C 
HETATM    6  C6  UNL     1     -34.290  15.436  -5.797  1.00 20.00     0.037 C 
HETATM    7  C7  UNL     1     -33.568  16.092  -4.613  1.00 20.00     0.161 C 
HETATM    8  N8  UNL     1     -33.626  17.250  -1.231  1.00 20.00    -0.192 NA
ENDROOT
BRANCH   7   9
HETATM    9  O9  UNL     1     -32.215  15.635  -4.606  1.00 20.00    -0.390 OA
HETATM   10  H18 UNL     1     -31.796  16.030  -3.827  1.00 20.00     0.210 HD
ENDBRANCH   7   9
TORSDOF 1
ENDMDL
