MODEL 1
REMARK VINA RESULT:      -4.7      0.000      0.000
REMARK  1 active torsions:
REMARK  status: ('A' for Active; 'I' for Inactive)
REMARK    1  A    between atoms: C7_7  and  N8_8 
ROOT
HETATM    1  C1  UNL     1     -32.176   8.899   1.432  1.00 20.00     0.013 C 
HETATM    2  C2  UNL     1     -32.141   7.992   2.218  1.00 20.00    -0.087 C 
HETATM    3  C7  UNL     1     -32.092   6.884   3.174  1.00 20.00     0.365 C 
ENDROOT
BRANCH   3   4
HETATM    4  N8  UNL     1     -33.416   6.614   3.715  1.00 20.00     0.106 N 
HETATM    5  C5  UNL     1     -33.376   6.231   5.127  1.00 20.00     0.351 C 
HETATM    6  C3  UNL     1     -34.667   5.467   5.264  1.00 20.00     0.156 C 
HETATM    7  C4  UNL     1     -35.272   5.180   3.919  1.00 20.00     0.110 C 
HETATM    8  O9  UNL     1     -35.160   5.127   6.330  1.00 20.00    -0.296 OA
HETATM    9  C6  UNL     1     -34.099   5.524   3.011  1.00 20.00     0.281 C 
ENDBRANCH   3   4
TORSDOF 1
ENDMDL
MODEL 2
REMARK VINA RESULT:      -4.6     10.956     11.477
REMARK  1 active torsions:
REMARK  status: ('A' for Active; 'I' for Inactive)
REMARK    1  A    between atoms: C7_7  and  N8_8 
ROOT
HETATM    1  C1  UNL     1     -34.796  17.251   0.076  1.00 20.00     0.013 C 
HETATM    2  C2  UNL     1     -34.417  16.855  -0.992  1.00 20.00    -0.087 C 
HETATM    3  C7  UNL     1     -33.952  16.377  -2.296  1.00 20.00     0.365 C 
ENDROOT
BRANCH   3   4
HETATM    4  N8  UNL     1     -34.718  15.216  -2.720  1.00 20.00     0.106 N 
HETATM    5  C5  UNL     1     -33.914  14.265  -3.491  1.00 20.00     0.351 C 
HETATM    6  C3  UNL     1     -34.979  13.542  -4.273  1.00 20.00     0.156 C 
HETATM    7  C4  UNL     1     -36.301  14.246  -4.168  1.00 20.00     0.110 C 
HETATM    8  O9  UNL     1     -34.792  12.513  -4.908  1.00 20.00    -0.296 OA
HETATM    9  C6  UNL     1     -35.859  15.574  -3.569  1.00 20.00     0.281 C 
ENDBRANCH   3   4
TORSDOF 1
ENDMDL
MODEL 3
REMARK VINA RESULT:      -4.4     11.140     11.983
REMARK  1 active torsions:
REMARK  status: ('A' for Active; 'I' for Inactive)
REMARK    1  A    between atoms: C7_7  and  N8_8 
ROOT
HETATM    1  C1  UNL     1     -34.669  16.784  -0.542  1.00 20.00     0.013 C 
HETATM    2  C2  UNL     1     -34.194  16.738  -1.644  1.00 20.00    -0.087 C 
HETATM    3  C7  UNL     1     -33.611  16.686  -2.987  1.00 20.00     0.365 C 
ENDROOT
BRANCH   3   4
HETATM    4  N8  UNL     1     -34.377  15.796  -3.845  1.00 20.00     0.106 N 
HETATM    5  C5  UNL     1     -34.280  14.396  -3.426  1.00 20.00     0.351 C 
HETATM    6  C3  UNL     1     -34.604  13.679  -4.711  1.00 20.00     0.156 C 
HETATM    7  C4  UNL     1     -34.599  14.626  -5.876  1.00 20.00     0.110 C 
HETATM    8  O9  UNL     1     -34.843  12.482  -4.794  1.00 20.00    -0.296 OA
HETATM    9  C6  UNL     1     -33.933  15.840  -5.242  1.00 20.00     0.281 C 
ENDBRANCH   3   4
TORSDOF 1
ENDMDL
MODEL 4
REMARK VINA RESULT:      -4.2     11.176     11.774
REMARK  1 active torsions:
REMARK  status: ('A' for Active; 'I' for Inactive)
REMARK    1  A    between atoms: C7_7  and  N8_8 
ROOT
HETATM    1  C1  UNL     1     -34.401  16.836  -0.741  1.00 20.00     0.013 C 
HETATM    2  C2  UNL     1     -34.129  16.771  -1.909  1.00 20.00    -0.087 C 
HETATM    3  C7  UNL     1     -33.793  16.697  -3.333  1.00 20.00     0.365 C 
ENDROOT
BRANCH   3   4
HETATM    4  N8  UNL     1     -34.599  15.685  -3.998  1.00 20.00     0.106 N 
HETATM    5  C5  UNL     1     -36.022  15.800  -3.671  1.00 20.00     0.351 C 
HETATM    6  C3  UNL     1     -36.503  14.399  -3.946  1.00 20.00     0.156 C 
HETATM    7  C4  UNL     1     -35.349  13.458  -4.140  1.00 20.00     0.110 C 
HETATM    8  O9  UNL     1     -37.680  14.072  -4.006  1.00 20.00    -0.296 OA
HETATM    9  C6  UNL     1     -34.201  14.321  -3.634  1.00 20.00     0.281 C 
ENDBRANCH   3   4
TORSDOF 1
ENDMDL
MODEL 5
REMARK VINA RESULT:      -3.8     11.064     12.610
REMARK  1 active torsions:
REMARK  status: ('A' for Active; 'I' for Inactive)
REMARK    1  A    between atoms: C7_7  and  N8_8 
ROOT
HETATM    1  C1  UNL     1     -35.976  17.849  -4.108  1.00 20.00     0.013 C 
HETATM    2  C2  UNL     1     -34.957  17.529  -4.657  1.00 20.00    -0.087 C 
HETATM    3  C7  UNL     1     -33.714  17.144  -5.329  1.00 20.00     0.365 C 
ENDROOT
BRANCH   3   4
HETATM    4  N8  UNL     1     -33.424  15.736  -5.104  1.00 20.00     0.106 N 
HETATM    5  C5  UNL     1     -34.509  14.862  -5.553  1.00 20.00     0.351 C 
HETATM    6  C3  UNL     1     -34.266  13.634  -4.715  1.00 20.00     0.156 C 
HETATM    7  C4  UNL     1     -33.265  13.907  -3.630  1.00 20.00     0.110 C 
HETATM    8  O9  UNL     1     -34.812  12.554  -4.898  1.00 20.00    -0.296 OA
HETATM    9  C6  UNL     1     -33.205  15.427  -3.686  1.00 20.00     0.281 C 
ENDBRANCH   3   4
TORSDOF 1
ENDMDL
MODEL 6
REMARK VINA RESULT:      -3.8     11.144     12.154
REMARK  1 active torsions:
REMARK  status: ('A' for Active; 'I' for Inactive)
REMARK    1  A    between atoms: C7_7  and  N8_8 
ROOT
HETATM    1  C1  UNL     1     -33.656  17.930  -5.608  1.00 20.00     0.013 C 
HETATM    2  C2  UNL     1     -33.699  17.477  -4.498  1.00 20.00    -0.087 C 
HETATM    3  C7  UNL     1     -33.749  16.927  -3.141  1.00 20.00     0.365 C 
ENDROOT
BRANCH   3   4
HETATM    4  N8  UNL     1     -34.524  15.696  -3.114  1.00 20.00     0.106 N 
HETATM    5  C5  UNL     1     -33.857  14.600  -3.820  1.00 20.00     0.351 C 
HETATM    6  C3  UNL     1     -35.026  13.714  -4.161  1.00 20.00     0.156 C 
HETATM    7  C4  UNL     1     -36.330  14.417  -3.915  1.00 20.00     0.110 C 
HETATM    8  O9  UNL     1     -34.926  12.569  -4.580  1.00 20.00    -0.296 OA
HETATM    9  C6  UNL     1     -35.842  15.848  -3.738  1.00 20.00     0.281 C 
ENDBRANCH   3   4
TORSDOF 1
ENDMDL
MODEL 7
REMARK VINA RESULT:      -3.8     11.341     12.005
REMARK  1 active torsions:
REMARK  status: ('A' for Active; 'I' for Inactive)
REMARK    1  A    between atoms: C7_7  and  N8_8 
ROOT
HETATM    1  C1  UNL     1     -34.780  14.770  -6.946  1.00 20.00     0.013 C 
HETATM    2  C2  UNL     1     -34.755  14.138  -5.926  1.00 20.00    -0.087 C 
HETATM    3  C7  UNL     1     -34.726  13.361  -4.685  1.00 20.00     0.365 C 
ENDROOT
BRANCH   3   4
HETATM    4  N8  UNL     1     -34.664  14.243  -3.529  1.00 20.00     0.106 N 
HETATM    5  C5  UNL     1     -35.840  15.109  -3.424  1.00 20.00     0.351 C 
HETATM    6  C3  UNL     1     -35.296  16.248  -2.601  1.00 20.00     0.156 C 
HETATM    7  C4  UNL     1     -33.800  16.171  -2.491  1.00 20.00     0.110 C 
HETATM    8  O9  UNL     1     -35.983  17.119  -2.087  1.00 20.00    -0.296 OA
HETATM    9  C6  UNL     1     -33.498  15.131  -3.562  1.00 20.00     0.281 C 
ENDBRANCH   3   4
TORSDOF 1
ENDMDL
MODEL 8
REMARK VINA RESULT:      -3.7      9.248     10.562
REMARK  1 active torsions:
REMARK  status: ('A' for Active; 'I' for Inactive)
REMARK    1  A    between atoms: C7_7  and  N8_8 
ROOT
HETATM    1  C1  UNL     1     -41.319   1.545  -4.047  1.00 20.00     0.013 C 
HETATM    2  C2  UNL     1     -41.879   2.342  -3.345  1.00 20.00    -0.087 C 
HETATM    3  C7  UNL     1     -42.567   3.310  -2.488  1.00 20.00     0.365 C 
ENDROOT
BRANCH   3   4
HETATM    4  N8  UNL     1     -41.721   4.468  -2.240  1.00 20.00     0.106 N 
HETATM    5  C5  UNL     1     -41.228   4.515  -0.862  1.00 20.00     0.351 C 
HETATM    6  C3  UNL     1     -40.933   5.984  -0.703  1.00 20.00     0.156 C 
HETATM    7  C4  UNL     1     -41.507   6.778  -1.841  1.00 20.00     0.110 C 
HETATM    8  O9  UNL     1     -40.306   6.466   0.230  1.00 20.00    -0.296 OA
HETATM    9  C6  UNL     1     -42.420   5.736  -2.472  1.00 20.00     0.281 C 
ENDBRANCH   3   4
TORSDOF 1
ENDMDL
MODEL 9
REMARK VINA RESULT:      -3.7     11.208     12.645
REMARK  1 active torsions:
REMARK  status: ('A' for Active; 'I' for Inactive)
REMARK    1  A    between atoms: C7_7  and  N8_8 
ROOT
HETATM    1  C1  UNL     1     -33.992  18.448  -6.585  1.00 20.00     0.013 C 
HETATM    2  C2  UNL     1     -33.717  17.558  -5.827  1.00 20.00    -0.087 C 
HETATM    3  C7  UNL     1     -33.377  16.475  -4.901  1.00 20.00     0.365 C 
ENDROOT
BRANCH   3   4
HETATM    4  N8  UNL     1     -34.331  15.383  -5.016  1.00 20.00     0.106 N 
HETATM    5  C5  UNL     1     -35.643  15.725  -4.462  1.00 20.00     0.351 C 
HETATM    6  C3  UNL     1     -36.200  14.359  -4.157  1.00 20.00     0.156 C 
HETATM    7  C4  UNL     1     -35.137  13.304  -4.262  1.00 20.00     0.110 C 
HETATM    8  O9  UNL     1     -37.367  14.139  -3.864  1.00 20.00    -0.296 OA
HETATM    9  C6  UNL     1     -33.889  14.174  -4.314  1.00 20.00     0.281 C 
ENDBRANCH   3   4
TORSDOF 1
ENDMDL
