MODEL 1
REMARK VINA RESULT:      -5.1      0.000      0.000
REMARK  3 active torsions:
REMARK  status: ('A' for Active; 'I' for Inactive)
REMARK    1  A    between atoms: C3_3  and  C6_6 
REMARK    2  A    between atoms: C3_3  and  O11_11 
REMARK    3  A    between atoms: C8_8  and  O11_11 
ROOT
HETATM    1  C1  UNL     1     -35.210   4.986   4.073  1.00 20.00    -0.025 C 
HETATM    2  C2  UNL     1     -35.211   4.998   5.413  1.00 20.00    -0.005 C 
HETATM    3  C4  UNL     1     -34.167   5.725   3.291  1.00 20.00     0.069 C 
HETATM    4  C5  UNL     1     -34.196   5.774   6.198  1.00 20.00     0.196 C 
HETATM    5  C6  UNL     1     -32.992   6.119   4.187  1.00 20.00     0.224 C 
HETATM    6  O10 UNL     1     -33.477   6.713   5.389  1.00 20.00    -0.372 OA
ENDROOT
BRANCH   5   7
HETATM    7  C3  UNL     1     -32.158   7.177   3.544  1.00 20.00     0.288 C 
HETATM    8  O9  UNL     1     -31.175   7.686   4.065  1.00 20.00    -0.262 OA
BRANCH   7   9
HETATM    9  O11 UNL     1     -32.666   7.472   2.314  1.00 20.00    -0.320 OA
BRANCH   9  10
HETATM   10  C8  UNL     1     -31.881   8.371   1.523  1.00 20.00     0.174 C 
HETATM   11  C7  UNL     1     -32.535   9.735   1.532  1.00 20.00     0.034 C 
ENDBRANCH   9  10
ENDBRANCH   7   9
ENDBRANCH   5   7
TORSDOF 3
ENDMDL
MODEL 2
REMARK VINA RESULT:      -5.0      1.164      1.723
REMARK  3 active torsions:
REMARK  status: ('A' for Active; 'I' for Inactive)
REMARK    1  A    between atoms: C3_3  and  C6_6 
REMARK    2  A    between atoms: C3_3  and  O11_11 
REMARK    3  A    between atoms: C8_8  and  O11_11 
ROOT
HETATM    1  C1  UNL     1     -34.432   5.874   6.520  1.00 20.00    -0.025 C 
HETATM    2  C2  UNL     1     -35.237   4.892   6.092  1.00 20.00    -0.005 C 
HETATM    3  C4  UNL     1     -33.497   6.575   5.583  1.00 20.00     0.069 C 
HETATM    4  C5  UNL     1     -35.223   4.422   4.668  1.00 20.00     0.196 C 
HETATM    5  C6  UNL     1     -33.867   6.289   4.128  1.00 20.00     0.224 C 
HETATM    6  O10 UNL     1     -34.076   4.890   3.947  1.00 20.00    -0.372 OA
ENDROOT
BRANCH   5   7
HETATM    7  C3  UNL     1     -32.741   6.631   3.209  1.00 20.00     0.288 C 
HETATM    8  O9  UNL     1     -31.854   5.851   2.892  1.00 20.00    -0.262 OA
BRANCH   7   9
HETATM    9  O11 UNL     1     -32.868   7.925   2.798  1.00 20.00    -0.320 OA
BRANCH   9  10
HETATM   10  C8  UNL     1     -31.967   8.332   1.762  1.00 20.00     0.174 C 
HETATM   11  C7  UNL     1     -32.376   9.700   1.262  1.00 20.00     0.034 C 
ENDBRANCH   9  10
ENDBRANCH   7   9
ENDBRANCH   5   7
TORSDOF 3
ENDMDL
MODEL 3
REMARK VINA RESULT:      -4.3     11.322     12.250
REMARK  3 active torsions:
REMARK  status: ('A' for Active; 'I' for Inactive)
REMARK    1  A    between atoms: C3_3  and  C6_6 
REMARK    2  A    between atoms: C3_3  and  O11_11 
REMARK    3  A    between atoms: C8_8  and  O11_11 
ROOT
HETATM    1  C1  UNL     1     -34.747  16.690  -0.626  1.00 20.00    -0.025 C 
HETATM    2  C2  UNL     1     -34.126  17.851  -0.380  1.00 20.00    -0.005 C 
HETATM    3  C4  UNL     1     -34.663  16.034  -1.971  1.00 20.00     0.069 C 
HETATM    4  C5  UNL     1     -33.346  18.571  -1.439  1.00 20.00     0.196 C 
HETATM    5  C6  UNL     1     -33.537  16.644  -2.805  1.00 20.00     0.224 C 
HETATM    6  O10 UNL     1     -33.612  18.067  -2.755  1.00 20.00    -0.372 OA
ENDROOT
BRANCH   5   7
HETATM    7  C3  UNL     1     -33.693  16.302  -4.249  1.00 20.00     0.288 C 
HETATM    8  O9  UNL     1     -32.867  16.574  -5.111  1.00 20.00    -0.262 OA
BRANCH   7   9
HETATM    9  O11 UNL     1     -34.877  15.654  -4.438  1.00 20.00    -0.320 OA
BRANCH   9  10
HETATM   10  C8  UNL     1     -34.842  14.568  -5.370  1.00 20.00     0.174 C 
HETATM   11  C7  UNL     1     -34.658  13.272  -4.610  1.00 20.00     0.034 C 
ENDBRANCH   9  10
ENDBRANCH   7   9
ENDBRANCH   5   7
TORSDOF 3
ENDMDL
MODEL 4
REMARK VINA RESULT:      -4.2      1.035      1.637
REMARK  3 active torsions:
REMARK  status: ('A' for Active; 'I' for Inactive)
REMARK    1  A    between atoms: C3_3  and  C6_6 
REMARK    2  A    between atoms: C3_3  and  O11_11 
REMARK    3  A    between atoms: C8_8  and  O11_11 
ROOT
HETATM    1  C1  UNL     1     -35.225   4.386   5.786  1.00 20.00    -0.025 C 
HETATM    2  C2  UNL     1     -34.894   5.231   6.771  1.00 20.00    -0.005 C 
HETATM    3  C4  UNL     1     -34.730   4.594   4.386  1.00 20.00     0.069 C 
HETATM    4  C5  UNL     1     -34.043   6.441   6.524  1.00 20.00     0.196 C 
HETATM    5  C6  UNL     1     -33.577   5.597   4.359  1.00 20.00     0.224 C 
HETATM    6  O10 UNL     1     -33.918   6.748   5.129  1.00 20.00    -0.372 OA
ENDROOT
BRANCH   5   7
HETATM    7  C3  UNL     1     -33.347   6.113   2.978  1.00 20.00     0.288 C 
HETATM    8  O9  UNL     1     -33.482   5.442   1.964  1.00 20.00    -0.262 OA
BRANCH   7   9
HETATM    9  O11 UNL     1     -32.970   7.422   3.039  1.00 20.00    -0.320 OA
BRANCH   9  10
HETATM   10  C8  UNL     1     -31.836   7.773   2.238  1.00 20.00     0.174 C 
HETATM   11  C7  UNL     1     -32.206   8.935   1.342  1.00 20.00     0.034 C 
ENDBRANCH   9  10
ENDBRANCH   7   9
ENDBRANCH   5   7
TORSDOF 3
ENDMDL
MODEL 5
REMARK VINA RESULT:      -4.2     10.996     11.737
REMARK  3 active torsions:
REMARK  status: ('A' for Active; 'I' for Inactive)
REMARK    1  A    between atoms: C3_3  and  C6_6 
REMARK    2  A    between atoms: C3_3  and  O11_11 
REMARK    3  A    between atoms: C8_8  and  O11_11 
ROOT
HETATM    1  C1  UNL     1     -33.754  13.523  -4.079  1.00 20.00    -0.025 C 
HETATM    2  C2  UNL     1     -35.071  13.343  -4.243  1.00 20.00    -0.005 C 
HETATM    3  C4  UNL     1     -33.205  14.831  -3.597  1.00 20.00     0.069 C 
HETATM    4  C5  UNL     1     -36.059  14.442  -3.988  1.00 20.00     0.196 C 
HETATM    5  C6  UNL     1     -34.311  15.701  -3.001  1.00 20.00     0.224 C 
HETATM    6  O10 UNL     1     -35.433  15.727  -3.880  1.00 20.00    -0.372 OA
ENDROOT
BRANCH   5   7
HETATM    7  C3  UNL     1     -33.875  17.125  -2.892  1.00 20.00     0.288 C 
HETATM    8  O9  UNL     1     -33.623  17.840  -3.852  1.00 20.00    -0.262 OA
BRANCH   7   9
HETATM    9  O11 UNL     1     -33.808  17.480  -1.577  1.00 20.00    -0.320 OA
BRANCH   9  10
HETATM   10  C8  UNL     1     -34.623  16.707  -0.689  1.00 20.00     0.174 C 
HETATM   11  C7  UNL     1     -34.926  17.530   0.544  1.00 20.00     0.034 C 
ENDBRANCH   9  10
ENDBRANCH   7   9
ENDBRANCH   5   7
TORSDOF 3
ENDMDL
MODEL 6
REMARK VINA RESULT:      -4.2     10.842     12.650
REMARK  3 active torsions:
REMARK  status: ('A' for Active; 'I' for Inactive)
REMARK    1  A    between atoms: C3_3  and  C6_6 
REMARK    2  A    between atoms: C3_3  and  O11_11 
REMARK    3  A    between atoms: C8_8  and  O11_11 
ROOT
HETATM    1  C1  UNL     1     -35.213  14.660  -7.304  1.00 20.00    -0.025 C 
HETATM    2  C2  UNL     1     -34.936  15.946  -7.556  1.00 20.00    -0.005 C 
HETATM    3  C4  UNL     1     -34.840  14.028  -5.998  1.00 20.00     0.069 C 
HETATM    4  C5  UNL     1     -34.213  16.809  -6.567  1.00 20.00     0.196 C 
HETATM    5  C6  UNL     1     -34.490  15.092  -4.958  1.00 20.00     0.224 C 
HETATM    6  O10 UNL     1     -33.594  16.046  -5.522  1.00 20.00    -0.372 OA
ENDROOT
BRANCH   5   7
HETATM    7  C3  UNL     1     -33.744  14.496  -3.810  1.00 20.00     0.288 C 
HETATM    8  O9  UNL     1     -33.312  13.352  -3.793  1.00 20.00    -0.262 OA
BRANCH   7   9
HETATM    9  O11 UNL     1     -33.630  15.420  -2.814  1.00 20.00    -0.320 OA
BRANCH   9  10
HETATM   10  C8  UNL     1     -34.867  15.874  -2.252  1.00 20.00     0.174 C 
HETATM   11  C7  UNL     1     -34.581  16.609  -0.960  1.00 20.00     0.034 C 
ENDBRANCH   9  10
ENDBRANCH   7   9
ENDBRANCH   5   7
TORSDOF 3
ENDMDL
MODEL 7
REMARK VINA RESULT:      -4.2     10.936     12.541
REMARK  3 active torsions:
REMARK  status: ('A' for Active; 'I' for Inactive)
REMARK    1  A    between atoms: C3_3  and  C6_6 
REMARK    2  A    between atoms: C3_3  and  O11_11 
REMARK    3  A    between atoms: C8_8  and  O11_11 
ROOT
HETATM    1  C1  UNL     1     -33.766  16.409  -6.133  1.00 20.00    -0.025 C 
HETATM    2  C2  UNL     1     -33.365  17.132  -5.080  1.00 20.00    -0.005 C 
HETATM    3  C4  UNL     1     -34.590  15.170  -5.956  1.00 20.00     0.069 C 
HETATM    4  C5  UNL     1     -33.688  16.728  -3.672  1.00 20.00     0.196 C 
HETATM    5  C6  UNL     1     -35.176  15.103  -4.545  1.00 20.00     0.224 C 
HETATM    6  O10 UNL     1     -34.159  15.376  -3.584  1.00 20.00    -0.372 OA
ENDROOT
BRANCH   5   7
HETATM    7  C3  UNL     1     -35.647  13.724  -4.224  1.00 20.00     0.288 C 
HETATM    8  O9  UNL     1     -34.948  12.723  -4.311  1.00 20.00    -0.262 OA
BRANCH   7   9
HETATM    9  O11 UNL     1     -36.951  13.769  -3.830  1.00 20.00    -0.320 OA
BRANCH   9  10
HETATM   10  C8  UNL     1     -37.505  15.082  -3.687  1.00 20.00     0.174 C 
HETATM   11  C7  UNL     1     -39.014  14.991  -3.763  1.00 20.00     0.034 C 
ENDBRANCH   9  10
ENDBRANCH   7   9
ENDBRANCH   5   7
TORSDOF 3
ENDMDL
MODEL 8
REMARK VINA RESULT:      -4.0      9.923     11.465
REMARK  3 active torsions:
REMARK  status: ('A' for Active; 'I' for Inactive)
REMARK    1  A    between atoms: C3_3  and  C6_6 
REMARK    2  A    between atoms: C3_3  and  O11_11 
REMARK    3  A    between atoms: C8_8  and  O11_11 
ROOT
HETATM    1  C1  UNL     1     -40.817   6.107  -0.211  1.00 20.00    -0.025 C 
HETATM    2  C2  UNL     1     -41.157   7.132  -1.004  1.00 20.00    -0.005 C 
HETATM    3  C4  UNL     1     -41.097   4.691  -0.611  1.00 20.00     0.069 C 
HETATM    4  C5  UNL     1     -41.862   6.922  -2.311  1.00 20.00     0.196 C 
HETATM    5  C6  UNL     1     -41.435   4.601  -2.099  1.00 20.00     0.224 C 
HETATM    6  O10 UNL     1     -42.396   5.598  -2.440  1.00 20.00    -0.372 OA
ENDROOT
BRANCH   5   7
HETATM    7  C3  UNL     1     -42.097   3.303  -2.423  1.00 20.00     0.288 C 
HETATM    8  O9  UNL     1     -43.213   2.986  -2.033  1.00 20.00    -0.262 OA
BRANCH   7   9
HETATM    9  O11 UNL     1     -41.269   2.552  -3.204  1.00 20.00    -0.320 OA
BRANCH   9  10
HETATM   10  C8  UNL     1     -41.917   1.772  -4.214  1.00 20.00     0.174 C 
HETATM   11  C7  UNL     1     -41.671   0.305  -3.938  1.00 20.00     0.034 C 
ENDBRANCH   9  10
ENDBRANCH   7   9
ENDBRANCH   5   7
TORSDOF 3
ENDMDL
MODEL 9
REMARK VINA RESULT:      -4.0     10.791     12.296
REMARK  3 active torsions:
REMARK  status: ('A' for Active; 'I' for Inactive)
REMARK    1  A    between atoms: C3_3  and  C6_6 
REMARK    2  A    between atoms: C3_3  and  O11_11 
REMARK    3  A    between atoms: C8_8  and  O11_11 
ROOT
HETATM    1  C1  UNL     1     -34.277  17.361  -1.338  1.00 20.00    -0.025 C 
HETATM    2  C2  UNL     1     -33.897  18.311  -2.202  1.00 20.00    -0.005 C 
HETATM    3  C4  UNL     1     -34.513  15.951  -1.788  1.00 20.00     0.069 C 
HETATM    4  C5  UNL     1     -33.719  18.026  -3.664  1.00 20.00     0.196 C 
HETATM    5  C6  UNL     1     -33.917  15.716  -3.176  1.00 20.00     0.224 C 
HETATM    6  O10 UNL     1     -34.297  16.773  -4.053  1.00 20.00    -0.372 OA
ENDROOT
BRANCH   5   7
HETATM    7  C3  UNL     1     -34.477  14.480  -3.798  1.00 20.00     0.288 C 
HETATM    8  O9  UNL     1     -34.199  13.344  -3.438  1.00 20.00    -0.262 OA
BRANCH   7   9
HETATM    9  O11 UNL     1     -35.326  14.825  -4.808  1.00 20.00    -0.320 OA
BRANCH   9  10
HETATM   10  C8  UNL     1     -35.166  14.088  -6.025  1.00 20.00     0.174 C 
HETATM   11  C7  UNL     1     -34.444  14.955  -7.034  1.00 20.00     0.034 C 
ENDBRANCH   9  10
ENDBRANCH   7   9
ENDBRANCH   5   7
TORSDOF 3
ENDMDL
