MODEL 1
REMARK VINA RESULT:      -4.5      0.000      0.000
REMARK  0 active torsions:
REMARK  status: ('A' for Active; 'I' for Inactive)
ROOT
HETATM    1  C1  UNL     1     -36.561  16.089  -3.542  1.00 20.00     0.003 C 
HETATM    2  C2  UNL     1     -35.499  16.625  -2.580  1.00 20.00     0.001 C 
HETATM    3  C3  UNL     1     -36.435  14.587  -3.761  1.00 20.00     0.041 C 
HETATM    4  C4  UNL     1     -34.286  15.704  -2.425  1.00 20.00     0.012 C 
HETATM    5  C5  UNL     1     -34.975  13.507  -5.637  1.00 20.00     0.207 A 
HETATM    6  C6  UNL     1     -35.071  14.227  -4.301  1.00 20.00     0.089 A 
HETATM    7  C7  UNL     1     -33.864  14.997  -3.739  1.00 20.00    -0.014 C 
HETATM    8  C8  UNL     1     -33.378  16.046  -4.760  1.00 20.00     0.018 C 
HETATM    9  C9  UNL     1     -32.677  14.068  -3.409  1.00 20.00     0.018 C 
HETATM   10  O10 UNL     1     -34.896  12.800  -4.400  1.00 20.00    -0.374 OA
ENDROOT
TORSDOF 0
ENDMDL
MODEL 2
REMARK VINA RESULT:      -4.4      1.898      3.265
REMARK  0 active torsions:
REMARK  status: ('A' for Active; 'I' for Inactive)
ROOT
HETATM    1  C1  UNL     1     -35.063  14.053  -6.000  1.00 20.00     0.003 C 
HETATM    2  C2  UNL     1     -34.799  13.247  -4.726  1.00 20.00     0.001 C 
HETATM    3  C3  UNL     1     -34.192  15.298  -6.087  1.00 20.00     0.041 C 
HETATM    4  C4  UNL     1     -34.118  14.055  -3.617  1.00 20.00     0.012 C 
HETATM    5  C5  UNL     1     -34.881  17.626  -5.127  1.00 20.00     0.207 A 
HETATM    6  C6  UNL     1     -34.409  16.200  -4.895  1.00 20.00     0.089 A 
HETATM    7  C7  UNL     1     -34.601  15.526  -3.527  1.00 20.00    -0.014 C 
HETATM    8  C8  UNL     1     -36.089  15.558  -3.120  1.00 20.00     0.018 C 
HETATM    9  C9  UNL     1     -33.788  16.216  -2.412  1.00 20.00     0.018 C 
HETATM   10  O10 UNL     1     -33.504  17.322  -4.904  1.00 20.00    -0.374 OA
ENDROOT
TORSDOF 0
ENDMDL
MODEL 3
REMARK VINA RESULT:      -4.4      1.374      2.644
REMARK  0 active torsions:
REMARK  status: ('A' for Active; 'I' for Inactive)
ROOT
HETATM    1  C1  UNL     1     -33.721  16.459  -3.109  1.00 20.00     0.003 C 
HETATM    2  C2  UNL     1     -33.527  17.324  -4.356  1.00 20.00     0.001 C 
HETATM    3  C3  UNL     1     -33.463  14.984  -3.385  1.00 20.00     0.041 C 
HETATM    4  C4  UNL     1     -33.598  16.539  -5.669  1.00 20.00     0.012 C 
HETATM    5  C5  UNL     1     -35.304  13.305  -4.167  1.00 20.00     0.207 A 
HETATM    6  C6  UNL     1     -34.370  14.466  -4.476  1.00 20.00     0.089 A 
HETATM    7  C7  UNL     1     -34.653  15.402  -5.662  1.00 20.00    -0.014 C 
HETATM    8  C8  UNL     1     -36.067  16.007  -5.540  1.00 20.00     0.018 C 
HETATM    9  C9  UNL     1     -34.562  14.674  -7.019  1.00 20.00     0.018 C 
HETATM   10  O10 UNL     1     -34.055  13.104  -4.830  1.00 20.00    -0.374 OA
ENDROOT
TORSDOF 0
ENDMDL
MODEL 4
REMARK VINA RESULT:      -4.3      1.369      2.960
REMARK  0 active torsions:
REMARK  status: ('A' for Active; 'I' for Inactive)
ROOT
HETATM    1  C1  UNL     1     -33.517  13.532  -3.819  1.00 20.00     0.003 C 
HETATM    2  C2  UNL     1     -32.609  14.755  -3.673  1.00 20.00     0.001 C 
HETATM    3  C3  UNL     1     -34.724  13.811  -4.703  1.00 20.00     0.041 C 
HETATM    4  C4  UNL     1     -33.302  16.079  -4.008  1.00 20.00     0.012 C 
HETATM    5  C5  UNL     1     -37.005  14.714  -3.809  1.00 20.00     0.207 A 
HETATM    6  C6  UNL     1     -35.545  14.956  -4.160  1.00 20.00     0.089 A 
HETATM    7  C7  UNL     1     -34.783  16.145  -3.553  1.00 20.00    -0.014 C 
HETATM    8  C8  UNL     1     -34.853  16.094  -2.012  1.00 20.00     0.018 C 
HETATM    9  C9  UNL     1     -35.352  17.504  -4.010  1.00 20.00     0.018 C 
HETATM   10  O10 UNL     1     -36.623  15.310  -5.050  1.00 20.00    -0.374 OA
ENDROOT
TORSDOF 0
ENDMDL
MODEL 5
REMARK VINA RESULT:      -4.3      1.383      2.439
REMARK  0 active torsions:
REMARK  status: ('A' for Active; 'I' for Inactive)
ROOT
HETATM    1  C1  UNL     1     -34.119  15.942  -6.624  1.00 20.00     0.003 C 
HETATM    2  C2  UNL     1     -33.620  17.121  -5.787  1.00 20.00     0.001 C 
HETATM    3  C3  UNL     1     -35.335  15.267  -6.004  1.00 20.00     0.041 C 
HETATM    4  C4  UNL     1     -34.093  17.086  -4.330  1.00 20.00     0.012 C 
HETATM    5  C5  UNL     1     -35.193  13.291  -4.303  1.00 20.00     0.207 A 
HETATM    6  C6  UNL     1     -35.031  14.771  -4.610  1.00 20.00     0.089 A 
HETATM    7  C7  UNL     1     -34.146  15.661  -3.722  1.00 20.00    -0.014 C 
HETATM    8  C8  UNL     1     -32.718  15.080  -3.639  1.00 20.00     0.018 C 
HETATM    9  C9  UNL     1     -34.693  15.787  -2.285  1.00 20.00     0.018 C 
HETATM   10  O10 UNL     1     -36.206  14.238  -3.965  1.00 20.00    -0.374 OA
ENDROOT
TORSDOF 0
ENDMDL
MODEL 6
REMARK VINA RESULT:      -4.3      2.021      3.594
REMARK  0 active torsions:
REMARK  status: ('A' for Active; 'I' for Inactive)
ROOT
HETATM    1  C1  UNL     1     -33.379  13.940  -3.753  1.00 20.00     0.003 C 
HETATM    2  C2  UNL     1     -34.650  13.229  -4.223  1.00 20.00     0.001 C 
HETATM    3  C3  UNL     1     -33.625  15.407  -3.429  1.00 20.00     0.041 C 
HETATM    4  C4  UNL     1     -35.738  14.182  -4.727  1.00 20.00     0.012 C 
HETATM    5  C5  UNL     1     -33.402  17.339  -5.173  1.00 20.00     0.207 A 
HETATM    6  C6  UNL     1     -34.172  16.146  -4.628  1.00 20.00     0.089 A 
HETATM    7  C7  UNL     1     -35.189  15.403  -5.510  1.00 20.00    -0.014 C 
HETATM    8  C8  UNL     1     -34.515  14.922  -6.812  1.00 20.00     0.018 C 
HETATM    9  C9  UNL     1     -36.391  16.289  -5.896  1.00 20.00     0.018 C 
HETATM   10  O10 UNL     1     -34.522  17.506  -4.303  1.00 20.00    -0.374 OA
ENDROOT
TORSDOF 0
ENDMDL
MODEL 7
REMARK VINA RESULT:      -4.3      1.753      3.445
REMARK  0 active torsions:
REMARK  status: ('A' for Active; 'I' for Inactive)
ROOT
HETATM    1  C1  UNL     1     -34.258  17.313  -6.287  1.00 20.00     0.003 C 
HETATM    2  C2  UNL     1     -34.727  16.226  -7.255  1.00 20.00     0.001 C 
HETATM    3  C3  UNL     1     -33.278  16.780  -5.251  1.00 20.00     0.041 C 
HETATM    4  C4  UNL     1     -34.528  14.802  -6.726  1.00 20.00     0.012 C 
HETATM    5  C5  UNL     1     -33.994  15.799  -2.940  1.00 20.00     0.207 A 
HETATM    6  C6  UNL     1     -33.889  15.655  -4.450  1.00 20.00     0.089 A 
HETATM    7  C7  UNL     1     -34.785  14.658  -5.204  1.00 20.00    -0.014 C 
HETATM    8  C8  UNL     1     -36.271  14.939  -4.899  1.00 20.00     0.018 C 
HETATM    9  C9  UNL     1     -34.488  13.194  -4.818  1.00 20.00     0.018 C 
HETATM   10  O10 UNL     1     -32.934  15.061  -3.549  1.00 20.00    -0.374 OA
ENDROOT
TORSDOF 0
ENDMDL
MODEL 8
REMARK VINA RESULT:      -4.2      1.741      2.746
REMARK  0 active torsions:
REMARK  status: ('A' for Active; 'I' for Inactive)
ROOT
HETATM    1  C1  UNL     1     -36.576  15.479  -4.924  1.00 20.00     0.003 C 
HETATM    2  C2  UNL     1     -36.300  14.181  -4.163  1.00 20.00     0.001 C 
HETATM    3  C3  UNL     1     -35.352  15.978  -5.680  1.00 20.00     0.041 C 
HETATM    4  C4  UNL     1     -34.811  13.919  -3.913  1.00 20.00     0.012 C 
HETATM    5  C5  UNL     1     -33.574  17.597  -4.662  1.00 20.00     0.207 A 
HETATM    6  C6  UNL     1     -34.190  16.209  -4.743  1.00 20.00     0.089 A 
HETATM    7  C7  UNL     1     -33.994  15.199  -3.600  1.00 20.00    -0.014 C 
HETATM    8  C8  UNL     1     -34.471  15.805  -2.264  1.00 20.00     0.018 C 
HETATM    9  C9  UNL     1     -32.518  14.780  -3.433  1.00 20.00     0.018 C 
HETATM   10  O10 UNL     1     -32.990  16.565  -5.458  1.00 20.00    -0.374 OA
ENDROOT
TORSDOF 0
ENDMDL
MODEL 9
REMARK VINA RESULT:      -4.2     11.290     12.511
REMARK  0 active torsions:
REMARK  status: ('A' for Active; 'I' for Inactive)
ROOT
HETATM    1  C1  UNL     1     -43.097   4.352  -3.004  1.00 20.00     0.003 C 
HETATM    2  C2  UNL     1     -41.926   3.536  -2.455  1.00 20.00     0.001 C 
HETATM    3  C3  UNL     1     -42.818   5.848  -2.983  1.00 20.00     0.041 C 
HETATM    4  C4  UNL     1     -40.965   4.348  -1.581  1.00 20.00     0.012 C 
HETATM    5  C5  UNL     1     -43.391   7.406  -0.967  1.00 20.00     0.207 A 
HETATM    6  C6  UNL     1     -42.515   6.326  -1.582  1.00 20.00     0.089 A 
HETATM    7  C7  UNL     1     -41.669   5.403  -0.690  1.00 20.00    -0.014 C 
HETATM    8  C8  UNL     1     -42.567   4.692   0.345  1.00 20.00     0.018 C 
HETATM    9  C9  UNL     1     -40.573   6.171   0.079  1.00 20.00     0.018 C 
HETATM   10  O10 UNL     1     -42.131   7.716  -1.564  1.00 20.00    -0.374 OA
ENDROOT
TORSDOF 0
ENDMDL
