MODEL 1
REMARK VINA RESULT:      -4.2      0.000      0.000
REMARK  3 active torsions:
REMARK  status: ('A' for Active; 'I' for Inactive)
REMARK    1  A    between atoms: C6_6  and  C7_7 
REMARK    2  A    between atoms: C7_7  and  C8_8 
REMARK    3  A    between atoms: C7_7  and  O9_9 
ROOT
HETATM    1  C1  UNL     1     -34.792  16.917  -1.216  1.00 20.00     0.012 C 
HETATM    2  C2  UNL     1     -34.299  16.172  -2.018  1.00 20.00    -0.115 C 
HETATM    3  C6  UNL     1     -33.693  15.254  -3.000  1.00 20.00     0.125 C 
ENDROOT
BRANCH   3   4
HETATM    4  C7  UNL     1     -33.899  15.766  -4.437  1.00 20.00     0.136 C 
BRANCH   4   5
HETATM    5  C8  UNL     1     -34.738  14.827  -5.363  1.00 20.00    -0.025 C 
HETATM    6  C3  UNL     1     -36.238  15.152  -5.192  1.00 20.00     0.017 C 
HETATM    7  C4  UNL     1     -34.378  15.004  -6.850  1.00 20.00     0.017 C 
HETATM    8  C5  UNL     1     -34.524  13.352  -4.974  1.00 20.00     0.017 C 
ENDBRANCH   4   5
BRANCH   4   9
HETATM    9  O9  UNL     1     -32.611  16.001  -5.020  1.00 20.00    -0.394 OA
HETATM   10  H23 UNL     1     -31.995  16.097  -4.279  1.00 20.00     0.210 HD
ENDBRANCH   4   9
ENDBRANCH   3   4
TORSDOF 3
ENDMDL
MODEL 2
REMARK VINA RESULT:      -4.2      0.048      1.445
REMARK  3 active torsions:
REMARK  status: ('A' for Active; 'I' for Inactive)
REMARK    1  A    between atoms: C6_6  and  C7_7 
REMARK    2  A    between atoms: C7_7  and  C8_8 
REMARK    3  A    between atoms: C7_7  and  O9_9 
ROOT
HETATM    1  C1  UNL     1     -34.811  16.892  -1.223  1.00 20.00     0.012 C 
HETATM    2  C2  UNL     1     -34.311  16.160  -2.033  1.00 20.00    -0.115 C 
HETATM    3  C6  UNL     1     -33.694  15.259  -3.024  1.00 20.00     0.125 C 
ENDROOT
BRANCH   3   4
HETATM    4  C7  UNL     1     -33.934  15.765  -4.458  1.00 20.00     0.136 C 
BRANCH   4   5
HETATM    5  C8  UNL     1     -34.786  14.819  -5.363  1.00 20.00    -0.025 C 
HETATM    6  C3  UNL     1     -34.517  13.352  -4.963  1.00 20.00     0.017 C 
HETATM    7  C4  UNL     1     -36.297  15.083  -5.220  1.00 20.00     0.017 C 
HETATM    8  C5  UNL     1     -34.393  14.988  -6.843  1.00 20.00     0.017 C 
ENDBRANCH   4   5
BRANCH   4   9
HETATM    9  O9  UNL     1     -32.660  16.006  -5.067  1.00 20.00    -0.394 OA
HETATM   10  H23 UNL     1     -32.310  16.807  -4.651  1.00 20.00     0.210 HD
ENDBRANCH   4   9
ENDBRANCH   3   4
TORSDOF 3
ENDMDL
MODEL 3
REMARK VINA RESULT:      -4.1      1.826      2.603
REMARK  3 active torsions:
REMARK  status: ('A' for Active; 'I' for Inactive)
REMARK    1  A    between atoms: C6_6  and  C7_7 
REMARK    2  A    between atoms: C7_7  and  C8_8 
REMARK    3  A    between atoms: C7_7  and  O9_9 
ROOT
HETATM    1  C1  UNL     1     -35.029  17.367   0.526  1.00 20.00     0.012 C 
HETATM    2  C2  UNL     1     -34.550  17.051  -0.528  1.00 20.00    -0.115 C 
HETATM    3  C6  UNL     1     -33.959  16.666  -1.823  1.00 20.00     0.125 C 
ENDROOT
BRANCH   3   4
HETATM    4  C7  UNL     1     -34.742  15.508  -2.467  1.00 20.00     0.136 C 
BRANCH   4   5
HETATM    5  C8  UNL     1     -34.229  15.059  -3.872  1.00 20.00    -0.025 C 
HETATM    6  C3  UNL     1     -33.231  16.107  -4.409  1.00 20.00     0.017 C 
HETATM    7  C4  UNL     1     -33.510  13.697  -3.822  1.00 20.00     0.017 C 
HETATM    8  C5  UNL     1     -35.399  14.963  -4.870  1.00 20.00     0.017 C 
ENDBRANCH   4   5
BRANCH   4   9
HETATM    9  O9  UNL     1     -36.121  15.889  -2.550  1.00 20.00    -0.394 OA
HETATM   10  H23 UNL     1     -36.569  15.435  -1.821  1.00 20.00     0.210 HD
ENDBRANCH   4   9
ENDBRANCH   3   4
TORSDOF 3
ENDMDL
MODEL 4
REMARK VINA RESULT:      -3.9     12.255     13.742
REMARK  3 active torsions:
REMARK  status: ('A' for Active; 'I' for Inactive)
REMARK    1  A    between atoms: C6_6  and  C7_7 
REMARK    2  A    between atoms: C7_7  and  C8_8 
REMARK    3  A    between atoms: C7_7  and  O9_9 
ROOT
HETATM    1  C1  UNL     1     -41.486   1.680  -3.621  1.00 20.00     0.012 C 
HETATM    2  C2  UNL     1     -41.830   2.751  -3.201  1.00 20.00    -0.115 C 
HETATM    3  C6  UNL     1     -42.254   4.067  -2.689  1.00 20.00     0.125 C 
ENDROOT
BRANCH   3   4
HETATM    4  C7  UNL     1     -41.577   4.382  -1.343  1.00 20.00     0.136 C 
BRANCH   4   5
HETATM    5  C8  UNL     1     -41.688   5.868  -0.875  1.00 20.00    -0.025 C 
HETATM    6  C3  UNL     1     -43.016   6.063  -0.111  1.00 20.00     0.017 C 
HETATM    7  C4  UNL     1     -40.535   6.270   0.063  1.00 20.00     0.017 C 
HETATM    8  C5  UNL     1     -41.694   6.819  -2.087  1.00 20.00     0.017 C 
ENDBRANCH   4   5
BRANCH   4   9
HETATM    9  O9  UNL     1     -40.199   4.001  -1.434  1.00 20.00    -0.394 OA
HETATM   10  H23 UNL     1     -40.084   3.260  -0.823  1.00 20.00     0.210 HD
ENDBRANCH   4   9
ENDBRANCH   3   4
TORSDOF 3
ENDMDL
MODEL 5
REMARK VINA RESULT:      -3.9     12.270     13.767
REMARK  3 active torsions:
REMARK  status: ('A' for Active; 'I' for Inactive)
REMARK    1  A    between atoms: C6_6  and  C7_7 
REMARK    2  A    between atoms: C7_7  and  C8_8 
REMARK    3  A    between atoms: C7_7  and  O9_9 
ROOT
HETATM    1  C1  UNL     1     -41.416   1.708  -3.688  1.00 20.00     0.012 C 
HETATM    2  C2  UNL     1     -41.818   2.745  -3.236  1.00 20.00    -0.115 C 
HETATM    3  C6  UNL     1     -42.313   4.019  -2.684  1.00 20.00     0.125 C 
ENDROOT
BRANCH   3   4
HETATM    4  C7  UNL     1     -41.619   4.353  -1.351  1.00 20.00     0.136 C 
BRANCH   4   5
HETATM    5  C8  UNL     1     -41.740   5.841  -0.893  1.00 20.00    -0.025 C 
HETATM    6  C3  UNL     1     -41.684   6.762  -2.131  1.00 20.00     0.017 C 
HETATM    7  C4  UNL     1     -43.062   6.117  -0.153  1.00 20.00     0.017 C 
HETATM    8  C5  UNL     1     -40.568   6.219   0.033  1.00 20.00     0.017 C 
ENDBRANCH   4   5
BRANCH   4   9
HETATM    9  O9  UNL     1     -40.237   3.987  -1.461  1.00 20.00    -0.394 OA
HETATM   10  H23 UNL     1     -39.873   4.040  -0.566  1.00 20.00     0.210 HD
ENDBRANCH   4   9
ENDBRANCH   3   4
TORSDOF 3
ENDMDL
MODEL 6
REMARK VINA RESULT:      -3.9      1.937      4.033
REMARK  3 active torsions:
REMARK  status: ('A' for Active; 'I' for Inactive)
REMARK    1  A    between atoms: C6_6  and  C7_7 
REMARK    2  A    between atoms: C7_7  and  C8_8 
REMARK    3  A    between atoms: C7_7  and  O9_9 
ROOT
HETATM    1  C1  UNL     1     -36.979  15.207  -7.476  1.00 20.00     0.012 C 
HETATM    2  C2  UNL     1     -36.049  14.699  -6.913  1.00 20.00    -0.115 C 
HETATM    3  C6  UNL     1     -34.905  14.072  -6.224  1.00 20.00     0.125 C 
ENDROOT
BRANCH   3   4
HETATM    4  C7  UNL     1     -35.102  14.088  -4.697  1.00 20.00     0.136 C 
BRANCH   4   5
HETATM    5  C8  UNL     1     -34.020  14.880  -3.895  1.00 20.00    -0.025 C 
HETATM    6  C3  UNL     1     -32.886  13.917  -3.482  1.00 20.00     0.017 C 
HETATM    7  C4  UNL     1     -33.399  16.020  -4.725  1.00 20.00     0.017 C 
HETATM    8  C5  UNL     1     -34.628  15.477  -2.611  1.00 20.00     0.017 C 
ENDBRANCH   4   5
BRANCH   4   9
HETATM    9  O9  UNL     1     -35.154  12.732  -4.237  1.00 20.00    -0.394 OA
HETATM   10  H23 UNL     1     -34.854  12.185  -4.977  1.00 20.00     0.210 HD
ENDBRANCH   4   9
ENDBRANCH   3   4
TORSDOF 3
ENDMDL
MODEL 7
REMARK VINA RESULT:      -3.9     12.094     13.035
REMARK  3 active torsions:
REMARK  status: ('A' for Active; 'I' for Inactive)
REMARK    1  A    between atoms: C6_6  and  C7_7 
REMARK    2  A    between atoms: C7_7  and  C8_8 
REMARK    3  A    between atoms: C7_7  and  O9_9 
ROOT
HETATM    1  C1  UNL     1     -31.816   8.164   2.255  1.00 20.00     0.012 C 
HETATM    2  C2  UNL     1     -32.471   7.202   2.551  1.00 20.00    -0.115 C 
HETATM    3  C6  UNL     1     -33.276   6.021   2.911  1.00 20.00     0.125 C 
ENDROOT
BRANCH   3   4
HETATM    4  C7  UNL     1     -33.234   5.762   4.428  1.00 20.00     0.136 C 
BRANCH   4   5
HETATM    5  C8  UNL     1     -34.534   5.144   5.034  1.00 20.00    -0.025 C 
HETATM    6  C3  UNL     1     -35.738   5.513   4.139  1.00 20.00     0.017 C 
HETATM    7  C4  UNL     1     -34.461   3.609   5.125  1.00 20.00     0.017 C 
HETATM    8  C5  UNL     1     -34.798   5.712   6.442  1.00 20.00     0.017 C 
ENDBRANCH   4   5
BRANCH   4   9
HETATM    9  O9  UNL     1     -32.929   6.999   5.085  1.00 20.00    -0.394 OA
HETATM   10  H23 UNL     1     -32.319   6.778   5.803  1.00 20.00     0.210 HD
ENDBRANCH   4   9
ENDBRANCH   3   4
TORSDOF 3
ENDMDL
MODEL 8
REMARK VINA RESULT:      -3.9      1.117      3.557
REMARK  3 active torsions:
REMARK  status: ('A' for Active; 'I' for Inactive)
REMARK    1  A    between atoms: C6_6  and  C7_7 
REMARK    2  A    between atoms: C7_7  and  C8_8 
REMARK    3  A    between atoms: C7_7  and  O9_9 
ROOT
HETATM    1  C1  UNL     1     -34.766  14.748  -7.021  1.00 20.00     0.012 C 
HETATM    2  C2  UNL     1     -34.475  14.433  -5.899  1.00 20.00    -0.115 C 
HETATM    3  C6  UNL     1     -34.121  14.044  -4.522  1.00 20.00     0.125 C 
ENDROOT
BRANCH   3   4
HETATM    4  C7  UNL     1     -33.416  15.197  -3.785  1.00 20.00     0.136 C 
BRANCH   4   5
HETATM    5  C8  UNL     1     -34.365  16.270  -3.164  1.00 20.00    -0.025 C 
HETATM    6  C3  UNL     1     -33.817  16.700  -1.787  1.00 20.00     0.017 C 
HETATM    7  C4  UNL     1     -34.477  17.528  -4.047  1.00 20.00     0.017 C 
HETATM    8  C5  UNL     1     -35.776  15.688  -2.953  1.00 20.00     0.017 C 
ENDBRANCH   4   5
BRANCH   4   9
HETATM    9  O9  UNL     1     -32.503  15.821  -4.697  1.00 20.00    -0.394 OA
HETATM   10  H23 UNL     1     -31.645  15.399  -4.549  1.00 20.00     0.210 HD
ENDBRANCH   4   9
ENDBRANCH   3   4
TORSDOF 3
ENDMDL
MODEL 9
REMARK VINA RESULT:      -3.8      2.072      3.504
REMARK  3 active torsions:
REMARK  status: ('A' for Active; 'I' for Inactive)
REMARK    1  A    between atoms: C6_6  and  C7_7 
REMARK    2  A    between atoms: C7_7  and  C8_8 
REMARK    3  A    between atoms: C7_7  and  O9_9 
ROOT
HETATM    1  C1  UNL     1     -38.797  15.143  -3.514  1.00 20.00     0.012 C 
HETATM    2  C2  UNL     1     -37.772  14.895  -4.089  1.00 20.00    -0.115 C 
HETATM    3  C6  UNL     1     -36.516  14.590  -4.798  1.00 20.00     0.125 C 
ENDROOT
BRANCH   3   4
HETATM    4  C7  UNL     1     -35.456  14.033  -3.831  1.00 20.00     0.136 C 
BRANCH   4   5
HETATM    5  C8  UNL     1     -34.137  14.865  -3.739  1.00 20.00    -0.025 C 
HETATM    6  C3  UNL     1     -33.942  15.657  -5.050  1.00 20.00     0.017 C 
HETATM    7  C4  UNL     1     -34.163  15.870  -2.573  1.00 20.00     0.017 C 
HETATM    8  C5  UNL     1     -32.921  13.934  -3.562  1.00 20.00     0.017 C 
ENDBRANCH   4   5
BRANCH   4   9
HETATM    9  O9  UNL     1     -35.157  12.686  -4.221  1.00 20.00    -0.394 OA
HETATM   10  H23 UNL     1     -35.040  12.704  -5.182  1.00 20.00     0.210 HD
ENDBRANCH   4   9
ENDBRANCH   3   4
TORSDOF 3
ENDMDL
