MODEL 1
REMARK VINA RESULT:      -4.7      0.000      0.000
REMARK  0 active torsions:
REMARK  status: ('A' for Active; 'I' for Inactive)
ROOT
HETATM    1  C1  UNL     1     -33.437  13.948  -3.770  1.00 20.00     0.047 C 
HETATM    2  C2  UNL     1     -32.926  15.177  -3.634  1.00 20.00    -0.023 C 
HETATM    3  C3  UNL     1     -34.432  13.657  -4.835  1.00 20.00     0.157 C 
HETATM    4  C4  UNL     1     -33.242  16.329  -4.536  1.00 20.00     0.028 C 
HETATM    5  C5  UNL     1     -33.857  15.876  -5.857  1.00 20.00     0.021 C 
HETATM    6  C6  UNL     1     -34.966  14.822  -5.679  1.00 20.00     0.017 C 
HETATM    7  C7  UNL     1     -35.383  14.304  -7.065  1.00 20.00     0.023 C 
HETATM    8  C8  UNL     1     -36.196  15.408  -4.972  1.00 20.00     0.023 C 
HETATM    9  O9  UNL     1     -34.840  12.504  -4.965  1.00 20.00    -0.292 OA
ENDROOT
TORSDOF 0
ENDMDL
MODEL 2
REMARK VINA RESULT:      -4.3      2.028      2.833
REMARK  0 active torsions:
REMARK  status: ('A' for Active; 'I' for Inactive)
ROOT
HETATM    1  C1  UNL     1     -34.813  13.664  -3.766  1.00 20.00     0.047 C 
HETATM    2  C2  UNL     1     -33.484  13.779  -3.860  1.00 20.00    -0.023 C 
HETATM    3  C3  UNL     1     -35.654  14.848  -3.453  1.00 20.00     0.157 C 
HETATM    4  C4  UNL     1     -32.734  15.068  -3.725  1.00 20.00     0.028 C 
HETATM    5  C5  UNL     1     -33.642  16.284  -3.892  1.00 20.00     0.021 C 
HETATM    6  C6  UNL     1     -34.959  16.170  -3.100  1.00 20.00     0.017 C 
HETATM    7  C7  UNL     1     -35.869  17.348  -3.482  1.00 20.00     0.023 C 
HETATM    8  C8  UNL     1     -34.711  16.199  -1.585  1.00 20.00     0.023 C 
HETATM    9  O9  UNL     1     -36.877  14.716  -3.426  1.00 20.00    -0.292 OA
ENDROOT
TORSDOF 0
ENDMDL
MODEL 3
REMARK VINA RESULT:      -4.3      1.410      2.921
REMARK  0 active torsions:
REMARK  status: ('A' for Active; 'I' for Inactive)
ROOT
HETATM    1  C1  UNL     1     -36.498  14.150  -4.089  1.00 20.00     0.047 C 
HETATM    2  C2  UNL     1     -36.823  15.298  -3.485  1.00 20.00    -0.023 C 
HETATM    3  C3  UNL     1     -35.073  13.762  -4.257  1.00 20.00     0.157 C 
HETATM    4  C4  UNL     1     -35.835  16.249  -2.886  1.00 20.00     0.028 C 
HETATM    5  C5  UNL     1     -34.475  15.596  -2.651  1.00 20.00     0.021 C 
HETATM    6  C6  UNL     1     -33.986  14.766  -3.853  1.00 20.00     0.017 C 
HETATM    7  C7  UNL     1     -32.711  14.010  -3.447  1.00 20.00     0.023 C 
HETATM    8  C8  UNL     1     -33.675  15.656  -5.066  1.00 20.00     0.023 C 
HETATM    9  O9  UNL     1     -34.812  12.674  -4.769  1.00 20.00    -0.292 OA
ENDROOT
TORSDOF 0
ENDMDL
MODEL 4
REMARK VINA RESULT:      -4.3      1.891      3.298
REMARK  0 active torsions:
REMARK  status: ('A' for Active; 'I' for Inactive)
ROOT
HETATM    1  C1  UNL     1     -34.028  13.480  -4.332  1.00 20.00     0.047 C 
HETATM    2  C2  UNL     1     -35.351  13.407  -4.510  1.00 20.00    -0.023 C 
HETATM    3  C3  UNL     1     -33.416  14.669  -3.685  1.00 20.00     0.157 C 
HETATM    4  C4  UNL     1     -36.325  14.444  -4.044  1.00 20.00     0.028 C 
HETATM    5  C5  UNL     1     -35.723  15.368  -2.988  1.00 20.00     0.021 C 
HETATM    6  C6  UNL     1     -34.313  15.869  -3.355  1.00 20.00     0.017 C 
HETATM    7  C7  UNL     1     -33.732  16.632  -2.154  1.00 20.00     0.023 C 
HETATM    8  C8  UNL     1     -34.343  16.801  -4.575  1.00 20.00     0.023 C 
HETATM    9  O9  UNL     1     -32.201  14.678  -3.490  1.00 20.00    -0.292 OA
ENDROOT
TORSDOF 0
ENDMDL
MODEL 5
REMARK VINA RESULT:      -4.3      1.173      2.704
REMARK  0 active torsions:
REMARK  status: ('A' for Active; 'I' for Inactive)
ROOT
HETATM    1  C1  UNL     1     -34.794  13.964  -6.217  1.00 20.00     0.047 C 
HETATM    2  C2  UNL     1     -34.434  15.076  -6.866  1.00 20.00    -0.023 C 
HETATM    3  C3  UNL     1     -34.772  13.914  -4.732  1.00 20.00     0.157 C 
HETATM    4  C4  UNL     1     -34.043  16.357  -6.196  1.00 20.00     0.028 C 
HETATM    5  C5  UNL     1     -34.495  16.408  -4.739  1.00 20.00     0.021 C 
HETATM    6  C6  UNL     1     -34.195  15.110  -3.965  1.00 20.00     0.017 C 
HETATM    7  C7  UNL     1     -34.850  15.199  -2.578  1.00 20.00     0.023 C 
HETATM    8  C8  UNL     1     -32.684  14.892  -3.792  1.00 20.00     0.023 C 
HETATM    9  O9  UNL     1     -35.161  12.891  -4.168  1.00 20.00    -0.292 OA
ENDROOT
TORSDOF 0
ENDMDL
MODEL 6
REMARK VINA RESULT:      -4.3      1.853      2.727
REMARK  0 active torsions:
REMARK  status: ('A' for Active; 'I' for Inactive)
ROOT
HETATM    1  C1  UNL     1     -33.141  14.831  -3.875  1.00 20.00     0.047 C 
HETATM    2  C2  UNL     1     -33.832  13.700  -3.698  1.00 20.00    -0.023 C 
HETATM    3  C3  UNL     1     -33.633  15.879  -4.806  1.00 20.00     0.157 C 
HETATM    4  C4  UNL     1     -35.150  13.403  -4.344  1.00 20.00     0.028 C 
HETATM    5  C5  UNL     1     -35.827  14.662  -4.879  1.00 20.00     0.021 C 
HETATM    6  C6  UNL     1     -34.869  15.579  -5.664  1.00 20.00     0.017 C 
HETATM    7  C7  UNL     1     -35.599  16.891  -5.993  1.00 20.00     0.023 C 
HETATM    8  C8  UNL     1     -34.404  14.922  -6.972  1.00 20.00     0.023 C 
HETATM    9  O9  UNL     1     -32.999  16.930  -4.904  1.00 20.00    -0.292 OA
ENDROOT
TORSDOF 0
ENDMDL
MODEL 7
REMARK VINA RESULT:      -4.3     12.613     13.540
REMARK  0 active torsions:
REMARK  status: ('A' for Active; 'I' for Inactive)
ROOT
HETATM    1  C1  UNL     1     -34.740   4.669   6.305  1.00 20.00     0.047 C 
HETATM    2  C2  UNL     1     -34.362   5.887   6.708  1.00 20.00    -0.023 C 
HETATM    3  C3  UNL     1     -34.818   4.342   4.857  1.00 20.00     0.157 C 
HETATM    4  C4  UNL     1     -33.936   6.988   5.788  1.00 20.00     0.028 C 
HETATM    5  C5  UNL     1     -33.570   6.471   4.399  1.00 20.00     0.021 C 
HETATM    6  C6  UNL     1     -34.594   5.466   3.837  1.00 20.00     0.017 C 
HETATM    7  C7  UNL     1     -34.040   4.874   2.531  1.00 20.00     0.023 C 
HETATM    8  C8  UNL     1     -35.945   6.136   3.550  1.00 20.00     0.023 C 
HETATM    9  O9  UNL     1     -35.119   3.196   4.525  1.00 20.00    -0.292 OA
ENDROOT
TORSDOF 0
ENDMDL
MODEL 8
REMARK VINA RESULT:      -4.2     12.100     13.620
REMARK  0 active torsions:
REMARK  status: ('A' for Active; 'I' for Inactive)
ROOT
HETATM    1  C1  UNL     1     -34.345   5.156   6.480  1.00 20.00     0.047 C 
HETATM    2  C2  UNL     1     -34.958   4.150   5.847  1.00 20.00    -0.023 C 
HETATM    3  C3  UNL     1     -33.833   6.327   5.721  1.00 20.00     0.157 C 
HETATM    4  C4  UNL     1     -35.237   4.121   4.376  1.00 20.00     0.028 C 
HETATM    5  C5  UNL     1     -35.144   5.508   3.743  1.00 20.00     0.021 C 
HETATM    6  C6  UNL     1     -33.895   6.294   4.189  1.00 20.00     0.017 C 
HETATM    7  C7  UNL     1     -33.995   7.728   3.645  1.00 20.00     0.023 C 
HETATM    8  C8  UNL     1     -32.604   5.648   3.665  1.00 20.00     0.023 C 
HETATM    9  O9  UNL     1     -33.322   7.258   6.343  1.00 20.00    -0.292 OA
ENDROOT
TORSDOF 0
ENDMDL
MODEL 9
REMARK VINA RESULT:      -4.2     11.273     12.228
REMARK  0 active torsions:
REMARK  status: ('A' for Active; 'I' for Inactive)
ROOT
HETATM    1  C1  UNL     1     -41.604   4.329  -2.152  1.00 20.00     0.047 C 
HETATM    2  C2  UNL     1     -40.697   4.422  -1.174  1.00 20.00    -0.023 C 
HETATM    3  C3  UNL     1     -42.474   5.487  -2.488  1.00 20.00     0.157 C 
HETATM    4  C4  UNL     1     -40.427   5.665  -0.384  1.00 20.00     0.028 C 
HETATM    5  C5  UNL     1     -40.972   6.915  -1.071  1.00 20.00     0.021 C 
HETATM    6  C6  UNL     1     -42.408   6.737  -1.601  1.00 20.00     0.017 C 
HETATM    7  C7  UNL     1     -42.787   7.976  -2.428  1.00 20.00     0.023 C 
HETATM    8  C8  UNL     1     -43.417   6.572  -0.455  1.00 20.00     0.023 C 
HETATM    9  O9  UNL     1     -43.261   5.383  -3.428  1.00 20.00    -0.292 OA
ENDROOT
TORSDOF 0
ENDMDL
