MODEL 1
REMARK VINA RESULT:      -4.4      0.000      0.000
REMARK  2 active torsions:
REMARK  status: ('A' for Active; 'I' for Inactive)
REMARK    1  A    between atoms: C3_3  and  C8_8 
REMARK    2  A    between atoms: C8_8  and  N10_10 
ROOT
HETATM    1  C1  UNL     1     -35.166  13.611  -4.126  1.00 20.00     0.100 C 
HETATM    2  C8  UNL     1     -35.695  14.700  -3.284  1.00 20.00     0.356 C 
HETATM    3  N9  UNL     1     -34.754  12.749  -4.785  1.00 20.00    -0.195 NA
ENDROOT
BRANCH   2   4
HETATM    4  C3  UNL     1     -34.541  15.541  -2.751  1.00 20.00    -0.041 C 
HETATM    5  C2  UNL     1     -34.747  16.358  -1.698  1.00 20.00    -0.025 C 
HETATM    6  C4  UNL     1     -33.776  17.289  -1.045  1.00 20.00     0.036 C 
HETATM    7  C5  UNL     1     -33.214  15.400  -3.455  1.00 20.00     0.046 C 
ENDBRANCH   2   4
BRANCH   2   8
HETATM    8  N10 UNL     1     -36.663  15.499  -4.040  1.00 20.00     0.102 N 
HETATM    9  C6  UNL     1     -37.934  14.787  -4.152  1.00 20.00     0.311 C 
HETATM   10  C7  UNL     1     -36.135  15.817  -5.366  1.00 20.00     0.311 C 
ENDBRANCH   2   8
TORSDOF 2
ENDMDL
MODEL 2
REMARK VINA RESULT:      -4.4      1.263      2.247
REMARK  2 active torsions:
REMARK  status: ('A' for Active; 'I' for Inactive)
REMARK    1  A    between atoms: C3_3  and  C8_8 
REMARK    2  A    between atoms: C8_8  and  N10_10 
ROOT
HETATM    1  C1  UNL     1     -36.693  14.744  -4.084  1.00 20.00     0.100 C 
HETATM    2  C8  UNL     1     -35.414  15.325  -4.533  1.00 20.00     0.356 C 
HETATM    3  N9  UNL     1     -37.702  14.290  -3.734  1.00 20.00    -0.195 NA
ENDROOT
BRANCH   2   4
HETATM    4  C3  UNL     1     -34.577  15.718  -3.320  1.00 20.00    -0.041 C 
HETATM    5  C2  UNL     1     -35.193  16.141  -2.198  1.00 20.00    -0.025 C 
HETATM    6  C4  UNL     1     -34.571  16.606  -0.920  1.00 20.00     0.036 C 
HETATM    7  C5  UNL     1     -33.079  15.606  -3.463  1.00 20.00     0.046 C 
ENDBRANCH   2   4
BRANCH   2   8
HETATM    8  N10 UNL     1     -34.713  14.387  -5.412  1.00 20.00     0.102 N 
HETATM    9  C6  UNL     1     -35.297  14.413  -6.752  1.00 20.00     0.311 C 
HETATM   10  C7  UNL     1     -34.762  13.035  -4.858  1.00 20.00     0.311 C 
ENDBRANCH   2   8
TORSDOF 2
ENDMDL
MODEL 3
REMARK VINA RESULT:      -4.2      1.774      2.611
REMARK  2 active torsions:
REMARK  status: ('A' for Active; 'I' for Inactive)
REMARK    1  A    between atoms: C3_3  and  C8_8 
REMARK    2  A    between atoms: C8_8  and  N10_10 
ROOT
HETATM    1  C1  UNL     1     -33.381  16.263  -4.223  1.00 20.00     0.100 C 
HETATM    2  C8  UNL     1     -33.841  15.703  -2.938  1.00 20.00     0.356 C 
HETATM    3  N9  UNL     1     -33.015  16.699  -5.234  1.00 20.00    -0.195 NA
ENDROOT
BRANCH   2   4
HETATM    4  C3  UNL     1     -34.096  16.834  -1.949  1.00 20.00    -0.041 C 
HETATM    5  C2  UNL     1     -34.629  16.553  -0.742  1.00 20.00    -0.025 C 
HETATM    6  C4  UNL     1     -34.993  17.504   0.353  1.00 20.00     0.036 C 
HETATM    7  C5  UNL     1     -33.727  18.227  -2.398  1.00 20.00     0.046 C 
ENDBRANCH   2   4
BRANCH   2   8
HETATM    8  N10 UNL     1     -35.026  14.868  -3.146  1.00 20.00     0.102 N 
HETATM    9  C6  UNL     1     -34.670  13.649  -3.870  1.00 20.00     0.311 C 
HETATM   10  C7  UNL     1     -36.054  15.613  -3.871  1.00 20.00     0.311 C 
ENDBRANCH   2   8
TORSDOF 2
ENDMDL
MODEL 4
REMARK VINA RESULT:      -4.2      1.640      2.116
REMARK  2 active torsions:
REMARK  status: ('A' for Active; 'I' for Inactive)
REMARK    1  A    between atoms: C3_3  and  C8_8 
REMARK    2  A    between atoms: C8_8  and  N10_10 
ROOT
HETATM    1  C1  UNL     1     -34.168  13.869  -3.904  1.00 20.00     0.100 C 
HETATM    2  C8  UNL     1     -35.327  14.731  -4.198  1.00 20.00     0.356 C 
HETATM    3  N9  UNL     1     -33.259  13.184  -3.674  1.00 20.00    -0.195 NA
ENDROOT
BRANCH   2   4
HETATM    4  C3  UNL     1     -35.496  15.758  -3.084  1.00 20.00    -0.041 C 
HETATM    5  C2  UNL     1     -34.600  15.796  -2.075  1.00 20.00    -0.025 C 
HETATM    6  C4  UNL     1     -34.597  16.687  -0.874  1.00 20.00     0.036 C 
HETATM    7  C5  UNL     1     -36.683  16.684  -3.186  1.00 20.00     0.046 C 
ENDBRANCH   2   4
BRANCH   2   8
HETATM    8  N10 UNL     1     -35.172  15.358  -5.513  1.00 20.00     0.102 N 
HETATM    9  C6  UNL     1     -35.272  14.353  -6.570  1.00 20.00     0.311 C 
HETATM   10  C7  UNL     1     -33.893  16.061  -5.593  1.00 20.00     0.311 C 
ENDBRANCH   2   8
TORSDOF 2
ENDMDL
MODEL 5
REMARK VINA RESULT:      -4.0      1.949      3.809
REMARK  2 active torsions:
REMARK  status: ('A' for Active; 'I' for Inactive)
REMARK    1  A    between atoms: C3_3  and  C8_8 
REMARK    2  A    between atoms: C8_8  and  N10_10 
ROOT
HETATM    1  C1  UNL     1     -33.512  14.356  -3.909  1.00 20.00     0.100 C 
HETATM    2  C8  UNL     1     -33.642  15.799  -4.184  1.00 20.00     0.356 C 
HETATM    3  N9  UNL     1     -33.404  13.221  -3.689  1.00 20.00    -0.195 NA
ENDROOT
BRANCH   2   4
HETATM    4  C3  UNL     1     -34.068  16.007  -5.633  1.00 20.00    -0.041 C 
HETATM    5  C2  UNL     1     -34.444  14.944  -6.373  1.00 20.00    -0.025 C 
HETATM    6  C4  UNL     1     -34.857  14.916  -7.810  1.00 20.00     0.036 C 
HETATM    7  C5  UNL     1     -34.036  17.423  -6.155  1.00 20.00     0.046 C 
ENDBRANCH   2   4
BRANCH   2   8
HETATM    8  N10 UNL     1     -34.575  16.412  -3.236  1.00 20.00     0.102 N 
HETATM    9  C6  UNL     1     -33.948  16.553  -1.924  1.00 20.00     0.311 C 
HETATM   10  C7  UNL     1     -35.798  15.616  -3.138  1.00 20.00     0.311 C 
ENDBRANCH   2   8
TORSDOF 2
ENDMDL
MODEL 6
REMARK VINA RESULT:      -3.9      1.946      2.884
REMARK  2 active torsions:
REMARK  status: ('A' for Active; 'I' for Inactive)
REMARK    1  A    between atoms: C3_3  and  C8_8 
REMARK    2  A    between atoms: C8_8  and  N10_10 
ROOT
HETATM    1  C1  UNL     1     -33.685  16.812  -5.039  1.00 20.00     0.100 C 
HETATM    2  C8  UNL     1     -34.009  15.575  -4.304  1.00 20.00     0.356 C 
HETATM    3  N9  UNL     1     -33.423  17.784  -5.618  1.00 20.00    -0.195 NA
ENDROOT
BRANCH   2   4
HETATM    4  C3  UNL     1     -34.780  15.921  -3.035  1.00 20.00    -0.041 C 
HETATM    5  C2  UNL     1     -34.110  16.377  -1.956  1.00 20.00    -0.025 C 
HETATM    6  C4  UNL     1     -34.658  16.735  -0.612  1.00 20.00     0.036 C 
HETATM    7  C5  UNL     1     -36.275  15.724  -3.072  1.00 20.00     0.046 C 
ENDBRANCH   2   4
BRANCH   2   8
HETATM    8  N10 UNL     1     -34.748  14.652  -5.170  1.00 20.00     0.102 N 
HETATM    9  C6  UNL     1     -34.454  13.268  -4.805  1.00 20.00     0.311 C 
HETATM   10  C7  UNL     1     -34.417  14.895  -6.573  1.00 20.00     0.311 C 
ENDBRANCH   2   8
TORSDOF 2
ENDMDL
MODEL 7
REMARK VINA RESULT:      -3.9      1.967      3.732
REMARK  2 active torsions:
REMARK  status: ('A' for Active; 'I' for Inactive)
REMARK    1  A    between atoms: C3_3  and  C8_8 
REMARK    2  A    between atoms: C8_8  and  N10_10 
ROOT
HETATM    1  C1  UNL     1     -34.503  13.795  -4.731  1.00 20.00     0.100 C 
HETATM    2  C8  UNL     1     -34.059  15.189  -4.919  1.00 20.00     0.356 C 
HETATM    3  N9  UNL     1     -34.847  12.697  -4.580  1.00 20.00    -0.195 NA
ENDROOT
BRANCH   2   4
HETATM    4  C3  UNL     1     -34.442  15.664  -6.316  1.00 20.00    -0.041 C 
HETATM    5  C2  UNL     1     -34.307  16.969  -6.632  1.00 20.00    -0.025 C 
HETATM    6  C4  UNL     1     -34.656  17.649  -7.918  1.00 20.00     0.036 C 
HETATM    7  C5  UNL     1     -34.960  14.618  -7.272  1.00 20.00     0.046 C 
ENDBRANCH   2   4
BRANCH   2   8
HETATM    8  N10 UNL     1     -34.616  16.044  -3.868  1.00 20.00     0.102 N 
HETATM    9  C6  UNL     1     -33.779  15.989  -2.671  1.00 20.00     0.311 C 
HETATM   10  C7  UNL     1     -35.986  15.639  -3.555  1.00 20.00     0.311 C 
ENDBRANCH   2   8
TORSDOF 2
ENDMDL
MODEL 8
REMARK VINA RESULT:      -3.9      1.751      2.870
REMARK  2 active torsions:
REMARK  status: ('A' for Active; 'I' for Inactive)
REMARK    1  A    between atoms: C3_3  and  C8_8 
REMARK    2  A    between atoms: C8_8  and  N10_10 
ROOT
HETATM    1  C1  UNL     1     -37.447  15.095  -3.712  1.00 20.00     0.100 C 
HETATM    2  C8  UNL     1     -36.398  16.131  -3.663  1.00 20.00     0.356 C 
HETATM    3  N9  UNL     1     -38.277  14.284  -3.747  1.00 20.00    -0.195 NA
ENDROOT
BRANCH   2   4
HETATM    4  C3  UNL     1     -35.087  15.510  -3.195  1.00 20.00    -0.041 C 
HETATM    5  C2  UNL     1     -34.512  14.540  -3.936  1.00 20.00    -0.025 C 
HETATM    6  C4  UNL     1     -33.259  13.776  -3.647  1.00 20.00     0.036 C 
HETATM    7  C5  UNL     1     -34.509  16.033  -1.904  1.00 20.00     0.046 C 
ENDBRANCH   2   4
BRANCH   2   8
HETATM    8  N10 UNL     1     -36.271  16.784  -4.968  1.00 20.00     0.102 N 
HETATM    9  C6  UNL     1     -35.415  17.964  -4.865  1.00 20.00     0.311 C 
HETATM   10  C7  UNL     1     -37.589  17.148  -5.486  1.00 20.00     0.311 C 
ENDBRANCH   2   8
TORSDOF 2
ENDMDL
MODEL 9
REMARK VINA RESULT:      -3.9      2.352      4.216
REMARK  2 active torsions:
REMARK  status: ('A' for Active; 'I' for Inactive)
REMARK    1  A    between atoms: C3_3  and  C8_8 
REMARK    2  A    between atoms: C8_8  and  N10_10 
ROOT
HETATM    1  C1  UNL     1     -34.439  16.767  -1.106  1.00 20.00     0.100 C 
HETATM    2  C8  UNL     1     -33.970  16.600  -2.494  1.00 20.00     0.356 C 
HETATM    3  N9  UNL     1     -34.803  16.898  -0.011  1.00 20.00    -0.195 NA
ENDROOT
BRANCH   2   4
HETATM    4  C3  UNL     1     -34.701  15.432  -3.145  1.00 20.00    -0.041 C 
HETATM    5  C2  UNL     1     -33.990  14.399  -3.642  1.00 20.00    -0.025 C 
HETATM    6  C4  UNL     1     -34.497  13.182  -4.348  1.00 20.00     0.036 C 
HETATM    7  C5  UNL     1     -36.207  15.513  -3.192  1.00 20.00     0.046 C 
ENDBRANCH   2   4
BRANCH   2   8
HETATM    8  N10 UNL     1     -34.142  17.850  -3.239  1.00 20.00     0.102 N 
HETATM    9  C6  UNL     1     -33.572  17.725  -4.580  1.00 20.00     0.311 C 
HETATM   10  C7  UNL     1     -33.523  18.961  -2.520  1.00 20.00     0.311 C 
ENDBRANCH   2   8
TORSDOF 2
ENDMDL
