MODEL 1
REMARK VINA RESULT:      -4.5      0.000      0.000
REMARK  2 active torsions:
REMARK  status: ('A' for Active; 'I' for Inactive)
REMARK    1  A    between atoms: C4_4  and  C6_6 
REMARK    2  A    between atoms: C5_5  and  C7_7 
ROOT
HETATM    1  C1  UNL     1     -34.167   6.144   5.878  1.00 20.00     0.007 C 
HETATM    2  C2  UNL     1     -34.482   4.629   5.955  1.00 20.00     0.007 C 
HETATM    3  C3  UNL     1     -35.592   5.557   4.078  1.00 20.00     0.014 C 
HETATM    4  C4  UNL     1     -34.386   6.465   4.382  1.00 20.00     0.017 C 
HETATM    5  C5  UNL     1     -34.841   4.279   4.492  1.00 20.00     0.017 C 
ENDROOT
BRANCH   4   6
HETATM    6  C6  UNL     1     -33.250   5.810   3.612  1.00 20.00     0.155 A 
HETATM    7  C7  UNL     1     -32.722   6.903   2.741  1.00 20.00     0.155 A 
HETATM    8  O8  UNL     1     -31.930   6.334   3.788  1.00 20.00    -0.375 OA
ENDBRANCH   4   6
TORSDOF 2
ENDMDL
MODEL 2
REMARK VINA RESULT:      -3.7     11.781     13.604
REMARK  2 active torsions:
REMARK  status: ('A' for Active; 'I' for Inactive)
REMARK    1  A    between atoms: C4_4  and  C6_6 
REMARK    2  A    between atoms: C5_5  and  C7_7 
ROOT
HETATM    1  C1  UNL     1     -36.436  15.019  -5.855  1.00 20.00     0.007 C 
HETATM    2  C2  UNL     1     -36.035  14.768  -7.331  1.00 20.00     0.007 C 
HETATM    3  C3  UNL     1     -34.271  15.907  -6.232  1.00 20.00     0.014 C 
HETATM    4  C4  UNL     1     -35.069  15.159  -5.147  1.00 20.00     0.017 C 
HETATM    5  C5  UNL     1     -34.490  14.798  -7.277  1.00 20.00     0.017 C 
ENDROOT
BRANCH   4   6
HETATM    6  C6  UNL     1     -34.430  13.779  -5.129  1.00 20.00     0.155 A 
HETATM    7  C7  UNL     1     -34.052  13.571  -3.699  1.00 20.00     0.155 A 
HETATM    8  O8  UNL     1     -35.049  12.764  -4.333  1.00 20.00    -0.375 OA
ENDBRANCH   4   6
TORSDOF 2
ENDMDL
MODEL 3
REMARK VINA RESULT:      -3.7     11.644     12.484
REMARK  2 active torsions:
REMARK  status: ('A' for Active; 'I' for Inactive)
REMARK    1  A    between atoms: C4_4  and  C6_6 
REMARK    2  A    between atoms: C5_5  and  C7_7 
ROOT
HETATM    1  C1  UNL     1     -33.340  16.177  -3.842  1.00 20.00     0.007 C 
HETATM    2  C2  UNL     1     -33.673  16.478  -2.358  1.00 20.00     0.007 C 
HETATM    3  C3  UNL     1     -35.694  16.220  -3.570  1.00 20.00     0.014 C 
HETATM    4  C4  UNL     1     -34.607  15.444  -4.337  1.00 20.00     0.017 C 
HETATM    5  C5  UNL     1     -35.089  15.877  -2.197  1.00 20.00     0.017 C 
ENDROOT
BRANCH   4   6
HETATM    6  C6  UNL     1     -34.620  14.075  -3.674  1.00 20.00     0.155 A 
HETATM    7  C7  UNL     1     -34.713  13.117  -4.817  1.00 20.00     0.155 A 
HETATM    8  O8  UNL     1     -33.553  13.171  -3.980  1.00 20.00    -0.375 OA
ENDBRANCH   4   6
TORSDOF 2
ENDMDL
MODEL 4
REMARK VINA RESULT:      -3.6     11.905     12.870
REMARK  2 active torsions:
REMARK  status: ('A' for Active; 'I' for Inactive)
REMARK    1  A    between atoms: C4_4  and  C6_6 
REMARK    2  A    between atoms: C5_5  and  C7_7 
ROOT
HETATM    1  C1  UNL     1     -33.710  13.812  -3.745  1.00 20.00     0.007 C 
HETATM    2  C2  UNL     1     -34.657  13.196  -4.805  1.00 20.00     0.007 C 
HETATM    3  C3  UNL     1     -35.852  14.804  -3.538  1.00 20.00     0.014 C 
HETATM    4  C4  UNL     1     -34.362  15.184  -3.456  1.00 20.00     0.017 C 
HETATM    5  C5  UNL     1     -35.729  14.296  -4.987  1.00 20.00     0.017 C 
ENDROOT
BRANCH   4   6
HETATM    6  C6  UNL     1     -34.150  16.048  -4.689  1.00 20.00     0.155 A 
HETATM    7  C7  UNL     1     -33.614  17.332  -4.147  1.00 20.00     0.155 A 
HETATM    8  O8  UNL     1     -32.819  16.485  -4.982  1.00 20.00    -0.375 OA
ENDBRANCH   4   6
TORSDOF 2
ENDMDL
MODEL 5
REMARK VINA RESULT:      -3.6     11.603     12.792
REMARK  2 active torsions:
REMARK  status: ('A' for Active; 'I' for Inactive)
REMARK    1  A    between atoms: C4_4  and  C6_6 
REMARK    2  A    between atoms: C5_5  and  C7_7 
ROOT
HETATM    1  C1  UNL     1     -34.728  13.253  -4.853  1.00 20.00     0.007 C 
HETATM    2  C2  UNL     1     -33.741  13.629  -3.718  1.00 20.00     0.007 C 
HETATM    3  C3  UNL     1     -34.277  15.578  -4.957  1.00 20.00     0.014 C 
HETATM    4  C4  UNL     1     -35.445  14.592  -5.141  1.00 20.00     0.017 C 
HETATM    5  C5  UNL     1     -34.022  15.134  -3.504  1.00 20.00     0.017 C 
ENDROOT
BRANCH   4   6
HETATM    6  C6  UNL     1     -36.344  14.883  -3.950  1.00 20.00     0.155 A 
HETATM    7  C7  UNL     1     -37.661  15.233  -4.563  1.00 20.00     0.155 A 
HETATM    8  O8  UNL     1     -37.498  14.059  -3.762  1.00 20.00    -0.375 OA
ENDBRANCH   4   6
TORSDOF 2
ENDMDL
MODEL 6
REMARK VINA RESULT:      -3.6     11.741     12.634
REMARK  2 active torsions:
REMARK  status: ('A' for Active; 'I' for Inactive)
REMARK    1  A    between atoms: C4_4  and  C6_6 
REMARK    2  A    between atoms: C5_5  and  C7_7 
ROOT
HETATM    1  C1  UNL     1     -34.077  15.409  -5.242  1.00 20.00     0.007 C 
HETATM    2  C2  UNL     1     -34.896  14.149  -5.622  1.00 20.00     0.007 C 
HETATM    3  C3  UNL     1     -33.468  13.626  -3.804  1.00 20.00     0.014 C 
HETATM    4  C4  UNL     1     -33.710  15.147  -3.764  1.00 20.00     0.017 C 
HETATM    5  C5  UNL     1     -34.891  13.329  -4.312  1.00 20.00     0.017 C 
ENDROOT
BRANCH   4   6
HETATM    6  C6  UNL     1     -34.991  15.279  -2.955  1.00 20.00     0.155 A 
HETATM    7  C7  UNL     1     -34.627  16.210  -1.845  1.00 20.00     0.155 A 
HETATM    8  O8  UNL     1     -35.584  16.576  -2.844  1.00 20.00    -0.375 OA
ENDBRANCH   4   6
TORSDOF 2
ENDMDL
MODEL 7
REMARK VINA RESULT:      -3.6     11.975     12.950
REMARK  2 active torsions:
REMARK  status: ('A' for Active; 'I' for Inactive)
REMARK    1  A    between atoms: C4_4  and  C6_6 
REMARK    2  A    between atoms: C5_5  and  C7_7 
ROOT
HETATM    1  C1  UNL     1     -35.501  14.807  -3.433  1.00 20.00     0.007 C 
HETATM    2  C2  UNL     1     -34.320  15.610  -2.831  1.00 20.00     0.007 C 
HETATM    3  C3  UNL     1     -33.481  13.635  -3.839  1.00 20.00     0.014 C 
HETATM    4  C4  UNL     1     -34.818  13.962  -4.532  1.00 20.00     0.017 C 
HETATM    5  C5  UNL     1     -33.113  15.120  -3.664  1.00 20.00     0.017 C 
ENDROOT
BRANCH   4   6
HETATM    6  C6  UNL     1     -34.413  14.917  -5.644  1.00 20.00     0.155 A 
HETATM    7  C7  UNL     1     -35.134  14.402  -6.847  1.00 20.00     0.155 A 
HETATM    8  O8  UNL     1     -35.443  15.680  -6.282  1.00 20.00    -0.375 OA
ENDBRANCH   4   6
TORSDOF 2
ENDMDL
MODEL 8
REMARK VINA RESULT:      -3.5     11.962     13.236
REMARK  2 active torsions:
REMARK  status: ('A' for Active; 'I' for Inactive)
REMARK    1  A    between atoms: C4_4  and  C6_6 
REMARK    2  A    between atoms: C5_5  and  C7_7 
ROOT
HETATM    1  C1  UNL     1     -33.380  16.032  -4.477  1.00 20.00     0.007 C 
HETATM    2  C2  UNL     1     -32.732  14.849  -3.714  1.00 20.00     0.007 C 
HETATM    3  C3  UNL     1     -35.091  14.676  -3.553  1.00 20.00     0.014 C 
HETATM    4  C4  UNL     1     -34.784  15.488  -4.825  1.00 20.00     0.017 C 
HETATM    5  C5  UNL     1     -33.850  13.780  -3.725  1.00 20.00     0.017 C 
ENDROOT
BRANCH   4   6
HETATM    6  C6  UNL     1     -34.599  14.418  -5.890  1.00 20.00     0.155 A 
HETATM    7  C7  UNL     1     -35.617  14.756  -6.928  1.00 20.00     0.155 A 
HETATM    8  O8  UNL     1     -34.215  14.837  -7.203  1.00 20.00    -0.375 OA
ENDBRANCH   4   6
TORSDOF 2
ENDMDL
MODEL 9
REMARK VINA RESULT:      -3.5     11.611     12.664
REMARK  2 active torsions:
REMARK  status: ('A' for Active; 'I' for Inactive)
REMARK    1  A    between atoms: C4_4  and  C6_6 
REMARK    2  A    between atoms: C5_5  and  C7_7 
ROOT
HETATM    1  C1  UNL     1     -35.180  14.790  -3.520  1.00 20.00     0.007 C 
HETATM    2  C2  UNL     1     -33.921  13.893  -3.637  1.00 20.00     0.007 C 
HETATM    3  C3  UNL     1     -33.421  16.047  -4.492  1.00 20.00     0.014 C 
HETATM    4  C4  UNL     1     -34.584  16.216  -3.497  1.00 20.00     0.017 C 
HETATM    5  C5  UNL     1     -32.768  14.923  -3.666  1.00 20.00     0.017 C 
ENDROOT
BRANCH   4   6
HETATM    6  C6  UNL     1     -33.881  16.387  -2.159  1.00 20.00     0.155 A 
HETATM    7  C7  UNL     1     -34.521  17.598  -1.563  1.00 20.00     0.155 A 
HETATM    8  O8  UNL     1     -34.673  16.305  -0.970  1.00 20.00    -0.375 OA
ENDBRANCH   4   6
TORSDOF 2
ENDMDL
