MODEL 1
REMARK VINA RESULT:      -3.6      0.000      0.000
REMARK  3 active torsions:
REMARK  status: ('A' for Active; 'I' for Inactive)
REMARK    1  A    between atoms: C6_6  and  N8_8 
REMARK    2  A    between atoms: C6_6  and  O9_9 
REMARK    3  A    between atoms: C7_7  and  O9_9 
ROOT
HETATM    1  O9  UNL     1     -33.125   5.524   4.252  1.00 20.00    -0.352 OA
ENDROOT
BRANCH   1   2
HETATM    2  C6  UNL     1     -33.258   6.465   3.180  1.00 20.00     0.440 C 
BRANCH   2   3
HETATM    3  N8  UNL     1     -31.987   7.139   2.873  1.00 20.00     0.102 N 
HETATM    4  C4  UNL     1     -31.368   7.636   4.103  1.00 20.00     0.312 C 
HETATM    5  C5  UNL     1     -32.192   8.243   1.934  1.00 20.00     0.312 C 
ENDBRANCH   2   3
ENDBRANCH   1   2
BRANCH   1   6
HETATM    6  C7  UNL     1     -34.337   5.380   4.980  1.00 20.00     0.052 C 
HETATM    7  C1  UNL     1     -34.419   3.949   5.509  1.00 20.00     0.045 C 
HETATM    8  C2  UNL     1     -34.302   6.379   6.134  1.00 20.00     0.045 C 
HETATM    9  C3  UNL     1     -35.506   5.682   4.043  1.00 20.00     0.045 C 
ENDBRANCH   1   6
TORSDOF 3
ENDMDL
MODEL 2
REMARK VINA RESULT:      -3.6      0.017      1.450
REMARK  3 active torsions:
REMARK  status: ('A' for Active; 'I' for Inactive)
REMARK    1  A    between atoms: C6_6  and  N8_8 
REMARK    2  A    between atoms: C6_6  and  O9_9 
REMARK    3  A    between atoms: C7_7  and  O9_9 
ROOT
HETATM    1  O9  UNL     1     -33.135   5.519   4.249  1.00 20.00    -0.352 OA
ENDROOT
BRANCH   1   2
HETATM    2  C6  UNL     1     -33.268   6.470   3.186  1.00 20.00     0.440 C 
BRANCH   2   3
HETATM    3  N8  UNL     1     -31.994   7.140   2.880  1.00 20.00     0.102 N 
HETATM    4  C4  UNL     1     -31.375   7.637   4.110  1.00 20.00     0.312 C 
HETATM    5  C5  UNL     1     -32.195   8.242   1.938  1.00 20.00     0.312 C 
ENDBRANCH   2   3
ENDBRANCH   1   2
BRANCH   1   6
HETATM    6  C7  UNL     1     -34.337   5.392   4.997  1.00 20.00     0.052 C 
HETATM    7  C1  UNL     1     -34.299   6.394   6.151  1.00 20.00     0.045 C 
HETATM    8  C2  UNL     1     -35.499   5.699   4.056  1.00 20.00     0.045 C 
HETATM    9  C3  UNL     1     -34.434   3.960   5.523  1.00 20.00     0.045 C 
ENDBRANCH   1   6
TORSDOF 3
ENDMDL
MODEL 3
REMARK VINA RESULT:      -3.3     11.407     12.359
REMARK  3 active torsions:
REMARK  status: ('A' for Active; 'I' for Inactive)
REMARK    1  A    between atoms: C6_6  and  N8_8 
REMARK    2  A    between atoms: C6_6  and  O9_9 
REMARK    3  A    between atoms: C7_7  and  O9_9 
ROOT
HETATM    1  O9  UNL     1     -34.395  15.089  -2.705  1.00 20.00    -0.352 OA
ENDROOT
BRANCH   1   2
HETATM    2  C6  UNL     1     -33.527  14.994  -3.840  1.00 20.00     0.440 C 
BRANCH   2   3
HETATM    3  N8  UNL     1     -34.072  14.111  -4.883  1.00 20.00     0.102 N 
HETATM    4  C4  UNL     1     -34.543  14.902  -6.020  1.00 20.00     0.312 C 
HETATM    5  C5  UNL     1     -35.164  13.289  -4.357  1.00 20.00     0.312 C 
ENDBRANCH   2   3
ENDBRANCH   1   2
BRANCH   1   6
HETATM    6  C7  UNL     1     -34.743  16.437  -2.419  1.00 20.00     0.052 C 
HETATM    7  C1  UNL     1     -36.182  16.676  -2.874  1.00 20.00     0.045 C 
HETATM    8  C2  UNL     1     -34.616  16.635  -0.910  1.00 20.00     0.045 C 
HETATM    9  C3  UNL     1     -33.777  17.357  -3.165  1.00 20.00     0.045 C 
ENDBRANCH   1   6
TORSDOF 3
ENDMDL
MODEL 4
REMARK VINA RESULT:      -3.3     11.406     12.342
REMARK  3 active torsions:
REMARK  status: ('A' for Active; 'I' for Inactive)
REMARK    1  A    between atoms: C6_6  and  N8_8 
REMARK    2  A    between atoms: C6_6  and  O9_9 
REMARK    3  A    between atoms: C7_7  and  O9_9 
ROOT
HETATM    1  O9  UNL     1     -34.400  15.088  -2.702  1.00 20.00    -0.352 OA
ENDROOT
BRANCH   1   2
HETATM    2  C6  UNL     1     -33.533  15.001  -3.839  1.00 20.00     0.440 C 
BRANCH   2   3
HETATM    3  N8  UNL     1     -34.072  14.114  -4.881  1.00 20.00     0.102 N 
HETATM    4  C4  UNL     1     -34.543  14.900  -6.021  1.00 20.00     0.312 C 
HETATM    5  C5  UNL     1     -35.161  13.289  -4.355  1.00 20.00     0.312 C 
ENDBRANCH   2   3
ENDBRANCH   1   2
BRANCH   1   6
HETATM    6  C7  UNL     1     -34.744  16.434  -2.402  1.00 20.00     0.052 C 
HETATM    7  C1  UNL     1     -34.615  16.645  -0.894  1.00 20.00     0.045 C 
HETATM    8  C2  UNL     1     -33.772  17.337  -3.157  1.00 20.00     0.045 C 
HETATM    9  C3  UNL     1     -36.179  16.683  -2.866  1.00 20.00     0.045 C 
ENDBRANCH   1   6
TORSDOF 3
ENDMDL
MODEL 5
REMARK VINA RESULT:      -3.3     11.407     12.401
REMARK  3 active torsions:
REMARK  status: ('A' for Active; 'I' for Inactive)
REMARK    1  A    between atoms: C6_6  and  N8_8 
REMARK    2  A    between atoms: C6_6  and  O9_9 
REMARK    3  A    between atoms: C7_7  and  O9_9 
ROOT
HETATM    1  O9  UNL     1     -34.424  15.098  -2.702  1.00 20.00    -0.352 OA
ENDROOT
BRANCH   1   2
HETATM    2  C6  UNL     1     -33.541  15.002  -3.827  1.00 20.00     0.440 C 
BRANCH   2   3
HETATM    3  N8  UNL     1     -34.071  14.115  -4.873  1.00 20.00     0.102 N 
HETATM    4  C4  UNL     1     -34.532  14.902  -6.018  1.00 20.00     0.312 C 
HETATM    5  C5  UNL     1     -35.165  13.290  -4.358  1.00 20.00     0.312 C 
ENDBRANCH   2   3
ENDBRANCH   1   2
BRANCH   1   6
HETATM    6  C7  UNL     1     -34.742  16.448  -2.394  1.00 20.00     0.052 C 
HETATM    7  C1  UNL     1     -33.775  17.360  -3.148  1.00 20.00     0.045 C 
HETATM    8  C2  UNL     1     -36.179  16.697  -2.846  1.00 20.00     0.045 C 
HETATM    9  C3  UNL     1     -34.611  16.646  -0.884  1.00 20.00     0.045 C 
ENDBRANCH   1   6
TORSDOF 3
ENDMDL
MODEL 6
REMARK VINA RESULT:      -3.2     11.797     12.703
REMARK  3 active torsions:
REMARK  status: ('A' for Active; 'I' for Inactive)
REMARK    1  A    between atoms: C6_6  and  N8_8 
REMARK    2  A    between atoms: C6_6  and  O9_9 
REMARK    3  A    between atoms: C7_7  and  O9_9 
ROOT
HETATM    1  O9  UNL     1     -33.969  15.626  -4.845  1.00 20.00    -0.352 OA
ENDROOT
BRANCH   1   2
HETATM    2  C6  UNL     1     -33.514  15.290  -3.530  1.00 20.00     0.440 C 
BRANCH   2   3
HETATM    3  N8  UNL     1     -33.619  16.424  -2.600  1.00 20.00     0.102 N 
HETATM    4  C4  UNL     1     -34.715  16.205  -1.655  1.00 20.00     0.312 C 
HETATM    5  C5  UNL     1     -33.825  17.679  -3.324  1.00 20.00     0.312 C 
ENDBRANCH   2   3
ENDBRANCH   1   2
BRANCH   1   6
HETATM    6  C7  UNL     1     -34.866  14.650  -5.360  1.00 20.00     0.052 C 
HETATM    7  C1  UNL     1     -34.509  13.294  -4.752  1.00 20.00     0.045 C 
HETATM    8  C2  UNL     1     -36.279  15.065  -4.957  1.00 20.00     0.045 C 
HETATM    9  C3  UNL     1     -34.728  14.618  -6.882  1.00 20.00     0.045 C 
ENDBRANCH   1   6
TORSDOF 3
ENDMDL
MODEL 7
REMARK VINA RESULT:      -3.2     11.772     12.709
REMARK  3 active torsions:
REMARK  status: ('A' for Active; 'I' for Inactive)
REMARK    1  A    between atoms: C6_6  and  N8_8 
REMARK    2  A    between atoms: C6_6  and  O9_9 
REMARK    3  A    between atoms: C7_7  and  O9_9 
ROOT
HETATM    1  O9  UNL     1     -34.016  15.620  -4.803  1.00 20.00    -0.352 OA
ENDROOT
BRANCH   1   2
HETATM    2  C6  UNL     1     -33.548  15.305  -3.486  1.00 20.00     0.440 C 
BRANCH   2   3
HETATM    3  N8  UNL     1     -33.646  16.455  -2.574  1.00 20.00     0.102 N 
HETATM    4  C4  UNL     1     -34.730  16.247  -1.613  1.00 20.00     0.312 C 
HETATM    5  C5  UNL     1     -33.865  17.697  -3.317  1.00 20.00     0.312 C 
ENDBRANCH   2   3
ENDBRANCH   1   2
BRANCH   1   6
HETATM    6  C7  UNL     1     -34.943  14.653  -5.279  1.00 20.00     0.052 C 
HETATM    7  C1  UNL     1     -34.857  14.605  -6.804  1.00 20.00     0.045 C 
HETATM    8  C2  UNL     1     -34.552  13.305  -4.676  1.00 20.00     0.045 C 
HETATM    9  C3  UNL     1     -36.345  15.058  -4.825  1.00 20.00     0.045 C 
ENDBRANCH   1   6
TORSDOF 3
ENDMDL
MODEL 8
REMARK VINA RESULT:      -3.2      1.641      3.998
REMARK  3 active torsions:
REMARK  status: ('A' for Active; 'I' for Inactive)
REMARK    1  A    between atoms: C6_6  and  N8_8 
REMARK    2  A    between atoms: C6_6  and  O9_9 
REMARK    3  A    between atoms: C7_7  and  O9_9 
ROOT
HETATM    1  O9  UNL     1     -33.645   7.108   3.828  1.00 20.00    -0.352 OA
ENDROOT
BRANCH   1   2
HETATM    2  C6  UNL     1     -34.129   5.770   3.993  1.00 20.00     0.440 C 
BRANCH   2   3
HETATM    3  N8  UNL     1     -34.800   5.580   5.288  1.00 20.00     0.102 N 
HETATM    4  C4  UNL     1     -34.101   6.324   6.335  1.00 20.00     0.312 C 
HETATM    5  C5  UNL     1     -34.869   4.160   5.640  1.00 20.00     0.312 C 
ENDBRANCH   2   3
ENDBRANCH   1   2
BRANCH   1   6
HETATM    6  C7  UNL     1     -32.367   7.134   3.205  1.00 20.00     0.052 C 
HETATM    7  C1  UNL     1     -31.340   7.632   4.221  1.00 20.00     0.045 C 
HETATM    8  C2  UNL     1     -32.041   5.709   2.764  1.00 20.00     0.045 C 
HETATM    9  C3  UNL     1     -32.435   8.068   1.996  1.00 20.00     0.045 C 
ENDBRANCH   1   6
TORSDOF 3
ENDMDL
MODEL 9
REMARK VINA RESULT:      -3.2     11.726     13.156
REMARK  3 active torsions:
REMARK  status: ('A' for Active; 'I' for Inactive)
REMARK    1  A    between atoms: C6_6  and  N8_8 
REMARK    2  A    between atoms: C6_6  and  O9_9 
REMARK    3  A    between atoms: C7_7  and  O9_9 
ROOT
HETATM    1  O9  UNL     1     -34.125  15.416  -5.058  1.00 20.00    -0.352 OA
ENDROOT
BRANCH   1   2
HETATM    2  C6  UNL     1     -33.239  16.498  -4.749  1.00 20.00     0.440 C 
BRANCH   2   3
HETATM    3  N8  UNL     1     -33.511  17.688  -5.569  1.00 20.00     0.102 N 
HETATM    4  C4  UNL     1     -33.573  18.882  -4.724  1.00 20.00     0.312 C 
HETATM    5  C5  UNL     1     -34.760  17.537  -6.316  1.00 20.00     0.312 C 
ENDBRANCH   2   3
ENDBRANCH   1   2
BRANCH   1   6
HETATM    6  C7  UNL     1     -34.425  14.634  -3.910  1.00 20.00     0.052 C 
HETATM    7  C1  UNL     1     -35.728  13.876  -4.163  1.00 20.00     0.045 C 
HETATM    8  C2  UNL     1     -33.268  13.660  -3.701  1.00 20.00     0.045 C 
HETATM    9  C3  UNL     1     -34.564  15.569  -2.708  1.00 20.00     0.045 C 
ENDBRANCH   1   6
TORSDOF 3
ENDMDL
