MODEL 1
REMARK VINA RESULT:      -4.3      0.000      0.000
REMARK  0 active torsions:
REMARK  status: ('A' for Active; 'I' for Inactive)
ROOT
HETATM    1  C1  UNL     1     -34.021   5.869   4.413  1.00 20.00    -0.064 C 
HETATM    2  C2  UNL     1     -33.280   6.213   3.356  1.00 20.00     0.016 C 
HETATM    3  C3  UNL     1     -35.087   4.830   4.431  1.00 20.00     0.061 C 
HETATM    4  C4  UNL     1     -33.861   6.404   5.796  1.00 20.00     0.201 C 
HETATM    5  C5  UNL     1     -35.062   4.437   5.893  1.00 20.00     0.172 C 
HETATM    6  O6  UNL     1     -34.774   5.646   6.610  1.00 20.00    -0.387 OA
ENDROOT
TORSDOF 0
ENDMDL
MODEL 2
REMARK VINA RESULT:      -4.2      1.398      2.236
REMARK  0 active torsions:
REMARK  status: ('A' for Active; 'I' for Inactive)
ROOT
HETATM    1  C1  UNL     1     -34.046   6.159   5.663  1.00 20.00    -0.064 C 
HETATM    2  C2  UNL     1     -33.714   6.993   6.652  1.00 20.00     0.016 C 
HETATM    3  C3  UNL     1     -34.850   4.914   5.804  1.00 20.00     0.061 C 
HETATM    4  C4  UNL     1     -33.744   6.364   4.217  1.00 20.00     0.201 C 
HETATM    5  C5  UNL     1     -35.434   4.806   4.411  1.00 20.00     0.172 C 
HETATM    6  O6  UNL     1     -34.412   5.292   3.528  1.00 20.00    -0.387 OA
ENDROOT
TORSDOF 0
ENDMDL
MODEL 3
REMARK VINA RESULT:      -3.9      1.523      2.927
REMARK  0 active torsions:
REMARK  status: ('A' for Active; 'I' for Inactive)
ROOT
HETATM    1  C1  UNL     1     -34.735   5.176   5.379  1.00 20.00    -0.064 C 
HETATM    2  C2  UNL     1     -35.157   4.318   6.313  1.00 20.00     0.016 C 
HETATM    3  C3  UNL     1     -33.841   6.344   5.608  1.00 20.00     0.061 C 
HETATM    4  C4  UNL     1     -35.013   5.073   3.917  1.00 20.00     0.201 C 
HETATM    5  C5  UNL     1     -33.212   6.480   4.236  1.00 20.00     0.172 C 
HETATM    6  O6  UNL     1     -34.245   6.124   3.305  1.00 20.00    -0.387 OA
ENDROOT
TORSDOF 0
ENDMDL
MODEL 4
REMARK VINA RESULT:      -3.7      0.928      1.774
REMARK  0 active torsions:
REMARK  status: ('A' for Active; 'I' for Inactive)
ROOT
HETATM    1  C1  UNL     1     -34.446   5.448   4.319  1.00 20.00    -0.064 C 
HETATM    2  C2  UNL     1     -34.739   5.411   3.016  1.00 20.00     0.016 C 
HETATM    3  C3  UNL     1     -33.581   6.456   4.991  1.00 20.00     0.061 C 
HETATM    4  C4  UNL     1     -35.001   4.533   5.359  1.00 20.00     0.201 C 
HETATM    5  C5  UNL     1     -34.147   6.410   6.395  1.00 20.00     0.172 C 
HETATM    6  O6  UNL     1     -34.515   5.040   6.615  1.00 20.00    -0.387 OA
ENDROOT
TORSDOF 0
ENDMDL
MODEL 5
REMARK VINA RESULT:      -3.5      0.913      1.662
REMARK  0 active torsions:
REMARK  status: ('A' for Active; 'I' for Inactive)
ROOT
HETATM    1  C1  UNL     1     -34.055   5.818   4.507  1.00 20.00    -0.064 C 
HETATM    2  C2  UNL     1     -33.658   6.610   3.507  1.00 20.00     0.016 C 
HETATM    3  C3  UNL     1     -33.854   6.078   5.959  1.00 20.00     0.061 C 
HETATM    4  C4  UNL     1     -34.851   4.565   4.358  1.00 20.00     0.201 C 
HETATM    5  C5  UNL     1     -35.012   5.295   6.541  1.00 20.00     0.172 C 
HETATM    6  O6  UNL     1     -35.156   4.141   5.699  1.00 20.00    -0.387 OA
ENDROOT
TORSDOF 0
ENDMDL
MODEL 6
REMARK VINA RESULT:      -3.3     12.023     12.557
REMARK  0 active torsions:
REMARK  status: ('A' for Active; 'I' for Inactive)
ROOT
HETATM    1  C1  UNL     1     -34.331  14.950  -3.246  1.00 20.00    -0.064 C 
HETATM    2  C2  UNL     1     -33.625  16.009  -2.837  1.00 20.00     0.016 C 
HETATM    3  C3  UNL     1     -35.810  14.897  -3.406  1.00 20.00     0.061 C 
HETATM    4  C4  UNL     1     -33.759  13.650  -3.700  1.00 20.00     0.201 C 
HETATM    5  C5  UNL     1     -35.932  13.815  -4.459  1.00 20.00     0.172 C 
HETATM    6  O6  UNL     1     -34.881  12.881  -4.172  1.00 20.00    -0.387 OA
ENDROOT
TORSDOF 0
ENDMDL
MODEL 7
REMARK VINA RESULT:      -3.1     12.341     13.283
REMARK  0 active torsions:
REMARK  status: ('A' for Active; 'I' for Inactive)
ROOT
HETATM    1  C1  UNL     1     -34.390  14.470  -5.560  1.00 20.00    -0.064 C 
HETATM    2  C2  UNL     1     -34.671  14.819  -6.819  1.00 20.00     0.016 C 
HETATM    3  C3  UNL     1     -33.787  15.352  -4.523  1.00 20.00     0.061 C 
HETATM    4  C4  UNL     1     -34.706  13.154  -4.934  1.00 20.00     0.201 C 
HETATM    5  C5  UNL     1     -34.320  14.699  -3.265  1.00 20.00     0.172 C 
HETATM    6  O6  UNL     1     -34.350  13.292  -3.546  1.00 20.00    -0.387 OA
ENDROOT
TORSDOF 0
ENDMDL
MODEL 8
REMARK VINA RESULT:      -3.1     12.310     12.725
REMARK  0 active torsions:
REMARK  status: ('A' for Active; 'I' for Inactive)
ROOT
HETATM    1  C1  UNL     1     -34.769  15.497  -2.715  1.00 20.00    -0.064 C 
HETATM    2  C2  UNL     1     -34.508  16.303  -1.681  1.00 20.00     0.016 C 
HETATM    3  C3  UNL     1     -33.765  14.711  -3.483  1.00 20.00     0.061 C 
HETATM    4  C4  UNL     1     -36.126  15.169  -3.238  1.00 20.00     0.201 C 
HETATM    5  C5  UNL     1     -34.634  13.578  -3.989  1.00 20.00     0.172 C 
HETATM    6  O6  UNL     1     -35.917  14.166  -4.249  1.00 20.00    -0.387 OA
ENDROOT
TORSDOF 0
ENDMDL
MODEL 9
REMARK VINA RESULT:      -3.0      9.259      9.992
REMARK  0 active torsions:
REMARK  status: ('A' for Active; 'I' for Inactive)
ROOT
HETATM    1  C1  UNL     1     -41.935   6.034  -2.205  1.00 20.00    -0.064 C 
HETATM    2  C2  UNL     1     -42.871   6.445  -3.066  1.00 20.00     0.016 C 
HETATM    3  C3  UNL     1     -41.147   6.906  -1.291  1.00 20.00     0.061 C 
HETATM    4  C4  UNL     1     -41.565   4.614  -1.938  1.00 20.00     0.201 C 
HETATM    5  C5  UNL     1     -40.817   5.920  -0.189  1.00 20.00     0.172 C 
HETATM    6  O6  UNL     1     -40.626   4.660  -0.848  1.00 20.00    -0.387 OA
ENDROOT
TORSDOF 0
ENDMDL
