MODEL 1
REMARK VINA RESULT:      -5.3      0.000      0.000
REMARK  4 active torsions:
REMARK  status: ('A' for Active; 'I' for Inactive)
REMARK    1  A    between atoms: C4_4  and  C5_5 
REMARK    2  A    between atoms: C5_5  and  C6_6 
REMARK    3  A    between atoms: C6_6  and  C7_7 
REMARK    4  A    between atoms: C7_7  and  O8_8 
ROOT
HETATM    1  C1  UNL     1     -32.010   8.664   1.513  1.00 20.00     0.012 C 
HETATM    2  C2  UNL     1     -32.164   7.839   2.372  1.00 20.00    -0.117 C 
HETATM    3  C4  UNL     1     -32.351   6.833   3.427  1.00 20.00     0.093 C 
ENDROOT
BRANCH   3   4
HETATM    4  C5  UNL     1     -33.357   5.764   2.997  1.00 20.00     0.014 C 
BRANCH   4   5
HETATM    5  C6  UNL     1     -34.581   5.753   3.914  1.00 20.00     0.032 C 
BRANCH   5   6
HETATM    6  C7  UNL     1     -34.434   4.822   5.121  1.00 20.00     0.114 C 
HETATM    7  C3  UNL     1     -34.585   5.535   6.458  1.00 20.00     0.039 C 
BRANCH   6   8
HETATM    8  O8  UNL     1     -35.453   3.827   5.019  1.00 20.00    -0.396 OA
HETATM    9  H20 UNL     1     -35.273   3.179   5.717  1.00 20.00     0.210 HD
ENDBRANCH   6   8
ENDBRANCH   5   6
ENDBRANCH   4   5
ENDBRANCH   3   4
TORSDOF 4
ENDMDL
MODEL 2
REMARK VINA RESULT:      -4.7      1.263      1.378
REMARK  4 active torsions:
REMARK  status: ('A' for Active; 'I' for Inactive)
REMARK    1  A    between atoms: C4_4  and  C5_5 
REMARK    2  A    between atoms: C5_5  and  C6_6 
REMARK    3  A    between atoms: C6_6  and  C7_7 
REMARK    4  A    between atoms: C7_7  and  O8_8 
ROOT
HETATM    1  C1  UNL     1     -32.109   8.896   1.426  1.00 20.00     0.012 C 
HETATM    2  C2  UNL     1     -32.118   7.915   2.120  1.00 20.00    -0.117 C 
HETATM    3  C4  UNL     1     -32.124   6.714   2.966  1.00 20.00     0.093 C 
ENDROOT
BRANCH   3   4
HETATM    4  C5  UNL     1     -33.185   6.819   4.063  1.00 20.00     0.014 C 
BRANCH   4   5
HETATM    5  C6  UNL     1     -34.194   5.673   3.970  1.00 20.00     0.032 C 
BRANCH   5   6
HETATM    6  C7  UNL     1     -34.911   5.379   5.291  1.00 20.00     0.114 C 
HETATM    7  C3  UNL     1     -34.856   3.911   5.695  1.00 20.00     0.039 C 
BRANCH   6   8
HETATM    8  O8  UNL     1     -34.271   6.154   6.306  1.00 20.00    -0.396 OA
HETATM    9  H20 UNL     1     -33.988   6.978   5.882  1.00 20.00     0.210 HD
ENDBRANCH   6   8
ENDBRANCH   5   6
ENDBRANCH   4   5
ENDBRANCH   3   4
TORSDOF 4
ENDMDL
MODEL 3
REMARK VINA RESULT:      -4.7      2.269      4.638
REMARK  4 active torsions:
REMARK  status: ('A' for Active; 'I' for Inactive)
REMARK    1  A    between atoms: C4_4  and  C5_5 
REMARK    2  A    between atoms: C5_5  and  C6_6 
REMARK    3  A    between atoms: C6_6  and  C7_7 
REMARK    4  A    between atoms: C7_7  and  O8_8 
ROOT
HETATM    1  C1  UNL     1     -34.918   4.264   6.054  1.00 20.00     0.012 C 
HETATM    2  C2  UNL     1     -35.060   4.773   4.975  1.00 20.00    -0.117 C 
HETATM    3  C4  UNL     1     -35.237   5.397   3.657  1.00 20.00     0.093 C 
ENDROOT
BRANCH   3   4
HETATM    4  C5  UNL     1     -33.887   5.686   2.998  1.00 20.00     0.014 C 
BRANCH   4   5
HETATM    5  C6  UNL     1     -33.027   6.600   3.873  1.00 20.00     0.032 C 
BRANCH   5   6
HETATM    6  C7  UNL     1     -31.814   7.183   3.143  1.00 20.00     0.114 C 
HETATM    7  C3  UNL     1     -32.185   8.189   2.060  1.00 20.00     0.039 C 
BRANCH   6   8
HETATM    8  O8  UNL     1     -31.005   7.842   4.118  1.00 20.00    -0.396 OA
HETATM    9  H20 UNL     1     -30.148   7.389   4.113  1.00 20.00     0.210 HD
ENDBRANCH   6   8
ENDBRANCH   5   6
ENDBRANCH   4   5
ENDBRANCH   3   4
TORSDOF 4
ENDMDL
MODEL 4
REMARK VINA RESULT:      -4.3      2.277      4.645
REMARK  4 active torsions:
REMARK  status: ('A' for Active; 'I' for Inactive)
REMARK    1  A    between atoms: C4_4  and  C5_5 
REMARK    2  A    between atoms: C5_5  and  C6_6 
REMARK    3  A    between atoms: C6_6  and  C7_7 
REMARK    4  A    between atoms: C7_7  and  O8_8 
ROOT
HETATM    1  C1  UNL     1     -34.991   3.891   5.695  1.00 20.00     0.012 C 
HETATM    2  C2  UNL     1     -34.529   4.993   5.572  1.00 20.00    -0.117 C 
HETATM    3  C4  UNL     1     -33.962   6.341   5.425  1.00 20.00     0.093 C 
ENDROOT
BRANCH   3   4
HETATM    4  C5  UNL     1     -33.983   6.793   3.964  1.00 20.00     0.014 C 
BRANCH   4   5
HETATM    5  C6  UNL     1     -32.811   6.199   3.182  1.00 20.00     0.032 C 
BRANCH   5   6
HETATM    6  C7  UNL     1     -31.747   7.231   2.795  1.00 20.00     0.114 C 
HETATM    7  C3  UNL     1     -32.301   8.395   1.984  1.00 20.00     0.039 C 
BRANCH   6   8
HETATM    8  O8  UNL     1     -31.189   7.744   4.004  1.00 20.00    -0.396 OA
HETATM    9  H20 UNL     1     -30.886   6.976   4.513  1.00 20.00     0.210 HD
ENDBRANCH   6   8
ENDBRANCH   5   6
ENDBRANCH   4   5
ENDBRANCH   3   4
TORSDOF 4
ENDMDL
MODEL 5
REMARK VINA RESULT:      -4.3     11.274     11.888
REMARK  4 active torsions:
REMARK  status: ('A' for Active; 'I' for Inactive)
REMARK    1  A    between atoms: C4_4  and  C5_5 
REMARK    2  A    between atoms: C5_5  and  C6_6 
REMARK    3  A    between atoms: C6_6  and  C7_7 
REMARK    4  A    between atoms: C7_7  and  O8_8 
ROOT
HETATM    1  C1  UNL     1     -34.548  17.282  -0.065  1.00 20.00     0.012 C 
HETATM    2  C2  UNL     1     -34.704  16.637  -1.067  1.00 20.00    -0.117 C 
HETATM    3  C4  UNL     1     -34.899  15.848  -2.291  1.00 20.00     0.093 C 
ENDROOT
BRANCH   3   4
HETATM    4  C5  UNL     1     -33.577  15.646  -3.033  1.00 20.00     0.014 C 
BRANCH   4   5
HETATM    5  C6  UNL     1     -33.560  14.313  -3.782  1.00 20.00     0.032 C 
BRANCH   5   6
HETATM    6  C7  UNL     1     -34.902  13.953  -4.425  1.00 20.00     0.114 C 
HETATM    7  C3  UNL     1     -34.928  14.167  -5.933  1.00 20.00     0.039 C 
BRANCH   6   8
HETATM    8  O8  UNL     1     -35.147  12.572  -4.158  1.00 20.00    -0.396 OA
HETATM    9  H20 UNL     1     -34.575  12.071  -4.760  1.00 20.00     0.210 HD
ENDBRANCH   6   8
ENDBRANCH   5   6
ENDBRANCH   4   5
ENDBRANCH   3   4
TORSDOF 4
ENDMDL
MODEL 6
REMARK VINA RESULT:      -4.3      1.728      4.109
REMARK  4 active torsions:
REMARK  status: ('A' for Active; 'I' for Inactive)
REMARK    1  A    between atoms: C4_4  and  C5_5 
REMARK    2  A    between atoms: C5_5  and  C6_6 
REMARK    3  A    between atoms: C6_6  and  C7_7 
REMARK    4  A    between atoms: C7_7  and  O8_8 
ROOT
HETATM    1  C1  UNL     1     -34.010   6.502   6.750  1.00 20.00     0.012 C 
HETATM    2  C2  UNL     1     -34.485   5.740   5.952  1.00 20.00    -0.117 C 
HETATM    3  C4  UNL     1     -35.068   4.807   4.979  1.00 20.00     0.093 C 
ENDROOT
BRANCH   3   4
HETATM    4  C5  UNL     1     -34.803   5.268   3.545  1.00 20.00     0.014 C 
BRANCH   4   5
HETATM    5  C6  UNL     1     -34.054   6.601   3.521  1.00 20.00     0.032 C 
BRANCH   5   6
HETATM    6  C7  UNL     1     -32.744   6.554   2.728  1.00 20.00     0.114 C 
HETATM    7  C3  UNL     1     -32.145   7.930   2.467  1.00 20.00     0.039 C 
BRANCH   6   8
HETATM    8  O8  UNL     1     -31.811   5.789   3.491  1.00 20.00    -0.396 OA
HETATM    9  H20 UNL     1     -32.304   5.425   4.241  1.00 20.00     0.210 HD
ENDBRANCH   6   8
ENDBRANCH   5   6
ENDBRANCH   4   5
ENDBRANCH   3   4
TORSDOF 4
ENDMDL
MODEL 7
REMARK VINA RESULT:      -4.3      2.793      4.884
REMARK  4 active torsions:
REMARK  status: ('A' for Active; 'I' for Inactive)
REMARK    1  A    between atoms: C4_4  and  C5_5 
REMARK    2  A    between atoms: C5_5  and  C6_6 
REMARK    3  A    between atoms: C6_6  and  C7_7 
REMARK    4  A    between atoms: C7_7  and  O8_8 
ROOT
HETATM    1  C1  UNL     1     -34.210   6.035   6.095  1.00 20.00     0.012 C 
HETATM    2  C2  UNL     1     -33.996   6.139   4.918  1.00 20.00    -0.117 C 
HETATM    3  C4  UNL     1     -33.739   6.268   3.477  1.00 20.00     0.093 C 
ENDROOT
BRANCH   3   4
HETATM    4  C5  UNL     1     -32.239   6.347   3.189  1.00 20.00     0.014 C 
BRANCH   4   5
HETATM    5  C6  UNL     1     -31.783   7.797   3.018  1.00 20.00     0.032 C 
BRANCH   5   6
HETATM    6  C7  UNL     1     -32.317   8.462   1.747  1.00 20.00     0.114 C 
HETATM    7  C3  UNL     1     -32.715   9.919   1.946  1.00 20.00     0.039 C 
BRANCH   6   8
HETATM    8  O8  UNL     1     -31.280   8.404   0.766  1.00 20.00    -0.396 OA
HETATM    9  H20 UNL     1     -30.478   8.124   1.233  1.00 20.00     0.210 HD
ENDBRANCH   6   8
ENDBRANCH   5   6
ENDBRANCH   4   5
ENDBRANCH   3   4
TORSDOF 4
ENDMDL
MODEL 8
REMARK VINA RESULT:      -3.9     11.028     11.810
REMARK  4 active torsions:
REMARK  status: ('A' for Active; 'I' for Inactive)
REMARK    1  A    between atoms: C4_4  and  C5_5 
REMARK    2  A    between atoms: C5_5  and  C6_6 
REMARK    3  A    between atoms: C6_6  and  C7_7 
REMARK    4  A    between atoms: C7_7  and  O8_8 
ROOT
HETATM    1  C1  UNL     1     -34.361  17.761   0.373  1.00 20.00     0.012 C 
HETATM    2  C2  UNL     1     -34.574  17.058  -0.578  1.00 20.00    -0.117 C 
HETATM    3  C4  UNL     1     -34.840  16.198  -1.739  1.00 20.00     0.093 C 
ENDROOT
BRANCH   3   4
HETATM    4  C5  UNL     1     -33.601  16.072  -2.627  1.00 20.00     0.014 C 
BRANCH   4   5
HETATM    5  C6  UNL     1     -33.916  15.310  -3.915  1.00 20.00     0.032 C 
BRANCH   5   6
HETATM    6  C7  UNL     1     -34.086  13.802  -3.709  1.00 20.00     0.114 C 
HETATM    7  C3  UNL     1     -34.957  13.140  -4.770  1.00 20.00     0.039 C 
BRANCH   6   8
HETATM    8  O8  UNL     1     -32.785  13.215  -3.759  1.00 20.00    -0.396 OA
HETATM    9  H20 UNL     1     -32.917  12.255  -3.717  1.00 20.00     0.210 HD
ENDBRANCH   6   8
ENDBRANCH   5   6
ENDBRANCH   4   5
ENDBRANCH   3   4
TORSDOF 4
ENDMDL
MODEL 9
REMARK VINA RESULT:      -3.8     11.138     12.334
REMARK  4 active torsions:
REMARK  status: ('A' for Active; 'I' for Inactive)
REMARK    1  A    between atoms: C4_4  and  C5_5 
REMARK    2  A    between atoms: C5_5  and  C6_6 
REMARK    3  A    between atoms: C6_6  and  C7_7 
REMARK    4  A    between atoms: C7_7  and  O8_8 
ROOT
HETATM    1  C1  UNL     1     -33.672  17.581  -5.377  1.00 20.00     0.012 C 
HETATM    2  C2  UNL     1     -33.671  17.245  -4.224  1.00 20.00    -0.117 C 
HETATM    3  C4  UNL     1     -33.668  16.839  -2.812  1.00 20.00     0.093 C 
ENDROOT
BRANCH   3   4
HETATM    4  C5  UNL     1     -34.632  15.676  -2.571  1.00 20.00     0.014 C 
BRANCH   4   5
HETATM    5  C6  UNL     1     -34.213  14.435  -3.361  1.00 20.00     0.032 C 
BRANCH   5   6
HETATM    6  C7  UNL     1     -35.307  13.902  -4.291  1.00 20.00     0.114 C 
HETATM    7  C3  UNL     1     -35.014  14.135  -5.767  1.00 20.00     0.039 C 
BRANCH   6   8
HETATM    8  O8  UNL     1     -35.411  12.495  -4.065  1.00 20.00    -0.396 OA
HETATM    9  H20 UNL     1     -36.210  12.363  -3.532  1.00 20.00     0.210 HD
ENDBRANCH   6   8
ENDBRANCH   5   6
ENDBRANCH   4   5
ENDBRANCH   3   4
TORSDOF 4
ENDMDL
