MODEL 1
REMARK VINA RESULT:      -5.0      0.000      0.000
REMARK  1 active torsions:
REMARK  status: ('A' for Active; 'I' for Inactive)
REMARK    1  A    between atoms: C5_5  and  C10_10 
ROOT
HETATM    1  C1  UNL     1     -33.267  15.269  -3.777  1.00 20.00     0.166 C 
HETATM    2  C2  UNL     1     -33.506  16.758  -3.680  1.00 20.00     0.086 C 
HETATM    3  C3  UNL     1     -35.623  16.028  -2.420  1.00 20.00     0.009 C 
HETATM    4  C4  UNL     1     -35.779  15.170  -3.673  1.00 20.00     0.052 C 
HETATM    5  C5  UNL     1     -34.513  17.087  -2.571  1.00 20.00    -0.004 C 
HETATM    6  C6  UNL     1     -34.493  14.384  -3.943  1.00 20.00     0.159 C 
HETATM    7  C7  UNL     1     -34.507  13.764  -5.334  1.00 20.00     0.060 C 
HETATM    8  O11 UNL     1     -32.131  14.797  -3.747  1.00 20.00    -0.294 OA
HETATM    9  F12 UNL     1     -34.433  13.363  -3.037  1.00 20.00    -0.235 F 
ENDROOT
BRANCH   5  10
HETATM   10  C10 UNL     1     -33.808  17.310  -1.229  1.00 20.00    -0.018 C 
HETATM   11  C8  UNL     1     -33.217  18.715  -1.160  1.00 20.00     0.010 C 
HETATM   12  C9  UNL     1     -34.775  17.076  -0.071  1.00 20.00     0.010 C 
ENDBRANCH   5  10
TORSDOF 1
ENDMDL
MODEL 2
REMARK VINA RESULT:      -4.9      2.095      2.626
REMARK  1 active torsions:
REMARK  status: ('A' for Active; 'I' for Inactive)
REMARK    1  A    between atoms: C5_5  and  C10_10 
ROOT
HETATM    1  C1  UNL     1     -35.369  14.451  -4.337  1.00 20.00     0.166 C 
HETATM    2  C2  UNL     1     -34.301  14.439  -3.270  1.00 20.00     0.086 C 
HETATM    3  C3  UNL     1     -33.912  16.853  -4.062  1.00 20.00     0.009 C 
HETATM    4  C4  UNL     1     -33.845  16.141  -5.411  1.00 20.00     0.052 C 
HETATM    5  C5  UNL     1     -33.892  15.865  -2.878  1.00 20.00    -0.004 C 
HETATM    6  C6  UNL     1     -35.073  15.246  -5.601  1.00 20.00     0.159 C 
HETATM    7  C7  UNL     1     -34.890  14.302  -6.781  1.00 20.00     0.060 C 
HETATM    8  O11 UNL     1     -36.421  13.827  -4.201  1.00 20.00    -0.294 OA
HETATM    9  F12 UNL     1     -36.138  16.055  -5.880  1.00 20.00    -0.235 F 
ENDROOT
BRANCH   5  10
HETATM   10  C10 UNL     1     -34.756  16.396  -1.731  1.00 20.00    -0.018 C 
HETATM   11  C8  UNL     1     -33.920  17.243  -0.776  1.00 20.00     0.010 C 
HETATM   12  C9  UNL     1     -35.932  17.203  -2.276  1.00 20.00     0.010 C 
ENDBRANCH   5  10
TORSDOF 1
ENDMDL
MODEL 3
REMARK VINA RESULT:      -4.8      2.109      2.729
REMARK  1 active torsions:
REMARK  status: ('A' for Active; 'I' for Inactive)
REMARK    1  A    between atoms: C5_5  and  C10_10 
ROOT
HETATM    1  C1  UNL     1     -35.770  15.922  -4.611  1.00 20.00     0.166 C 
HETATM    2  C2  UNL     1     -36.026  15.489  -3.187  1.00 20.00     0.086 C 
HETATM    3  C3  UNL     1     -33.462  15.559  -3.027  1.00 20.00     0.009 C 
HETATM    4  C4  UNL     1     -33.603  14.688  -4.273  1.00 20.00     0.052 C 
HETATM    5  C5  UNL     1     -34.806  15.758  -2.297  1.00 20.00    -0.004 C 
HETATM    6  C6  UNL     1     -34.529  15.363  -5.290  1.00 20.00     0.159 C 
HETATM    7  C7  UNL     1     -34.929  14.396  -6.397  1.00 20.00     0.060 C 
HETATM    8  O11 UNL     1     -36.543  16.676  -5.202  1.00 20.00    -0.294 OA
HETATM    9  F12 UNL     1     -33.835  16.388  -5.869  1.00 20.00    -0.235 F 
ENDROOT
BRANCH   5  10
HETATM   10  C10 UNL     1     -34.868  17.156  -1.676  1.00 20.00    -0.018 C 
HETATM   11  C8  UNL     1     -34.769  17.072  -0.155  1.00 20.00     0.010 C 
HETATM   12  C9  UNL     1     -33.761  18.043  -2.239  1.00 20.00     0.010 C 
ENDBRANCH   5  10
TORSDOF 1
ENDMDL
MODEL 4
REMARK VINA RESULT:      -4.7      1.955      4.405
REMARK  1 active torsions:
REMARK  status: ('A' for Active; 'I' for Inactive)
REMARK    1  A    between atoms: C5_5  and  C10_10 
ROOT
HETATM    1  C1  UNL     1     -33.859  15.104  -3.581  1.00 20.00     0.166 C 
HETATM    2  C2  UNL     1     -34.668  14.039  -4.284  1.00 20.00     0.086 C 
HETATM    3  C3  UNL     1     -36.095  16.042  -5.027  1.00 20.00     0.009 C 
HETATM    4  C4  UNL     1     -36.068  16.309  -3.524  1.00 20.00     0.052 C 
HETATM    5  C5  UNL     1     -35.548  14.645  -5.383  1.00 20.00    -0.004 C 
HETATM    6  C6  UNL     1     -34.627  16.285  -3.006  1.00 20.00     0.159 C 
HETATM    7  C7  UNL     1     -34.589  16.243  -1.484  1.00 20.00     0.060 C 
HETATM    8  O11 UNL     1     -32.638  15.009  -3.460  1.00 20.00    -0.294 OA
HETATM    9  F12 UNL     1     -34.024  17.446  -3.402  1.00 20.00    -0.235 F 
ENDROOT
BRANCH   5  10
HETATM   10  C10 UNL     1     -34.810  14.692  -6.724  1.00 20.00    -0.018 C 
HETATM   11  C8  UNL     1     -35.758  14.354  -7.871  1.00 20.00     0.010 C 
HETATM   12  C9  UNL     1     -34.175  16.064  -6.938  1.00 20.00     0.010 C 
ENDBRANCH   5  10
TORSDOF 1
ENDMDL
MODEL 5
REMARK VINA RESULT:      -4.6      2.450      2.895
REMARK  1 active torsions:
REMARK  status: ('A' for Active; 'I' for Inactive)
REMARK    1  A    between atoms: C5_5  and  C10_10 
ROOT
HETATM    1  C1  UNL     1     -36.030  15.796  -4.008  1.00 20.00     0.166 C 
HETATM    2  C2  UNL     1     -35.102  15.101  -3.040  1.00 20.00     0.086 C 
HETATM    3  C3  UNL     1     -33.281  16.317  -4.385  1.00 20.00     0.009 C 
HETATM    4  C4  UNL     1     -34.037  15.661  -5.539  1.00 20.00     0.052 C 
HETATM    5  C5  UNL     1     -33.724  15.773  -3.012  1.00 20.00    -0.004 C 
HETATM    6  C6  UNL     1     -35.534  15.970  -5.436  1.00 20.00     0.159 C 
HETATM    7  C7  UNL     1     -36.343  15.092  -6.381  1.00 20.00     0.060 C 
HETATM    8  O11 UNL     1     -37.145  16.186  -3.662  1.00 20.00    -0.294 OA
HETATM    9  F12 UNL     1     -35.718  17.268  -5.820  1.00 20.00    -0.235 F 
ENDROOT
BRANCH   5  10
HETATM   10  C10 UNL     1     -33.670  16.885  -1.961  1.00 20.00    -0.018 C 
HETATM   11  C8  UNL     1     -33.938  18.244  -2.602  1.00 20.00     0.010 C 
HETATM   12  C9  UNL     1     -34.670  16.612  -0.840  1.00 20.00     0.010 C 
ENDBRANCH   5  10
TORSDOF 1
ENDMDL
MODEL 6
REMARK VINA RESULT:      -4.6      2.321      3.086
REMARK  1 active torsions:
REMARK  status: ('A' for Active; 'I' for Inactive)
REMARK    1  A    between atoms: C5_5  and  C10_10 
ROOT
HETATM    1  C1  UNL     1     -35.787  15.880  -5.575  1.00 20.00     0.166 C 
HETATM    2  C2  UNL     1     -36.558  15.485  -4.337  1.00 20.00     0.086 C 
HETATM    3  C3  UNL     1     -34.504  14.005  -3.899  1.00 20.00     0.009 C 
HETATM    4  C4  UNL     1     -34.814  13.572  -5.330  1.00 20.00     0.052 C 
HETATM    5  C5  UNL     1     -35.636  14.853  -3.287  1.00 20.00    -0.004 C 
HETATM    6  C6  UNL     1     -34.948  14.798  -6.239  1.00 20.00     0.159 C 
HETATM    7  C7  UNL     1     -35.551  14.422  -7.586  1.00 20.00     0.060 C 
HETATM    8  O11 UNL     1     -35.852  17.019  -6.037  1.00 20.00    -0.294 OA
HETATM    9  F12 UNL     1     -33.692  15.284  -6.470  1.00 20.00    -0.235 F 
ENDROOT
BRANCH   5  10
HETATM   10  C10 UNL     1     -35.054  15.914  -2.348  1.00 20.00    -0.018 C 
HETATM   11  C8  UNL     1     -33.612  16.237  -2.732  1.00 20.00     0.010 C 
HETATM   12  C9  UNL     1     -35.912  17.177  -2.369  1.00 20.00     0.010 C 
ENDBRANCH   5  10
TORSDOF 1
ENDMDL
MODEL 7
REMARK VINA RESULT:      -4.5      2.316      4.456
REMARK  1 active torsions:
REMARK  status: ('A' for Active; 'I' for Inactive)
REMARK    1  A    between atoms: C5_5  and  C10_10 
ROOT
HETATM    1  C1  UNL     1     -34.850  16.734  -4.116  1.00 20.00     0.166 C 
HETATM    2  C2  UNL     1     -33.766  16.485  -5.139  1.00 20.00     0.086 C 
HETATM    3  C3  UNL     1     -34.555  14.048  -4.934  1.00 20.00     0.009 C 
HETATM    4  C4  UNL     1     -34.344  14.360  -3.454  1.00 20.00     0.052 C 
HETATM    5  C5  UNL     1     -33.972  15.142  -5.850  1.00 20.00    -0.004 C 
HETATM    6  C6  UNL     1     -35.076  15.650  -3.073  1.00 20.00     0.159 C 
HETATM    7  C7  UNL     1     -34.641  16.146  -1.701  1.00 20.00     0.060 C 
HETATM    8  O11 UNL     1     -35.504  17.776  -4.115  1.00 20.00    -0.294 OA
HETATM    9  F12 UNL     1     -36.411  15.366  -3.005  1.00 20.00    -0.235 F 
ENDROOT
BRANCH   5  10
HETATM   10  C10 UNL     1     -34.842  15.304  -7.100  1.00 20.00    -0.018 C 
HETATM   11  C8  UNL     1     -36.293  14.945  -6.794  1.00 20.00     0.010 C 
HETATM   12  C9  UNL     1     -34.743  16.728  -7.641  1.00 20.00     0.010 C 
ENDBRANCH   5  10
TORSDOF 1
ENDMDL
MODEL 8
REMARK VINA RESULT:      -4.5      2.272      4.474
REMARK  1 active torsions:
REMARK  status: ('A' for Active; 'I' for Inactive)
REMARK    1  A    between atoms: C5_5  and  C10_10 
ROOT
HETATM    1  C1  UNL     1     -35.980  15.677  -3.602  1.00 20.00     0.166 C 
HETATM    2  C2  UNL     1     -36.248  16.665  -4.712  1.00 20.00     0.086 C 
HETATM    3  C3  UNL     1     -33.785  16.219  -5.292  1.00 20.00     0.009 C 
HETATM    4  C4  UNL     1     -33.629  16.550  -3.810  1.00 20.00     0.052 C 
HETATM    5  C5  UNL     1     -35.194  16.555  -5.820  1.00 20.00    -0.004 C 
HETATM    6  C6  UNL     1     -34.594  15.705  -2.973  1.00 20.00     0.159 C 
HETATM    7  C7  UNL     1     -34.680  16.221  -1.543  1.00 20.00     0.060 C 
HETATM    8  O11 UNL     1     -36.849  14.899  -3.209  1.00 20.00    -0.294 OA
HETATM    9  F12 UNL     1     -34.099  14.433  -2.923  1.00 20.00    -0.235 F 
ENDROOT
BRANCH   5  10
HETATM   10  C10 UNL     1     -35.614  15.540  -6.888  1.00 20.00    -0.018 C 
HETATM   11  C8  UNL     1     -34.998  14.173  -6.601  1.00 20.00     0.010 C 
HETATM   12  C9  UNL     1     -37.136  15.439  -6.962  1.00 20.00     0.010 C 
ENDBRANCH   5  10
TORSDOF 1
ENDMDL
MODEL 9
REMARK VINA RESULT:      -4.4      2.679      4.004
REMARK  1 active torsions:
REMARK  status: ('A' for Active; 'I' for Inactive)
REMARK    1  A    between atoms: C5_5  and  C10_10 
ROOT
HETATM    1  C1  UNL     1     -33.668  15.729  -4.984  1.00 20.00     0.166 C 
HETATM    2  C2  UNL     1     -34.368  15.156  -6.194  1.00 20.00     0.086 C 
HETATM    3  C3  UNL     1     -35.985  14.213  -4.433  1.00 20.00     0.009 C 
HETATM    4  C4  UNL     1     -34.667  13.723  -3.838  1.00 20.00     0.052 C 
HETATM    5  C5  UNL     1     -35.813  14.761  -5.864  1.00 20.00    -0.004 C 
HETATM    6  C6  UNL     1     -33.674  14.884  -3.719  1.00 20.00     0.159 C 
HETATM    7  C7  UNL     1     -32.269  14.378  -3.421  1.00 20.00     0.060 C 
HETATM    8  O11 UNL     1     -33.100  16.820  -5.027  1.00 20.00    -0.294 OA
HETATM    9  F12 UNL     1     -34.066  15.659  -2.664  1.00 20.00    -0.235 F 
ENDROOT
BRANCH   5  10
HETATM   10  C10 UNL     1     -36.776  15.927  -6.103  1.00 20.00    -0.018 C 
HETATM   11  C8  UNL     1     -37.941  15.489  -6.986  1.00 20.00     0.010 C 
HETATM   12  C9  UNL     1     -37.286  16.481  -4.775  1.00 20.00     0.010 C 
ENDBRANCH   5  10
TORSDOF 1
ENDMDL
