MODEL 1
REMARK VINA RESULT:      -4.5      0.000      0.000
REMARK  0 active torsions:
REMARK  status: ('A' for Active; 'I' for Inactive)
ROOT
HETATM    1  C1  UNL     1     -37.505  14.574  -3.836  1.00 20.00     0.071 C 
HETATM    2  C2  UNL     1     -35.562  15.859  -4.668  1.00 20.00     0.152 C 
HETATM    3  C3  UNL     1     -35.215  13.623  -3.991  1.00 20.00     0.028 C 
HETATM    4  C4  UNL     1     -33.878  14.212  -4.430  1.00 20.00     0.018 C 
HETATM    5  C5  UNL     1     -36.077  14.843  -3.671  1.00 20.00     0.163 C 
HETATM    6  C6  UNL     1     -34.245  15.426  -5.301  1.00 20.00     0.015 C 
HETATM    7  C7  UNL     1     -34.490  15.031  -6.759  1.00 20.00     0.023 C 
HETATM    8  C8  UNL     1     -33.193  16.524  -5.201  1.00 20.00     0.023 C 
HETATM    9  N9  UNL     1     -38.638  14.361  -3.967  1.00 20.00    -0.196 NA
HETATM   10  O10 UNL     1     -36.134  16.910  -4.934  1.00 20.00    -0.296 OA
ENDROOT
TORSDOF 0
ENDMDL
MODEL 2
REMARK VINA RESULT:      -4.5      2.300      3.290
REMARK  0 active torsions:
REMARK  status: ('A' for Active; 'I' for Inactive)
ROOT
HETATM    1  C1  UNL     1     -35.751  14.791  -7.282  1.00 20.00     0.071 C 
HETATM    2  C2  UNL     1     -34.483  14.037  -5.296  1.00 20.00     0.152 C 
HETATM    3  C3  UNL     1     -34.153  16.247  -6.060  1.00 20.00     0.028 C 
HETATM    4  C4  UNL     1     -33.246  16.008  -4.856  1.00 20.00     0.018 C 
HETATM    5  C5  UNL     1     -34.471  14.846  -6.576  1.00 20.00     0.163 C 
HETATM    6  C6  UNL     1     -33.860  14.797  -4.131  1.00 20.00     0.015 C 
HETATM    7  C7  UNL     1     -34.961  15.214  -3.154  1.00 20.00     0.023 C 
HETATM    8  C8  UNL     1     -32.793  13.964  -3.431  1.00 20.00     0.023 C 
HETATM    9  N9  UNL     1     -36.767  14.746  -7.841  1.00 20.00    -0.196 NA
HETATM   10  O10 UNL     1     -34.935  12.901  -5.206  1.00 20.00    -0.296 OA
ENDROOT
TORSDOF 0
ENDMDL
MODEL 3
REMARK VINA RESULT:      -4.4      2.321      2.882
REMARK  0 active torsions:
REMARK  status: ('A' for Active; 'I' for Inactive)
ROOT
HETATM    1  C1  UNL     1     -33.722  16.131  -2.539  1.00 20.00     0.071 C 
HETATM    2  C2  UNL     1     -34.126  15.890  -4.969  1.00 20.00     0.152 C 
HETATM    3  C3  UNL     1     -34.269  13.960  -3.615  1.00 20.00     0.028 C 
HETATM    4  C4  UNL     1     -34.522  13.558  -5.065  1.00 20.00     0.018 C 
HETATM    5  C5  UNL     1     -33.522  15.288  -3.717  1.00 20.00     0.163 C 
HETATM    6  C6  UNL     1     -34.912  14.865  -5.777  1.00 20.00     0.015 C 
HETATM    7  C7  UNL     1     -36.408  15.161  -5.653  1.00 20.00     0.023 C 
HETATM    8  C8  UNL     1     -34.475  14.857  -7.238  1.00 20.00     0.023 C 
HETATM    9  N9  UNL     1     -33.881  16.801  -1.605  1.00 20.00    -0.196 NA
HETATM   10  O10 UNL     1     -33.997  17.064  -5.296  1.00 20.00    -0.296 OA
ENDROOT
TORSDOF 0
ENDMDL
MODEL 4
REMARK VINA RESULT:      -4.3     11.157     12.470
REMARK  0 active torsions:
REMARK  status: ('A' for Active; 'I' for Inactive)
ROOT
HETATM    1  C1  UNL     1     -42.644   7.617  -1.857  1.00 20.00     0.071 C 
HETATM    2  C2  UNL     1     -42.460   5.275  -2.632  1.00 20.00     0.152 C 
HETATM    3  C3  UNL     1     -41.082   5.971  -0.845  1.00 20.00     0.028 C 
HETATM    4  C4  UNL     1     -40.768   4.512  -1.162  1.00 20.00     0.018 C 
HETATM    5  C5  UNL     1     -41.735   6.502  -2.120  1.00 20.00     0.163 C 
HETATM    6  C6  UNL     1     -41.995   4.001  -1.937  1.00 20.00     0.015 C 
HETATM    7  C7  UNL     1     -43.098   3.505  -1.000  1.00 20.00     0.023 C 
HETATM    8  C8  UNL     1     -41.611   2.925  -2.946  1.00 20.00     0.023 C 
HETATM    9  N9  UNL     1     -43.365   8.502  -1.648  1.00 20.00    -0.196 NA
HETATM   10  O10 UNL     1     -43.318   5.301  -3.508  1.00 20.00    -0.296 OA
ENDROOT
TORSDOF 0
ENDMDL
MODEL 5
REMARK VINA RESULT:      -4.3      2.350      3.116
REMARK  0 active torsions:
REMARK  status: ('A' for Active; 'I' for Inactive)
ROOT
HETATM    1  C1  UNL     1     -34.661  13.503  -4.138  1.00 20.00     0.071 C 
HETATM    2  C2  UNL     1     -35.753  15.521  -3.211  1.00 20.00     0.152 C 
HETATM    3  C3  UNL     1     -33.399  15.514  -3.406  1.00 20.00     0.028 C 
HETATM    4  C4  UNL     1     -33.832  16.838  -2.785  1.00 20.00     0.018 C 
HETATM    5  C5  UNL     1     -34.573  14.573  -3.144  1.00 20.00     0.163 C 
HETATM    6  C6  UNL     1     -35.320  16.981  -3.151  1.00 20.00     0.015 C 
HETATM    7  C7  UNL     1     -35.512  17.623  -4.526  1.00 20.00     0.023 C 
HETATM    8  C8  UNL     1     -36.089  17.744  -2.078  1.00 20.00     0.023 C 
HETATM    9  N9  UNL     1     -34.731  12.655  -4.926  1.00 20.00    -0.196 NA
HETATM   10  O10 UNL     1     -36.920  15.158  -3.300  1.00 20.00    -0.296 OA
ENDROOT
TORSDOF 0
ENDMDL
MODEL 6
REMARK VINA RESULT:      -4.3      2.563      3.383
REMARK  0 active torsions:
REMARK  status: ('A' for Active; 'I' for Inactive)
ROOT
HETATM    1  C1  UNL     1     -34.869  13.787  -4.718  1.00 20.00     0.071 C 
HETATM    2  C2  UNL     1     -33.940  15.851  -3.720  1.00 20.00     0.152 C 
HETATM    3  C3  UNL     1     -36.282  15.696  -3.988  1.00 20.00     0.028 C 
HETATM    4  C4  UNL     1     -35.950  17.059  -3.389  1.00 20.00     0.018 C 
HETATM    5  C5  UNL     1     -34.977  15.243  -4.641  1.00 20.00     0.163 C 
HETATM    6  C6  UNL     1     -34.542  16.897  -2.789  1.00 20.00     0.015 C 
HETATM    7  C7  UNL     1     -34.588  16.340  -1.365  1.00 20.00     0.023 C 
HETATM    8  C8  UNL     1     -33.758  18.204  -2.841  1.00 20.00     0.023 C 
HETATM    9  N9  UNL     1     -34.783  12.631  -4.779  1.00 20.00    -0.196 NA
HETATM   10  O10 UNL     1     -32.754  15.542  -3.723  1.00 20.00    -0.296 OA
ENDROOT
TORSDOF 0
ENDMDL
MODEL 7
REMARK VINA RESULT:      -4.2      2.955      3.546
REMARK  0 active torsions:
REMARK  status: ('A' for Active; 'I' for Inactive)
ROOT
HETATM    1  C1  UNL     1     -33.930  17.036  -1.924  1.00 20.00     0.071 C 
HETATM    2  C2  UNL     1     -33.809  15.106  -3.468  1.00 20.00     0.152 C 
HETATM    3  C3  UNL     1     -35.941  15.941  -2.888  1.00 20.00     0.028 C 
HETATM    4  C4  UNL     1     -36.123  14.743  -3.814  1.00 20.00     0.018 C 
HETATM    5  C5  UNL     1     -34.536  15.763  -2.314  1.00 20.00     0.163 C 
HETATM    6  C6  UNL     1     -34.769  14.585  -4.530  1.00 20.00     0.015 C 
HETATM    7  C7  UNL     1     -34.674  15.467  -5.776  1.00 20.00     0.023 C 
HETATM    8  C8  UNL     1     -34.483  13.126  -4.869  1.00 20.00     0.023 C 
HETATM    9  N9  UNL     1     -33.448  18.045  -1.616  1.00 20.00    -0.196 NA
HETATM   10  O10 UNL     1     -32.589  15.002  -3.540  1.00 20.00    -0.296 OA
ENDROOT
TORSDOF 0
ENDMDL
MODEL 8
REMARK VINA RESULT:      -4.2      2.391      3.287
REMARK  0 active torsions:
REMARK  status: ('A' for Active; 'I' for Inactive)
ROOT
HETATM    1  C1  UNL     1     -34.258  13.881  -4.150  1.00 20.00     0.071 C 
HETATM    2  C2  UNL     1     -34.197  16.098  -3.054  1.00 20.00     0.152 C 
HETATM    3  C3  UNL     1     -33.601  15.963  -5.335  1.00 20.00     0.028 C 
HETATM    4  C4  UNL     1     -33.456  17.412  -4.879  1.00 20.00     0.018 C 
HETATM    5  C5  UNL     1     -33.545  15.154  -4.042  1.00 20.00     0.163 C 
HETATM    6  C6  UNL     1     -34.312  17.514  -3.605  1.00 20.00     0.015 C 
HETATM    7  C7  UNL     1     -35.778  17.816  -3.922  1.00 20.00     0.023 C 
HETATM    8  C8  UNL     1     -33.742  18.538  -2.629  1.00 20.00     0.023 C 
HETATM    9  N9  UNL     1     -34.823  12.872  -4.236  1.00 20.00    -0.196 NA
HETATM   10  O10 UNL     1     -34.584  15.765  -1.939  1.00 20.00    -0.296 OA
ENDROOT
TORSDOF 0
ENDMDL
MODEL 9
REMARK VINA RESULT:      -4.1      2.300      3.476
REMARK  0 active torsions:
REMARK  status: ('A' for Active; 'I' for Inactive)
ROOT
HETATM    1  C1  UNL     1     -35.100  13.623  -4.206  1.00 20.00     0.071 C 
HETATM    2  C2  UNL     1     -37.058  15.063  -3.740  1.00 20.00     0.152 C 
HETATM    3  C3  UNL     1     -34.949  16.094  -4.003  1.00 20.00     0.028 C 
HETATM    4  C4  UNL     1     -35.983  17.172  -3.693  1.00 20.00     0.018 C 
HETATM    5  C5  UNL     1     -35.586  14.803  -3.492  1.00 20.00     0.163 C 
HETATM    6  C6  UNL     1     -37.340  16.531  -4.035  1.00 20.00     0.015 C 
HETATM    7  C7  UNL     1     -37.693  16.691  -5.515  1.00 20.00     0.023 C 
HETATM    8  C8  UNL     1     -38.454  17.072  -3.145  1.00 20.00     0.023 C 
HETATM    9  N9  UNL     1     -34.715  12.686  -4.772  1.00 20.00    -0.196 NA
HETATM   10  O10 UNL     1     -37.922  14.195  -3.704  1.00 20.00    -0.296 OA
ENDROOT
TORSDOF 0
ENDMDL
