MODEL 1
REMARK VINA RESULT:      -4.3      0.000      0.000
REMARK  1 active torsions:
REMARK  status: ('A' for Active; 'I' for Inactive)
REMARK    1  A    between atoms: C1_1  and  C3_3 
ROOT
HETATM    1  C1  UNL     1     -33.966   5.882   4.181  1.00 20.00     0.035 C 
HETATM    2  C2  UNL     1     -33.330   6.674   5.044  1.00 20.00     0.053 C 
HETATM    3  C4  UNL     1     -33.294   5.940   2.868  1.00 20.00     0.073 C 
HETATM    4  C5  UNL     1     -32.008   6.665   3.247  1.00 20.00     0.180 C 
HETATM    5  C6  UNL     1     -33.637   6.976   6.467  1.00 20.00     0.077 C 
HETATM    6  O8  UNL     1     -32.221   7.331   4.508  1.00 20.00    -0.355 OA
ENDROOT
BRANCH   1   7
HETATM    7  C3  UNL     1     -35.148   5.075   4.429  1.00 20.00     0.250 C 
HETATM    8  O7  UNL     1     -36.193   5.316   3.804  1.00 20.00    -0.274 OA
HETATM    9 CL9  UNL     1     -35.015   3.789   5.618  1.00 20.00    -0.039 Cl
ENDBRANCH   1   7
TORSDOF 1
ENDMDL
MODEL 2
REMARK VINA RESULT:      -4.1     11.752     12.431
REMARK  1 active torsions:
REMARK  status: ('A' for Active; 'I' for Inactive)
REMARK    1  A    between atoms: C1_1  and  C3_3 
ROOT
HETATM    1  C1  UNL     1     -34.491  15.090  -3.306  1.00 20.00     0.035 C 
HETATM    2  C2  UNL     1     -35.697  14.665  -3.681  1.00 20.00     0.053 C 
HETATM    3  C4  UNL     1     -33.471  14.100  -3.705  1.00 20.00     0.073 C 
HETATM    4  C5  UNL     1     -34.295  13.210  -4.627  1.00 20.00     0.180 C 
HETATM    5  C6  UNL     1     -37.032  15.286  -3.482  1.00 20.00     0.077 C 
HETATM    6  O8  UNL     1     -35.690  13.436  -4.343  1.00 20.00    -0.355 OA
ENDROOT
BRANCH   1   7
HETATM    7  C3  UNL     1     -34.167  16.317  -2.598  1.00 20.00     0.250 C 
HETATM    8  O7  UNL     1     -33.585  17.233  -3.200  1.00 20.00    -0.274 OA
HETATM    9 CL9  UNL     1     -34.632  16.423  -0.908  1.00 20.00    -0.039 Cl
ENDBRANCH   1   7
TORSDOF 1
ENDMDL
MODEL 3
REMARK VINA RESULT:      -4.0     12.268     12.559
REMARK  1 active torsions:
REMARK  status: ('A' for Active; 'I' for Inactive)
REMARK    1  A    between atoms: C1_1  and  C3_3 
ROOT
HETATM    1  C1  UNL     1     -34.927  14.778  -3.888  1.00 20.00     0.035 C 
HETATM    2  C2  UNL     1     -36.022  15.320  -3.355  1.00 20.00     0.053 C 
HETATM    3  C4  UNL     1     -33.728  15.368  -3.262  1.00 20.00     0.073 C 
HETATM    4  C5  UNL     1     -34.361  16.102  -2.087  1.00 20.00     0.180 C 
HETATM    5  C6  UNL     1     -37.455  15.081  -3.670  1.00 20.00     0.077 C 
HETATM    6  O8  UNL     1     -35.766  16.270  -2.365  1.00 20.00    -0.355 OA
ENDROOT
BRANCH   1   7
HETATM    7  C3  UNL     1     -34.859  13.773  -4.935  1.00 20.00     0.250 C 
HETATM    8  O7  UNL     1     -34.832  12.571  -4.626  1.00 20.00    -0.274 OA
HETATM    9 CL9  UNL     1     -34.821  14.338  -6.597  1.00 20.00    -0.039 Cl
ENDBRANCH   1   7
TORSDOF 1
ENDMDL
MODEL 4
REMARK VINA RESULT:      -4.0      2.287      3.485
REMARK  1 active torsions:
REMARK  status: ('A' for Active; 'I' for Inactive)
REMARK    1  A    between atoms: C1_1  and  C3_3 
ROOT
HETATM    1  C1  UNL     1     -33.280   6.440   3.912  1.00 20.00     0.035 C 
HETATM    2  C2  UNL     1     -33.809   6.326   5.129  1.00 20.00     0.053 C 
HETATM    3  C4  UNL     1     -33.957   5.506   2.989  1.00 20.00     0.073 C 
HETATM    4  C5  UNL     1     -35.145   5.084   3.845  1.00 20.00     0.180 C 
HETATM    5  C6  UNL     1     -33.453   7.023   6.393  1.00 20.00     0.077 C 
HETATM    6  O8  UNL     1     -34.841   5.390   5.221  1.00 20.00    -0.355 OA
ENDROOT
BRANCH   1   7
HETATM    7  C3  UNL     1     -32.197   7.314   3.497  1.00 20.00     0.250 C 
HETATM    8  O7  UNL     1     -31.198   7.436   4.224  1.00 20.00    -0.274 OA
HETATM    9 CL9  UNL     1     -32.377   8.154   1.965  1.00 20.00    -0.039 Cl
ENDBRANCH   1   7
TORSDOF 1
ENDMDL
MODEL 5
REMARK VINA RESULT:      -4.0     12.234     12.454
REMARK  1 active torsions:
REMARK  status: ('A' for Active; 'I' for Inactive)
REMARK    1  A    between atoms: C1_1  and  C3_3 
ROOT
HETATM    1  C1  UNL     1     -34.927  14.648  -3.924  1.00 20.00     0.035 C 
HETATM    2  C2  UNL     1     -33.830  15.129  -3.340  1.00 20.00     0.053 C 
HETATM    3  C4  UNL     1     -36.123  15.247  -3.300  1.00 20.00     0.073 C 
HETATM    4  C5  UNL     1     -35.480  16.362  -2.483  1.00 20.00     0.180 C 
HETATM    5  C6  UNL     1     -32.399  14.814  -3.591  1.00 20.00     0.077 C 
HETATM    6  O8  UNL     1     -34.081  16.055  -2.326  1.00 20.00    -0.355 OA
ENDROOT
BRANCH   1   7
HETATM    7  C3  UNL     1     -35.000  13.672  -4.999  1.00 20.00     0.250 C 
HETATM    8  O7  UNL     1     -34.891  12.464  -4.735  1.00 20.00    -0.274 OA
HETATM    9 CL9  UNL     1     -35.244  14.281  -6.627  1.00 20.00    -0.039 Cl
ENDBRANCH   1   7
TORSDOF 1
ENDMDL
MODEL 6
REMARK VINA RESULT:      -4.0     12.141     12.827
REMARK  1 active torsions:
REMARK  status: ('A' for Active; 'I' for Inactive)
REMARK    1  A    between atoms: C1_1  and  C3_3 
ROOT
HETATM    1  C1  UNL     1     -33.899  15.481  -4.078  1.00 20.00     0.035 C 
HETATM    2  C2  UNL     1     -34.126  16.386  -3.127  1.00 20.00     0.053 C 
HETATM    3  C4  UNL     1     -33.603  16.165  -5.352  1.00 20.00     0.073 C 
HETATM    4  C5  UNL     1     -33.411  17.595  -4.860  1.00 20.00     0.180 C 
HETATM    5  C6  UNL     1     -34.491  16.197  -1.698  1.00 20.00     0.077 C 
HETATM    6  O8  UNL     1     -34.021  17.709  -3.559  1.00 20.00    -0.355 OA
ENDROOT
BRANCH   1   7
HETATM    7  C3  UNL     1     -33.938  14.034  -3.948  1.00 20.00     0.250 C 
HETATM    8  O7  UNL     1     -32.911  13.424  -3.608  1.00 20.00    -0.274 OA
HETATM    9 CL9  UNL     1     -35.463  13.233  -4.287  1.00 20.00    -0.039 Cl
ENDBRANCH   1   7
TORSDOF 1
ENDMDL
MODEL 7
REMARK VINA RESULT:      -3.9     12.249     13.093
REMARK  1 active torsions:
REMARK  status: ('A' for Active; 'I' for Inactive)
REMARK    1  A    between atoms: C1_1  and  C3_3 
ROOT
HETATM    1  C1  UNL     1     -33.829  15.404  -3.845  1.00 20.00     0.035 C 
HETATM    2  C2  UNL     1     -33.815  16.243  -4.880  1.00 20.00     0.053 C 
HETATM    3  C4  UNL     1     -33.645  16.161  -2.591  1.00 20.00     0.073 C 
HETATM    4  C5  UNL     1     -33.831  17.586  -3.098  1.00 20.00     0.180 C 
HETATM    5  C6  UNL     1     -33.931  15.964  -6.335  1.00 20.00     0.077 C 
HETATM    6  O8  UNL     1     -33.645  17.583  -4.528  1.00 20.00    -0.355 OA
ENDROOT
BRANCH   1   7
HETATM    7  C3  UNL     1     -33.981  13.959  -3.880  1.00 20.00     0.250 C 
HETATM    8  O7  UNL     1     -33.006  13.236  -3.622  1.00 20.00    -0.274 OA
HETATM    9 CL9  UNL     1     -35.565  13.323  -4.293  1.00 20.00    -0.039 Cl
ENDBRANCH   1   7
TORSDOF 1
ENDMDL
MODEL 8
REMARK VINA RESULT:      -3.8     12.786     13.351
REMARK  1 active torsions:
REMARK  status: ('A' for Active; 'I' for Inactive)
REMARK    1  A    between atoms: C1_1  and  C3_3 
ROOT
HETATM    1  C1  UNL     1     -34.750  14.733  -5.343  1.00 20.00     0.035 C 
HETATM    2  C2  UNL     1     -35.410  15.820  -4.948  1.00 20.00     0.053 C 
HETATM    3  C4  UNL     1     -34.463  14.825  -6.789  1.00 20.00     0.073 C 
HETATM    4  C5  UNL     1     -34.814  16.286  -7.048  1.00 20.00     0.180 C 
HETATM    5  C6  UNL     1     -35.943  16.179  -3.608  1.00 20.00     0.077 C 
HETATM    6  O8  UNL     1     -35.647  16.747  -5.965  1.00 20.00    -0.355 OA
ENDROOT
BRANCH   1   7
HETATM    7  C3  UNL     1     -34.359  13.592  -4.532  1.00 20.00     0.250 C 
HETATM    8  O7  UNL     1     -35.067  12.573  -4.531  1.00 20.00    -0.274 OA
HETATM    9 CL9  UNL     1     -32.884  13.738  -3.591  1.00 20.00    -0.039 Cl
ENDBRANCH   1   7
TORSDOF 1
ENDMDL
MODEL 9
REMARK VINA RESULT:      -3.8      1.464      2.529
REMARK  1 active torsions:
REMARK  status: ('A' for Active; 'I' for Inactive)
REMARK    1  A    between atoms: C1_1  and  C3_3 
ROOT
HETATM    1  C1  UNL     1     -34.284   5.789   5.115  1.00 20.00     0.035 C 
HETATM    2  C2  UNL     1     -33.272   6.453   4.558  1.00 20.00     0.053 C 
HETATM    3  C4  UNL     1     -34.320   6.066   6.565  1.00 20.00     0.073 C 
HETATM    4  C5  UNL     1     -33.340   7.231   6.649  1.00 20.00     0.180 C 
HETATM    5  C6  UNL     1     -32.807   6.476   3.147  1.00 20.00     0.077 C 
HETATM    6  O8  UNL     1     -32.531   7.225   5.455  1.00 20.00    -0.355 OA
ENDROOT
BRANCH   1   7
HETATM    7  C3  UNL     1     -35.228   4.903   4.456  1.00 20.00     0.250 C 
HETATM    8  O7  UNL     1     -35.212   3.690   4.719  1.00 20.00    -0.274 OA
HETATM    9 CL9  UNL     1     -36.350   5.623   3.314  1.00 20.00    -0.039 Cl
ENDBRANCH   1   7
TORSDOF 1
ENDMDL
