MODEL 1
REMARK VINA RESULT:      -4.9      0.000      0.000
REMARK  1 active torsions:
REMARK  status: ('A' for Active; 'I' for Inactive)
REMARK    1  A    between atoms: C6_6  and  C8_8 
ROOT
HETATM    1  C1  UNL     1     -33.590  16.775  -4.196  1.00 20.00     0.144 C 
HETATM    2  C2  UNL     1     -33.836  18.189  -3.707  1.00 20.00     0.079 C 
HETATM    3  C3  UNL     1     -33.785  18.259  -2.189  1.00 20.00     0.007 C 
HETATM    4  C4  UNL     1     -34.722  17.242  -1.546  1.00 20.00     0.002 C 
HETATM    5  C5  UNL     1     -34.389  15.825  -2.012  1.00 20.00     0.026 C 
HETATM    6  C6  UNL     1     -34.417  15.655  -3.545  1.00 20.00     0.114 C 
HETATM    7  C7  UNL     1     -35.849  15.720  -4.094  1.00 20.00     0.033 C 
HETATM    8  O9  UNL     1     -32.822  16.566  -5.136  1.00 20.00    -0.297 OA
ENDROOT
BRANCH   6   9
HETATM    9  C8  UNL     1     -33.815  14.285  -3.900  1.00 20.00     0.401 C 
HETATM   10  F10 UNL     1     -32.509  14.278  -3.608  1.00 20.00    -0.170 F 
HETATM   11  F11 UNL     1     -34.431  13.329  -3.195  1.00 20.00    -0.170 F 
HETATM   12  F12 UNL     1     -33.978  14.048  -5.207  1.00 20.00    -0.170 F 
ENDBRANCH   6   9
TORSDOF 1
ENDMDL
MODEL 2
REMARK VINA RESULT:      -4.9      0.018      1.090
REMARK  1 active torsions:
REMARK  status: ('A' for Active; 'I' for Inactive)
REMARK    1  A    between atoms: C6_6  and  C8_8 
ROOT
HETATM    1  C1  UNL     1     -33.591  16.788  -4.189  1.00 20.00     0.144 C 
HETATM    2  C2  UNL     1     -33.833  18.200  -3.693  1.00 20.00     0.079 C 
HETATM    3  C3  UNL     1     -33.774  18.264  -2.175  1.00 20.00     0.007 C 
HETATM    4  C4  UNL     1     -34.707  17.245  -1.531  1.00 20.00     0.002 C 
HETATM    5  C5  UNL     1     -34.377  15.830  -2.005  1.00 20.00     0.026 C 
HETATM    6  C6  UNL     1     -34.414  15.666  -3.538  1.00 20.00     0.114 C 
HETATM    7  C7  UNL     1     -35.849  15.734  -4.078  1.00 20.00     0.033 C 
HETATM    8  O9  UNL     1     -32.828  16.584  -5.134  1.00 20.00    -0.297 OA
ENDROOT
BRANCH   6   9
HETATM    9  C8  UNL     1     -33.814  14.298  -3.902  1.00 20.00     0.401 C 
HETATM   10  F10 UNL     1     -34.422  13.337  -3.195  1.00 20.00    -0.170 F 
HETATM   11  F11 UNL     1     -33.988  14.065  -5.208  1.00 20.00    -0.170 F 
HETATM   12  F12 UNL     1     -32.506  14.292  -3.621  1.00 20.00    -0.170 F 
ENDBRANCH   6   9
TORSDOF 1
ENDMDL
MODEL 3
REMARK VINA RESULT:      -4.8      2.275      3.563
REMARK  1 active torsions:
REMARK  status: ('A' for Active; 'I' for Inactive)
REMARK    1  A    between atoms: C6_6  and  C8_8 
ROOT
HETATM    1  C1  UNL     1     -34.667  14.274  -4.880  1.00 20.00     0.144 C 
HETATM    2  C2  UNL     1     -35.185  14.058  -6.288  1.00 20.00     0.079 C 
HETATM    3  C3  UNL     1     -34.412  14.900  -7.290  1.00 20.00     0.007 C 
HETATM    4  C4  UNL     1     -34.389  16.371  -6.890  1.00 20.00     0.002 C 
HETATM    5  C5  UNL     1     -33.792  16.546  -5.494  1.00 20.00     0.026 C 
HETATM    6  C6  UNL     1     -34.514  15.727  -4.405  1.00 20.00     0.114 C 
HETATM    7  C7  UNL     1     -35.909  16.295  -4.105  1.00 20.00     0.033 C 
HETATM    8  O9  UNL     1     -34.469  13.313  -4.136  1.00 20.00    -0.297 OA
ENDROOT
BRANCH   6   9
HETATM    9  C8  UNL     1     -33.675  15.772  -3.117  1.00 20.00     0.401 C 
HETATM   10  F10 UNL     1     -33.348  17.039  -2.837  1.00 20.00    -0.170 F 
HETATM   11  F11 UNL     1     -34.384  15.263  -2.103  1.00 20.00    -0.170 F 
HETATM   12  F12 UNL     1     -32.559  15.053  -3.283  1.00 20.00    -0.170 F 
ENDBRANCH   6   9
TORSDOF 1
ENDMDL
MODEL 4
REMARK VINA RESULT:      -4.8      2.275      3.639
REMARK  1 active torsions:
REMARK  status: ('A' for Active; 'I' for Inactive)
REMARK    1  A    between atoms: C6_6  and  C8_8 
ROOT
HETATM    1  C1  UNL     1     -34.667  14.274  -4.869  1.00 20.00     0.144 C 
HETATM    2  C2  UNL     1     -35.185  14.051  -6.276  1.00 20.00     0.079 C 
HETATM    3  C3  UNL     1     -34.416  14.894  -7.281  1.00 20.00     0.007 C 
HETATM    4  C4  UNL     1     -34.399  16.366  -6.886  1.00 20.00     0.002 C 
HETATM    5  C5  UNL     1     -33.802  16.548  -5.491  1.00 20.00     0.026 C 
HETATM    6  C6  UNL     1     -34.520  15.730  -4.399  1.00 20.00     0.114 C 
HETATM    7  C7  UNL     1     -35.917  16.292  -4.099  1.00 20.00     0.033 C 
HETATM    8  O9  UNL     1     -34.464  13.316  -4.122  1.00 20.00    -0.297 OA
ENDROOT
BRANCH   6   9
HETATM    9  C8  UNL     1     -33.680  15.782  -3.112  1.00 20.00     0.401 C 
HETATM   10  F10 UNL     1     -32.565  15.060  -3.272  1.00 20.00    -0.170 F 
HETATM   11  F11 UNL     1     -33.351  17.051  -2.843  1.00 20.00    -0.170 F 
HETATM   12  F12 UNL     1     -34.389  15.283  -2.092  1.00 20.00    -0.170 F 
ENDBRANCH   6   9
TORSDOF 1
ENDMDL
MODEL 5
REMARK VINA RESULT:      -4.8      2.276      3.530
REMARK  1 active torsions:
REMARK  status: ('A' for Active; 'I' for Inactive)
REMARK    1  A    between atoms: C6_6  and  C8_8 
ROOT
HETATM    1  C1  UNL     1     -34.203  16.170  -5.129  1.00 20.00     0.144 C 
HETATM    2  C2  UNL     1     -34.191  15.298  -6.369  1.00 20.00     0.079 C 
HETATM    3  C3  UNL     1     -35.168  14.141  -6.234  1.00 20.00     0.007 C 
HETATM    4  C4  UNL     1     -34.927  13.347  -4.954  1.00 20.00     0.002 C 
HETATM    5  C5  UNL     1     -35.021  14.253  -3.727  1.00 20.00     0.026 C 
HETATM    6  C6  UNL     1     -34.062  15.461  -3.773  1.00 20.00     0.114 C 
HETATM    7  C7  UNL     1     -32.600  15.026  -3.596  1.00 20.00     0.033 C 
HETATM    8  O9  UNL     1     -34.236  17.396  -5.231  1.00 20.00    -0.297 OA
ENDROOT
BRANCH   6   9
HETATM    9  C8  UNL     1     -34.431  16.427  -2.635  1.00 20.00     0.401 C 
HETATM   10  F10 UNL     1     -33.481  17.362  -2.513  1.00 20.00    -0.170 F 
HETATM   11  F11 UNL     1     -35.600  17.017  -2.910  1.00 20.00    -0.170 F 
HETATM   12  F12 UNL     1     -34.535  15.749  -1.487  1.00 20.00    -0.170 F 
ENDBRANCH   6   9
TORSDOF 1
ENDMDL
MODEL 6
REMARK VINA RESULT:      -4.8      1.551      2.721
REMARK  1 active torsions:
REMARK  status: ('A' for Active; 'I' for Inactive)
REMARK    1  A    between atoms: C6_6  and  C8_8 
ROOT
HETATM    1  C1  UNL     1     -35.536  15.676  -4.403  1.00 20.00     0.144 C 
HETATM    2  C2  UNL     1     -35.998  17.073  -4.770  1.00 20.00     0.079 C 
HETATM    3  C3  UNL     1     -35.017  17.740  -5.721  1.00 20.00     0.007 C 
HETATM    4  C4  UNL     1     -33.594  17.714  -5.173  1.00 20.00     0.002 C 
HETATM    5  C5  UNL     1     -33.147  16.281  -4.887  1.00 20.00     0.026 C 
HETATM    6  C6  UNL     1     -34.084  15.520  -3.925  1.00 20.00     0.114 C 
HETATM    7  C7  UNL     1     -33.978  16.059  -2.492  1.00 20.00     0.033 C 
HETATM    8  O9  UNL     1     -36.332  14.736  -4.408  1.00 20.00    -0.297 OA
ENDROOT
BRANCH   6   9
HETATM    9  C8  UNL     1     -33.689  14.035  -3.925  1.00 20.00     0.401 C 
HETATM   10  F10 UNL     1     -33.925  13.506  -5.131  1.00 20.00    -0.170 F 
HETATM   11  F11 UNL     1     -32.387  13.917  -3.638  1.00 20.00    -0.170 F 
HETATM   12  F12 UNL     1     -34.407  13.379  -3.006  1.00 20.00    -0.170 F 
ENDBRANCH   6   9
TORSDOF 1
ENDMDL
MODEL 7
REMARK VINA RESULT:      -4.7      0.454      1.046
REMARK  1 active torsions:
REMARK  status: ('A' for Active; 'I' for Inactive)
REMARK    1  A    between atoms: C6_6  and  C8_8 
ROOT
HETATM    1  C1  UNL     1     -33.659  16.531  -4.014  1.00 20.00     0.144 C 
HETATM    2  C2  UNL     1     -33.831  17.900  -3.386  1.00 20.00     0.079 C 
HETATM    3  C3  UNL     1     -33.866  17.804  -1.868  1.00 20.00     0.007 C 
HETATM    4  C4  UNL     1     -34.910  16.801  -1.391  1.00 20.00     0.002 C 
HETATM    5  C5  UNL     1     -34.653  15.420  -1.993  1.00 20.00     0.026 C 
HETATM    6  C6  UNL     1     -34.601  15.416  -3.535  1.00 20.00     0.114 C 
HETATM    7  C7  UNL     1     -35.990  15.651  -4.146  1.00 20.00     0.033 C 
HETATM    8  O9  UNL     1     -32.853  16.365  -4.930  1.00 20.00    -0.297 OA
ENDROOT
BRANCH   6   9
HETATM    9  C8  UNL     1     -34.079  14.050  -4.007  1.00 20.00     0.401 C 
HETATM   10  F10 UNL     1     -33.905  14.068  -5.333  1.00 20.00    -0.170 F 
HETATM   11  F11 UNL     1     -32.910  13.786  -3.411  1.00 20.00    -0.170 F 
HETATM   12  F12 UNL     1     -34.963  13.097  -3.689  1.00 20.00    -0.170 F 
ENDBRANCH   6   9
TORSDOF 1
ENDMDL
MODEL 8
REMARK VINA RESULT:      -4.7     12.177     13.284
REMARK  1 active torsions:
REMARK  status: ('A' for Active; 'I' for Inactive)
REMARK    1  A    between atoms: C6_6  and  C8_8 
ROOT
HETATM    1  C1  UNL     1     -42.521   5.107  -2.097  1.00 20.00     0.144 C 
HETATM    2  C2  UNL     1     -43.416   5.730  -3.149  1.00 20.00     0.079 C 
HETATM    3  C3  UNL     1     -42.881   7.083  -3.590  1.00 20.00     0.007 C 
HETATM    4  C4  UNL     1     -42.637   8.007  -2.403  1.00 20.00     0.002 C 
HETATM    5  C5  UNL     1     -41.673   7.367  -1.405  1.00 20.00     0.026 C 
HETATM    6  C6  UNL     1     -42.133   5.985  -0.897  1.00 20.00     0.114 C 
HETATM    7  C7  UNL     1     -43.346   6.103   0.037  1.00 20.00     0.033 C 
HETATM    8  O9  UNL     1     -42.202   3.920  -2.174  1.00 20.00    -0.297 OA
ENDROOT
BRANCH   6   9
HETATM    9  C8  UNL     1     -40.975   5.334  -0.123  1.00 20.00     0.401 C 
HETATM   10  F10 UNL     1     -40.129   4.754  -0.982  1.00 20.00    -0.170 F 
HETATM   11  F11 UNL     1     -40.323   6.269   0.578  1.00 20.00    -0.170 F 
HETATM   12  F12 UNL     1     -41.459   4.409   0.715  1.00 20.00    -0.170 F 
ENDBRANCH   6   9
TORSDOF 1
ENDMDL
MODEL 9
REMARK VINA RESULT:      -4.7      2.033      2.389
REMARK  1 active torsions:
REMARK  status: ('A' for Active; 'I' for Inactive)
REMARK    1  A    between atoms: C6_6  and  C8_8 
ROOT
HETATM    1  C1  UNL     1     -33.579  16.088  -4.938  1.00 20.00     0.144 C 
HETATM    2  C2  UNL     1     -33.732  17.442  -5.603  1.00 20.00     0.079 C 
HETATM    3  C3  UNL     1     -35.080  18.064  -5.273  1.00 20.00     0.007 C 
HETATM    4  C4  UNL     1     -36.231  17.117  -5.592  1.00 20.00     0.002 C 
HETATM    5  C5  UNL     1     -36.072  15.795  -4.843  1.00 20.00     0.026 C 
HETATM    6  C6  UNL     1     -34.730  15.085  -5.117  1.00 20.00     0.114 C 
HETATM    7  C7  UNL     1     -34.672  14.521  -6.543  1.00 20.00     0.033 C 
HETATM    8  O9  UNL     1     -32.533  15.794  -4.359  1.00 20.00    -0.297 OA
ENDROOT
BRANCH   6   9
HETATM    9  C8  UNL     1     -34.574  13.925  -4.120  1.00 20.00     0.401 C 
HETATM   10  F10 UNL     1     -33.495  13.200  -4.438  1.00 20.00    -0.170 F 
HETATM   11  F11 UNL     1     -34.429  14.414  -2.883  1.00 20.00    -0.170 F 
HETATM   12  F12 UNL     1     -35.660  13.145  -4.164  1.00 20.00    -0.170 F 
ENDBRANCH   6   9
TORSDOF 1
ENDMDL
