MODEL 1
REMARK VINA RESULT:      -6.2      0.000      0.000
REMARK  0 active torsions:
REMARK  status: ('A' for Active; 'I' for Inactive)
ROOT
HETATM    1  C1  UNL     1     -32.987   5.958   2.604  1.00 20.00    -0.003 C 
HETATM    2  C2  UNL     1     -32.766   6.677   3.842  1.00 20.00     0.011 C 
HETATM    3  C3  UNL     1     -34.103   5.207   2.689  1.00 20.00    -0.017 C 
HETATM    4  C4  UNL     1     -33.785   6.376   4.648  1.00 20.00    -0.005 C 
HETATM    5  C5  UNL     1     -33.988   6.349   6.099  1.00 20.00     0.156 C 
HETATM    6  C6  UNL     1     -34.920   5.200   6.410  1.00 20.00     0.084 C 
HETATM    7  C7  UNL     1     -34.960   4.425   5.068  1.00 20.00     0.021 C 
HETATM    8  C8  UNL     1     -34.793   5.493   3.987  1.00 20.00     0.045 C 
HETATM    9  O9  UNL     1     -33.482   7.116   6.899  1.00 20.00    -0.293 OA
ENDROOT
TORSDOF 0
ENDMDL
MODEL 2
REMARK VINA RESULT:      -5.4      1.930      3.658
REMARK  0 active torsions:
REMARK  status: ('A' for Active; 'I' for Inactive)
ROOT
HETATM    1  C1  UNL     1     -35.011   4.615   6.286  1.00 20.00    -0.003 C 
HETATM    2  C2  UNL     1     -35.143   4.301   4.878  1.00 20.00     0.011 C 
HETATM    3  C3  UNL     1     -34.375   5.792   6.448  1.00 20.00    -0.017 C 
HETATM    4  C4  UNL     1     -34.614   5.323   4.206  1.00 20.00    -0.005 C 
HETATM    5  C5  UNL     1     -34.012   5.494   2.881  1.00 20.00     0.156 C 
HETATM    6  C6  UNL     1     -32.907   6.519   3.008  1.00 20.00     0.084 C 
HETATM    7  C7  UNL     1     -32.754   6.660   4.545  1.00 20.00     0.021 C 
HETATM    8  C8  UNL     1     -34.155   6.423   5.108  1.00 20.00     0.045 C 
HETATM    9  O9  UNL     1     -34.345   4.903   1.870  1.00 20.00    -0.293 OA
ENDROOT
TORSDOF 0
ENDMDL
MODEL 3
REMARK VINA RESULT:      -5.3      1.366      2.996
REMARK  0 active torsions:
REMARK  status: ('A' for Active; 'I' for Inactive)
ROOT
HETATM    1  C1  UNL     1     -34.665   5.806   6.799  1.00 20.00    -0.003 C 
HETATM    2  C2  UNL     1     -33.592   6.554   6.175  1.00 20.00     0.011 C 
HETATM    3  C3  UNL     1     -35.142   4.873   5.953  1.00 20.00    -0.017 C 
HETATM    4  C4  UNL     1     -33.411   6.027   4.964  1.00 20.00    -0.005 C 
HETATM    5  C5  UNL     1     -32.877   6.514   3.689  1.00 20.00     0.156 C 
HETATM    6  C6  UNL     1     -33.668   5.857   2.580  1.00 20.00     0.084 C 
HETATM    7  C7  UNL     1     -34.859   5.224   3.345  1.00 20.00     0.021 C 
HETATM    8  C8  UNL     1     -34.297   4.849   4.716  1.00 20.00     0.045 C 
HETATM    9  O9  UNL     1     -31.966   7.311   3.562  1.00 20.00    -0.293 OA
ENDROOT
TORSDOF 0
ENDMDL
MODEL 4
REMARK VINA RESULT:      -4.8      1.593      2.335
REMARK  0 active torsions:
REMARK  status: ('A' for Active; 'I' for Inactive)
ROOT
HETATM    1  C1  UNL     1     -33.098   6.685   2.714  1.00 20.00    -0.003 C 
HETATM    2  C2  UNL     1     -33.903   5.501   2.938  1.00 20.00     0.011 C 
HETATM    3  C3  UNL     1     -32.662   7.185   3.887  1.00 20.00    -0.017 C 
HETATM    4  C4  UNL     1     -33.906   5.281   4.253  1.00 20.00    -0.005 C 
HETATM    5  C5  UNL     1     -34.809   4.609   5.191  1.00 20.00     0.156 C 
HETATM    6  C6  UNL     1     -34.768   5.374   6.495  1.00 20.00     0.084 C 
HETATM    7  C7  UNL     1     -34.023   6.675   6.099  1.00 20.00     0.021 C 
HETATM    8  C8  UNL     1     -33.051   6.256   4.996  1.00 20.00     0.045 C 
HETATM    9  O9  UNL     1     -35.473   3.617   4.948  1.00 20.00    -0.293 OA
ENDROOT
TORSDOF 0
ENDMDL
MODEL 5
REMARK VINA RESULT:      -4.5     11.885     12.571
REMARK  0 active torsions:
REMARK  status: ('A' for Active; 'I' for Inactive)
ROOT
HETATM    1  C1  UNL     1     -34.271  16.686  -1.893  1.00 20.00    -0.003 C 
HETATM    2  C2  UNL     1     -35.585  16.196  -2.258  1.00 20.00     0.011 C 
HETATM    3  C3  UNL     1     -33.327  16.134  -2.680  1.00 20.00    -0.017 C 
HETATM    4  C4  UNL     1     -35.414  15.379  -3.297  1.00 20.00    -0.005 C 
HETATM    5  C5  UNL     1     -36.155  14.246  -3.859  1.00 20.00     0.156 C 
HETATM    6  C6  UNL     1     -35.144  13.266  -4.410  1.00 20.00     0.084 C 
HETATM    7  C7  UNL     1     -33.807  13.801  -3.834  1.00 20.00     0.021 C 
HETATM    8  C8  UNL     1     -33.990  15.316  -3.745  1.00 20.00     0.045 C 
HETATM    9  O9  UNL     1     -37.367  14.125  -3.866  1.00 20.00    -0.293 OA
ENDROOT
TORSDOF 0
ENDMDL
MODEL 6
REMARK VINA RESULT:      -4.4     12.529     13.746
REMARK  0 active torsions:
REMARK  status: ('A' for Active; 'I' for Inactive)
ROOT
HETATM    1  C1  UNL     1     -34.755  15.969  -7.392  1.00 20.00    -0.003 C 
HETATM    2  C2  UNL     1     -34.960  14.623  -6.896  1.00 20.00     0.011 C 
HETATM    3  C3  UNL     1     -34.159  16.730  -6.455  1.00 20.00    -0.017 C 
HETATM    4  C4  UNL     1     -34.442  14.584  -5.668  1.00 20.00    -0.005 C 
HETATM    5  C5  UNL     1     -34.674  13.774  -4.469  1.00 20.00     0.156 C 
HETATM    6  C6  UNL     1     -34.472  14.668  -3.267  1.00 20.00     0.084 C 
HETATM    7  C7  UNL     1     -34.419  16.081  -3.902  1.00 20.00     0.021 C 
HETATM    8  C8  UNL     1     -33.794  15.874  -5.281  1.00 20.00     0.045 C 
HETATM    9  O9  UNL     1     -34.981  12.596  -4.459  1.00 20.00    -0.293 OA
ENDROOT
TORSDOF 0
ENDMDL
MODEL 7
REMARK VINA RESULT:      -4.3     11.657     12.560
REMARK  0 active torsions:
REMARK  status: ('A' for Active; 'I' for Inactive)
ROOT
HETATM    1  C1  UNL     1     -34.660  17.088  -2.642  1.00 20.00    -0.003 C 
HETATM    2  C2  UNL     1     -33.671  16.032  -2.708  1.00 20.00     0.011 C 
HETATM    3  C3  UNL     1     -35.863  16.631  -3.039  1.00 20.00    -0.017 C 
HETATM    4  C4  UNL     1     -34.309  14.933  -3.110  1.00 20.00    -0.005 C 
HETATM    5  C5  UNL     1     -33.920  13.701  -3.801  1.00 20.00     0.156 C 
HETATM    6  C6  UNL     1     -35.074  13.288  -4.687  1.00 20.00     0.084 C 
HETATM    7  C7  UNL     1     -35.985  14.543  -4.660  1.00 20.00     0.021 C 
HETATM    8  C8  UNL     1     -35.778  15.154  -3.274  1.00 20.00     0.045 C 
HETATM    9  O9  UNL     1     -32.852  13.128  -3.680  1.00 20.00    -0.293 OA
ENDROOT
TORSDOF 0
ENDMDL
MODEL 8
REMARK VINA RESULT:      -4.3      9.887     10.868
REMARK  0 active torsions:
REMARK  status: ('A' for Active; 'I' for Inactive)
ROOT
HETATM    1  C1  UNL     1     -40.770   6.365  -0.271  1.00 20.00    -0.003 C 
HETATM    2  C2  UNL     1     -41.498   6.962  -1.372  1.00 20.00     0.011 C 
HETATM    3  C3  UNL     1     -40.729   5.025  -0.406  1.00 20.00    -0.017 C 
HETATM    4  C4  UNL     1     -41.853   5.965  -2.183  1.00 20.00    -0.005 C 
HETATM    5  C5  UNL     1     -42.921   5.755  -3.165  1.00 20.00     0.156 C 
HETATM    6  C6  UNL     1     -43.317   4.297  -3.105  1.00 20.00     0.084 C 
HETATM    7  C7  UNL     1     -42.608   3.807  -1.816  1.00 20.00     0.021 C 
HETATM    8  C8  UNL     1     -41.331   4.642  -1.723  1.00 20.00     0.045 C 
HETATM    9  O9  UNL     1     -43.399   6.612  -3.885  1.00 20.00    -0.293 OA
ENDROOT
TORSDOF 0
ENDMDL
MODEL 9
REMARK VINA RESULT:      -4.3     12.593     13.344
REMARK  0 active torsions:
REMARK  status: ('A' for Active; 'I' for Inactive)
ROOT
HETATM    1  C1  UNL     1     -35.247  17.560   1.350  1.00 20.00    -0.003 C 
HETATM    2  C2  UNL     1     -34.187  18.019   0.475  1.00 20.00     0.011 C 
HETATM    3  C3  UNL     1     -35.006  17.940   2.620  1.00 20.00    -0.017 C 
HETATM    4  C4  UNL     1     -33.335  18.709   1.233  1.00 20.00    -0.005 C 
HETATM    5  C5  UNL     1     -31.911  19.043   1.154  1.00 20.00     0.156 C 
HETATM    6  C6  UNL     1     -31.365  19.061   2.564  1.00 20.00     0.084 C 
HETATM    7  C7  UNL     1     -32.515  18.415   3.379  1.00 20.00     0.021 C 
HETATM    8  C8  UNL     1     -33.796  18.822   2.651  1.00 20.00     0.045 C 
HETATM    9  O9  UNL     1     -31.290  19.257   0.128  1.00 20.00    -0.293 OA
ENDROOT
TORSDOF 0
ENDMDL
