MODEL 1
REMARK VINA RESULT:      -4.2      0.000      0.000
REMARK  5 active torsions:
REMARK  status: ('A' for Active; 'I' for Inactive)
REMARK    1  A    between atoms: C5_5  and  C9_9 
REMARK    2  A    between atoms: C6_6  and  C9_9 
REMARK    3  A    between atoms: C7_7  and  N11_11 
REMARK    4  A    between atoms: C8_8  and  N11_11 
REMARK    5  A    between atoms: C9_9  and  N11_11 
ROOT
HETATM    1  C1  UNL     1     -37.310  15.137  -3.476  1.00 20.00     0.061 C 
HETATM    2  C5  UNL     1     -36.341  16.165  -3.065  1.00 20.00     0.159 C 
HETATM    3  N10 UNL     1     -38.077  14.328  -3.801  1.00 20.00    -0.197 NA
ENDROOT
BRANCH   2   4
HETATM    4  C9  UNL     1     -34.950  15.570  -2.782  1.00 20.00     0.235 C 
BRANCH   4   5
HETATM    5  C6  UNL     1     -34.087  16.516  -1.923  1.00 20.00     0.032 C 
HETATM    6  C2  UNL     1     -34.688  16.820  -0.555  1.00 20.00     0.007 C 
ENDBRANCH   4   5
BRANCH   4   7
HETATM    7  N11 UNL     1     -34.293  15.307  -4.067  1.00 20.00     0.093 N 
BRANCH   7   8
HETATM    8  C7  UNL     1     -33.760  13.947  -4.094  1.00 20.00     0.268 C 
HETATM    9  C3  UNL     1     -34.616  13.050  -4.922  1.00 20.00     0.037 C 
ENDBRANCH   7   8
BRANCH   7  10
HETATM   10  C8  UNL     1     -33.230  16.281  -4.302  1.00 20.00     0.268 C 
HETATM   11  C4  UNL     1     -33.512  17.105  -5.513  1.00 20.00     0.037 C 
ENDBRANCH   7  10
ENDBRANCH   4   7
ENDBRANCH   2   4
TORSDOF 5
ENDMDL
MODEL 2
REMARK VINA RESULT:      -4.1      1.587      3.122
REMARK  5 active torsions:
REMARK  status: ('A' for Active; 'I' for Inactive)
REMARK    1  A    between atoms: C5_5  and  C9_9 
REMARK    2  A    between atoms: C6_6  and  C9_9 
REMARK    3  A    between atoms: C7_7  and  N11_11 
REMARK    4  A    between atoms: C8_8  and  N11_11 
REMARK    5  A    between atoms: C9_9  and  N11_11 
ROOT
HETATM    1  C1  UNL     1     -34.122  13.553  -4.105  1.00 20.00     0.061 C 
HETATM    2  C5  UNL     1     -33.143  14.535  -3.612  1.00 20.00     0.159 C 
HETATM    3  N10 UNL     1     -34.891  12.776  -4.494  1.00 20.00    -0.197 NA
ENDROOT
BRANCH   2   4
HETATM    4  C9  UNL     1     -33.768  15.928  -3.416  1.00 20.00     0.235 C 
BRANCH   4   5
HETATM    5  C6  UNL     1     -34.852  15.920  -2.319  1.00 20.00     0.032 C 
HETATM    6  C2  UNL     1     -34.441  16.652  -1.047  1.00 20.00     0.007 C 
ENDBRANCH   4   5
BRANCH   4   7
HETATM    7  N11 UNL     1     -34.341  16.359  -4.696  1.00 20.00     0.093 N 
BRANCH   7   8
HETATM    8  C7  UNL     1     -33.501  17.387  -5.306  1.00 20.00     0.268 C 
HETATM    9  C3  UNL     1     -33.620  18.682  -4.576  1.00 20.00     0.037 C 
ENDBRANCH   7   8
BRANCH   7  10
HETATM   10  C8  UNL     1     -35.701  16.854  -4.502  1.00 20.00     0.268 C 
HETATM   11  C4  UNL     1     -36.630  16.290  -5.523  1.00 20.00     0.037 C 
ENDBRANCH   7  10
ENDBRANCH   4   7
ENDBRANCH   2   4
TORSDOF 5
ENDMDL
MODEL 3
REMARK VINA RESULT:      -4.1      0.881      2.236
REMARK  5 active torsions:
REMARK  status: ('A' for Active; 'I' for Inactive)
REMARK    1  A    between atoms: C5_5  and  C9_9 
REMARK    2  A    between atoms: C6_6  and  C9_9 
REMARK    3  A    between atoms: C7_7  and  N11_11 
REMARK    4  A    between atoms: C8_8  and  N11_11 
REMARK    5  A    between atoms: C9_9  and  N11_11 
ROOT
HETATM    1  C1  UNL     1     -37.102  15.132  -3.584  1.00 20.00     0.061 C 
HETATM    2  C5  UNL     1     -36.119  16.218  -3.443  1.00 20.00     0.159 C 
HETATM    3  N10 UNL     1     -37.879  14.278  -3.696  1.00 20.00    -0.197 NA
ENDROOT
BRANCH   2   4
HETATM    4  C9  UNL     1     -34.844  15.756  -2.715  1.00 20.00     0.235 C 
BRANCH   4   5
HETATM    5  C6  UNL     1     -34.742  16.361  -1.300  1.00 20.00     0.032 C 
HETATM    6  C2  UNL     1     -33.694  17.462  -1.179  1.00 20.00     0.007 C 
ENDBRANCH   4   5
BRANCH   4   7
HETATM    7  N11 UNL     1     -33.685  16.151  -3.522  1.00 20.00     0.093 N 
BRANCH   7   8
HETATM    8  C7  UNL     1     -34.123  16.708  -4.800  1.00 20.00     0.268 C 
HETATM    9  C3  UNL     1     -33.464  18.018  -5.071  1.00 20.00     0.037 C 
ENDBRANCH   7   8
BRANCH   7  10
HETATM   10  C8  UNL     1     -32.802  15.007  -3.736  1.00 20.00     0.268 C 
HETATM   11  C4  UNL     1     -33.577  13.735  -3.813  1.00 20.00     0.037 C 
ENDBRANCH   7  10
ENDBRANCH   4   7
ENDBRANCH   2   4
TORSDOF 5
ENDMDL
MODEL 4
REMARK VINA RESULT:      -4.0      1.606      2.672
REMARK  5 active torsions:
REMARK  status: ('A' for Active; 'I' for Inactive)
REMARK    1  A    between atoms: C5_5  and  C9_9 
REMARK    2  A    between atoms: C6_6  and  C9_9 
REMARK    3  A    between atoms: C7_7  and  N11_11 
REMARK    4  A    between atoms: C8_8  and  N11_11 
REMARK    5  A    between atoms: C9_9  and  N11_11 
ROOT
HETATM    1  C1  UNL     1     -35.168  13.687  -4.090  1.00 20.00     0.061 C 
HETATM    2  C5  UNL     1     -35.616  14.933  -3.447  1.00 20.00     0.159 C 
HETATM    3  N10 UNL     1     -34.818  12.704  -4.597  1.00 20.00    -0.197 NA
ENDROOT
BRANCH   2   4
HETATM    4  C9  UNL     1     -34.435  15.789  -2.955  1.00 20.00     0.235 C 
BRANCH   4   5
HETATM    5  C6  UNL     1     -34.639  16.264  -1.502  1.00 20.00     0.032 C 
HETATM    6  C2  UNL     1     -33.718  17.411  -1.099  1.00 20.00     0.007 C 
ENDBRANCH   4   5
BRANCH   4   7
HETATM    7  N11 UNL     1     -34.296  16.940  -3.853  1.00 20.00     0.093 N 
BRANCH   7   8
HETATM    8  C7  UNL     1     -35.589  17.284  -4.439  1.00 20.00     0.268 C 
HETATM    9  C3  UNL     1     -36.045  18.630  -3.986  1.00 20.00     0.037 C 
ENDBRANCH   7   8
BRANCH   7  10
HETATM   10  C8  UNL     1     -33.317  16.654  -4.899  1.00 20.00     0.268 C 
HETATM   11  C4  UNL     1     -33.969  16.568  -6.237  1.00 20.00     0.037 C 
ENDBRANCH   7  10
ENDBRANCH   4   7
ENDBRANCH   2   4
TORSDOF 5
ENDMDL
MODEL 5
REMARK VINA RESULT:      -3.9      1.564      3.682
REMARK  5 active torsions:
REMARK  status: ('A' for Active; 'I' for Inactive)
REMARK    1  A    between atoms: C5_5  and  C9_9 
REMARK    2  A    between atoms: C6_6  and  C9_9 
REMARK    3  A    between atoms: C7_7  and  N11_11 
REMARK    4  A    between atoms: C8_8  and  N11_11 
REMARK    5  A    between atoms: C9_9  and  N11_11 
ROOT
HETATM    1  C1  UNL     1     -34.383  13.587  -4.272  1.00 20.00     0.061 C 
HETATM    2  C5  UNL     1     -33.774  14.763  -3.630  1.00 20.00     0.159 C 
HETATM    3  N10 UNL     1     -34.861  12.658  -4.776  1.00 20.00    -0.197 NA
ENDROOT
BRANCH   2   4
HETATM    4  C9  UNL     1     -34.308  16.083  -4.213  1.00 20.00     0.235 C 
BRANCH   4   5
HETATM    5  C6  UNL     1     -33.257  16.785  -5.097  1.00 20.00     0.032 C 
HETATM    6  C2  UNL     1     -33.660  18.191  -5.527  1.00 20.00     0.007 C 
ENDBRANCH   4   5
BRANCH   4   7
HETATM    7  N11 UNL     1     -34.698  16.953  -3.098  1.00 20.00     0.093 N 
BRANCH   7   8
HETATM    8  C7  UNL     1     -33.851  16.698  -1.935  1.00 20.00     0.268 C 
HETATM    9  C3  UNL     1     -34.630  16.799  -0.668  1.00 20.00     0.037 C 
ENDBRANCH   7   8
BRANCH   7  10
HETATM   10  C8  UNL     1     -36.105  16.750  -2.763  1.00 20.00     0.268 C 
HETATM   11  C4  UNL     1     -36.961  16.804  -3.983  1.00 20.00     0.037 C 
ENDBRANCH   7  10
ENDBRANCH   4   7
ENDBRANCH   2   4
TORSDOF 5
ENDMDL
MODEL 6
REMARK VINA RESULT:      -3.9      0.947      2.834
REMARK  5 active torsions:
REMARK  status: ('A' for Active; 'I' for Inactive)
REMARK    1  A    between atoms: C5_5  and  C9_9 
REMARK    2  A    between atoms: C6_6  and  C9_9 
REMARK    3  A    between atoms: C7_7  and  N11_11 
REMARK    4  A    between atoms: C8_8  and  N11_11 
REMARK    5  A    between atoms: C9_9  and  N11_11 
ROOT
HETATM    1  C1  UNL     1     -37.573  14.953  -3.674  1.00 20.00     0.061 C 
HETATM    2  C5  UNL     1     -36.541  15.902  -3.228  1.00 20.00     0.159 C 
HETATM    3  N10 UNL     1     -38.389  14.206  -4.025  1.00 20.00    -0.197 NA
ENDROOT
BRANCH   2   4
HETATM    4  C9  UNL     1     -35.148  15.542  -3.771  1.00 20.00     0.235 C 
BRANCH   4   5
HETATM    5  C6  UNL     1     -34.901  14.020  -3.754  1.00 20.00     0.032 C 
HETATM    6  C2  UNL     1     -33.427  13.638  -3.828  1.00 20.00     0.007 C 
ENDBRANCH   4   5
BRANCH   4   7
HETATM    7  N11 UNL     1     -34.143  16.230  -2.953  1.00 20.00     0.093 N 
BRANCH   7   8
HETATM    8  C7  UNL     1     -34.644  16.426  -1.595  1.00 20.00     0.268 C 
HETATM    9  C3  UNL     1     -33.806  17.406  -0.847  1.00 20.00     0.037 C 
ENDBRANCH   7   8
BRANCH   7  10
HETATM   10  C8  UNL     1     -33.785  17.510  -3.558  1.00 20.00     0.268 C 
HETATM   11  C4  UNL     1     -33.441  17.347  -5.000  1.00 20.00     0.037 C 
ENDBRANCH   7  10
ENDBRANCH   4   7
ENDBRANCH   2   4
TORSDOF 5
ENDMDL
MODEL 7
REMARK VINA RESULT:      -3.8      1.470      3.400
REMARK  5 active torsions:
REMARK  status: ('A' for Active; 'I' for Inactive)
REMARK    1  A    between atoms: C5_5  and  C9_9 
REMARK    2  A    between atoms: C6_6  and  C9_9 
REMARK    3  A    between atoms: C7_7  and  N11_11 
REMARK    4  A    between atoms: C8_8  and  N11_11 
REMARK    5  A    between atoms: C9_9  and  N11_11 
ROOT
HETATM    1  C1  UNL     1     -37.553  15.096  -4.167  1.00 20.00     0.061 C 
HETATM    2  C5  UNL     1     -36.639  16.100  -4.734  1.00 20.00     0.159 C 
HETATM    3  N10 UNL     1     -38.277  14.306  -3.721  1.00 20.00    -0.197 NA
ENDROOT
BRANCH   2   4
HETATM    4  C9  UNL     1     -35.193  15.580  -4.829  1.00 20.00     0.235 C 
BRANCH   4   5
HETATM    5  C6  UNL     1     -35.052  14.470  -5.889  1.00 20.00     0.032 C 
HETATM    6  C2  UNL     1     -34.534  14.970  -7.233  1.00 20.00     0.007 C 
ENDBRANCH   4   5
BRANCH   4   7
HETATM    7  N11 UNL     1     -34.799  15.077  -3.508  1.00 20.00     0.093 N 
BRANCH   7   8
HETATM    8  C7  UNL     1     -34.083  16.111  -2.765  1.00 20.00     0.268 C 
HETATM    9  C3  UNL     1     -34.710  16.348  -1.433  1.00 20.00     0.037 C 
ENDBRANCH   7   8
BRANCH   7  10
HETATM   10  C8  UNL     1     -33.973  13.879  -3.647  1.00 20.00     0.268 C 
HETATM   11  C4  UNL     1     -32.527  14.201  -3.482  1.00 20.00     0.037 C 
ENDBRANCH   7  10
ENDBRANCH   4   7
ENDBRANCH   2   4
TORSDOF 5
ENDMDL
MODEL 8
REMARK VINA RESULT:      -3.8      1.522      3.546
REMARK  5 active torsions:
REMARK  status: ('A' for Active; 'I' for Inactive)
REMARK    1  A    between atoms: C5_5  and  C9_9 
REMARK    2  A    between atoms: C6_6  and  C9_9 
REMARK    3  A    between atoms: C7_7  and  N11_11 
REMARK    4  A    between atoms: C8_8  and  N11_11 
REMARK    5  A    between atoms: C9_9  and  N11_11 
ROOT
HETATM    1  C1  UNL     1     -34.440  13.560  -4.200  1.00 20.00     0.061 C 
HETATM    2  C5  UNL     1     -33.851  14.736  -3.539  1.00 20.00     0.159 C 
HETATM    3  N10 UNL     1     -34.901  12.632  -4.723  1.00 20.00    -0.197 NA
ENDROOT
BRANCH   2   4
HETATM    4  C9  UNL     1     -34.910  15.584  -2.813  1.00 20.00     0.235 C 
BRANCH   4   5
HETATM    5  C6  UNL     1     -36.314  15.389  -3.420  1.00 20.00     0.032 C 
HETATM    6  C2  UNL     1     -37.196  16.630  -3.333  1.00 20.00     0.007 C 
ENDBRANCH   4   5
BRANCH   4   7
HETATM    7  N11 UNL     1     -34.509  16.993  -2.900  1.00 20.00     0.093 N 
BRANCH   7   8
HETATM    8  C7  UNL     1     -33.606  17.193  -4.030  1.00 20.00     0.268 C 
HETATM    9  C3  UNL     1     -33.642  18.607  -4.504  1.00 20.00     0.037 C 
ENDBRANCH   7   8
BRANCH   7  10
HETATM   10  C8  UNL     1     -33.876  17.418  -1.654  1.00 20.00     0.268 C 
HETATM   11  C4  UNL     1     -34.631  16.918  -0.469  1.00 20.00     0.037 C 
ENDBRANCH   7  10
ENDBRANCH   4   7
ENDBRANCH   2   4
TORSDOF 5
ENDMDL
MODEL 9
REMARK VINA RESULT:      -3.8      0.948      2.857
REMARK  5 active torsions:
REMARK  status: ('A' for Active; 'I' for Inactive)
REMARK    1  A    between atoms: C5_5  and  C9_9 
REMARK    2  A    between atoms: C6_6  and  C9_9 
REMARK    3  A    between atoms: C7_7  and  N11_11 
REMARK    4  A    between atoms: C8_8  and  N11_11 
REMARK    5  A    between atoms: C9_9  and  N11_11 
ROOT
HETATM    1  C1  UNL     1     -37.743  15.066  -3.769  1.00 20.00     0.061 C 
HETATM    2  C5  UNL     1     -36.693  16.088  -3.631  1.00 20.00     0.159 C 
HETATM    3  N10 UNL     1     -38.573  14.262  -3.876  1.00 20.00    -0.197 NA
ENDROOT
BRANCH   2   4
HETATM    4  C9  UNL     1     -35.346  15.616  -4.205  1.00 20.00     0.235 C 
BRANCH   4   5
HETATM    5  C6  UNL     1     -34.968  14.210  -3.699  1.00 20.00     0.032 C 
HETATM    6  C2  UNL     1     -34.626  13.229  -4.815  1.00 20.00     0.007 C 
ENDBRANCH   4   5
BRANCH   4   7
HETATM    7  N11 UNL     1     -34.317  16.589  -3.821  1.00 20.00     0.093 N 
BRANCH   7   8
HETATM    8  C7  UNL     1     -33.370  16.784  -4.917  1.00 20.00     0.268 C 
HETATM    9  C3  UNL     1     -34.071  16.839  -6.231  1.00 20.00     0.037 C 
ENDBRANCH   7   8
BRANCH   7  10
HETATM   10  C8  UNL     1     -33.623  16.146  -2.615  1.00 20.00     0.268 C 
HETATM   11  C4  UNL     1     -33.849  17.092  -1.485  1.00 20.00     0.037 C 
ENDBRANCH   7  10
ENDBRANCH   4   7
ENDBRANCH   2   4
TORSDOF 5
ENDMDL
