MODEL 1
REMARK VINA RESULT:      -4.5      0.000      0.000
REMARK  1 active torsions:
REMARK  status: ('A' for Active; 'I' for Inactive)
REMARK    1  A    between atoms: C3_3  and  C8_8 
ROOT
HETATM    1  C1  UNL     1     -33.318  15.614  -3.329  1.00 20.00     0.302 C 
HETATM    2  C2  UNL     1     -35.783  15.447  -4.714  1.00 20.00     0.209 C 
HETATM    3  C3  UNL     1     -34.606  16.291  -2.858  1.00 20.00     0.149 C 
HETATM    4  C4  UNL     1     -34.532  14.742  -5.267  1.00 20.00     0.171 C 
HETATM    5  C5  UNL     1     -34.532  14.838  -6.801  1.00 20.00     0.051 C 
HETATM    6  C6  UNL     1     -34.522  13.256  -4.866  1.00 20.00     0.051 C 
HETATM    7  N9  UNL     1     -33.325  15.431  -4.781  1.00 20.00     0.097 N 
HETATM    8  O10 UNL     1     -35.739  15.529  -3.287  1.00 20.00    -0.382 OA
HETATM    9  H27 UNL     1     -33.271  16.352  -5.219  1.00 20.00     0.317 HD
ENDROOT
BRANCH   3  10
HETATM   10  C8  UNL     1     -34.655  16.383  -1.340  1.00 20.00     0.029 C 
HETATM   11  C7  UNL     1     -33.807  17.500  -0.823  1.00 20.00     0.007 C 
ENDBRANCH   3  10
TORSDOF 1
ENDMDL
MODEL 2
REMARK VINA RESULT:      -4.2      1.544      2.125
REMARK  1 active torsions:
REMARK  status: ('A' for Active; 'I' for Inactive)
REMARK    1  A    between atoms: C3_3  and  C8_8 
ROOT
HETATM    1  C1  UNL     1     -35.609  16.732  -3.200  1.00 20.00     0.302 C 
HETATM    2  C2  UNL     1     -33.364  15.221  -4.036  1.00 20.00     0.209 C 
HETATM    3  C3  UNL     1     -34.710  15.944  -2.245  1.00 20.00     0.149 C 
HETATM    4  C4  UNL     1     -34.221  15.975  -5.068  1.00 20.00     0.171 C 
HETATM    5  C5  UNL     1     -34.325  15.136  -6.351  1.00 20.00     0.051 C 
HETATM    6  C6  UNL     1     -33.585  17.333  -5.416  1.00 20.00     0.051 C 
HETATM    7  N9  UNL     1     -35.586  16.147  -4.541  1.00 20.00     0.097 N 
HETATM    8  O10 UNL     1     -33.380  15.885  -2.770  1.00 20.00    -0.382 OA
HETATM    9  H27 UNL     1     -36.042  15.235  -4.500  1.00 20.00     0.317 HD
ENDROOT
BRANCH   3  10
HETATM   10  C8  UNL     1     -34.643  16.610  -0.878  1.00 20.00     0.029 C 
HETATM   11  C7  UNL     1     -33.583  17.663  -0.824  1.00 20.00     0.007 C 
ENDBRANCH   3  10
TORSDOF 1
ENDMDL
MODEL 3
REMARK VINA RESULT:      -3.9     12.684     13.868
REMARK  1 active torsions:
REMARK  status: ('A' for Active; 'I' for Inactive)
REMARK    1  A    between atoms: C3_3  and  C8_8 
ROOT
HETATM    1  C1  UNL     1     -42.709   4.621  -0.384  1.00 20.00     0.302 C 
HETATM    2  C2  UNL     1     -41.167   3.359  -2.397  1.00 20.00     0.209 C 
HETATM    3  C3  UNL     1     -41.193   4.774  -0.517  1.00 20.00     0.149 C 
HETATM    4  C4  UNL     1     -42.689   3.140  -2.333  1.00 20.00     0.171 C 
HETATM    5  C5  UNL     1     -43.009   1.686  -2.713  1.00 20.00     0.051 C 
HETATM    6  C6  UNL     1     -43.417   4.078  -3.313  1.00 20.00     0.051 C 
HETATM    7  N9  UNL     1     -43.156   3.349  -0.952  1.00 20.00     0.097 N 
HETATM    8  O10 UNL     1     -40.812   4.648  -1.890  1.00 20.00    -0.382 OA
HETATM    9  H27 UNL     1     -42.800   2.594  -0.364  1.00 20.00     0.317 HD
ENDROOT
BRANCH   3  10
HETATM   10  C8  UNL     1     -40.735   6.142  -0.030  1.00 20.00     0.029 C 
HETATM   11  C7  UNL     1     -41.176   7.236  -0.948  1.00 20.00     0.007 C 
ENDBRANCH   3  10
TORSDOF 1
ENDMDL
MODEL 4
REMARK VINA RESULT:      -3.8      1.318      4.152
REMARK  1 active torsions:
REMARK  status: ('A' for Active; 'I' for Inactive)
REMARK    1  A    between atoms: C3_3  and  C8_8 
ROOT
HETATM    1  C1  UNL     1     -33.414  16.379  -5.008  1.00 20.00     0.302 C 
HETATM    2  C2  UNL     1     -35.584  15.283  -3.554  1.00 20.00     0.209 C 
HETATM    3  C3  UNL     1     -34.249  15.191  -5.490  1.00 20.00     0.149 C 
HETATM    4  C4  UNL     1     -34.792  16.474  -2.987  1.00 20.00     0.171 C 
HETATM    5  C5  UNL     1     -34.664  16.321  -1.463  1.00 20.00     0.051 C 
HETATM    6  C6  UNL     1     -35.511  17.802  -3.290  1.00 20.00     0.051 C 
HETATM    7  N9  UNL     1     -33.430  16.469  -3.547  1.00 20.00     0.097 N 
HETATM    8  O10 UNL     1     -35.582  15.299  -4.983  1.00 20.00    -0.382 OA
HETATM    9  H27 UNL     1     -32.921  15.668  -3.173  1.00 20.00     0.317 HD
ENDROOT
BRANCH   3  10
HETATM   10  C8  UNL     1     -34.328  15.156  -7.009  1.00 20.00     0.029 C 
HETATM   11  C7  UNL     1     -35.546  14.432  -7.486  1.00 20.00     0.007 C 
ENDBRANCH   3  10
TORSDOF 1
ENDMDL
MODEL 5
REMARK VINA RESULT:      -3.8      1.798      4.197
REMARK  1 active torsions:
REMARK  status: ('A' for Active; 'I' for Inactive)
REMARK    1  A    between atoms: C3_3  and  C8_8 
ROOT
HETATM    1  C1  UNL     1     -36.000  15.046  -3.471  1.00 20.00     0.302 C 
HETATM    2  C2  UNL     1     -34.787  17.606  -3.412  1.00 20.00     0.209 C 
HETATM    3  C3  UNL     1     -35.216  15.645  -4.641  1.00 20.00     0.149 C 
HETATM    4  C4  UNL     1     -35.568  17.087  -2.191  1.00 20.00     0.171 C 
HETATM    5  C5  UNL     1     -36.325  18.255  -1.540  1.00 20.00     0.051 C 
HETATM    6  C6  UNL     1     -34.610  16.479  -1.150  1.00 20.00     0.051 C 
HETATM    7  N9  UNL     1     -36.569  16.101  -2.631  1.00 20.00     0.097 N 
HETATM    8  O10 UNL     1     -34.204  16.526  -4.145  1.00 20.00    -0.382 OA
HETATM    9  H27 UNL     1     -37.292  16.581  -3.167  1.00 20.00     0.317 HD
ENDROOT
BRANCH   3  10
HETATM   10  C8  UNL     1     -34.529  14.557  -5.455  1.00 20.00     0.029 C 
HETATM   11  C7  UNL     1     -34.594  13.228  -4.773  1.00 20.00     0.007 C 
ENDBRANCH   3  10
TORSDOF 1
ENDMDL
MODEL 6
REMARK VINA RESULT:      -3.8      1.957      4.135
REMARK  1 active torsions:
REMARK  status: ('A' for Active; 'I' for Inactive)
REMARK    1  A    between atoms: C3_3  and  C8_8 
ROOT
HETATM    1  C1  UNL     1     -34.037  16.030  -6.040  1.00 20.00     0.302 C 
HETATM    2  C2  UNL     1     -34.539  13.388  -5.152  1.00 20.00     0.209 C 
HETATM    3  C3  UNL     1     -34.673  14.945  -6.912  1.00 20.00     0.149 C 
HETATM    4  C4  UNL     1     -33.884  14.413  -4.210  1.00 20.00     0.171 C 
HETATM    5  C5  UNL     1     -32.829  13.705  -3.345  1.00 20.00     0.051 C 
HETATM    6  C6  UNL     1     -34.935  15.050  -3.282  1.00 20.00     0.051 C 
HETATM    7  N9  UNL     1     -33.188  15.437  -5.007  1.00 20.00     0.097 N 
HETATM    8  O10 UNL     1     -35.405  14.032  -6.089  1.00 20.00    -0.382 OA
HETATM    9  H27 UNL     1     -32.381  15.010  -5.462  1.00 20.00     0.317 HD
ENDROOT
BRANCH   3  10
HETATM   10  C8  UNL     1     -35.643  15.548  -7.918  1.00 20.00     0.029 C 
HETATM   11  C7  UNL     1     -37.066  15.360  -7.500  1.00 20.00     0.007 C 
ENDBRANCH   3  10
TORSDOF 1
ENDMDL
MODEL 7
REMARK VINA RESULT:      -3.8      1.716      3.784
REMARK  1 active torsions:
REMARK  status: ('A' for Active; 'I' for Inactive)
REMARK    1  A    between atoms: C3_3  and  C8_8 
ROOT
HETATM    1  C1  UNL     1     -33.592  15.886  -4.948  1.00 20.00     0.302 C 
HETATM    2  C2  UNL     1     -33.836  16.947  -2.333  1.00 20.00     0.209 C 
HETATM    3  C3  UNL     1     -33.298  15.090  -3.675  1.00 20.00     0.149 C 
HETATM    4  C4  UNL     1     -34.142  17.825  -3.559  1.00 20.00     0.171 C 
HETATM    5  C5  UNL     1     -33.661  19.259  -3.289  1.00 20.00     0.051 C 
HETATM    6  C6  UNL     1     -35.656  17.858  -3.842  1.00 20.00     0.051 C 
HETATM    7  N9  UNL     1     -33.396  17.319  -4.723  1.00 20.00     0.097 N 
HETATM    8  O10 UNL     1     -34.115  15.571  -2.603  1.00 20.00    -0.382 OA
HETATM    9  H27 UNL     1     -32.400  17.486  -4.576  1.00 20.00     0.317 HD
ENDROOT
BRANCH   3  10
HETATM   10  C8  UNL     1     -33.606  13.612  -3.868  1.00 20.00     0.029 C 
HETATM   11  C7  UNL     1     -34.656  13.394  -4.910  1.00 20.00     0.007 C 
ENDBRANCH   3  10
TORSDOF 1
ENDMDL
MODEL 8
REMARK VINA RESULT:      -3.8      1.780      4.200
REMARK  1 active torsions:
REMARK  status: ('A' for Active; 'I' for Inactive)
REMARK    1  A    between atoms: C3_3  and  C8_8 
ROOT
HETATM    1  C1  UNL     1     -35.869  15.540  -5.399  1.00 20.00     0.302 C 
HETATM    2  C2  UNL     1     -33.488  16.439  -4.155  1.00 20.00     0.209 C 
HETATM    3  C3  UNL     1     -34.834  16.433  -6.086  1.00 20.00     0.149 C 
HETATM    4  C4  UNL     1     -34.480  15.551  -3.384  1.00 20.00     0.171 C 
HETATM    5  C5  UNL     1     -34.532  16.005  -1.916  1.00 20.00     0.051 C 
HETATM    6  C6  UNL     1     -34.041  14.076  -3.428  1.00 20.00     0.051 C 
HETATM    7  N9  UNL     1     -35.831  15.720  -3.947  1.00 20.00     0.097 N 
HETATM    8  O10 UNL     1     -33.533  16.161  -5.557  1.00 20.00    -0.382 OA
HETATM    9  H27 UNL     1     -36.163  16.660  -3.732  1.00 20.00     0.317 HD
ENDROOT
BRANCH   3  10
HETATM   10  C8  UNL     1     -34.792  16.171  -7.585  1.00 20.00     0.029 C 
HETATM   11  C7  UNL     1     -35.170  14.763  -7.914  1.00 20.00     0.007 C 
ENDBRANCH   3  10
TORSDOF 1
ENDMDL
MODEL 9
REMARK VINA RESULT:      -3.7     12.156     13.778
REMARK  1 active torsions:
REMARK  status: ('A' for Active; 'I' for Inactive)
REMARK    1  A    between atoms: C3_3  and  C8_8 
ROOT
HETATM    1  C1  UNL     1     -42.975   4.937  -2.931  1.00 20.00     0.302 C 
HETATM    2  C2  UNL     1     -40.943   5.205  -0.977  1.00 20.00     0.209 C 
HETATM    3  C3  UNL     1     -41.892   3.886  -2.679  1.00 20.00     0.149 C 
HETATM    4  C4  UNL     1     -41.986   6.319  -1.170  1.00 20.00     0.171 C 
HETATM    5  C5  UNL     1     -41.310   7.686  -0.983  1.00 20.00     0.051 C 
HETATM    6  C6  UNL     1     -43.123   6.187  -0.140  1.00 20.00     0.051 C 
HETATM    7  N9  UNL     1     -42.508   6.269  -2.546  1.00 20.00     0.097 N 
HETATM    8  O10 UNL     1     -41.489   3.926  -1.307  1.00 20.00    -0.382 OA
HETATM    9  H27 UNL     1     -41.767   6.547  -3.191  1.00 20.00     0.317 HD
ENDROOT
BRANCH   3  10
HETATM   10  C8  UNL     1     -42.409   2.484  -2.972  1.00 20.00     0.029 C 
HETATM   11  C7  UNL     1     -41.456   1.706  -3.821  1.00 20.00     0.007 C 
ENDBRANCH   3  10
TORSDOF 1
ENDMDL
