MODEL 1
REMARK VINA RESULT:      -5.4      0.000      0.000
REMARK  3 active torsions:
REMARK  status: ('A' for Active; 'I' for Inactive)
REMARK    1  A    between atoms: C3_3  and  C6_6 
REMARK    2  A    between atoms: C3_3  and  C7_7 
REMARK    3  A    between atoms: C5_5  and  C7_7 
ROOT
HETATM    1  C1  UNL     1     -31.818   7.284   3.318  1.00 20.00     0.012 C 
HETATM    2  C2  UNL     1     -32.692   6.478   3.150  1.00 20.00    -0.117 C 
HETATM    3  C5  UNL     1     -33.760   5.490   2.940  1.00 20.00     0.100 C 
ENDROOT
BRANCH   3   4
HETATM    4  C7  UNL     1     -34.924   5.695   3.907  1.00 20.00     0.090 C 
BRANCH   4   5
HETATM    5  C3  UNL     1     -34.961   4.688   5.050  1.00 20.00     0.127 C 
HETATM    6  O8  UNL     1     -35.141   3.486   4.863  1.00 20.00    -0.298 OA
BRANCH   5   7
HETATM    7  C6  UNL     1     -34.739   5.268   6.438  1.00 20.00     0.074 C 
HETATM    8  C4  UNL     1     -33.987   6.586   6.408  1.00 20.00     0.013 C 
ENDBRANCH   5   7
ENDBRANCH   4   5
ENDBRANCH   3   4
TORSDOF 3
ENDMDL
MODEL 2
REMARK VINA RESULT:      -5.1      1.755      2.401
REMARK  3 active torsions:
REMARK  status: ('A' for Active; 'I' for Inactive)
REMARK    1  A    between atoms: C3_3  and  C6_6 
REMARK    2  A    between atoms: C3_3  and  C7_7 
REMARK    3  A    between atoms: C5_5  and  C7_7 
ROOT
HETATM    1  C1  UNL     1     -32.146   8.929   1.324  1.00 20.00     0.012 C 
HETATM    2  C2  UNL     1     -32.099   8.076   2.168  1.00 20.00    -0.117 C 
HETATM    3  C5  UNL     1     -32.036   7.031   3.202  1.00 20.00     0.100 C 
ENDROOT
BRANCH   3   4
HETATM    4  C7  UNL     1     -33.260   6.121   3.166  1.00 20.00     0.090 C 
BRANCH   4   5
HETATM    5  C3  UNL     1     -33.951   5.962   4.515  1.00 20.00     0.127 C 
HETATM    6  O8  UNL     1     -33.650   6.643   5.493  1.00 20.00    -0.298 OA
BRANCH   5   7
HETATM    7  C6  UNL     1     -35.054   4.917   4.565  1.00 20.00     0.074 C 
HETATM    8  C4  UNL     1     -35.105   4.181   5.891  1.00 20.00     0.013 C 
ENDBRANCH   5   7
ENDBRANCH   4   5
ENDBRANCH   3   4
TORSDOF 3
ENDMDL
MODEL 3
REMARK VINA RESULT:      -5.0      1.752      2.242
REMARK  3 active torsions:
REMARK  status: ('A' for Active; 'I' for Inactive)
REMARK    1  A    between atoms: C3_3  and  C6_6 
REMARK    2  A    between atoms: C3_3  and  C7_7 
REMARK    3  A    between atoms: C5_5  and  C7_7 
ROOT
HETATM    1  C1  UNL     1     -32.041   8.355   1.911  1.00 20.00     0.012 C 
HETATM    2  C2  UNL     1     -32.242   7.469   2.696  1.00 20.00    -0.117 C 
HETATM    3  C5  UNL     1     -32.485   6.381   3.656  1.00 20.00     0.100 C 
ENDROOT
BRANCH   3   4
HETATM    4  C7  UNL     1     -33.916   6.400   4.188  1.00 20.00     0.090 C 
BRANCH   4   5
HETATM    5  C3  UNL     1     -34.017   6.209   5.696  1.00 20.00     0.127 C 
HETATM    6  O8  UNL     1     -33.512   6.995   6.495  1.00 20.00    -0.298 OA
BRANCH   5   7
HETATM    7  C6  UNL     1     -34.805   4.989   6.148  1.00 20.00     0.074 C 
HETATM    8  C4  UNL     1     -35.137   4.050   5.004  1.00 20.00     0.013 C 
ENDBRANCH   5   7
ENDBRANCH   4   5
ENDBRANCH   3   4
TORSDOF 3
ENDMDL
MODEL 4
REMARK VINA RESULT:      -5.0      1.190      3.185
REMARK  3 active torsions:
REMARK  status: ('A' for Active; 'I' for Inactive)
REMARK    1  A    between atoms: C3_3  and  C6_6 
REMARK    2  A    between atoms: C3_3  and  C7_7 
REMARK    3  A    between atoms: C5_5  and  C7_7 
ROOT
HETATM    1  C1  UNL     1     -33.676   6.998   6.686  1.00 20.00     0.012 C 
HETATM    2  C2  UNL     1     -34.314   6.002   6.483  1.00 20.00    -0.117 C 
HETATM    3  C5  UNL     1     -35.096   4.780   6.238  1.00 20.00     0.100 C 
ENDROOT
BRANCH   3   4
HETATM    4  C7  UNL     1     -34.817   4.192   4.857  1.00 20.00     0.090 C 
BRANCH   4   5
HETATM    5  C3  UNL     1     -35.021   5.179   3.714  1.00 20.00     0.127 C 
HETATM    6  O8  UNL     1     -36.059   5.823   3.576  1.00 20.00    -0.298 OA
BRANCH   5   7
HETATM    7  C6  UNL     1     -33.843   5.328   2.763  1.00 20.00     0.074 C 
HETATM    8  C4  UNL     1     -32.897   6.441   3.175  1.00 20.00     0.013 C 
ENDBRANCH   5   7
ENDBRANCH   4   5
ENDBRANCH   3   4
TORSDOF 3
ENDMDL
MODEL 5
REMARK VINA RESULT:      -4.7      1.824      4.008
REMARK  3 active torsions:
REMARK  status: ('A' for Active; 'I' for Inactive)
REMARK    1  A    between atoms: C3_3  and  C6_6 
REMARK    2  A    between atoms: C3_3  and  C7_7 
REMARK    3  A    between atoms: C5_5  and  C7_7 
ROOT
HETATM    1  C1  UNL     1     -35.075   4.272   6.073  1.00 20.00     0.012 C 
HETATM    2  C2  UNL     1     -34.945   4.783   4.994  1.00 20.00    -0.117 C 
HETATM    3  C5  UNL     1     -34.786   5.404   3.671  1.00 20.00     0.100 C 
ENDROOT
BRANCH   3   4
HETATM    4  C7  UNL     1     -33.971   6.693   3.741  1.00 20.00     0.090 C 
BRANCH   4   5
HETATM    5  C3  UNL     1     -32.540   6.547   3.236  1.00 20.00     0.127 C 
HETATM    6  O8  UNL     1     -32.031   5.452   3.006  1.00 20.00    -0.298 OA
BRANCH   5   7
HETATM    7  C6  UNL     1     -31.790   7.851   3.017  1.00 20.00     0.074 C 
HETATM    8  C4  UNL     1     -32.082   8.474   1.664  1.00 20.00     0.013 C 
ENDBRANCH   5   7
ENDBRANCH   4   5
ENDBRANCH   3   4
TORSDOF 3
ENDMDL
MODEL 6
REMARK VINA RESULT:      -4.6      2.426      4.492
REMARK  3 active torsions:
REMARK  status: ('A' for Active; 'I' for Inactive)
REMARK    1  A    between atoms: C3_3  and  C6_6 
REMARK    2  A    between atoms: C3_3  and  C7_7 
REMARK    3  A    between atoms: C5_5  and  C7_7 
ROOT
HETATM    1  C1  UNL     1     -34.769   4.323   5.571  1.00 20.00     0.012 C 
HETATM    2  C2  UNL     1     -34.497   5.284   4.904  1.00 20.00    -0.117 C 
HETATM    3  C5  UNL     1     -34.168   6.462   4.088  1.00 20.00     0.100 C 
ENDROOT
BRANCH   3   4
HETATM    4  C7  UNL     1     -32.997   6.193   3.147  1.00 20.00     0.090 C 
BRANCH   4   5
HETATM    5  C3  UNL     1     -32.022   7.358   3.026  1.00 20.00     0.127 C 
HETATM    6  O8  UNL     1     -31.311   7.722   3.961  1.00 20.00    -0.298 OA
BRANCH   5   7
HETATM    7  C6  UNL     1     -31.973   8.030   1.663  1.00 20.00     0.074 C 
HETATM    8  C4  UNL     1     -32.482   9.459   1.695  1.00 20.00     0.013 C 
ENDBRANCH   5   7
ENDBRANCH   4   5
ENDBRANCH   3   4
TORSDOF 3
ENDMDL
MODEL 7
REMARK VINA RESULT:      -4.1     11.832     12.805
REMARK  3 active torsions:
REMARK  status: ('A' for Active; 'I' for Inactive)
REMARK    1  A    between atoms: C3_3  and  C6_6 
REMARK    2  A    between atoms: C3_3  and  C7_7 
REMARK    3  A    between atoms: C5_5  and  C7_7 
ROOT
HETATM    1  C1  UNL     1     -34.730  16.310  -1.560  1.00 20.00     0.012 C 
HETATM    2  C2  UNL     1     -34.026  15.924  -2.453  1.00 20.00    -0.117 C 
HETATM    3  C5  UNL     1     -33.164  15.456  -3.548  1.00 20.00     0.100 C 
ENDROOT
BRANCH   3   4
HETATM    4  C7  UNL     1     -33.269  13.947  -3.750  1.00 20.00     0.090 C 
BRANCH   4   5
HETATM    5  C3  UNL     1     -34.406  13.525  -4.673  1.00 20.00     0.127 C 
HETATM    6  O8  UNL     1     -35.109  12.542  -4.446  1.00 20.00    -0.298 OA
BRANCH   5   7
HETATM    7  C6  UNL     1     -34.627  14.416  -5.885  1.00 20.00     0.074 C 
HETATM    8  C4  UNL     1     -36.008  15.047  -5.905  1.00 20.00     0.013 C 
ENDBRANCH   5   7
ENDBRANCH   4   5
ENDBRANCH   3   4
TORSDOF 3
ENDMDL
MODEL 8
REMARK VINA RESULT:      -3.9     12.412     13.115
REMARK  3 active torsions:
REMARK  status: ('A' for Active; 'I' for Inactive)
REMARK    1  A    between atoms: C3_3  and  C6_6 
REMARK    2  A    between atoms: C3_3  and  C7_7 
REMARK    3  A    between atoms: C5_5  and  C7_7 
ROOT
HETATM    1  C1  UNL     1     -34.823  17.385   0.530  1.00 20.00     0.012 C 
HETATM    2  C2  UNL     1     -34.760  16.807  -0.520  1.00 20.00    -0.117 C 
HETATM    3  C5  UNL     1     -34.686  16.094  -1.804  1.00 20.00     0.100 C 
ENDROOT
BRANCH   3   4
HETATM    4  C7  UNL     1     -33.589  16.657  -2.705  1.00 20.00     0.090 C 
BRANCH   4   5
HETATM    5  C3  UNL     1     -33.254  15.769  -3.897  1.00 20.00     0.127 C 
HETATM    6  O8  UNL     1     -32.794  16.219  -4.945  1.00 20.00    -0.298 OA
BRANCH   5   7
HETATM    7  C6  UNL     1     -33.507  14.283  -3.697  1.00 20.00     0.074 C 
HETATM    8  C4  UNL     1     -34.351  13.679  -4.803  1.00 20.00     0.013 C 
ENDBRANCH   5   7
ENDBRANCH   4   5
ENDBRANCH   3   4
TORSDOF 3
ENDMDL
MODEL 9
REMARK VINA RESULT:      -3.8     12.002     13.127
REMARK  3 active torsions:
REMARK  status: ('A' for Active; 'I' for Inactive)
REMARK    1  A    between atoms: C3_3  and  C6_6 
REMARK    2  A    between atoms: C3_3  and  C7_7 
REMARK    3  A    between atoms: C5_5  and  C7_7 
ROOT
HETATM    1  C1  UNL     1     -34.535  15.093  -7.159  1.00 20.00     0.012 C 
HETATM    2  C2  UNL     1     -34.023  15.659  -6.232  1.00 20.00    -0.117 C 
HETATM    3  C5  UNL     1     -33.395  16.356  -5.100  1.00 20.00     0.100 C 
ENDROOT
BRANCH   3   4
HETATM    4  C7  UNL     1     -32.991  15.390  -3.990  1.00 20.00     0.090 C 
BRANCH   4   5
HETATM    5  C3  UNL     1     -34.160  14.625  -3.381  1.00 20.00     0.127 C 
HETATM    6  O8  UNL     1     -34.244  13.399  -3.432  1.00 20.00    -0.298 OA
BRANCH   5   7
HETATM    7  C6  UNL     1     -35.207  15.480  -2.685  1.00 20.00     0.074 C 
HETATM    8  C4  UNL     1     -34.637  16.278  -1.527  1.00 20.00     0.013 C 
ENDBRANCH   5   7
ENDBRANCH   4   5
ENDBRANCH   3   4
TORSDOF 3
ENDMDL
