MODEL 1
REMARK VINA RESULT:      -4.2      0.000      0.000
REMARK  2 active torsions:
REMARK  status: ('A' for Active; 'I' for Inactive)
REMARK    1  A    between atoms: C1_1  and  C5_5 
REMARK       I    between atoms: C1_1  and  N7_7 
REMARK    2  A    between atoms: C5_5  and  C6_6 
ROOT
HETATM    1  C1  UNL     1     -33.561   6.010   3.542  1.00 20.00     0.220 C 
HETATM    2  C2  UNL     1     -35.124   5.125   6.432  1.00 20.00     0.040 C 
HETATM    3  C3  UNL     1     -34.937   4.469   5.059  1.00 20.00     0.127 C 
HETATM    4  C4  UNL     1     -33.950   6.054   6.102  1.00 20.00     0.127 C 
HETATM    5  N7  UNL     1     -34.081   5.592   4.736  1.00 20.00    -0.352 N 
HETATM    6  O8  UNL     1     -33.757   5.446   2.467  1.00 20.00    -0.273 OA
ENDROOT
BRANCH   1   7
HETATM    7  C5  UNL     1     -32.709   7.247   3.636  1.00 20.00     0.118 C 
BRANCH   7   8
HETATM    8  C6  UNL     1     -32.086   7.570   2.293  1.00 20.00     0.124 C 
HETATM    9 CL9  UNL     1     -32.424   9.250   1.803  1.00 20.00    -0.130 Cl
ENDBRANCH   7   8
ENDBRANCH   1   7
TORSDOF 2
ENDMDL
MODEL 2
REMARK VINA RESULT:      -4.0      1.408      1.714
REMARK  2 active torsions:
REMARK  status: ('A' for Active; 'I' for Inactive)
REMARK    1  A    between atoms: C1_1  and  C5_5 
REMARK       I    between atoms: C1_1  and  N7_7 
REMARK    2  A    between atoms: C5_5  and  C6_6 
ROOT
HETATM    1  C1  UNL     1     -33.175   6.637   4.529  1.00 20.00     0.220 C 
HETATM    2  C2  UNL     1     -35.250   4.157   5.588  1.00 20.00     0.040 C 
HETATM    3  C3  UNL     1     -34.578   5.363   6.255  1.00 20.00     0.127 C 
HETATM    4  C4  UNL     1     -34.993   4.818   4.228  1.00 20.00     0.127 C 
HETATM    5  N7  UNL     1     -34.107   5.721   4.931  1.00 20.00    -0.352 N 
HETATM    6  O8  UNL     1     -32.540   7.360   5.294  1.00 20.00    -0.273 OA
ENDROOT
BRANCH   1   7
HETATM    7  C5  UNL     1     -32.970   6.699   3.038  1.00 20.00     0.118 C 
BRANCH   7   8
HETATM    8  C6  UNL     1     -31.789   7.585   2.698  1.00 20.00     0.124 C 
HETATM    9 CL9  UNL     1     -32.161   8.677   1.340  1.00 20.00    -0.130 Cl
ENDBRANCH   7   8
ENDBRANCH   1   7
TORSDOF 2
ENDMDL
MODEL 3
REMARK VINA RESULT:      -3.9     11.530     12.756
REMARK  2 active torsions:
REMARK  status: ('A' for Active; 'I' for Inactive)
REMARK    1  A    between atoms: C1_1  and  C5_5 
REMARK       I    between atoms: C1_1  and  N7_7 
REMARK    2  A    between atoms: C5_5  and  C6_6 
ROOT
HETATM    1  C1  UNL     1     -34.693  13.942  -4.403  1.00 20.00     0.220 C 
HETATM    2  C2  UNL     1     -34.453  15.381  -7.477  1.00 20.00     0.040 C 
HETATM    3  C3  UNL     1     -35.171  14.149  -6.913  1.00 20.00     0.127 C 
HETATM    4  C4  UNL     1     -34.323  15.911  -6.044  1.00 20.00     0.127 C 
HETATM    5  N7  UNL     1     -34.705  14.583  -5.611  1.00 20.00    -0.352 N 
HETATM    6  O8  UNL     1     -35.112  12.800  -4.222  1.00 20.00    -0.273 OA
ENDROOT
BRANCH   1   7
HETATM    7  C5  UNL     1     -34.110  14.752  -3.277  1.00 20.00     0.118 C 
BRANCH   7   8
HETATM    8  C6  UNL     1     -35.191  15.551  -2.577  1.00 20.00     0.124 C 
HETATM    9 CL9  UNL     1     -34.561  16.378  -1.131  1.00 20.00    -0.130 Cl
ENDBRANCH   7   8
ENDBRANCH   1   7
TORSDOF 2
ENDMDL
MODEL 4
REMARK VINA RESULT:      -3.8     11.855     12.232
REMARK  2 active torsions:
REMARK  status: ('A' for Active; 'I' for Inactive)
REMARK    1  A    between atoms: C1_1  and  C5_5 
REMARK       I    between atoms: C1_1  and  N7_7 
REMARK    2  A    between atoms: C5_5  and  C6_6 
ROOT
HETATM    1  C1  UNL     1     -35.568  14.189  -4.061  1.00 20.00     0.220 C 
HETATM    2  C2  UNL     1     -33.731  16.534  -2.416  1.00 20.00     0.040 C 
HETATM    3  C3  UNL     1     -35.083  15.854  -2.173  1.00 20.00     0.127 C 
HETATM    4  C4  UNL     1     -33.380  15.398  -3.385  1.00 20.00     0.127 C 
HETATM    5  N7  UNL     1     -34.781  15.035  -3.331  1.00 20.00    -0.352 N 
HETATM    6  O8  UNL     1     -36.756  13.976  -3.828  1.00 20.00    -0.273 OA
ENDROOT
BRANCH   1   7
HETATM    7  C5  UNL     1     -34.861  13.521  -5.210  1.00 20.00     0.118 C 
BRANCH   7   8
HETATM    8  C6  UNL     1     -35.231  14.181  -6.522  1.00 20.00     0.124 C 
HETATM    9 CL9  UNL     1     -34.110  15.505  -6.929  1.00 20.00    -0.130 Cl
ENDBRANCH   7   8
ENDBRANCH   1   7
TORSDOF 2
ENDMDL
MODEL 5
REMARK VINA RESULT:      -3.8     12.237     13.169
REMARK  2 active torsions:
REMARK  status: ('A' for Active; 'I' for Inactive)
REMARK    1  A    between atoms: C1_1  and  C5_5 
REMARK       I    between atoms: C1_1  and  N7_7 
REMARK    2  A    between atoms: C5_5  and  C6_6 
ROOT
HETATM    1  C1  UNL     1     -33.622  15.978  -4.551  1.00 20.00     0.220 C 
HETATM    2  C2  UNL     1     -35.323  14.329  -6.993  1.00 20.00     0.040 C 
HETATM    3  C3  UNL     1     -34.294  15.465  -6.971  1.00 20.00     0.127 C 
HETATM    4  C4  UNL     1     -34.888  13.961  -5.570  1.00 20.00     0.127 C 
HETATM    5  N7  UNL     1     -34.204  15.237  -5.542  1.00 20.00    -0.352 N 
HETATM    6  O8  UNL     1     -33.035  17.043  -4.737  1.00 20.00    -0.273 OA
ENDROOT
BRANCH   1   7
HETATM    7  C5  UNL     1     -33.757  15.386  -3.174  1.00 20.00     0.118 C 
BRANCH   7   8
HETATM    8  C6  UNL     1     -34.979  15.941  -2.471  1.00 20.00     0.124 C 
HETATM    9 CL9  UNL     1     -34.582  16.534  -0.839  1.00 20.00    -0.130 Cl
ENDBRANCH   7   8
ENDBRANCH   1   7
TORSDOF 2
ENDMDL
MODEL 6
REMARK VINA RESULT:      -3.8     11.807     12.414
REMARK  2 active torsions:
REMARK  status: ('A' for Active; 'I' for Inactive)
REMARK    1  A    between atoms: C1_1  and  C5_5 
REMARK       I    between atoms: C1_1  and  N7_7 
REMARK    2  A    between atoms: C5_5  and  C6_6 
ROOT
HETATM    1  C1  UNL     1     -33.283  15.761  -3.897  1.00 20.00     0.220 C 
HETATM    2  C2  UNL     1     -34.241  17.601  -1.200  1.00 20.00     0.040 C 
HETATM    3  C3  UNL     1     -33.830  17.927  -2.640  1.00 20.00     0.127 C 
HETATM    4  C4  UNL     1     -34.496  16.155  -1.643  1.00 20.00     0.127 C 
HETATM    5  N7  UNL     1     -33.787  16.495  -2.859  1.00 20.00    -0.352 N 
HETATM    6  O8  UNL     1     -32.740  16.246  -4.888  1.00 20.00    -0.273 OA
ENDROOT
BRANCH   1   7
HETATM    7  C5  UNL     1     -33.436  14.272  -3.735  1.00 20.00     0.118 C 
BRANCH   7   8
HETATM    8  C6  UNL     1     -34.459  13.731  -4.712  1.00 20.00     0.124 C 
HETATM    9 CL9  UNL     1     -36.123  14.062  -4.169  1.00 20.00    -0.130 Cl
ENDBRANCH   7   8
ENDBRANCH   1   7
TORSDOF 2
ENDMDL
MODEL 7
REMARK VINA RESULT:      -3.6     11.588     12.418
REMARK  2 active torsions:
REMARK  status: ('A' for Active; 'I' for Inactive)
REMARK    1  A    between atoms: C1_1  and  C5_5 
REMARK       I    between atoms: C1_1  and  N7_7 
REMARK    2  A    between atoms: C5_5  and  C6_6 
ROOT
HETATM    1  C1  UNL     1     -33.876  16.296  -3.843  1.00 20.00     0.220 C 
HETATM    2  C2  UNL     1     -34.853  13.228  -4.943  1.00 20.00     0.040 C 
HETATM    3  C3  UNL     1     -34.372  14.517  -5.620  1.00 20.00     0.127 C 
HETATM    4  C4  UNL     1     -34.254  13.743  -3.629  1.00 20.00     0.127 C 
HETATM    5  N7  UNL     1     -34.145  15.030  -4.283  1.00 20.00    -0.352 N 
HETATM    6  O8  UNL     1     -33.778  17.278  -4.577  1.00 20.00    -0.273 OA
ENDROOT
BRANCH   1   7
HETATM    7  C5  UNL     1     -33.709  16.411  -2.351  1.00 20.00     0.118 C 
BRANCH   7   8
HETATM    8  C6  UNL     1     -34.966  16.967  -1.714  1.00 20.00     0.124 C 
HETATM    9 CL9  UNL     1     -34.823  17.040   0.061  1.00 20.00    -0.130 Cl
ENDBRANCH   7   8
ENDBRANCH   1   7
TORSDOF 2
ENDMDL
MODEL 8
REMARK VINA RESULT:      -3.5     11.547     12.827
REMARK  2 active torsions:
REMARK  status: ('A' for Active; 'I' for Inactive)
REMARK    1  A    between atoms: C1_1  and  C5_5 
REMARK       I    between atoms: C1_1  and  N7_7 
REMARK    2  A    between atoms: C5_5  and  C6_6 
ROOT
HETATM    1  C1  UNL     1     -35.779  14.572  -4.110  1.00 20.00     0.220 C 
HETATM    2  C2  UNL     1     -35.504  14.620  -7.501  1.00 20.00     0.040 C 
HETATM    3  C3  UNL     1     -36.632  14.908  -6.504  1.00 20.00     0.127 C 
HETATM    4  C4  UNL     1     -34.502  14.785  -6.353  1.00 20.00     0.127 C 
HETATM    5  N7  UNL     1     -35.642  14.716  -5.463  1.00 20.00    -0.352 N 
HETATM    6  O8  UNL     1     -36.858  14.583  -3.519  1.00 20.00    -0.273 OA
ENDROOT
BRANCH   1   7
HETATM    7  C5  UNL     1     -34.480  14.387  -3.371  1.00 20.00     0.118 C 
BRANCH   7   8
HETATM    8  C6  UNL     1     -33.940  15.721  -2.899  1.00 20.00     0.124 C 
HETATM    9 CL9  UNL     1     -34.683  16.220  -1.359  1.00 20.00    -0.130 Cl
ENDBRANCH   7   8
ENDBRANCH   1   7
TORSDOF 2
ENDMDL
MODEL 9
REMARK VINA RESULT:      -3.5     10.588     11.146
REMARK  2 active torsions:
REMARK  status: ('A' for Active; 'I' for Inactive)
REMARK    1  A    between atoms: C1_1  and  C5_5 
REMARK       I    between atoms: C1_1  and  N7_7 
REMARK    2  A    between atoms: C5_5  and  C6_6 
ROOT
HETATM    1  C1  UNL     1     -42.418   4.884  -2.653  1.00 20.00     0.220 C 
HETATM    2  C2  UNL     1     -41.129   7.520  -0.930  1.00 20.00     0.040 C 
HETATM    3  C3  UNL     1     -42.344   7.314  -1.841  1.00 20.00     0.127 C 
HETATM    4  C4  UNL     1     -41.055   5.998  -0.753  1.00 20.00     0.127 C 
HETATM    5  N7  UNL     1     -41.979   5.912  -1.864  1.00 20.00    -0.352 N 
HETATM    6  O8  UNL     1     -43.261   5.003  -3.539  1.00 20.00    -0.273 OA
ENDROOT
BRANCH   1   7
HETATM    7  C5  UNL     1     -41.773   3.556  -2.356  1.00 20.00     0.118 C 
BRANCH   7   8
HETATM    8  C6  UNL     1     -42.371   2.466  -3.222  1.00 20.00     0.124 C 
HETATM    9 CL9  UNL     1     -41.119   1.621  -4.166  1.00 20.00    -0.130 Cl
ENDBRANCH   7   8
ENDBRANCH   1   7
TORSDOF 2
ENDMDL
