MODEL 1
REMARK VINA RESULT:      -4.1      0.000      0.000
REMARK  2 active torsions:
REMARK  status: ('A' for Active; 'I' for Inactive)
REMARK    1  A    between atoms: C6_6  and  C7_7 
REMARK    2  A    between atoms: C7_7  and  N9_9 
ROOT
HETATM    1  C1  UNL     1     -35.211  13.823  -4.130  1.00 20.00     0.101 C 
HETATM    2  C4  UNL     1     -35.764  16.035  -5.040  1.00 20.00     0.066 C 
HETATM    3  C7  UNL     1     -35.485  15.228  -3.762  1.00 20.00     0.243 C 
HETATM    4  N8  UNL     1     -34.996  12.719  -4.420  1.00 20.00    -0.195 NA
ENDROOT
BRANCH   3   5
HETATM    5  C6  UNL     1     -34.315  15.847  -2.931  1.00 20.00     0.030 C 
HETATM    6  C2  UNL     1     -34.727  16.284  -1.518  1.00 20.00     0.013 C 
HETATM    7  C3  UNL     1     -33.635  17.031  -3.639  1.00 20.00     0.013 C 
ENDBRANCH   3   5
BRANCH   3   8
HETATM    8  N9  UNL     1     -36.702  15.275  -2.962  1.00 20.00     0.102 N 
HETATM    9  C5  UNL     1     -37.870  14.951  -3.770  1.00 20.00     0.309 C 
HETATM   10  H23 UNL     1     -36.812  16.211  -2.574  1.00 20.00     0.317 HD
ENDBRANCH   3   8
TORSDOF 2
ENDMDL
MODEL 2
REMARK VINA RESULT:      -4.0      1.627      2.580
REMARK  2 active torsions:
REMARK  status: ('A' for Active; 'I' for Inactive)
REMARK    1  A    between atoms: C6_6  and  C7_7 
REMARK    2  A    between atoms: C7_7  and  N9_9 
ROOT
HETATM    1  C1  UNL     1     -34.684  13.750  -4.291  1.00 20.00     0.101 C 
HETATM    2  C4  UNL     1     -32.857  15.212  -3.546  1.00 20.00     0.066 C 
HETATM    3  C7  UNL     1     -34.354  15.133  -3.884  1.00 20.00     0.243 C 
HETATM    4  N8  UNL     1     -34.941  12.664  -4.610  1.00 20.00    -0.195 NA
ENDROOT
BRANCH   3   5
HETATM    5  C6  UNL     1     -35.243  15.612  -2.691  1.00 20.00     0.030 C 
HETATM    6  C2  UNL     1     -36.433  16.482  -3.120  1.00 20.00     0.013 C 
HETATM    7  C3  UNL     1     -34.445  16.360  -1.609  1.00 20.00     0.013 C 
ENDBRANCH   3   5
BRANCH   3   8
HETATM    8  N9  UNL     1     -34.576  16.021  -5.017  1.00 20.00     0.102 N 
HETATM    9  C5  UNL     1     -33.393  16.826  -5.289  1.00 20.00     0.309 C 
HETATM   10  H23 UNL     1     -35.361  16.638  -4.810  1.00 20.00     0.317 HD
ENDBRANCH   3   8
TORSDOF 2
ENDMDL
MODEL 3
REMARK VINA RESULT:      -4.0      1.651      2.500
REMARK  2 active torsions:
REMARK  status: ('A' for Active; 'I' for Inactive)
REMARK    1  A    between atoms: C6_6  and  C7_7 
REMARK    2  A    between atoms: C7_7  and  N9_9 
ROOT
HETATM    1  C1  UNL     1     -36.645  14.399  -4.020  1.00 20.00     0.101 C 
HETATM    2  C4  UNL     1     -34.774  13.106  -4.946  1.00 20.00     0.066 C 
HETATM    3  C7  UNL     1     -35.211  14.464  -4.375  1.00 20.00     0.243 C 
HETATM    4  N8  UNL     1     -37.771  14.345  -3.743  1.00 20.00    -0.195 NA
ENDROOT
BRANCH   3   5
HETATM    5  C6  UNL     1     -34.333  14.888  -3.154  1.00 20.00     0.030 C 
HETATM    6  C2  UNL     1     -34.938  16.031  -2.327  1.00 20.00     0.013 C 
HETATM    7  C3  UNL     1     -32.895  15.269  -3.550  1.00 20.00     0.013 C 
ENDBRANCH   3   5
BRANCH   3   8
HETATM    8  N9  UNL     1     -35.035  15.444  -5.439  1.00 20.00     0.102 N 
HETATM    9  C5  UNL     1     -34.807  14.787  -6.719  1.00 20.00     0.309 C 
HETATM   10  H23 UNL     1     -34.235  16.037  -5.219  1.00 20.00     0.317 HD
ENDBRANCH   3   8
TORSDOF 2
ENDMDL
MODEL 4
REMARK VINA RESULT:      -3.9      2.148      3.702
REMARK  2 active torsions:
REMARK  status: ('A' for Active; 'I' for Inactive)
REMARK    1  A    between atoms: C6_6  and  C7_7 
REMARK    2  A    between atoms: C7_7  and  N9_9 
ROOT
HETATM    1  C1  UNL     1     -34.655  13.780  -5.041  1.00 20.00     0.101 C 
HETATM    2  C4  UNL     1     -35.578  16.047  -4.843  1.00 20.00     0.066 C 
HETATM    3  C7  UNL     1     -34.467  15.184  -5.464  1.00 20.00     0.243 C 
HETATM    4  N8  UNL     1     -34.803  12.678  -4.707  1.00 20.00    -0.195 NA
ENDROOT
BRANCH   3   5
HETATM    5  C6  UNL     1     -34.431  15.318  -7.020  1.00 20.00     0.030 C 
HETATM    6  C2  UNL     1     -34.574  16.764  -7.518  1.00 20.00     0.013 C 
HETATM    7  C3  UNL     1     -35.485  14.445  -7.724  1.00 20.00     0.013 C 
ENDBRANCH   3   5
BRANCH   3   8
HETATM    8  N9  UNL     1     -33.205  15.672  -4.924  1.00 20.00     0.102 N 
HETATM    9  C5  UNL     1     -33.316  15.936  -3.496  1.00 20.00     0.309 C 
HETATM   10  H23 UNL     1     -32.946  16.534  -5.405  1.00 20.00     0.317 HD
ENDBRANCH   3   8
TORSDOF 2
ENDMDL
MODEL 5
REMARK VINA RESULT:      -3.9      1.731      2.613
REMARK  2 active torsions:
REMARK  status: ('A' for Active; 'I' for Inactive)
REMARK    1  A    between atoms: C6_6  and  C7_7 
REMARK    2  A    between atoms: C7_7  and  N9_9 
ROOT
HETATM    1  C1  UNL     1     -37.007  14.760  -3.671  1.00 20.00     0.101 C 
HETATM    2  C4  UNL     1     -35.452  16.426  -4.585  1.00 20.00     0.066 C 
HETATM    3  C7  UNL     1     -35.657  15.342  -3.515  1.00 20.00     0.243 C 
HETATM    4  N8  UNL     1     -38.067  14.304  -3.796  1.00 20.00    -0.195 NA
ENDROOT
BRANCH   3   5
HETATM    5  C6  UNL     1     -34.545  14.247  -3.579  1.00 20.00     0.030 C 
HETATM    6  C2  UNL     1     -33.121  14.818  -3.648  1.00 20.00     0.013 C 
HETATM    7  C3  UNL     1     -34.740  13.259  -4.742  1.00 20.00     0.013 C 
ENDBRANCH   3   5
BRANCH   3   8
HETATM    8  N9  UNL     1     -35.581  16.010  -2.222  1.00 20.00     0.102 N 
HETATM    9  C5  UNL     1     -35.704  17.453  -2.372  1.00 20.00     0.309 C 
HETATM   10  H23 UNL     1     -34.685  15.793  -1.785  1.00 20.00     0.317 HD
ENDBRANCH   3   8
TORSDOF 2
ENDMDL
MODEL 6
REMARK VINA RESULT:      -3.9      1.792      2.054
REMARK  2 active torsions:
REMARK  status: ('A' for Active; 'I' for Inactive)
REMARK    1  A    between atoms: C6_6  and  C7_7 
REMARK    2  A    between atoms: C7_7  and  N9_9 
ROOT
HETATM    1  C1  UNL     1     -34.746  13.774  -4.982  1.00 20.00     0.101 C 
HETATM    2  C4  UNL     1     -34.371  15.045  -7.049  1.00 20.00     0.066 C 
HETATM    3  C7  UNL     1     -34.612  15.139  -5.534  1.00 20.00     0.243 C 
HETATM    4  N8  UNL     1     -34.851  12.702  -4.550  1.00 20.00    -0.195 NA
ENDROOT
BRANCH   3   5
HETATM    5  C6  UNL     1     -33.481  15.944  -4.817  1.00 20.00     0.030 C 
HETATM    6  C2  UNL     1     -33.512  15.820  -3.286  1.00 20.00     0.013 C 
HETATM    7  C3  UNL     1     -33.472  17.436  -5.194  1.00 20.00     0.013 C 
ENDBRANCH   3   5
BRANCH   3   8
HETATM    8  N9  UNL     1     -35.874  15.844  -5.353  1.00 20.00     0.102 N 
HETATM    9  C5  UNL     1     -36.865  15.398  -6.322  1.00 20.00     0.309 C 
HETATM   10  H23 UNL     1     -35.718  16.846  -5.469  1.00 20.00     0.317 HD
ENDBRANCH   3   8
TORSDOF 2
ENDMDL
MODEL 7
REMARK VINA RESULT:      -3.8      1.431      3.264
REMARK  2 active torsions:
REMARK  status: ('A' for Active; 'I' for Inactive)
REMARK    1  A    between atoms: C6_6  and  C7_7 
REMARK    2  A    between atoms: C7_7  and  N9_9 
ROOT
HETATM    1  C1  UNL     1     -36.754  14.461  -3.918  1.00 20.00     0.101 C 
HETATM    2  C4  UNL     1     -34.827  15.548  -2.853  1.00 20.00     0.066 C 
HETATM    3  C7  UNL     1     -35.292  14.658  -4.017  1.00 20.00     0.243 C 
HETATM    4  N8  UNL     1     -37.901  14.306  -3.839  1.00 20.00    -0.195 NA
ENDROOT
BRANCH   3   5
HETATM    5  C6  UNL     1     -34.882  15.256  -5.401  1.00 20.00     0.030 C 
HETATM    6  C2  UNL     1     -35.394  16.685  -5.631  1.00 20.00     0.013 C 
HETATM    7  C3  UNL     1     -35.314  14.377  -6.588  1.00 20.00     0.013 C 
ENDBRANCH   3   5
BRANCH   3   8
HETATM    8  N9  UNL     1     -34.632  13.370  -3.851  1.00 20.00     0.102 N 
HETATM    9  C5  UNL     1     -33.197  13.539  -3.668  1.00 20.00     0.309 C 
HETATM   10  H23 UNL     1     -34.799  12.799  -4.679  1.00 20.00     0.317 HD
ENDBRANCH   3   8
TORSDOF 2
ENDMDL
MODEL 8
REMARK VINA RESULT:      -3.8      1.428      2.563
REMARK  2 active torsions:
REMARK  status: ('A' for Active; 'I' for Inactive)
REMARK    1  A    between atoms: C6_6  and  C7_7 
REMARK    2  A    between atoms: C7_7  and  N9_9 
ROOT
HETATM    1  C1  UNL     1     -36.668  14.674  -3.833  1.00 20.00     0.101 C 
HETATM    2  C4  UNL     1     -34.341  13.932  -3.591  1.00 20.00     0.066 C 
HETATM    3  C7  UNL     1     -35.260  15.093  -4.001  1.00 20.00     0.243 C 
HETATM    4  N8  UNL     1     -37.774  14.343  -3.702  1.00 20.00    -0.195 NA
ENDROOT
BRANCH   3   5
HETATM    5  C6  UNL     1     -34.945  16.394  -3.195  1.00 20.00     0.030 C 
HETATM    6  C2  UNL     1     -33.751  17.186  -3.745  1.00 20.00     0.013 C 
HETATM    7  C3  UNL     1     -34.719  16.132  -1.695  1.00 20.00     0.013 C 
ENDBRANCH   3   5
BRANCH   3   8
HETATM    8  N9  UNL     1     -35.012  15.347  -5.414  1.00 20.00     0.102 N 
HETATM    9  C5  UNL     1     -35.046  14.110  -6.180  1.00 20.00     0.309 C 
HETATM   10  H23 UNL     1     -34.095  15.782  -5.519  1.00 20.00     0.317 HD
ENDBRANCH   3   8
TORSDOF 2
ENDMDL
MODEL 9
REMARK VINA RESULT:      -3.7      1.848      2.935
REMARK  2 active torsions:
REMARK  status: ('A' for Active; 'I' for Inactive)
REMARK    1  A    between atoms: C6_6  and  C7_7 
REMARK    2  A    between atoms: C7_7  and  N9_9 
ROOT
HETATM    1  C1  UNL     1     -34.523  13.708  -4.720  1.00 20.00     0.101 C 
HETATM    2  C4  UNL     1     -33.100  15.392  -3.640  1.00 20.00     0.066 C 
HETATM    3  C7  UNL     1     -34.167  15.143  -4.718  1.00 20.00     0.243 C 
HETATM    4  N8  UNL     1     -34.801  12.581  -4.720  1.00 20.00    -0.195 NA
ENDROOT
BRANCH   3   5
HETATM    5  C6  UNL     1     -35.423  16.049  -4.510  1.00 20.00     0.030 C 
HETATM    6  C2  UNL     1     -35.081  17.519  -4.225  1.00 20.00     0.013 C 
HETATM    7  C3  UNL     1     -36.361  15.534  -3.405  1.00 20.00     0.013 C 
ENDBRANCH   3   5
BRANCH   3   8
HETATM    8  N9  UNL     1     -33.557  15.476  -5.998  1.00 20.00     0.102 N 
HETATM    9  C5  UNL     1     -34.454  15.161  -7.101  1.00 20.00     0.309 C 
HETATM   10  H23 UNL     1     -32.693  14.945  -6.106  1.00 20.00     0.317 HD
ENDBRANCH   3   8
TORSDOF 2
ENDMDL
