MODEL 1
REMARK VINA RESULT:      -3.7      0.000      0.000
REMARK  1 active torsions:
REMARK  status: ('A' for Active; 'I' for Inactive)
REMARK    1  A    between atoms: C1_1  and  S9_9 
ROOT
HETATM    1  C1  UNL     1     -33.933  16.668  -4.399  1.00 20.00     0.047 A 
HETATM    2  C2  UNL     1     -34.007  16.102  -3.112  1.00 20.00     0.069 A 
HETATM    3  C3  UNL     1     -34.161  15.616  -5.251  1.00 20.00     0.044 A 
HETATM    4  C4  UNL     1     -33.841  16.771  -1.807  1.00 20.00     0.074 C 
HETATM    5  C5  UNL     1     -34.215  15.540  -6.724  1.00 20.00     0.071 C 
HETATM    6  C6  UNL     1     -34.625  13.173  -4.882  1.00 20.00     0.179 C 
HETATM    7  N7  UNL     1     -34.262  14.791  -3.140  1.00 20.00    -0.176 NA
HETATM    8  N8  UNL     1     -34.350  14.525  -4.454  1.00 20.00    -0.277 N 
ENDROOT
BRANCH   1   9
HETATM    9  S9  UNL     1     -33.621  18.329  -4.804  1.00 20.00    -0.139 SA
HETATM   10  H19 UNL     1     -34.672  18.902  -4.183  1.00 20.00     0.107 HD
ENDBRANCH   1   9
TORSDOF 1
ENDMDL
MODEL 2
REMARK VINA RESULT:      -3.5      2.316      3.990
REMARK  1 active torsions:
REMARK  status: ('A' for Active; 'I' for Inactive)
REMARK    1  A    between atoms: C1_1  and  S9_9 
ROOT
HETATM    1  C1  UNL     1     -34.216  15.204  -4.629  1.00 20.00     0.047 A 
HETATM    2  C2  UNL     1     -34.207  15.719  -5.940  1.00 20.00     0.069 A 
HETATM    3  C3  UNL     1     -33.955  16.290  -3.831  1.00 20.00     0.044 A 
HETATM    4  C4  UNL     1     -34.430  14.998  -7.207  1.00 20.00     0.074 C 
HETATM    5  C5  UNL     1     -33.829  16.424  -2.366  1.00 20.00     0.071 C 
HETATM    6  C6  UNL     1     -33.528  18.719  -4.318  1.00 20.00     0.179 C 
HETATM    7  N7  UNL     1     -33.960  17.031  -5.976  1.00 20.00    -0.176 NA
HETATM    8  N8  UNL     1     -33.811  17.350  -4.679  1.00 20.00    -0.277 N 
ENDROOT
BRANCH   1   9
HETATM    9  S9  UNL     1     -34.494  13.558  -4.145  1.00 20.00    -0.139 SA
HETATM   10  H19 UNL     1     -35.699  13.367  -4.718  1.00 20.00     0.107 HD
ENDBRANCH   1   9
TORSDOF 1
ENDMDL
MODEL 3
REMARK VINA RESULT:      -3.4      1.992      3.118
REMARK  1 active torsions:
REMARK  status: ('A' for Active; 'I' for Inactive)
REMARK    1  A    between atoms: C1_1  and  S9_9 
ROOT
HETATM    1  C1  UNL     1     -34.352  17.853  -3.736  1.00 20.00     0.047 A 
HETATM    2  C2  UNL     1     -33.669  17.714  -4.960  1.00 20.00     0.069 A 
HETATM    3  C3  UNL     1     -34.068  16.698  -3.051  1.00 20.00     0.044 A 
HETATM    4  C4  UNL     1     -33.618  18.660  -6.091  1.00 20.00     0.074 C 
HETATM    5  C5  UNL     1     -34.477  16.224  -1.714  1.00 20.00     0.071 C 
HETATM    6  C6  UNL     1     -32.695  14.665  -3.601  1.00 20.00     0.179 C 
HETATM    7  N7  UNL     1     -33.001  16.560  -5.049  1.00 20.00    -0.176 NA
HETATM    8  N8  UNL     1     -33.263  15.964  -3.873  1.00 20.00    -0.277 N 
ENDROOT
BRANCH   1   9
HETATM    9  S9  UNL     1     -35.332  19.192  -3.222  1.00 20.00    -0.139 SA
HETATM   10  H19 UNL     1     -34.476  20.200  -3.487  1.00 20.00     0.107 HD
ENDBRANCH   1   9
TORSDOF 1
ENDMDL
MODEL 4
REMARK VINA RESULT:      -3.4      2.308      2.849
REMARK  1 active torsions:
REMARK  status: ('A' for Active; 'I' for Inactive)
REMARK    1  A    between atoms: C1_1  and  S9_9 
ROOT
HETATM    1  C1  UNL     1     -34.358  15.406  -4.208  1.00 20.00     0.047 A 
HETATM    2  C2  UNL     1     -34.237  16.398  -3.216  1.00 20.00     0.069 A 
HETATM    3  C3  UNL     1     -34.143  16.073  -5.389  1.00 20.00     0.044 A 
HETATM    4  C4  UNL     1     -34.372  16.251  -1.754  1.00 20.00     0.074 C 
HETATM    5  C5  UNL     1     -34.133  15.608  -6.790  1.00 20.00     0.071 C 
HETATM    6  C6  UNL     1     -33.634  18.471  -5.942  1.00 20.00     0.179 C 
HETATM    7  N7  UNL     1     -33.965  17.604  -3.724  1.00 20.00    -0.176 NA
HETATM    8  N8  UNL     1     -33.914  17.374  -5.046  1.00 20.00    -0.277 N 
ENDROOT
BRANCH   1   9
HETATM    9  S9  UNL     1     -34.706  13.720  -3.975  1.00 20.00    -0.139 SA
HETATM   10  H19 UNL     1     -35.958  13.824  -3.485  1.00 20.00     0.107 HD
ENDBRANCH   1   9
TORSDOF 1
ENDMDL
MODEL 5
REMARK VINA RESULT:      -3.4      1.504      3.024
REMARK  1 active torsions:
REMARK  status: ('A' for Active; 'I' for Inactive)
REMARK    1  A    between atoms: C1_1  and  S9_9 
ROOT
HETATM    1  C1  UNL     1     -34.260  15.634  -5.135  1.00 20.00     0.047 A 
HETATM    2  C2  UNL     1     -34.530  14.621  -4.196  1.00 20.00     0.069 A 
HETATM    3  C3  UNL     1     -33.930  16.729  -4.375  1.00 20.00     0.044 A 
HETATM    4  C4  UNL     1     -34.936  13.225  -4.447  1.00 20.00     0.074 C 
HETATM    5  C5  UNL     1     -33.544  18.104  -4.750  1.00 20.00     0.071 C 
HETATM    6  C6  UNL     1     -33.765  17.116  -1.897  1.00 20.00     0.179 C 
HETATM    7  N7  UNL     1     -34.385  15.036  -2.934  1.00 20.00    -0.176 NA
HETATM    8  N8  UNL     1     -34.019  16.322  -3.076  1.00 20.00    -0.277 N 
ENDROOT
BRANCH   1   9
HETATM    9  S9  UNL     1     -34.333  15.513  -6.867  1.00 20.00    -0.139 SA
HETATM   10  H19 UNL     1     -34.755  16.761  -7.152  1.00 20.00     0.107 HD
ENDBRANCH   1   9
TORSDOF 1
ENDMDL
MODEL 6
REMARK VINA RESULT:      -3.3      2.468      3.236
REMARK  1 active torsions:
REMARK  status: ('A' for Active; 'I' for Inactive)
REMARK    1  A    between atoms: C1_1  and  S9_9 
ROOT
HETATM    1  C1  UNL     1     -36.224  16.016  -3.178  1.00 20.00     0.047 A 
HETATM    2  C2  UNL     1     -36.852  14.922  -3.804  1.00 20.00     0.069 A 
HETATM    3  C3  UNL     1     -34.901  15.656  -3.102  1.00 20.00     0.044 A 
HETATM    4  C4  UNL     1     -38.278  14.757  -4.144  1.00 20.00     0.074 C 
HETATM    5  C5  UNL     1     -33.723  16.359  -2.556  1.00 20.00     0.071 C 
HETATM    6  C6  UNL     1     -33.631  13.610  -3.823  1.00 20.00     0.179 C 
HETATM    7  N7  UNL     1     -35.996  13.940  -4.104  1.00 20.00    -0.176 NA
HETATM    8  N8  UNL     1     -34.819  14.416  -3.665  1.00 20.00    -0.277 N 
ENDROOT
BRANCH   1   9
HETATM    9  S9  UNL     1     -36.970  17.486  -2.628  1.00 20.00    -0.139 SA
HETATM   10  H19 UNL     1     -37.225  18.057  -3.823  1.00 20.00     0.107 HD
ENDBRANCH   1   9
TORSDOF 1
ENDMDL
MODEL 7
REMARK VINA RESULT:      -3.3      2.063      2.112
REMARK  1 active torsions:
REMARK  status: ('A' for Active; 'I' for Inactive)
REMARK    1  A    between atoms: C1_1  and  S9_9 
ROOT
HETATM    1  C1  UNL     1     -36.147  16.250  -3.343  1.00 20.00     0.047 A 
HETATM    2  C2  UNL     1     -35.075  15.834  -2.531  1.00 20.00     0.069 A 
HETATM    3  C3  UNL     1     -36.166  15.347  -4.378  1.00 20.00     0.044 A 
HETATM    4  C4  UNL     1     -34.590  16.439  -1.276  1.00 20.00     0.074 C 
HETATM    5  C5  UNL     1     -37.042  15.226  -5.559  1.00 20.00     0.071 C 
HETATM    6  C6  UNL     1     -34.754  13.344  -4.938  1.00 20.00     0.179 C 
HETATM    7  N7  UNL     1     -34.457  14.750  -3.010  1.00 20.00    -0.176 NA
HETATM    8  N8  UNL     1     -35.143  14.478  -4.133  1.00 20.00    -0.277 N 
ENDROOT
BRANCH   1   9
HETATM    9  S9  UNL     1     -37.202  17.606  -3.084  1.00 20.00    -0.139 SA
HETATM   10  H19 UNL     1     -36.965  18.284  -4.225  1.00 20.00     0.107 HD
ENDBRANCH   1   9
TORSDOF 1
ENDMDL
MODEL 8
REMARK VINA RESULT:      -3.3      1.129      2.949
REMARK  1 active torsions:
REMARK  status: ('A' for Active; 'I' for Inactive)
REMARK    1  A    between atoms: C1_1  and  S9_9 
ROOT
HETATM    1  C1  UNL     1     -34.005  16.766  -5.432  1.00 20.00     0.047 A 
HETATM    2  C2  UNL     1     -34.468  16.197  -6.634  1.00 20.00     0.069 A 
HETATM    3  C3  UNL     1     -33.925  15.708  -4.560  1.00 20.00     0.044 A 
HETATM    4  C4  UNL     1     -34.741  16.870  -7.918  1.00 20.00     0.074 C 
HETATM    5  C5  UNL     1     -33.509  15.632  -3.145  1.00 20.00     0.071 C 
HETATM    6  C6  UNL     1     -34.417  13.253  -4.784  1.00 20.00     0.179 C 
HETATM    7  N7  UNL     1     -34.668  14.880  -6.537  1.00 20.00    -0.176 NA
HETATM    8  N8  UNL     1     -34.328  14.612  -5.265  1.00 20.00    -0.277 N 
ENDROOT
BRANCH   1   9
HETATM    9  S9  UNL     1     -33.627  18.435  -5.132  1.00 20.00    -0.139 SA
HETATM   10  H19 UNL     1     -32.337  18.300  -4.764  1.00 20.00     0.107 HD
ENDBRANCH   1   9
TORSDOF 1
ENDMDL
MODEL 9
REMARK VINA RESULT:      -3.2      3.121      3.545
REMARK  1 active torsions:
REMARK  status: ('A' for Active; 'I' for Inactive)
REMARK    1  A    between atoms: C1_1  and  S9_9 
ROOT
HETATM    1  C1  UNL     1     -35.839  14.859  -5.646  1.00 20.00     0.047 A 
HETATM    2  C2  UNL     1     -35.724  14.167  -4.425  1.00 20.00     0.069 A 
HETATM    3  C3  UNL     1     -37.158  15.237  -5.705  1.00 20.00     0.044 A 
HETATM    4  C4  UNL     1     -34.526  13.536  -3.841  1.00 20.00     0.074 C 
HETATM    5  C5  UNL     1     -37.920  15.988  -6.722  1.00 20.00     0.071 C 
HETATM    6  C6  UNL     1     -39.110  14.912  -4.155  1.00 20.00     0.179 C 
HETATM    7  N7  UNL     1     -36.879  14.108  -3.756  1.00 20.00    -0.176 NA
HETATM    8  N8  UNL     1     -37.731  14.767  -4.559  1.00 20.00    -0.277 N 
ENDROOT
BRANCH   1   9
HETATM    9  S9  UNL     1     -34.584  15.158  -6.810  1.00 20.00    -0.139 SA
HETATM   10  H19 UNL     1     -33.512  15.073  -5.997  1.00 20.00     0.107 HD
ENDBRANCH   1   9
TORSDOF 1
ENDMDL
