MODEL 1
REMARK VINA RESULT:      -5.2      0.000      0.000
REMARK  4 active torsions:
REMARK  status: ('A' for Active; 'I' for Inactive)
REMARK    1  A    between atoms: C3_3  and  C6_6 
REMARK    2  A    between atoms: C3_3  and  C7_7 
REMARK    3  A    between atoms: C5_5  and  C6_6 
REMARK    4  A    between atoms: C7_7  and  C8_8 
ROOT
HETATM    1  C1  UNL     1     -33.675   7.113   6.660  1.00 20.00     0.012 C 
HETATM    2  C2  UNL     1     -34.270   6.089   6.465  1.00 20.00    -0.117 C 
HETATM    3  C5  UNL     1     -34.998   4.834   6.226  1.00 20.00     0.100 C 
ENDROOT
BRANCH   3   4
HETATM    4  C6  UNL     1     -34.705   4.259   4.843  1.00 20.00     0.090 C 
BRANCH   4   5
HETATM    5  C3  UNL     1     -35.006   5.222   3.700  1.00 20.00     0.127 C 
HETATM    6  O9  UNL     1     -36.082   5.809   3.600  1.00 20.00    -0.298 OA
BRANCH   5   7
HETATM    7  C7  UNL     1     -33.876   5.423   2.702  1.00 20.00     0.078 C 
BRANCH   7   8
HETATM    8  C8  UNL     1     -32.637   6.047   3.337  1.00 20.00     0.003 C 
HETATM    9  C4  UNL     1     -32.325   7.407   2.735  1.00 20.00     0.005 C 
ENDBRANCH   7   8
ENDBRANCH   5   7
ENDBRANCH   4   5
ENDBRANCH   3   4
TORSDOF 4
ENDMDL
MODEL 2
REMARK VINA RESULT:      -5.1      1.073      3.983
REMARK  4 active torsions:
REMARK  status: ('A' for Active; 'I' for Inactive)
REMARK    1  A    between atoms: C3_3  and  C6_6 
REMARK    2  A    between atoms: C3_3  and  C7_7 
REMARK    3  A    between atoms: C5_5  and  C6_6 
REMARK    4  A    between atoms: C7_7  and  C8_8 
ROOT
HETATM    1  C1  UNL     1     -32.127   8.924   1.349  1.00 20.00     0.012 C 
HETATM    2  C2  UNL     1     -32.095   8.064   2.185  1.00 20.00    -0.117 C 
HETATM    3  C5  UNL     1     -32.056   7.009   3.210  1.00 20.00     0.100 C 
ENDROOT
BRANCH   3   4
HETATM    4  C6  UNL     1     -33.072   5.905   2.930  1.00 20.00     0.090 C 
BRANCH   4   5
HETATM    5  C3  UNL     1     -34.272   5.920   3.870  1.00 20.00     0.127 C 
HETATM    6  O9  UNL     1     -35.406   5.633   3.493  1.00 20.00    -0.298 OA
BRANCH   5   7
HETATM    7  C7  UNL     1     -33.966   6.294   5.312  1.00 20.00     0.078 C 
BRANCH   7   8
HETATM    8  C8  UNL     1     -34.719   5.425   6.316  1.00 20.00     0.003 C 
HETATM    9  C4  UNL     1     -34.551   3.946   6.010  1.00 20.00     0.005 C 
ENDBRANCH   7   8
ENDBRANCH   5   7
ENDBRANCH   4   5
ENDBRANCH   3   4
TORSDOF 4
ENDMDL
MODEL 3
REMARK VINA RESULT:      -5.0      1.923      3.008
REMARK  4 active torsions:
REMARK  status: ('A' for Active; 'I' for Inactive)
REMARK    1  A    between atoms: C3_3  and  C6_6 
REMARK    2  A    between atoms: C3_3  and  C7_7 
REMARK    3  A    between atoms: C5_5  and  C6_6 
REMARK    4  A    between atoms: C7_7  and  C8_8 
ROOT
HETATM    1  C1  UNL     1     -35.140   4.231   6.022  1.00 20.00     0.012 C 
HETATM    2  C2  UNL     1     -34.990   4.766   4.958  1.00 20.00    -0.117 C 
HETATM    3  C5  UNL     1     -34.805   5.419   3.653  1.00 20.00     0.100 C 
ENDROOT
BRANCH   3   4
HETATM    4  C6  UNL     1     -33.989   6.703   3.770  1.00 20.00     0.090 C 
BRANCH   4   5
HETATM    5  C3  UNL     1     -32.560   6.573   3.256  1.00 20.00     0.127 C 
HETATM    6  O9  UNL     1     -32.033   5.483   3.045  1.00 20.00    -0.298 OA
BRANCH   5   7
HETATM    7  C7  UNL     1     -31.836   7.887   3.002  1.00 20.00     0.078 C 
BRANCH   7   8
HETATM    8  C8  UNL     1     -31.971   8.361   1.558  1.00 20.00     0.003 C 
HETATM    9  C4  UNL     1     -32.463   9.797   1.485  1.00 20.00     0.005 C 
ENDBRANCH   7   8
ENDBRANCH   5   7
ENDBRANCH   4   5
ENDBRANCH   3   4
TORSDOF 4
ENDMDL
MODEL 4
REMARK VINA RESULT:      -5.0      1.630      4.242
REMARK  4 active torsions:
REMARK  status: ('A' for Active; 'I' for Inactive)
REMARK    1  A    between atoms: C3_3  and  C6_6 
REMARK    2  A    between atoms: C3_3  and  C7_7 
REMARK    3  A    between atoms: C5_5  and  C6_6 
REMARK    4  A    between atoms: C7_7  and  C8_8 
ROOT
HETATM    1  C1  UNL     1     -32.176   9.049   1.067  1.00 20.00     0.012 C 
HETATM    2  C2  UNL     1     -32.008   8.289   1.981  1.00 20.00    -0.117 C 
HETATM    3  C5  UNL     1     -31.800   7.358   3.101  1.00 20.00     0.100 C 
ENDROOT
BRANCH   3   4
HETATM    4  C6  UNL     1     -32.789   6.196   3.066  1.00 20.00     0.090 C 
BRANCH   4   5
HETATM    5  C3  UNL     1     -33.770   6.186   4.231  1.00 20.00     0.127 C 
HETATM    6  O9  UNL     1     -33.549   6.784   5.283  1.00 20.00    -0.298 OA
BRANCH   5   7
HETATM    7  C7  UNL     1     -35.054   5.404   3.997  1.00 20.00     0.078 C 
BRANCH   7   8
HETATM    8  C8  UNL     1     -35.085   4.085   4.764  1.00 20.00     0.003 C 
HETATM    9  C4  UNL     1     -35.110   4.313   6.266  1.00 20.00     0.005 C 
ENDBRANCH   7   8
ENDBRANCH   5   7
ENDBRANCH   4   5
ENDBRANCH   3   4
TORSDOF 4
ENDMDL
MODEL 5
REMARK VINA RESULT:      -4.8      1.083      3.356
REMARK  4 active torsions:
REMARK  status: ('A' for Active; 'I' for Inactive)
REMARK    1  A    between atoms: C3_3  and  C6_6 
REMARK    2  A    between atoms: C3_3  and  C7_7 
REMARK    3  A    between atoms: C5_5  and  C6_6 
REMARK    4  A    between atoms: C7_7  and  C8_8 
ROOT
HETATM    1  C1  UNL     1     -32.077   7.278   3.015  1.00 20.00     0.012 C 
HETATM    2  C2  UNL     1     -32.904   6.411   2.934  1.00 20.00    -0.117 C 
HETATM    3  C5  UNL     1     -33.917   5.350   2.833  1.00 20.00     0.100 C 
ENDROOT
BRANCH   3   4
HETATM    4  C6  UNL     1     -35.072   5.572   3.805  1.00 20.00     0.090 C 
BRANCH   4   5
HETATM    5  C3  UNL     1     -35.029   4.667   5.030  1.00 20.00     0.127 C 
HETATM    6  O9  UNL     1     -35.168   3.448   4.954  1.00 20.00    -0.298 OA
BRANCH   5   7
HETATM    7  C7  UNL     1     -34.780   5.374   6.355  1.00 20.00     0.078 C 
BRANCH   7   8
HETATM    8  C8  UNL     1     -33.545   6.268   6.319  1.00 20.00     0.003 C 
HETATM    9  C4  UNL     1     -33.776   7.569   7.071  1.00 20.00     0.005 C 
ENDBRANCH   7   8
ENDBRANCH   5   7
ENDBRANCH   4   5
ENDBRANCH   3   4
TORSDOF 4
ENDMDL
MODEL 6
REMARK VINA RESULT:      -4.8      1.360      3.975
REMARK  4 active torsions:
REMARK  status: ('A' for Active; 'I' for Inactive)
REMARK    1  A    between atoms: C3_3  and  C6_6 
REMARK    2  A    between atoms: C3_3  and  C7_7 
REMARK    3  A    between atoms: C5_5  and  C6_6 
REMARK    4  A    between atoms: C7_7  and  C8_8 
ROOT
HETATM    1  C1  UNL     1     -32.218   9.017   1.485  1.00 20.00     0.012 C 
HETATM    2  C2  UNL     1     -32.166   8.033   2.171  1.00 20.00    -0.117 C 
HETATM    3  C5  UNL     1     -32.104   6.827   3.010  1.00 20.00     0.100 C 
ENDROOT
BRANCH   3   4
HETATM    4  C6  UNL     1     -33.381   6.631   3.822  1.00 20.00     0.090 C 
BRANCH   4   5
HETATM    5  C3  UNL     1     -34.279   5.516   3.299  1.00 20.00     0.127 C 
HETATM    6  O9  UNL     1     -34.124   5.013   2.188  1.00 20.00    -0.298 OA
BRANCH   5   7
HETATM    7  C7  UNL     1     -35.367   5.052   4.255  1.00 20.00     0.078 C 
BRANCH   7   8
HETATM    8  C8  UNL     1     -34.816   4.227   5.415  1.00 20.00     0.003 C 
HETATM    9  C4  UNL     1     -34.792   5.026   6.707  1.00 20.00     0.005 C 
ENDBRANCH   7   8
ENDBRANCH   5   7
ENDBRANCH   4   5
ENDBRANCH   3   4
TORSDOF 4
ENDMDL
MODEL 7
REMARK VINA RESULT:      -4.2     11.718     12.677
REMARK  4 active torsions:
REMARK  status: ('A' for Active; 'I' for Inactive)
REMARK    1  A    between atoms: C3_3  and  C6_6 
REMARK    2  A    between atoms: C3_3  and  C7_7 
REMARK    3  A    between atoms: C5_5  and  C6_6 
REMARK    4  A    between atoms: C7_7  and  C8_8 
ROOT
HETATM    1  C1  UNL     1     -34.723  16.354  -1.517  1.00 20.00     0.012 C 
HETATM    2  C2  UNL     1     -34.021  15.967  -2.411  1.00 20.00    -0.117 C 
HETATM    3  C5  UNL     1     -33.163  15.493  -3.508  1.00 20.00     0.100 C 
ENDROOT
BRANCH   3   4
HETATM    4  C6  UNL     1     -33.277  13.985  -3.710  1.00 20.00     0.090 C 
BRANCH   4   5
HETATM    5  C3  UNL     1     -34.388  13.574  -4.669  1.00 20.00     0.127 C 
HETATM    6  O9  UNL     1     -35.103  12.594  -4.468  1.00 20.00    -0.298 OA
BRANCH   5   7
HETATM    7  C7  UNL     1     -34.566  14.473  -5.884  1.00 20.00     0.078 C 
BRANCH   7   8
HETATM    8  C8  UNL     1     -36.029  14.810  -6.154  1.00 20.00     0.003 C 
HETATM    9  C4  UNL     1     -36.603  15.713  -5.075  1.00 20.00     0.005 C 
ENDBRANCH   7   8
ENDBRANCH   5   7
ENDBRANCH   4   5
ENDBRANCH   3   4
TORSDOF 4
ENDMDL
MODEL 8
REMARK VINA RESULT:      -4.2     11.700     12.691
REMARK  4 active torsions:
REMARK  status: ('A' for Active; 'I' for Inactive)
REMARK    1  A    between atoms: C3_3  and  C6_6 
REMARK    2  A    between atoms: C3_3  and  C7_7 
REMARK    3  A    between atoms: C5_5  and  C6_6 
REMARK    4  A    between atoms: C7_7  and  C8_8 
ROOT
HETATM    1  C1  UNL     1     -34.619  16.632  -0.892  1.00 20.00     0.012 C 
HETATM    2  C2  UNL     1     -34.271  16.259  -1.979  1.00 20.00    -0.117 C 
HETATM    3  C5  UNL     1     -33.846  15.801  -3.311  1.00 20.00     0.100 C 
ENDROOT
BRANCH   3   4
HETATM    4  C6  UNL     1     -33.840  14.279  -3.415  1.00 20.00     0.090 C 
BRANCH   4   5
HETATM    5  C3  UNL     1     -34.870  13.723  -4.390  1.00 20.00     0.127 C 
HETATM    6  O9  UNL     1     -34.978  12.520  -4.621  1.00 20.00    -0.298 OA
BRANCH   5   7
HETATM    7  C7  UNL     1     -35.774  14.758  -5.045  1.00 20.00     0.078 C 
BRANCH   7   8
HETATM    8  C8  UNL     1     -35.738  14.688  -6.568  1.00 20.00     0.003 C 
HETATM    9  C4  UNL     1     -34.367  15.055  -7.112  1.00 20.00     0.005 C 
ENDBRANCH   7   8
ENDBRANCH   5   7
ENDBRANCH   4   5
ENDBRANCH   3   4
TORSDOF 4
ENDMDL
MODEL 9
REMARK VINA RESULT:      -4.1     12.164     12.609
REMARK  4 active torsions:
REMARK  status: ('A' for Active; 'I' for Inactive)
REMARK    1  A    between atoms: C3_3  and  C6_6 
REMARK    2  A    between atoms: C3_3  and  C7_7 
REMARK    3  A    between atoms: C5_5  and  C6_6 
REMARK    4  A    between atoms: C7_7  and  C8_8 
ROOT
HETATM    1  C1  UNL     1     -34.825  17.468   0.519  1.00 20.00     0.012 C 
HETATM    2  C2  UNL     1     -34.728  16.850  -0.506  1.00 20.00    -0.117 C 
HETATM    3  C5  UNL     1     -34.608  16.092  -1.761  1.00 20.00     0.100 C 
ENDROOT
BRANCH   3   4
HETATM    4  C6  UNL     1     -33.714  16.804  -2.773  1.00 20.00     0.090 C 
BRANCH   4   5
HETATM    5  C3  UNL     1     -33.251  15.913  -3.919  1.00 20.00     0.127 C 
HETATM    6  O9  UNL     1     -32.918  16.367  -5.013  1.00 20.00    -0.298 OA
BRANCH   5   7
HETATM    7  C7  UNL     1     -33.207  14.424  -3.612  1.00 20.00     0.078 C 
BRANCH   7   8
HETATM    8  C8  UNL     1     -34.036  13.598  -4.591  1.00 20.00     0.003 C 
HETATM    9  C4  UNL     1     -35.520  13.679  -4.273  1.00 20.00     0.005 C 
ENDBRANCH   7   8
ENDBRANCH   5   7
ENDBRANCH   4   5
ENDBRANCH   3   4
TORSDOF 4
ENDMDL
