MODEL 1
REMARK VINA RESULT:      -4.7      0.000      0.000
REMARK  3 active torsions:
REMARK  status: ('A' for Active; 'I' for Inactive)
REMARK    1  A    between atoms: C2_2  and  C5_5 
REMARK    2  A    between atoms: C2_2  and  C7_7 
REMARK    3  A    between atoms: C5_5  and  C6_6 
ROOT
HETATM    1  C1  UNL     1     -34.032   6.544   6.284  1.00 20.00     0.071 C 
HETATM    2  C4  UNL     1     -34.664   4.207   5.818  1.00 20.00     0.033 C 
HETATM    3  C7  UNL     1     -34.713   5.651   5.332  1.00 20.00     0.158 C 
HETATM    4  N8  UNL     1     -33.500   7.250   7.036  1.00 20.00    -0.196 NA
ENDROOT
BRANCH   3   5
HETATM    5  C2  UNL     1     -34.078   5.742   3.949  1.00 20.00     0.144 C 
HETATM    6  O9  UNL     1     -34.593   5.221   2.960  1.00 20.00    -0.297 OA
BRANCH   5   7
HETATM    7  C5  UNL     1     -32.760   6.502   3.865  1.00 20.00     0.079 C 
BRANCH   7   8
HETATM    8  C6  UNL     1     -32.290   6.767   2.437  1.00 20.00     0.003 C 
HETATM    9  C3  UNL     1     -32.147   8.253   2.138  1.00 20.00     0.005 C 
ENDBRANCH   7   8
ENDBRANCH   5   7
ENDBRANCH   3   5
TORSDOF 3
ENDMDL
MODEL 2
REMARK VINA RESULT:      -4.6      1.403      1.838
REMARK  3 active torsions:
REMARK  status: ('A' for Active; 'I' for Inactive)
REMARK    1  A    between atoms: C2_2  and  C5_5 
REMARK    2  A    between atoms: C2_2  and  C7_7 
REMARK    3  A    between atoms: C5_5  and  C6_6 
ROOT
HETATM    1  C1  UNL     1     -33.951   6.509   5.385  1.00 20.00     0.071 C 
HETATM    2  C4  UNL     1     -34.804   5.302   3.411  1.00 20.00     0.033 C 
HETATM    3  C7  UNL     1     -34.010   6.503   3.914  1.00 20.00     0.158 C 
HETATM    4  N8  UNL     1     -33.907   6.517   6.545  1.00 20.00    -0.196 NA
ENDROOT
BRANCH   3   5
HETATM    5  C2  UNL     1     -32.609   6.473   3.311  1.00 20.00     0.144 C 
HETATM    6  O9  UNL     1     -32.048   5.417   3.020  1.00 20.00    -0.297 OA
BRANCH   5   7
HETATM    7  C5  UNL     1     -31.939   7.826   3.106  1.00 20.00     0.079 C 
BRANCH   7   8
HETATM    8  C6  UNL     1     -31.965   8.313   1.660  1.00 20.00     0.003 C 
HETATM    9  C3  UNL     1     -32.487   9.738   1.535  1.00 20.00     0.005 C 
ENDBRANCH   7   8
ENDBRANCH   5   7
ENDBRANCH   3   5
TORSDOF 3
ENDMDL
MODEL 3
REMARK VINA RESULT:      -4.5      2.040      2.432
REMARK  3 active torsions:
REMARK  status: ('A' for Active; 'I' for Inactive)
REMARK    1  A    between atoms: C2_2  and  C5_5 
REMARK    2  A    between atoms: C2_2  and  C7_7 
REMARK    3  A    between atoms: C5_5  and  C6_6 
ROOT
HETATM    1  C1  UNL     1     -35.014   4.594   4.833  1.00 20.00     0.071 C 
HETATM    2  C4  UNL     1     -34.532   5.166   2.484  1.00 20.00     0.033 C 
HETATM    3  C7  UNL     1     -34.673   5.688   3.909  1.00 20.00     0.158 C 
HETATM    4  N8  UNL     1     -35.287   3.733   5.562  1.00 20.00    -0.196 NA
ENDROOT
BRANCH   3   5
HETATM    5  C2  UNL     1     -33.377   6.373   4.329  1.00 20.00     0.144 C 
HETATM    6  O9  UNL     1     -33.221   6.836   5.458  1.00 20.00    -0.297 OA
BRANCH   5   7
HETATM    7  C5  UNL     1     -32.291   6.463   3.263  1.00 20.00     0.079 C 
BRANCH   7   8
HETATM    8  C6  UNL     1     -31.761   7.878   3.042  1.00 20.00     0.003 C 
HETATM    9  C3  UNL     1     -32.025   8.384   1.631  1.00 20.00     0.005 C 
ENDBRANCH   7   8
ENDBRANCH   5   7
ENDBRANCH   3   5
TORSDOF 3
ENDMDL
MODEL 4
REMARK VINA RESULT:      -4.5     12.192     13.057
REMARK  3 active torsions:
REMARK  status: ('A' for Active; 'I' for Inactive)
REMARK    1  A    between atoms: C2_2  and  C5_5 
REMARK    2  A    between atoms: C2_2  and  C7_7 
REMARK    3  A    between atoms: C5_5  and  C6_6 
ROOT
HETATM    1  C1  UNL     1     -34.775  13.719  -4.937  1.00 20.00     0.071 C 
HETATM    2  C4  UNL     1     -34.313  15.261  -6.805  1.00 20.00     0.033 C 
HETATM    3  C7  UNL     1     -34.686  15.134  -5.333  1.00 20.00     0.158 C 
HETATM    4  N8  UNL     1     -34.849  12.604  -4.625  1.00 20.00    -0.196 NA
ENDROOT
BRANCH   3   5
HETATM    5  C2  UNL     1     -33.658  15.875  -4.484  1.00 20.00     0.144 C 
HETATM    6  O9  UNL     1     -32.838  16.646  -4.980  1.00 20.00    -0.297 OA
BRANCH   5   7
HETATM    7  C5  UNL     1     -33.696  15.592  -2.987  1.00 20.00     0.079 C 
BRANCH   7   8
HETATM    8  C6  UNL     1     -34.901  16.201  -2.275  1.00 20.00     0.003 C 
HETATM    9  C3  UNL     1     -34.573  16.651  -0.858  1.00 20.00     0.005 C 
ENDBRANCH   7   8
ENDBRANCH   5   7
ENDBRANCH   3   5
TORSDOF 3
ENDMDL
MODEL 5
REMARK VINA RESULT:      -4.4     11.663     12.438
REMARK  3 active torsions:
REMARK  status: ('A' for Active; 'I' for Inactive)
REMARK    1  A    between atoms: C2_2  and  C5_5 
REMARK    2  A    between atoms: C2_2  and  C7_7 
REMARK    3  A    between atoms: C5_5  and  C6_6 
ROOT
HETATM    1  C1  UNL     1     -37.000  14.537  -4.230  1.00 20.00     0.071 C 
HETATM    2  C4  UNL     1     -35.862  14.744  -6.407  1.00 20.00     0.033 C 
HETATM    3  C7  UNL     1     -35.707  14.776  -4.891  1.00 20.00     0.158 C 
HETATM    4  N8  UNL     1     -38.020  14.353  -3.707  1.00 20.00    -0.196 NA
ENDROOT
BRANCH   3   5
HETATM    5  C2  UNL     1     -34.675  13.737  -4.464  1.00 20.00     0.144 C 
HETATM    6  O9  UNL     1     -34.811  12.541  -4.722  1.00 20.00    -0.297 OA
BRANCH   5   7
HETATM    7  C5  UNL     1     -33.475  14.264  -3.686  1.00 20.00     0.079 C 
BRANCH   7   8
HETATM    8  C6  UNL     1     -33.411  15.787  -3.610  1.00 20.00     0.003 C 
HETATM    9  C3  UNL     1     -33.857  16.321  -2.256  1.00 20.00     0.005 C 
ENDBRANCH   7   8
ENDBRANCH   5   7
ENDBRANCH   3   5
TORSDOF 3
ENDMDL
MODEL 6
REMARK VINA RESULT:      -4.4      1.594      1.972
REMARK  3 active torsions:
REMARK  status: ('A' for Active; 'I' for Inactive)
REMARK    1  A    between atoms: C2_2  and  C5_5 
REMARK    2  A    between atoms: C2_2  and  C7_7 
REMARK    3  A    between atoms: C5_5  and  C6_6 
ROOT
HETATM    1  C1  UNL     1     -34.604   4.552   5.706  1.00 20.00     0.071 C 
HETATM    2  C4  UNL     1     -33.898   6.818   6.374  1.00 20.00     0.033 C 
HETATM    3  C7  UNL     1     -33.640   5.635   5.448  1.00 20.00     0.158 C 
HETATM    4  N8  UNL     1     -35.360   3.696   5.910  1.00 20.00    -0.196 NA
ENDROOT
BRANCH   3   5
HETATM    5  C2  UNL     1     -33.716   6.100   3.998  1.00 20.00     0.144 C 
HETATM    6  O9  UNL     1     -34.787   6.380   3.459  1.00 20.00    -0.297 OA
BRANCH   5   7
HETATM    7  C5  UNL     1     -32.391   6.184   3.251  1.00 20.00     0.079 C 
BRANCH   7   8
HETATM    8  C6  UNL     1     -31.781   7.583   3.232  1.00 20.00     0.003 C 
HETATM    9  C3  UNL     1     -32.073   8.328   1.936  1.00 20.00     0.005 C 
ENDBRANCH   7   8
ENDBRANCH   5   7
ENDBRANCH   3   5
TORSDOF 3
ENDMDL
MODEL 7
REMARK VINA RESULT:      -4.3      2.018      3.942
REMARK  3 active torsions:
REMARK  status: ('A' for Active; 'I' for Inactive)
REMARK    1  A    between atoms: C2_2  and  C5_5 
REMARK    2  A    between atoms: C2_2  and  C7_7 
REMARK    3  A    between atoms: C5_5  and  C6_6 
ROOT
HETATM    1  C1  UNL     1     -32.310   7.667   2.672  1.00 20.00     0.071 C 
HETATM    2  C4  UNL     1     -32.150   5.211   2.817  1.00 20.00     0.033 C 
HETATM    3  C7  UNL     1     -32.408   6.508   3.575  1.00 20.00     0.158 C 
HETATM    4  N8  UNL     1     -32.229   8.582   1.963  1.00 20.00    -0.196 NA
ENDROOT
BRANCH   3   5
HETATM    5  C2  UNL     1     -33.782   6.445   4.234  1.00 20.00     0.144 C 
HETATM    6  O9  UNL     1     -34.821   6.444   3.575  1.00 20.00    -0.297 OA
BRANCH   5   7
HETATM    7  C5  UNL     1     -33.793   6.399   5.758  1.00 20.00     0.079 C 
BRANCH   7   8
HETATM    8  C6  UNL     1     -34.813   5.423   6.338  1.00 20.00     0.003 C 
HETATM    9  C3  UNL     1     -34.685   4.027   5.745  1.00 20.00     0.005 C 
ENDBRANCH   7   8
ENDBRANCH   5   7
ENDBRANCH   3   5
TORSDOF 3
ENDMDL
MODEL 8
REMARK VINA RESULT:      -4.3     11.689     12.333
REMARK  3 active torsions:
REMARK  status: ('A' for Active; 'I' for Inactive)
REMARK    1  A    between atoms: C2_2  and  C5_5 
REMARK    2  A    between atoms: C2_2  and  C7_7 
REMARK    3  A    between atoms: C5_5  and  C6_6 
ROOT
HETATM    1  C1  UNL     1     -37.038  14.565  -4.112  1.00 20.00     0.071 C 
HETATM    2  C4  UNL     1     -35.397  14.390  -5.944  1.00 20.00     0.033 C 
HETATM    3  C7  UNL     1     -35.689  14.952  -4.557  1.00 20.00     0.158 C 
HETATM    4  N8  UNL     1     -38.102  14.265  -3.761  1.00 20.00    -0.196 NA
ENDROOT
BRANCH   3   5
HETATM    5  C2  UNL     1     -34.628  14.460  -3.578  1.00 20.00     0.144 C 
HETATM    6  O9  UNL     1     -34.325  13.271  -3.489  1.00 20.00    -0.297 OA
BRANCH   5   7
HETATM    7  C5  UNL     1     -33.977  15.526  -2.704  1.00 20.00     0.079 C 
BRANCH   7   8
HETATM    8  C6  UNL     1     -34.976  16.457  -2.020  1.00 20.00     0.003 C 
HETATM    9  C3  UNL     1     -34.579  16.784  -0.588  1.00 20.00     0.005 C 
ENDBRANCH   7   8
ENDBRANCH   5   7
ENDBRANCH   3   5
TORSDOF 3
ENDMDL
MODEL 9
REMARK VINA RESULT:      -4.1     11.857     13.238
REMARK  3 active torsions:
REMARK  status: ('A' for Active; 'I' for Inactive)
REMARK    1  A    between atoms: C2_2  and  C5_5 
REMARK    2  A    between atoms: C2_2  and  C7_7 
REMARK    3  A    between atoms: C5_5  and  C6_6 
ROOT
HETATM    1  C1  UNL     1     -34.511  13.765  -3.965  1.00 20.00     0.071 C 
HETATM    2  C4  UNL     1     -34.745  15.663  -2.409  1.00 20.00     0.033 C 
HETATM    3  C7  UNL     1     -33.911  15.033  -3.519  1.00 20.00     0.158 C 
HETATM    4  N8  UNL     1     -34.981  12.763  -4.316  1.00 20.00    -0.196 NA
ENDROOT
BRANCH   3   5
HETATM    5  C2  UNL     1     -33.786  16.016  -4.678  1.00 20.00     0.144 C 
HETATM    6  O9  UNL     1     -32.712  16.537  -4.977  1.00 20.00    -0.297 OA
BRANCH   5   7
HETATM    7  C5  UNL     1     -35.072  16.327  -5.435  1.00 20.00     0.079 C 
BRANCH   7   8
HETATM    8  C6  UNL     1     -34.916  16.301  -6.953  1.00 20.00     0.003 C 
HETATM    9  C3  UNL     1     -34.690  14.895  -7.491  1.00 20.00     0.005 C 
ENDBRANCH   7   8
ENDBRANCH   5   7
ENDBRANCH   3   5
TORSDOF 3
ENDMDL
