MODEL 1
REMARK VINA RESULT:      -4.6      0.000      0.000
REMARK  2 active torsions:
REMARK  status: ('A' for Active; 'I' for Inactive)
REMARK    1  A    between atoms: C2_2  and  C4_4 
REMARK    2  A    between atoms: C2_2  and  C8_8 
ROOT
HETATM    1  C1  UNL     1     -34.998   4.555   4.696  1.00 20.00     0.071 C 
HETATM    2  C7  UNL     1     -34.367   5.109   2.379  1.00 20.00     0.033 C 
HETATM    3  C8  UNL     1     -34.659   5.653   3.773  1.00 20.00     0.158 C 
HETATM    4  N9  UNL     1     -35.267   3.693   5.424  1.00 20.00    -0.196 NA
ENDROOT
BRANCH   3   5
HETATM    5  C2  UNL     1     -33.457   6.432   4.275  1.00 20.00     0.148 C 
HETATM    6  O10 UNL     1     -33.319   6.827   5.426  1.00 20.00    -0.296 OA
BRANCH   5   7
HETATM    7  C4  UNL     1     -32.401   6.732   3.261  1.00 20.00     0.061 A 
HETATM    8  C3  UNL     1     -31.235   7.568   3.674  1.00 20.00     0.017 A 
HETATM    9  C5  UNL     1     -32.282   8.144   2.758  1.00 20.00    -0.007 A 
HETATM   10  C6  UNL     1     -31.970   8.386   1.322  1.00 20.00     0.011 C 
ENDBRANCH   5   7
ENDBRANCH   3   5
TORSDOF 2
ENDMDL
MODEL 2
REMARK VINA RESULT:      -4.5     11.181     11.833
REMARK  2 active torsions:
REMARK  status: ('A' for Active; 'I' for Inactive)
REMARK    1  A    between atoms: C2_2  and  C4_4 
REMARK    2  A    between atoms: C2_2  and  C8_8 
ROOT
HETATM    1  C1  UNL     1     -34.606  13.755  -4.240  1.00 20.00     0.071 C 
HETATM    2  C7  UNL     1     -32.607  15.055  -3.623  1.00 20.00     0.033 C 
HETATM    3  C8  UNL     1     -34.085  15.110  -3.993  1.00 20.00     0.158 C 
HETATM    4  N9  UNL     1     -35.020  12.689  -4.438  1.00 20.00    -0.196 NA
ENDROOT
BRANCH   3   5
HETATM    5  C2  UNL     1     -34.860  15.796  -2.883  1.00 20.00     0.148 C 
HETATM    6  O10 UNL     1     -36.083  15.851  -2.824  1.00 20.00    -0.296 OA
BRANCH   5   7
HETATM    7  C4  UNL     1     -34.040  16.450  -1.818  1.00 20.00     0.061 A 
HETATM    8  C3  UNL     1     -34.699  16.793  -0.523  1.00 20.00     0.017 A 
HETATM    9  C5  UNL     1     -34.326  17.888  -1.486  1.00 20.00    -0.007 A 
HETATM   10  C6  UNL     1     -33.195  18.807  -1.177  1.00 20.00     0.011 C 
ENDBRANCH   5   7
ENDBRANCH   3   5
TORSDOF 2
ENDMDL
MODEL 3
REMARK VINA RESULT:      -4.5     11.752     12.387
REMARK  2 active torsions:
REMARK  status: ('A' for Active; 'I' for Inactive)
REMARK    1  A    between atoms: C2_2  and  C4_4 
REMARK    2  A    between atoms: C2_2  and  C8_8 
ROOT
HETATM    1  C1  UNL     1     -34.727  13.736  -4.962  1.00 20.00     0.071 C 
HETATM    2  C7  UNL     1     -34.438  15.430  -6.727  1.00 20.00     0.033 C 
HETATM    3  C8  UNL     1     -34.704  15.181  -5.247  1.00 20.00     0.158 C 
HETATM    4  N9  UNL     1     -34.746  12.598  -4.735  1.00 20.00    -0.196 NA
ENDROOT
BRANCH   3   5
HETATM    5  C2  UNL     1     -33.644  15.882  -4.417  1.00 20.00     0.148 C 
HETATM    6  O10 UNL     1     -32.654  16.434  -4.881  1.00 20.00    -0.296 OA
BRANCH   5   7
HETATM    7  C4  UNL     1     -33.850  15.859  -2.937  1.00 20.00     0.061 A 
HETATM    8  C3  UNL     1     -35.234  16.040  -2.409  1.00 20.00     0.017 A 
HETATM    9  C5  UNL     1     -34.224  17.145  -2.254  1.00 20.00    -0.007 A 
HETATM   10  C6  UNL     1     -33.651  17.456  -0.914  1.00 20.00     0.011 C 
ENDBRANCH   5   7
ENDBRANCH   3   5
TORSDOF 2
ENDMDL
MODEL 4
REMARK VINA RESULT:      -4.5     11.487     12.059
REMARK  2 active torsions:
REMARK  status: ('A' for Active; 'I' for Inactive)
REMARK    1  A    between atoms: C2_2  and  C4_4 
REMARK    2  A    between atoms: C2_2  and  C8_8 
ROOT
HETATM    1  C1  UNL     1     -35.490  13.652  -4.194  1.00 20.00     0.071 C 
HETATM    2  C7  UNL     1     -37.703  14.721  -4.025  1.00 20.00     0.033 C 
HETATM    3  C8  UNL     1     -36.238  14.775  -3.604  1.00 20.00     0.158 C 
HETATM    4  N9  UNL     1     -34.898  12.766  -4.655  1.00 20.00    -0.196 NA
ENDROOT
BRANCH   3   5
HETATM    5  C2  UNL     1     -35.640  16.106  -4.024  1.00 20.00     0.148 C 
HETATM    6  O10 UNL     1     -35.734  16.583  -5.149  1.00 20.00    -0.296 OA
BRANCH   5   7
HETATM    7  C4  UNL     1     -34.878  16.843  -2.971  1.00 20.00     0.061 A 
HETATM    8  C3  UNL     1     -33.544  16.316  -2.558  1.00 20.00     0.017 A 
HETATM    9  C5  UNL     1     -34.719  16.193  -1.625  1.00 20.00    -0.007 A 
HETATM   10  C6  UNL     1     -34.791  17.029  -0.395  1.00 20.00     0.011 C 
ENDBRANCH   5   7
ENDBRANCH   3   5
TORSDOF 2
ENDMDL
MODEL 5
REMARK VINA RESULT:      -4.4      1.191      1.733
REMARK  2 active torsions:
REMARK  status: ('A' for Active; 'I' for Inactive)
REMARK    1  A    between atoms: C2_2  and  C4_4 
REMARK    2  A    between atoms: C2_2  and  C8_8 
ROOT
HETATM    1  C1  UNL     1     -34.494   4.554   5.434  1.00 20.00     0.071 C 
HETATM    2  C7  UNL     1     -33.884   6.767   6.329  1.00 20.00     0.033 C 
HETATM    3  C8  UNL     1     -33.626   5.729   5.242  1.00 20.00     0.158 C 
HETATM    4  N9  UNL     1     -35.175   3.627   5.583  1.00 20.00    -0.196 NA
ENDROOT
BRANCH   3   5
HETATM    5  C2  UNL     1     -33.854   6.356   3.878  1.00 20.00     0.148 C 
HETATM    6  O10 UNL     1     -34.956   6.614   3.411  1.00 20.00    -0.296 OA
BRANCH   5   7
HETATM    7  C4  UNL     1     -32.626   6.646   3.077  1.00 20.00     0.061 A 
HETATM    8  C3  UNL     1     -31.533   7.439   3.713  1.00 20.00     0.017 A 
HETATM    9  C5  UNL     1     -32.384   8.064   2.639  1.00 20.00    -0.007 A 
HETATM   10  C6  UNL     1     -31.814   8.325   1.288  1.00 20.00     0.011 C 
ENDBRANCH   5   7
ENDBRANCH   3   5
TORSDOF 2
ENDMDL
MODEL 6
REMARK VINA RESULT:      -4.4     11.204     11.873
REMARK  2 active torsions:
REMARK  status: ('A' for Active; 'I' for Inactive)
REMARK    1  A    between atoms: C2_2  and  C4_4 
REMARK    2  A    between atoms: C2_2  and  C8_8 
ROOT
HETATM    1  C1  UNL     1     -36.892  14.546  -4.133  1.00 20.00     0.071 C 
HETATM    2  C7  UNL     1     -35.230  14.222  -5.921  1.00 20.00     0.033 C 
HETATM    3  C8  UNL     1     -35.544  14.913  -4.599  1.00 20.00     0.158 C 
HETATM    4  N9  UNL     1     -37.955  14.261  -3.764  1.00 20.00    -0.196 NA
ENDROOT
BRANCH   3   5
HETATM    5  C2  UNL     1     -34.493  14.538  -3.569  1.00 20.00     0.148 C 
HETATM    6  O10 UNL     1     -34.128  13.392  -3.339  1.00 20.00    -0.296 OA
BRANCH   5   7
HETATM    7  C4  UNL     1     -33.902  15.671  -2.795  1.00 20.00     0.061 A 
HETATM    8  C3  UNL     1     -34.651  16.192  -1.613  1.00 20.00     0.017 A 
HETATM    9  C5  UNL     1     -34.577  17.012  -2.874  1.00 20.00    -0.007 A 
HETATM   10  C6  UNL     1     -33.746  18.248  -2.917  1.00 20.00     0.011 C 
ENDBRANCH   5   7
ENDBRANCH   3   5
TORSDOF 2
ENDMDL
MODEL 7
REMARK VINA RESULT:      -4.3     11.028     12.145
REMARK  2 active torsions:
REMARK  status: ('A' for Active; 'I' for Inactive)
REMARK    1  A    between atoms: C2_2  and  C4_4 
REMARK    2  A    between atoms: C2_2  and  C8_8 
ROOT
HETATM    1  C1  UNL     1     -35.790  14.234  -4.169  1.00 20.00     0.071 C 
HETATM    2  C7  UNL     1     -33.475  13.489  -3.769  1.00 20.00     0.033 C 
HETATM    3  C8  UNL     1     -34.389  14.383  -4.600  1.00 20.00     0.158 C 
HETATM    4  N9  UNL     1     -36.894  14.117  -3.833  1.00 20.00    -0.196 NA
ENDROOT
BRANCH   3   5
HETATM    5  C2  UNL     1     -33.934  15.826  -4.477  1.00 20.00     0.148 C 
HETATM    6  O10 UNL     1     -33.101  16.354  -5.204  1.00 20.00    -0.296 OA
BRANCH   5   7
HETATM    7  C4  UNL     1     -34.556  16.617  -3.371  1.00 20.00     0.061 A 
HETATM    8  C3  UNL     1     -33.887  17.878  -2.936  1.00 20.00     0.017 A 
HETATM    9  C5  UNL     1     -33.845  16.663  -2.047  1.00 20.00    -0.007 A 
HETATM   10  C6  UNL     1     -34.640  16.627  -0.788  1.00 20.00     0.011 C 
ENDBRANCH   5   7
ENDBRANCH   3   5
TORSDOF 2
ENDMDL
MODEL 8
REMARK VINA RESULT:      -4.3     11.126     12.457
REMARK  2 active torsions:
REMARK  status: ('A' for Active; 'I' for Inactive)
REMARK    1  A    between atoms: C2_2  and  C4_4 
REMARK    2  A    between atoms: C2_2  and  C8_8 
ROOT
HETATM    1  C1  UNL     1     -34.914  15.450  -2.887  1.00 20.00     0.071 C 
HETATM    2  C7  UNL     1     -32.692  14.679  -3.623  1.00 20.00     0.033 C 
HETATM    3  C8  UNL     1     -34.145  14.290  -3.372  1.00 20.00     0.158 C 
HETATM    4  N9  UNL     1     -35.521  16.361  -2.503  1.00 20.00    -0.196 NA
ENDROOT
BRANCH   3   5
HETATM    5  C2  UNL     1     -34.748  13.735  -4.649  1.00 20.00     0.148 C 
HETATM    6  O10 UNL     1     -34.810  12.543  -4.925  1.00 20.00    -0.296 OA
BRANCH   5   7
HETATM    7  C4  UNL     1     -35.276  14.744  -5.617  1.00 20.00     0.061 A 
HETATM    8  C3  UNL     1     -35.462  14.335  -7.040  1.00 20.00     0.017 A 
HETATM    9  C5  UNL     1     -34.343  15.271  -6.671  1.00 20.00    -0.007 A 
HETATM   10  C6  UNL     1     -34.409  16.709  -7.055  1.00 20.00     0.011 C 
ENDBRANCH   5   7
ENDBRANCH   3   5
TORSDOF 2
ENDMDL
MODEL 9
REMARK VINA RESULT:      -4.3      2.726      4.580
REMARK  2 active torsions:
REMARK  status: ('A' for Active; 'I' for Inactive)
REMARK    1  A    between atoms: C2_2  and  C4_4 
REMARK    2  A    between atoms: C2_2  and  C8_8 
ROOT
HETATM    1  C1  UNL     1     -32.110   8.279   2.043  1.00 20.00     0.071 C 
HETATM    2  C7  UNL     1     -30.969   7.803   4.175  1.00 20.00     0.033 C 
HETATM    3  C8  UNL     1     -32.294   7.786   3.419  1.00 20.00     0.158 C 
HETATM    4  N9  UNL     1     -31.968   8.669   0.959  1.00 20.00    -0.196 NA
ENDROOT
BRANCH   3   5
HETATM    5  C2  UNL     1     -32.858   6.376   3.419  1.00 20.00     0.148 C 
HETATM    6  O10 UNL     1     -32.404   5.449   2.761  1.00 20.00    -0.296 OA
BRANCH   5   7
HETATM    7  C4  UNL     1     -34.059   6.152   4.280  1.00 20.00     0.061 A 
HETATM    8  C3  UNL     1     -33.974   6.512   5.727  1.00 20.00     0.017 A 
HETATM    9  C5  UNL     1     -33.995   5.063   5.316  1.00 20.00    -0.007 A 
HETATM   10  C6  UNL     1     -35.200   4.228   5.574  1.00 20.00     0.011 C 
ENDBRANCH   5   7
ENDBRANCH   3   5
TORSDOF 2
ENDMDL
