MODEL 1
REMARK VINA RESULT:      -4.7      0.000      0.000
REMARK  3 active torsions:
REMARK  status: ('A' for Active; 'I' for Inactive)
REMARK    1  A    between atoms: C2_2  and  C4_4 
REMARK    2  A    between atoms: C2_2  and  C9_9 
REMARK    3  A    between atoms: C8_8  and  C9_9 
ROOT
HETATM    1  C1  UNL     1     -37.075  14.822  -3.698  1.00 20.00     0.071 C 
HETATM    2  C9  UNL     1     -35.767  15.495  -3.603  1.00 20.00     0.162 C 
HETATM    3  N10 UNL     1     -38.105  14.293  -3.777  1.00 20.00    -0.196 NA
ENDROOT
BRANCH   2   4
HETATM    4  C2  UNL     1     -35.750  16.508  -2.468  1.00 20.00     0.148 C 
HETATM    5  O11 UNL     1     -36.526  17.452  -2.372  1.00 20.00    -0.296 OA
BRANCH   4   6
HETATM    6  C4  UNL     1     -34.699  16.309  -1.425  1.00 20.00     0.061 A 
HETATM    7  C3  UNL     1     -34.742  17.160  -0.197  1.00 20.00     0.017 A 
HETATM    8  C5  UNL     1     -33.650  17.355  -1.210  1.00 20.00    -0.007 A 
HETATM    9  C6  UNL     1     -33.583  18.615  -2.002  1.00 20.00     0.011 C 
ENDBRANCH   4   6
ENDBRANCH   2   4
BRANCH   2  10
HETATM   10  C8  UNL     1     -34.616  14.488  -3.465  1.00 20.00     0.022 C 
HETATM   11  C7  UNL     1     -34.637  13.354  -4.484  1.00 20.00     0.007 C 
ENDBRANCH   2  10
TORSDOF 3
ENDMDL
MODEL 2
REMARK VINA RESULT:      -4.6      2.525      2.894
REMARK  3 active torsions:
REMARK  status: ('A' for Active; 'I' for Inactive)
REMARK    1  A    between atoms: C2_2  and  C4_4 
REMARK    2  A    between atoms: C2_2  and  C9_9 
REMARK    3  A    between atoms: C8_8  and  C9_9 
ROOT
HETATM    1  C1  UNL     1     -34.792  13.707  -4.895  1.00 20.00     0.071 C 
HETATM    2  C9  UNL     1     -34.681  15.135  -5.246  1.00 20.00     0.162 C 
HETATM    3  N10 UNL     1     -34.882  12.583  -4.618  1.00 20.00    -0.196 NA
ENDROOT
BRANCH   2   4
HETATM    4  C2  UNL     1     -33.589  15.818  -4.437  1.00 20.00     0.148 C 
HETATM    5  O11 UNL     1     -32.672  16.470  -4.926  1.00 20.00    -0.296 OA
BRANCH   4   6
HETATM    6  C4  UNL     1     -33.669  15.655  -2.955  1.00 20.00     0.061 A 
HETATM    7  C3  UNL     1     -34.976  15.919  -2.278  1.00 20.00     0.017 A 
HETATM    8  C5  UNL     1     -33.821  16.858  -2.076  1.00 20.00    -0.007 A 
HETATM    9  C6  UNL     1     -33.889  18.248  -2.605  1.00 20.00     0.011 C 
ENDBRANCH   4   6
ENDBRANCH   2   4
BRANCH   2  10
HETATM   10  C8  UNL     1     -34.464  15.336  -6.753  1.00 20.00     0.022 C 
HETATM   11  C7  UNL     1     -35.390  14.515  -7.645  1.00 20.00     0.007 C 
ENDBRANCH   2  10
TORSDOF 3
ENDMDL
MODEL 3
REMARK VINA RESULT:      -4.6      1.776      1.961
REMARK  3 active torsions:
REMARK  status: ('A' for Active; 'I' for Inactive)
REMARK    1  A    between atoms: C2_2  and  C4_4 
REMARK    2  A    between atoms: C2_2  and  C9_9 
REMARK    3  A    between atoms: C8_8  and  C9_9 
ROOT
HETATM    1  C1  UNL     1     -35.213  13.855  -4.525  1.00 20.00     0.071 C 
HETATM    2  C9  UNL     1     -35.592  15.271  -4.693  1.00 20.00     0.162 C 
HETATM    3  N10 UNL     1     -34.919  12.740  -4.394  1.00 20.00    -0.196 NA
ENDROOT
BRANCH   2   4
HETATM    4  C2  UNL     1     -35.764  15.959  -3.347  1.00 20.00     0.148 C 
HETATM    5  O11 UNL     1     -36.726  16.656  -3.047  1.00 20.00    -0.296 OA
BRANCH   4   6
HETATM    6  C4  UNL     1     -34.665  15.753  -2.358  1.00 20.00     0.061 A 
HETATM    7  C3  UNL     1     -34.735  16.477  -1.052  1.00 20.00     0.017 A 
HETATM    8  C5  UNL     1     -33.698  16.859  -2.070  1.00 20.00    -0.007 A 
HETATM    9  C6  UNL     1     -33.764  18.190  -2.737  1.00 20.00     0.011 C 
ENDBRANCH   4   6
ENDBRANCH   2   4
BRANCH   2  10
HETATM   10  C8  UNL     1     -34.591  16.027  -5.579  1.00 20.00     0.022 C 
HETATM   11  C7  UNL     1     -34.248  15.329  -6.891  1.00 20.00     0.007 C 
ENDBRANCH   2  10
TORSDOF 3
ENDMDL
MODEL 4
REMARK VINA RESULT:      -4.6      2.421      3.136
REMARK  3 active torsions:
REMARK  status: ('A' for Active; 'I' for Inactive)
REMARK    1  A    between atoms: C2_2  and  C4_4 
REMARK    2  A    between atoms: C2_2  and  C9_9 
REMARK    3  A    between atoms: C8_8  and  C9_9 
ROOT
HETATM    1  C1  UNL     1     -37.439  14.595  -4.155  1.00 20.00     0.071 C 
HETATM    2  C9  UNL     1     -36.126  14.853  -4.773  1.00 20.00     0.162 C 
HETATM    3  N10 UNL     1     -38.473  14.395  -3.668  1.00 20.00    -0.196 NA
ENDROOT
BRANCH   2   4
HETATM    4  C2  UNL     1     -35.075  13.878  -4.265  1.00 20.00     0.148 C 
HETATM    5  O11 UNL     1     -34.931  12.736  -4.687  1.00 20.00    -0.296 OA
BRANCH   4   6
HETATM    6  C4  UNL     1     -34.186  14.379  -3.175  1.00 20.00     0.061 A 
HETATM    7  C3  UNL     1     -34.433  15.746  -2.624  1.00 20.00     0.017 A 
HETATM    8  C5  UNL     1     -33.208  15.478  -3.451  1.00 20.00    -0.007 A 
HETATM    9  C6  UNL     1     -33.057  16.115  -4.789  1.00 20.00     0.011 C 
ENDBRANCH   4   6
ENDBRANCH   2   4
BRANCH   2  10
HETATM   10  C8  UNL     1     -36.204  14.835  -6.307  1.00 20.00     0.022 C 
HETATM   11  C7  UNL     1     -36.025  16.197  -6.970  1.00 20.00     0.007 C 
ENDBRANCH   2  10
TORSDOF 3
ENDMDL
MODEL 5
REMARK VINA RESULT:      -4.6      1.774      2.051
REMARK  3 active torsions:
REMARK  status: ('A' for Active; 'I' for Inactive)
REMARK    1  A    between atoms: C2_2  and  C4_4 
REMARK    2  A    between atoms: C2_2  and  C9_9 
REMARK    3  A    between atoms: C8_8  and  C9_9 
ROOT
HETATM    1  C1  UNL     1     -34.900  14.057  -4.281  1.00 20.00     0.071 C 
HETATM    2  C9  UNL     1     -34.893  15.526  -4.402  1.00 20.00     0.162 C 
HETATM    3  N10 UNL     1     -34.907  12.900  -4.188  1.00 20.00    -0.196 NA
ENDROOT
BRANCH   2   4
HETATM    4  C2  UNL     1     -35.338  16.189  -3.107  1.00 20.00     0.148 C 
HETATM    5  O11 UNL     1     -36.383  16.815  -2.975  1.00 20.00    -0.296 OA
BRANCH   4   6
HETATM    6  C4  UNL     1     -34.408  16.052  -1.946  1.00 20.00     0.061 A 
HETATM    7  C3  UNL     1     -34.791  16.684  -0.647  1.00 20.00     0.017 A 
HETATM    8  C5  UNL     1     -33.650  17.242  -1.448  1.00 20.00    -0.007 A 
HETATM    9  C6  UNL     1     -33.762  18.594  -2.065  1.00 20.00     0.011 C 
ENDBRANCH   4   6
ENDBRANCH   2   4
BRANCH   2  10
HETATM   10  C8  UNL     1     -33.524  16.055  -4.855  1.00 20.00     0.022 C 
HETATM   11  C7  UNL     1     -33.557  17.438  -5.497  1.00 20.00     0.007 C 
ENDBRANCH   2  10
TORSDOF 3
ENDMDL
MODEL 6
REMARK VINA RESULT:      -4.6      2.712      4.285
REMARK  3 active torsions:
REMARK  status: ('A' for Active; 'I' for Inactive)
REMARK    1  A    between atoms: C2_2  and  C4_4 
REMARK    2  A    between atoms: C2_2  and  C9_9 
REMARK    3  A    between atoms: C8_8  and  C9_9 
ROOT
HETATM    1  C1  UNL     1     -34.534  13.684  -4.121  1.00 20.00     0.071 C 
HETATM    2  C9  UNL     1     -34.016  14.996  -3.693  1.00 20.00     0.162 C 
HETATM    3  N10 UNL     1     -34.940  12.649  -4.457  1.00 20.00    -0.196 NA
ENDROOT
BRANCH   2   4
HETATM    4  C2  UNL     1     -33.726  15.892  -4.888  1.00 20.00     0.148 C 
HETATM    5  O11 UNL     1     -32.929  16.822  -4.877  1.00 20.00    -0.296 OA
BRANCH   4   6
HETATM    6  C4  UNL     1     -34.489  15.590  -6.136  1.00 20.00     0.061 A 
HETATM    7  C3  UNL     1     -34.469  16.592  -7.245  1.00 20.00     0.017 A 
HETATM    8  C5  UNL     1     -35.730  16.361  -6.461  1.00 20.00    -0.007 A 
HETATM    9  C6  UNL     1     -36.271  17.438  -5.585  1.00 20.00     0.011 C 
ENDBRANCH   4   6
ENDBRANCH   2   4
BRANCH   2  10
HETATM   10  C8  UNL     1     -34.962  15.686  -2.699  1.00 20.00     0.022 C 
HETATM   11  C7  UNL     1     -34.263  16.498  -1.613  1.00 20.00     0.007 C 
ENDBRANCH   2  10
TORSDOF 3
ENDMDL
MODEL 7
REMARK VINA RESULT:      -4.6      2.299      4.170
REMARK  3 active torsions:
REMARK  status: ('A' for Active; 'I' for Inactive)
REMARK    1  A    between atoms: C2_2  and  C4_4 
REMARK    2  A    between atoms: C2_2  and  C9_9 
REMARK    3  A    between atoms: C8_8  and  C9_9 
ROOT
HETATM    1  C1  UNL     1     -34.572  16.481  -1.472  1.00 20.00     0.071 C 
HETATM    2  C9  UNL     1     -34.427  16.132  -2.897  1.00 20.00     0.162 C 
HETATM    3  N10 UNL     1     -34.683  16.754  -0.350  1.00 20.00    -0.196 NA
ENDROOT
BRANCH   2   4
HETATM    4  C2  UNL     1     -35.486  15.129  -3.331  1.00 20.00     0.148 C 
HETATM    5  O11 UNL     1     -36.681  15.384  -3.425  1.00 20.00    -0.296 OA
BRANCH   4   6
HETATM    6  C4  UNL     1     -34.998  13.754  -3.646  1.00 20.00     0.061 A 
HETATM    7  C3  UNL     1     -33.582  13.584  -4.095  1.00 20.00     0.017 A 
HETATM    8  C5  UNL     1     -34.710  13.366  -5.063  1.00 20.00    -0.007 A 
HETATM    9  C6  UNL     1     -34.895  14.295  -6.213  1.00 20.00     0.011 C 
ENDBRANCH   4   6
ENDBRANCH   2   4
BRANCH   2  10
HETATM   10  C8  UNL     1     -34.443  17.379  -3.794  1.00 20.00     0.022 C 
HETATM   11  C7  UNL     1     -33.442  17.349  -4.944  1.00 20.00     0.007 C 
ENDBRANCH   2  10
TORSDOF 3
ENDMDL
MODEL 8
REMARK VINA RESULT:      -4.5      2.682      4.581
REMARK  3 active torsions:
REMARK  status: ('A' for Active; 'I' for Inactive)
REMARK    1  A    between atoms: C2_2  and  C4_4 
REMARK    2  A    between atoms: C2_2  and  C9_9 
REMARK    3  A    between atoms: C8_8  and  C9_9 
ROOT
HETATM    1  C1  UNL     1     -33.603  14.257  -3.626  1.00 20.00     0.071 C 
HETATM    2  C9  UNL     1     -33.870  15.690  -3.404  1.00 20.00     0.162 C 
HETATM    3  N10 UNL     1     -33.390  13.130  -3.801  1.00 20.00    -0.196 NA
ENDROOT
BRANCH   2   4
HETATM    4  C2  UNL     1     -34.575  16.312  -4.600  1.00 20.00     0.148 C 
HETATM    5  O11 UNL     1     -35.688  16.824  -4.556  1.00 20.00    -0.296 OA
BRANCH   4   6
HETATM    6  C4  UNL     1     -33.833  16.269  -5.895  1.00 20.00     0.061 A 
HETATM    7  C3  UNL     1     -34.508  16.793  -7.122  1.00 20.00     0.017 A 
HETATM    8  C5  UNL     1     -34.259  15.319  -6.972  1.00 20.00    -0.007 A 
HETATM    9  C6  UNL     1     -35.406  14.380  -6.821  1.00 20.00     0.011 C 
ENDBRANCH   4   6
ENDBRANCH   2   4
BRANCH   2  10
HETATM   10  C8  UNL     1     -34.660  15.929  -2.109  1.00 20.00     0.022 C 
HETATM   11  C7  UNL     1     -34.071  16.996  -1.191  1.00 20.00     0.007 C 
ENDBRANCH   2  10
TORSDOF 3
ENDMDL
MODEL 9
REMARK VINA RESULT:      -4.5      2.746      4.699
REMARK  3 active torsions:
REMARK  status: ('A' for Active; 'I' for Inactive)
REMARK    1  A    between atoms: C2_2  and  C4_4 
REMARK    2  A    between atoms: C2_2  and  C9_9 
REMARK    3  A    between atoms: C8_8  and  C9_9 
ROOT
HETATM    1  C1  UNL     1     -33.776  17.695  -4.009  1.00 20.00     0.071 C 
HETATM    2  C9  UNL     1     -34.172  16.644  -3.053  1.00 20.00     0.162 C 
HETATM    3  N10 UNL     1     -33.468  18.523  -4.762  1.00 20.00    -0.196 NA
ENDROOT
BRANCH   2   4
HETATM    4  C2  UNL     1     -33.719  15.271  -3.525  1.00 20.00     0.148 C 
HETATM    5  O11 UNL     1     -32.550  14.907  -3.573  1.00 20.00    -0.296 OA
BRANCH   4   6
HETATM    6  C4  UNL     1     -34.800  14.335  -3.957  1.00 20.00     0.061 A 
HETATM    7  C3  UNL     1     -34.419  13.109  -4.722  1.00 20.00     0.017 A 
HETATM    8  C5  UNL     1     -35.160  14.222  -5.406  1.00 20.00    -0.007 A 
HETATM    9  C6  UNL     1     -34.491  15.017  -6.474  1.00 20.00     0.011 C 
ENDBRANCH   4   6
ENDBRANCH   2   4
BRANCH   2  10
HETATM   10  C8  UNL     1     -33.660  16.941  -1.636  1.00 20.00     0.022 C 
HETATM   11  C7  UNL     1     -34.713  16.815  -0.540  1.00 20.00     0.007 C 
ENDBRANCH   2  10
TORSDOF 3
ENDMDL
