MODEL 1
REMARK VINA RESULT:      -4.7      0.000      0.000
REMARK  3 active torsions:
REMARK  status: ('A' for Active; 'I' for Inactive)
REMARK    1  A    between atoms: C2_2  and  C7_7 
REMARK    2  A    between atoms: C2_2  and  C8_8 
REMARK    3  A    between atoms: C7_7  and  C9_9 
ROOT
HETATM    1  C1  UNL     1     -34.780  13.740  -4.900  1.00 20.00     0.071 C 
HETATM    2  C3  UNL     1     -34.319  15.192  -6.840  1.00 20.00     0.033 C 
HETATM    3  C8  UNL     1     -34.701  15.135  -5.366  1.00 20.00     0.158 C 
HETATM    4  N10 UNL     1     -34.848  12.641  -4.533  1.00 20.00    -0.196 NA
ENDROOT
BRANCH   3   5
HETATM    5  C2  UNL     1     -33.680  15.922  -4.551  1.00 20.00     0.144 C 
HETATM    6  O11 UNL     1     -32.813  16.616  -5.083  1.00 20.00    -0.296 OA
BRANCH   5   7
HETATM    7  C7  UNL     1     -33.753  15.795  -3.035  1.00 20.00     0.088 C 
BRANCH   7   8
HETATM    8  C9  UNL     1     -34.494  16.948  -2.321  1.00 20.00    -0.045 C 
HETATM    9  C4  UNL     1     -35.906  17.145  -2.894  1.00 20.00     0.015 C 
HETATM   10  C5  UNL     1     -33.712  18.267  -2.430  1.00 20.00     0.015 C 
HETATM   11  C6  UNL     1     -34.620  16.581  -0.830  1.00 20.00     0.015 C 
ENDBRANCH   7   8
ENDBRANCH   5   7
ENDBRANCH   3   5
TORSDOF 3
ENDMDL
MODEL 2
REMARK VINA RESULT:      -4.3      1.608      1.761
REMARK  3 active torsions:
REMARK  status: ('A' for Active; 'I' for Inactive)
REMARK    1  A    between atoms: C2_2  and  C7_7 
REMARK    2  A    between atoms: C2_2  and  C8_8 
REMARK    3  A    between atoms: C7_7  and  C9_9 
ROOT
HETATM    1  C1  UNL     1     -35.299  13.805  -4.050  1.00 20.00     0.071 C 
HETATM    2  C3  UNL     1     -36.546  15.854  -4.626  1.00 20.00     0.033 C 
HETATM    3  C8  UNL     1     -35.794  15.095  -3.539  1.00 20.00     0.158 C 
HETATM    4  N10 UNL     1     -34.912  12.787  -4.449  1.00 20.00    -0.196 NA
ENDROOT
BRANCH   3   5
HETATM    5  C2  UNL     1     -34.644  15.956  -3.029  1.00 20.00     0.144 C 
HETATM    6  O11 UNL     1     -33.843  16.498  -3.791  1.00 20.00    -0.296 OA
BRANCH   5   7
HETATM    7  C7  UNL     1     -34.500  16.099  -1.519  1.00 20.00     0.088 C 
BRANCH   7   8
HETATM    8  C9  UNL     1     -34.731  17.528  -0.977  1.00 20.00    -0.045 C 
HETATM    9  C4  UNL     1     -35.903  18.215  -1.695  1.00 20.00     0.015 C 
HETATM   10  C5  UNL     1     -33.468  18.392  -1.123  1.00 20.00     0.015 C 
HETATM   11  C6  UNL     1     -35.073  17.419   0.522  1.00 20.00     0.015 C 
ENDBRANCH   7   8
ENDBRANCH   5   7
ENDBRANCH   3   5
TORSDOF 3
ENDMDL
MODEL 3
REMARK VINA RESULT:      -4.3      1.173      1.568
REMARK  3 active torsions:
REMARK  status: ('A' for Active; 'I' for Inactive)
REMARK    1  A    between atoms: C2_2  and  C7_7 
REMARK    2  A    between atoms: C2_2  and  C8_8 
REMARK    3  A    between atoms: C7_7  and  C9_9 
ROOT
HETATM    1  C1  UNL     1     -35.048  14.718  -5.997  1.00 20.00     0.071 C 
HETATM    2  C3  UNL     1     -34.652  13.553  -3.859  1.00 20.00     0.033 C 
HETATM    3  C8  UNL     1     -34.040  14.394  -4.973  1.00 20.00     0.158 C 
HETATM    4  N10 UNL     1     -35.840  14.969  -6.807  1.00 20.00    -0.196 NA
ENDROOT
BRANCH   3   5
HETATM    5  C2  UNL     1     -33.445  15.664  -4.374  1.00 20.00     0.144 C 
HETATM    6  O11 UNL     1     -32.942  16.544  -5.074  1.00 20.00    -0.296 OA
BRANCH   5   7
HETATM    7  C7  UNL     1     -33.469  15.795  -2.857  1.00 20.00     0.088 C 
BRANCH   7   8
HETATM    8  C9  UNL     1     -34.375  16.924  -2.316  1.00 20.00    -0.045 C 
HETATM    9  C4  UNL     1     -35.702  16.995  -3.087  1.00 20.00     0.015 C 
HETATM   10  C5  UNL     1     -33.671  18.290  -2.391  1.00 20.00     0.015 C 
HETATM   11  C6  UNL     1     -34.684  16.619  -0.838  1.00 20.00     0.015 C 
ENDBRANCH   7   8
ENDBRANCH   5   7
ENDBRANCH   3   5
TORSDOF 3
ENDMDL
MODEL 4
REMARK VINA RESULT:      -4.2      1.362      3.836
REMARK  3 active torsions:
REMARK  status: ('A' for Active; 'I' for Inactive)
REMARK    1  A    between atoms: C2_2  and  C7_7 
REMARK    2  A    between atoms: C2_2  and  C8_8 
REMARK    3  A    between atoms: C7_7  and  C9_9 
ROOT
HETATM    1  C1  UNL     1     -34.239  13.857  -4.038  1.00 20.00     0.071 C 
HETATM    2  C3  UNL     1     -34.174  15.877  -2.625  1.00 20.00     0.033 C 
HETATM    3  C8  UNL     1     -33.534  15.125  -3.785  1.00 20.00     0.158 C 
HETATM    4  N10 UNL     1     -34.790  12.855  -4.236  1.00 20.00    -0.196 NA
ENDROOT
BRANCH   3   5
HETATM    5  C2  UNL     1     -33.547  16.011  -5.026  1.00 20.00     0.144 C 
HETATM    6  O11 UNL     1     -33.307  17.218  -4.972  1.00 20.00    -0.296 OA
BRANCH   5   7
HETATM    7  C7  UNL     1     -33.903  15.348  -6.350  1.00 20.00     0.088 C 
BRANCH   7   8
HETATM    8  C9  UNL     1     -35.219  15.842  -6.992  1.00 20.00    -0.045 C 
HETATM    9  C4  UNL     1     -34.972  17.044  -7.918  1.00 20.00     0.015 C 
HETATM   10  C5  UNL     1     -36.252  16.229  -5.921  1.00 20.00     0.015 C 
HETATM   11  C6  UNL     1     -35.801  14.689  -7.833  1.00 20.00     0.015 C 
ENDBRANCH   7   8
ENDBRANCH   5   7
ENDBRANCH   3   5
TORSDOF 3
ENDMDL
MODEL 5
REMARK VINA RESULT:      -4.2      1.798      2.468
REMARK  3 active torsions:
REMARK  status: ('A' for Active; 'I' for Inactive)
REMARK    1  A    between atoms: C2_2  and  C7_7 
REMARK    2  A    between atoms: C2_2  and  C8_8 
REMARK    3  A    between atoms: C7_7  and  C9_9 
ROOT
HETATM    1  C1  UNL     1     -34.512  13.702  -4.518  1.00 20.00     0.071 C 
HETATM    2  C3  UNL     1     -32.669  15.045  -3.578  1.00 20.00     0.033 C 
HETATM    3  C8  UNL     1     -34.106  15.050  -4.085  1.00 20.00     0.158 C 
HETATM    4  N10 UNL     1     -34.832  12.641  -4.864  1.00 20.00    -0.196 NA
ENDROOT
BRANCH   3   5
HETATM    5  C2  UNL     1     -35.026  15.567  -2.983  1.00 20.00     0.144 C 
HETATM    6  O11 UNL     1     -36.251  15.587  -3.109  1.00 20.00    -0.296 OA
BRANCH   5   7
HETATM    7  C7  UNL     1     -34.365  16.094  -1.717  1.00 20.00     0.088 C 
BRANCH   7   8
HETATM    8  C9  UNL     1     -34.449  17.626  -1.528  1.00 20.00    -0.045 C 
HETATM    9  C4  UNL     1     -33.343  18.136  -0.592  1.00 20.00     0.015 C 
HETATM   10  C5  UNL     1     -35.820  18.045  -0.970  1.00 20.00     0.015 C 
HETATM   11  C6  UNL     1     -34.265  18.286  -2.908  1.00 20.00     0.015 C 
ENDBRANCH   7   8
ENDBRANCH   5   7
ENDBRANCH   3   5
TORSDOF 3
ENDMDL
MODEL 6
REMARK VINA RESULT:      -4.2      2.213      2.660
REMARK  3 active torsions:
REMARK  status: ('A' for Active; 'I' for Inactive)
REMARK    1  A    between atoms: C2_2  and  C7_7 
REMARK    2  A    between atoms: C2_2  and  C8_8 
REMARK    3  A    between atoms: C7_7  and  C9_9 
ROOT
HETATM    1  C1  UNL     1     -34.931  14.840  -6.625  1.00 20.00     0.071 C 
HETATM    2  C3  UNL     1     -37.157  15.307  -5.673  1.00 20.00     0.033 C 
HETATM    3  C8  UNL     1     -36.020  14.300  -5.794  1.00 20.00     0.158 C 
HETATM    4  N10 UNL     1     -34.073  15.262  -7.284  1.00 20.00    -0.196 NA
ENDROOT
BRANCH   3   5
HETATM    5  C2  UNL     1     -35.515  13.944  -4.400  1.00 20.00     0.144 C 
HETATM    6  O11 UNL     1     -34.977  12.863  -4.155  1.00 20.00    -0.296 OA
BRANCH   5   7
HETATM    7  C7  UNL     1     -35.728  14.974  -3.299  1.00 20.00     0.088 C 
BRANCH   7   8
HETATM    8  C9  UNL     1     -34.536  15.928  -3.061  1.00 20.00    -0.045 C 
HETATM    9  C4  UNL     1     -34.698  17.234  -3.854  1.00 20.00     0.015 C 
HETATM   10  C5  UNL     1     -33.203  15.263  -3.444  1.00 20.00     0.015 C 
HETATM   11  C6  UNL     1     -34.493  16.271  -1.559  1.00 20.00     0.015 C 
ENDBRANCH   7   8
ENDBRANCH   5   7
ENDBRANCH   3   5
TORSDOF 3
ENDMDL
MODEL 7
REMARK VINA RESULT:      -4.1      1.506      1.958
REMARK  3 active torsions:
REMARK  status: ('A' for Active; 'I' for Inactive)
REMARK    1  A    between atoms: C2_2  and  C7_7 
REMARK    2  A    between atoms: C2_2  and  C8_8 
REMARK    3  A    between atoms: C7_7  and  C9_9 
ROOT
HETATM    1  C1  UNL     1     -35.122  13.560  -5.263  1.00 20.00     0.071 C 
HETATM    2  C3  UNL     1     -34.394  15.260  -6.895  1.00 20.00     0.033 C 
HETATM    3  C8  UNL     1     -35.506  14.798  -5.962  1.00 20.00     0.158 C 
HETATM    4  N10 UNL     1     -34.823  12.582  -4.715  1.00 20.00    -0.196 NA
ENDROOT
BRANCH   3   5
HETATM    5  C2  UNL     1     -35.821  15.910  -4.966  1.00 20.00     0.144 C 
HETATM    6  O11 UNL     1     -36.437  16.925  -5.291  1.00 20.00    -0.296 OA
BRANCH   5   7
HETATM    7  C7  UNL     1     -35.313  15.730  -3.541  1.00 20.00     0.088 C 
BRANCH   7   8
HETATM    8  C9  UNL     1     -33.932  16.364  -3.259  1.00 20.00    -0.045 C 
HETATM    9  C4  UNL     1     -33.708  17.620  -4.114  1.00 20.00     0.015 C 
HETATM   10  C5  UNL     1     -32.793  15.363  -3.518  1.00 20.00     0.015 C 
HETATM   11  C6  UNL     1     -33.890  16.771  -1.773  1.00 20.00     0.015 C 
ENDBRANCH   7   8
ENDBRANCH   5   7
ENDBRANCH   3   5
TORSDOF 3
ENDMDL
MODEL 8
REMARK VINA RESULT:      -4.1      1.585      1.646
REMARK  3 active torsions:
REMARK  status: ('A' for Active; 'I' for Inactive)
REMARK    1  A    between atoms: C2_2  and  C7_7 
REMARK    2  A    between atoms: C2_2  and  C8_8 
REMARK    3  A    between atoms: C7_7  and  C9_9 
ROOT
HETATM    1  C1  UNL     1     -36.650  14.662  -4.187  1.00 20.00     0.071 C 
HETATM    2  C3  UNL     1     -34.834  14.306  -5.817  1.00 20.00     0.033 C 
HETATM    3  C8  UNL     1     -35.360  15.174  -4.681  1.00 20.00     0.158 C 
HETATM    4  N10 UNL     1     -37.669  14.263  -3.801  1.00 20.00    -0.196 NA
ENDROOT
BRANCH   3   5
HETATM    5  C2  UNL     1     -34.327  15.215  -3.559  1.00 20.00     0.144 C 
HETATM    6  O11 UNL     1     -33.137  14.965  -3.755  1.00 20.00    -0.296 OA
BRANCH   5   7
HETATM    7  C7  UNL     1     -34.831  15.553  -2.162  1.00 20.00     0.088 C 
BRANCH   7   8
HETATM    8  C9  UNL     1     -34.846  17.060  -1.823  1.00 20.00    -0.045 C 
HETATM    9  C4  UNL     1     -36.226  17.680  -2.089  1.00 20.00     0.015 C 
HETATM   10  C5  UNL     1     -33.782  17.825  -2.629  1.00 20.00     0.015 C 
HETATM   11  C6  UNL     1     -34.522  17.214  -0.325  1.00 20.00     0.015 C 
ENDBRANCH   7   8
ENDBRANCH   5   7
ENDBRANCH   3   5
TORSDOF 3
ENDMDL
MODEL 9
REMARK VINA RESULT:      -4.1      2.507      4.447
REMARK  3 active torsions:
REMARK  status: ('A' for Active; 'I' for Inactive)
REMARK    1  A    between atoms: C2_2  and  C7_7 
REMARK    2  A    between atoms: C2_2  and  C8_8 
REMARK    3  A    between atoms: C7_7  and  C9_9 
ROOT
HETATM    1  C1  UNL     1     -34.340  16.049  -3.078  1.00 20.00     0.071 C 
HETATM    2  C3  UNL     1     -33.095  13.985  -3.597  1.00 20.00     0.033 C 
HETATM    3  C8  UNL     1     -34.426  14.581  -3.159  1.00 20.00     0.158 C 
HETATM    4  N10 UNL     1     -34.273  17.206  -3.010  1.00 20.00    -0.196 NA
ENDROOT
BRANCH   3   5
HETATM    5  C2  UNL     1     -35.515  14.153  -4.137  1.00 20.00     0.144 C 
HETATM    6  O11 UNL     1     -36.688  14.012  -3.790  1.00 20.00    -0.296 OA
BRANCH   5   7
HETATM    7  C7  UNL     1     -35.089  13.873  -5.572  1.00 20.00     0.088 C 
BRANCH   7   8
HETATM    8  C9  UNL     1     -35.317  15.042  -6.557  1.00 20.00    -0.045 C 
HETATM    9  C4  UNL     1     -34.036  15.867  -6.753  1.00 20.00     0.015 C 
HETATM   10  C5  UNL     1     -36.448  15.967  -6.075  1.00 20.00     0.015 C 
HETATM   11  C6  UNL     1     -35.727  14.445  -7.918  1.00 20.00     0.015 C 
ENDBRANCH   7   8
ENDBRANCH   5   7
ENDBRANCH   3   5
TORSDOF 3
ENDMDL
