MODEL 1
REMARK VINA RESULT:      -5.2      0.000      0.000
REMARK  2 active torsions:
REMARK  status: ('A' for Active; 'I' for Inactive)
REMARK    1  A    between atoms: C1_1  and  C3_3 
REMARK    2  A    between atoms: C7_7  and  C9_9 
ROOT
HETATM    1  C1  UNL     1     -34.799  14.961  -4.174  1.00 20.00    -0.002 C 
HETATM    2  C2  UNL     1     -34.256  15.555  -5.251  1.00 20.00     0.021 C 
HETATM    3  C4  UNL     1     -34.668  15.526  -2.783  1.00 20.00     0.047 C 
HETATM    4  C5  UNL     1     -33.496  16.854  -5.169  1.00 20.00     0.052 C 
HETATM    5  C6  UNL     1     -33.668  17.581  -3.833  1.00 20.00     0.010 C 
HETATM    6  C7  UNL     1     -33.576  16.601  -2.660  1.00 20.00    -0.010 C 
HETATM    7 CL11 UNL     1     -34.365  14.919  -6.860  1.00 20.00    -0.088 Cl
ENDROOT
BRANCH   1   8
HETATM    8  C3  UNL     1     -35.557  13.703  -4.271  1.00 20.00     0.267 C 
HETATM    9  O10 UNL     1     -35.008  12.617  -4.364  1.00 20.00    -0.302 OA
ENDBRANCH   1   8
BRANCH   6  10
HETATM   10  C9  UNL     1     -33.682  17.331  -1.323  1.00 20.00     0.000 C 
HETATM   11  C8  UNL     1     -34.789  16.783  -0.482  1.00 20.00     0.005 C 
ENDBRANCH   6  10
TORSDOF 2
ENDMDL
MODEL 2
REMARK VINA RESULT:      -4.8      1.828      1.994
REMARK  2 active torsions:
REMARK  status: ('A' for Active; 'I' for Inactive)
REMARK    1  A    between atoms: C1_1  and  C3_3 
REMARK    2  A    between atoms: C7_7  and  C9_9 
ROOT
HETATM    1  C1  UNL     1     -35.918  15.043  -3.709  1.00 20.00    -0.002 C 
HETATM    2  C2  UNL     1     -34.826  14.372  -4.116  1.00 20.00     0.021 C 
HETATM    3  C4  UNL     1     -35.859  16.140  -2.677  1.00 20.00     0.047 C 
HETATM    4  C5  UNL     1     -33.443  14.678  -3.603  1.00 20.00     0.052 C 
HETATM    5  C6  UNL     1     -33.353  15.999  -2.836  1.00 20.00     0.010 C 
HETATM    6  C7  UNL     1     -34.541  16.163  -1.885  1.00 20.00    -0.010 C 
HETATM    7 CL11 UNL     1     -34.863  13.087  -5.280  1.00 20.00    -0.088 Cl
ENDROOT
BRANCH   1   8
HETATM    8  C3  UNL     1     -37.262  14.748  -4.233  1.00 20.00     0.267 C 
HETATM    9  O10 UNL     1     -38.146  14.281  -3.534  1.00 20.00    -0.302 OA
ENDBRANCH   1   8
BRANCH   6  10
HETATM   10  C9  UNL     1     -34.421  17.450  -1.070  1.00 20.00     0.000 C 
HETATM   11  C8  UNL     1     -34.964  17.279   0.312  1.00 20.00     0.005 C 
ENDBRANCH   6  10
TORSDOF 2
ENDMDL
MODEL 3
REMARK VINA RESULT:      -4.7      1.129      1.246
REMARK  2 active torsions:
REMARK  status: ('A' for Active; 'I' for Inactive)
REMARK    1  A    between atoms: C1_1  and  C3_3 
REMARK    2  A    between atoms: C7_7  and  C9_9 
ROOT
HETATM    1  C1  UNL     1     -35.336  15.149  -3.976  1.00 20.00    -0.002 C 
HETATM    2  C2  UNL     1     -34.448  15.609  -4.874  1.00 20.00     0.021 C 
HETATM    3  C4  UNL     1     -35.357  15.616  -2.542  1.00 20.00     0.047 C 
HETATM    4  C5  UNL     1     -33.417  16.655  -4.539  1.00 20.00     0.052 C 
HETATM    5  C6  UNL     1     -33.672  17.361  -3.205  1.00 20.00     0.010 C 
HETATM    6  C7  UNL     1     -34.078  16.358  -2.123  1.00 20.00    -0.010 C 
HETATM    7 CL11 UNL     1     -34.378  15.073  -6.521  1.00 20.00    -0.088 Cl
ENDROOT
BRANCH   1   8
HETATM    8  C3  UNL     1     -36.352  14.141  -4.321  1.00 20.00     0.267 C 
HETATM    9  O10 UNL     1     -37.466  14.141  -3.823  1.00 20.00    -0.302 OA
ENDBRANCH   1   8
BRANCH   6  10
HETATM   10  C9  UNL     1     -34.270  17.049  -0.774  1.00 20.00     0.000 C 
HETATM   11  C8  UNL     1     -33.310  18.180  -0.592  1.00 20.00     0.005 C 
ENDBRANCH   6  10
TORSDOF 2
ENDMDL
MODEL 4
REMARK VINA RESULT:      -4.3     12.065     13.164
REMARK  2 active torsions:
REMARK  status: ('A' for Active; 'I' for Inactive)
REMARK    1  A    between atoms: C1_1  and  C3_3 
REMARK    2  A    between atoms: C7_7  and  C9_9 
ROOT
HETATM    1  C1  UNL     1     -33.848   6.309   5.473  1.00 20.00    -0.002 C 
HETATM    2  C2  UNL     1     -34.543   5.185   5.221  1.00 20.00     0.021 C 
HETATM    3  C4  UNL     1     -33.039   7.017   4.416  1.00 20.00     0.047 C 
HETATM    4  C5  UNL     1     -34.601   4.553   3.855  1.00 20.00     0.052 C 
HETATM    5  C6  UNL     1     -34.074   5.457   2.738  1.00 20.00     0.010 C 
HETATM    6  C7  UNL     1     -32.784   6.161   3.165  1.00 20.00    -0.010 C 
HETATM    7 CL11 UNL     1     -35.460   4.330   6.418  1.00 20.00    -0.088 Cl
ENDROOT
BRANCH   1   8
HETATM    8  C3  UNL     1     -33.815   6.928   6.808  1.00 20.00     0.267 C 
HETATM    9  O10 UNL     1     -32.941   7.711   7.142  1.00 20.00    -0.302 OA
ENDBRANCH   1   8
BRANCH   6  10
HETATM   10  C9  UNL     1     -32.219   7.014   2.031  1.00 20.00     0.000 C 
HETATM   11  C8  UNL     1     -32.260   8.470   2.363  1.00 20.00     0.005 C 
ENDBRANCH   6  10
TORSDOF 2
ENDMDL
MODEL 5
REMARK VINA RESULT:      -4.2      2.148      2.997
REMARK  2 active torsions:
REMARK  status: ('A' for Active; 'I' for Inactive)
REMARK    1  A    between atoms: C1_1  and  C3_3 
REMARK    2  A    between atoms: C7_7  and  C9_9 
ROOT
HETATM    1  C1  UNL     1     -34.182  16.693  -5.234  1.00 20.00    -0.002 C 
HETATM    2  C2  UNL     1     -34.327  15.423  -5.650  1.00 20.00     0.021 C 
HETATM    3  C4  UNL     1     -34.251  17.084  -3.780  1.00 20.00     0.047 C 
HETATM    4  C5  UNL     1     -34.540  14.274  -4.700  1.00 20.00     0.052 C 
HETATM    5  C6  UNL     1     -34.262  14.629  -3.237  1.00 20.00     0.010 C 
HETATM    6  C7  UNL     1     -34.858  15.993  -2.882  1.00 20.00    -0.010 C 
HETATM    7 CL11 UNL     1     -34.281  14.943  -7.315  1.00 20.00    -0.088 Cl
ENDROOT
BRANCH   1   8
HETATM    8  C3  UNL     1     -33.954  17.805  -6.172  1.00 20.00     0.267 C 
HETATM    9  O10 UNL     1     -33.497  18.878  -5.812  1.00 20.00    -0.302 OA
ENDBRANCH   1   8
BRANCH   6  10
HETATM   10  C9  UNL     1     -34.640  16.323  -1.407  1.00 20.00     0.000 C 
HETATM   11  C8  UNL     1     -33.619  17.399  -1.227  1.00 20.00     0.005 C 
ENDBRANCH   6  10
TORSDOF 2
ENDMDL
MODEL 6
REMARK VINA RESULT:      -4.2      1.503      2.130
REMARK  2 active torsions:
REMARK  status: ('A' for Active; 'I' for Inactive)
REMARK    1  A    between atoms: C1_1  and  C3_3 
REMARK    2  A    between atoms: C7_7  and  C9_9 
ROOT
HETATM    1  C1  UNL     1     -34.375  16.223  -2.763  1.00 20.00    -0.002 C 
HETATM    2  C2  UNL     1     -33.947  17.139  -3.649  1.00 20.00     0.021 C 
HETATM    3  C4  UNL     1     -34.450  16.498  -1.283  1.00 20.00     0.047 C 
HETATM    4  C5  UNL     1     -33.535  18.531  -3.247  1.00 20.00     0.052 C 
HETATM    5  C6  UNL     1     -33.942  18.902  -1.818  1.00 20.00     0.010 C 
HETATM    6  C7  UNL     1     -33.664  17.747  -0.853  1.00 20.00    -0.010 C 
HETATM    7 CL11 UNL     1     -33.822  16.848  -5.353  1.00 20.00    -0.088 Cl
ENDROOT
BRANCH   1   8
HETATM    8  C3  UNL     1     -34.793  14.872  -3.172  1.00 20.00     0.267 C 
HETATM    9  O10 UNL     1     -33.990  13.981  -3.397  1.00 20.00    -0.302 OA
ENDBRANCH   1   8
BRANCH   6  10
HETATM   10  C9  UNL     1     -34.007  18.135   0.584  1.00 20.00     0.000 C 
HETATM   11  C8  UNL     1     -35.288  17.510   1.033  1.00 20.00     0.005 C 
ENDBRANCH   6  10
TORSDOF 2
ENDMDL
MODEL 7
REMARK VINA RESULT:      -4.1      2.814      3.500
REMARK  2 active torsions:
REMARK  status: ('A' for Active; 'I' for Inactive)
REMARK    1  A    between atoms: C1_1  and  C3_3 
REMARK    2  A    between atoms: C7_7  and  C9_9 
ROOT
HETATM    1  C1  UNL     1     -36.974  14.915  -4.915  1.00 20.00    -0.002 C 
HETATM    2  C2  UNL     1     -36.826  15.056  -6.244  1.00 20.00     0.021 C 
HETATM    3  C4  UNL     1     -35.851  14.466  -4.016  1.00 20.00     0.047 C 
HETATM    4  C5  UNL     1     -35.517  14.811  -6.948  1.00 20.00     0.052 C 
HETATM    5  C6  UNL     1     -34.321  14.700  -5.999  1.00 20.00     0.010 C 
HETATM    6  C7  UNL     1     -34.669  13.844  -4.779  1.00 20.00    -0.010 C 
HETATM    7 CL11 UNL     1     -38.103  15.543  -7.310  1.00 20.00    -0.088 Cl
ENDROOT
BRANCH   1   8
HETATM    8  C3  UNL     1     -38.254  15.177  -4.236  1.00 20.00     0.267 C 
HETATM    9  O10 UNL     1     -38.895  14.294  -3.690  1.00 20.00    -0.302 OA
ENDBRANCH   1   8
BRANCH   6  10
HETATM   10  C9  UNL     1     -33.460  13.675  -3.860  1.00 20.00     0.000 C 
HETATM   11  C8  UNL     1     -32.765  14.976  -3.619  1.00 20.00     0.005 C 
ENDBRANCH   6  10
TORSDOF 2
ENDMDL
MODEL 8
REMARK VINA RESULT:      -4.1     12.135     13.733
REMARK  2 active torsions:
REMARK  status: ('A' for Active; 'I' for Inactive)
REMARK    1  A    between atoms: C1_1  and  C3_3 
REMARK    2  A    between atoms: C7_7  and  C9_9 
ROOT
HETATM    1  C1  UNL     1     -42.426   6.208  -2.469  1.00 20.00    -0.002 C 
HETATM    2  C2  UNL     1     -41.532   6.394  -1.481  1.00 20.00     0.021 C 
HETATM    3  C4  UNL     1     -42.758   4.844  -3.018  1.00 20.00     0.047 C 
HETATM    4  C5  UNL     1     -40.810   5.254  -0.812  1.00 20.00     0.052 C 
HETATM    5  C6  UNL     1     -41.404   3.880  -1.131  1.00 20.00     0.010 C 
HETATM    6  C7  UNL     1     -41.742   3.761  -2.619  1.00 20.00    -0.010 C 
HETATM    7 CL11 UNL     1     -41.107   7.949  -0.846  1.00 20.00    -0.088 Cl
ENDROOT
BRANCH   1   8
HETATM    8  C3  UNL     1     -43.141   7.329  -3.101  1.00 20.00     0.267 C 
HETATM    9  O10 UNL     1     -43.417   7.339  -4.289  1.00 20.00    -0.302 OA
ENDBRANCH   1   8
BRANCH   6  10
HETATM   10  C9  UNL     1     -42.275   2.369  -2.954  1.00 20.00     0.000 C 
HETATM   11  C8  UNL     1     -41.361   1.638  -3.883  1.00 20.00     0.005 C 
ENDBRANCH   6  10
TORSDOF 2
ENDMDL
MODEL 9
REMARK VINA RESULT:      -4.0      2.981      4.756
REMARK  2 active torsions:
REMARK  status: ('A' for Active; 'I' for Inactive)
REMARK    1  A    between atoms: C1_1  and  C3_3 
REMARK    2  A    between atoms: C7_7  and  C9_9 
ROOT
HETATM    1  C1  UNL     1     -34.482  17.140  -3.703  1.00 20.00    -0.002 C 
HETATM    2  C2  UNL     1     -34.545  16.120  -2.828  1.00 20.00     0.021 C 
HETATM    3  C4  UNL     1     -34.433  16.928  -5.195  1.00 20.00     0.047 C 
HETATM    4  C5  UNL     1     -34.605  14.679  -3.261  1.00 20.00     0.052 C 
HETATM    5  C6  UNL     1     -34.904  14.498  -4.751  1.00 20.00     0.010 C 
HETATM    6  C7  UNL     1     -34.093  15.483  -5.596  1.00 20.00    -0.010 C 
HETATM    7 CL11 UNL     1     -34.574  16.328  -1.107  1.00 20.00    -0.088 Cl
ENDROOT
BRANCH   1   8
HETATM    8  C3  UNL     1     -34.443  18.546  -3.268  1.00 20.00     0.267 C 
HETATM    9  O10 UNL     1     -33.463  19.035  -2.731  1.00 20.00    -0.302 OA
ENDBRANCH   1   8
BRANCH   6  10
HETATM   10  C9  UNL     1     -34.338  15.263  -7.087  1.00 20.00     0.000 C 
HETATM   11  C8  UNL     1     -35.543  14.412  -7.328  1.00 20.00     0.005 C 
ENDBRANCH   6  10
TORSDOF 2
ENDMDL
