MODEL 1
REMARK VINA RESULT:      -3.8      0.000      0.000
REMARK  3 active torsions:
REMARK  status: ('A' for Active; 'I' for Inactive)
REMARK    1  A    between atoms: C4_4  and  N9_9 
REMARK    2  A    between atoms: C6_6  and  N9_9 
REMARK    3  A    between atoms: C7_7  and  N9_9 
ROOT
HETATM    1  C1  UNL     1     -34.100  13.689  -3.990  1.00 20.00     0.089 C 
HETATM    2  C6  UNL     1     -33.098  14.685  -3.614  1.00 20.00     0.396 C 
HETATM    3  N8  UNL     1     -34.893  12.897  -4.289  1.00 20.00    -0.195 NA
ENDROOT
BRANCH   2   4
HETATM    4  N9  UNL     1     -33.732  15.954  -3.258  1.00 20.00     0.105 N 
BRANCH   4   5
HETATM    5  C4  UNL     1     -34.273  16.607  -4.449  1.00 20.00     0.224 A 
HETATM    6  C2  UNL     1     -33.805  17.982  -4.842  1.00 20.00     0.038 A 
HETATM    7  C3  UNL     1     -33.419  16.793  -5.673  1.00 20.00     0.038 A 
ENDBRANCH   4   5
BRANCH   4   8
HETATM    8  C7  UNL     1     -34.787  15.739  -2.268  1.00 20.00     0.269 C 
HETATM    9  C5  UNL     1     -34.568  16.580  -1.057  1.00 20.00     0.037 C 
ENDBRANCH   4   8
ENDBRANCH   2   4
TORSDOF 3
ENDMDL
MODEL 2
REMARK VINA RESULT:      -3.7      1.080      2.936
REMARK  3 active torsions:
REMARK  status: ('A' for Active; 'I' for Inactive)
REMARK    1  A    between atoms: C4_4  and  N9_9 
REMARK    2  A    between atoms: C6_6  and  N9_9 
REMARK    3  A    between atoms: C7_7  and  N9_9 
ROOT
HETATM    1  C1  UNL     1     -35.274  13.910  -4.136  1.00 20.00     0.089 C 
HETATM    2  C6  UNL     1     -35.796  15.267  -3.990  1.00 20.00     0.396 C 
HETATM    3  N8  UNL     1     -34.862  12.831  -4.252  1.00 20.00    -0.195 NA
ENDROOT
BRANCH   2   4
HETATM    4  N9  UNL     1     -34.708  16.228  -3.806  1.00 20.00     0.105 N 
BRANCH   4   5
HETATM    5  C4  UNL     1     -34.069  16.032  -2.505  1.00 20.00     0.224 A 
HETATM    6  C2  UNL     1     -33.671  17.217  -1.668  1.00 20.00     0.038 A 
HETATM    7  C3  UNL     1     -34.812  16.343  -1.235  1.00 20.00     0.038 A 
ENDBRANCH   4   5
BRANCH   4   8
HETATM    8  C7  UNL     1     -33.727  16.101  -4.882  1.00 20.00     0.269 C 
HETATM    9  C5  UNL     1     -33.532  17.400  -5.588  1.00 20.00     0.037 C 
ENDBRANCH   4   8
ENDBRANCH   2   4
TORSDOF 3
ENDMDL
MODEL 3
REMARK VINA RESULT:      -3.7      1.862      2.881
REMARK  3 active torsions:
REMARK  status: ('A' for Active; 'I' for Inactive)
REMARK    1  A    between atoms: C4_4  and  N9_9 
REMARK    2  A    between atoms: C6_6  and  N9_9 
REMARK    3  A    between atoms: C7_7  and  N9_9 
ROOT
HETATM    1  C1  UNL     1     -37.171  15.072  -3.669  1.00 20.00     0.089 C 
HETATM    2  C6  UNL     1     -36.029  15.979  -3.761  1.00 20.00     0.396 C 
HETATM    3  N8  UNL     1     -38.080  14.354  -3.598  1.00 20.00    -0.195 NA
ENDROOT
BRANCH   2   4
HETATM    4  N9  UNL     1     -34.862  15.420  -3.078  1.00 20.00     0.105 N 
BRANCH   4   5
HETATM    5  C4  UNL     1     -33.959  14.793  -4.042  1.00 20.00     0.224 A 
HETATM    6  C2  UNL     1     -33.230  13.525  -3.689  1.00 20.00     0.038 A 
HETATM    7  C3  UNL     1     -34.332  13.498  -4.709  1.00 20.00     0.038 A 
ENDBRANCH   4   5
BRANCH   4   8
HETATM    8  C7  UNL     1     -34.164  16.460  -2.324  1.00 20.00     0.269 C 
HETATM    9  C5  UNL     1     -34.678  16.546  -0.927  1.00 20.00     0.037 C 
ENDBRANCH   4   8
ENDBRANCH   2   4
TORSDOF 3
ENDMDL
MODEL 4
REMARK VINA RESULT:      -3.7      1.803      2.766
REMARK  3 active torsions:
REMARK  status: ('A' for Active; 'I' for Inactive)
REMARK    1  A    between atoms: C4_4  and  N9_9 
REMARK    2  A    between atoms: C6_6  and  N9_9 
REMARK    3  A    between atoms: C7_7  and  N9_9 
ROOT
HETATM    1  C1  UNL     1     -34.601  13.725  -4.137  1.00 20.00     0.089 C 
HETATM    2  C6  UNL     1     -34.326  15.032  -3.543  1.00 20.00     0.396 C 
HETATM    3  N8  UNL     1     -34.817  12.688  -4.609  1.00 20.00    -0.195 NA
ENDROOT
BRANCH   2   4
HETATM    4  N9  UNL     1     -35.413  15.440  -2.653  1.00 20.00     0.105 N 
BRANCH   4   5
HETATM    5  C4  UNL     1     -35.101  16.721  -2.021  1.00 20.00     0.224 A 
HETATM    6  C2  UNL     1     -34.742  16.782  -0.561  1.00 20.00     0.038 A 
HETATM    7  C3  UNL     1     -33.693  17.044  -1.602  1.00 20.00     0.038 A 
ENDBRANCH   4   5
BRANCH   4   8
HETATM    8  C7  UNL     1     -36.672  15.527  -3.392  1.00 20.00     0.269 C 
HETATM    9  C5  UNL     1     -36.750  16.795  -4.173  1.00 20.00     0.037 C 
ENDBRANCH   4   8
ENDBRANCH   2   4
TORSDOF 3
ENDMDL
MODEL 5
REMARK VINA RESULT:      -3.7      2.489      3.395
REMARK  3 active torsions:
REMARK  status: ('A' for Active; 'I' for Inactive)
REMARK    1  A    between atoms: C4_4  and  N9_9 
REMARK    2  A    between atoms: C6_6  and  N9_9 
REMARK    3  A    between atoms: C7_7  and  N9_9 
ROOT
HETATM    1  C1  UNL     1     -37.371  14.741  -4.068  1.00 20.00     0.089 C 
HETATM    2  C6  UNL     1     -36.092  15.231  -4.577  1.00 20.00     0.396 C 
HETATM    3  N8  UNL     1     -38.387  14.355  -3.663  1.00 20.00    -0.195 NA
ENDROOT
BRANCH   2   4
HETATM    4  N9  UNL     1     -35.420  14.206  -5.375  1.00 20.00     0.105 N 
BRANCH   4   5
HETATM    5  C4  UNL     1     -34.437  14.817  -6.268  1.00 20.00     0.224 A 
HETATM    6  C2  UNL     1     -34.716  14.933  -7.742  1.00 20.00     0.038 A 
HETATM    7  C3  UNL     1     -34.697  16.164  -6.884  1.00 20.00     0.038 A 
ENDBRANCH   4   5
BRANCH   4   8
HETATM    8  C7  UNL     1     -34.778  13.221  -4.505  1.00 20.00     0.269 C 
HETATM    9  C5  UNL     1     -33.558  13.786  -3.862  1.00 20.00     0.037 C 
ENDBRANCH   4   8
ENDBRANCH   2   4
TORSDOF 3
ENDMDL
MODEL 6
REMARK VINA RESULT:      -3.6      1.335      3.300
REMARK  3 active torsions:
REMARK  status: ('A' for Active; 'I' for Inactive)
REMARK    1  A    between atoms: C4_4  and  N9_9 
REMARK    2  A    between atoms: C6_6  and  N9_9 
REMARK    3  A    between atoms: C7_7  and  N9_9 
ROOT
HETATM    1  C1  UNL     1     -33.295  16.351  -4.785  1.00 20.00     0.089 C 
HETATM    2  C6  UNL     1     -33.072  15.361  -3.734  1.00 20.00     0.396 C 
HETATM    3  N8  UNL     1     -33.469  17.137  -5.621  1.00 20.00    -0.195 NA
ENDROOT
BRANCH   2   4
HETATM    4  N9  UNL     1     -34.262  15.211  -2.896  1.00 20.00     0.105 N 
BRANCH   4   5
HETATM    5  C4  UNL     1     -34.610  16.486  -2.271  1.00 20.00     0.224 A 
HETATM    6  C2  UNL     1     -34.759  16.586  -0.778  1.00 20.00     0.038 A 
HETATM    7  C3  UNL     1     -33.594  17.242  -1.460  1.00 20.00     0.038 A 
ENDBRANCH   4   5
BRANCH   4   8
HETATM    8  C7  UNL     1     -35.383  14.707  -3.688  1.00 20.00     0.269 C 
HETATM    9  C5  UNL     1     -35.094  13.345  -4.223  1.00 20.00     0.037 C 
ENDBRANCH   4   8
ENDBRANCH   2   4
TORSDOF 3
ENDMDL
MODEL 7
REMARK VINA RESULT:      -3.6      1.422      3.251
REMARK  3 active torsions:
REMARK  status: ('A' for Active; 'I' for Inactive)
REMARK    1  A    between atoms: C4_4  and  N9_9 
REMARK    2  A    between atoms: C6_6  and  N9_9 
REMARK    3  A    between atoms: C7_7  and  N9_9 
ROOT
HETATM    1  C1  UNL     1     -33.519  17.387  -4.987  1.00 20.00     0.089 C 
HETATM    2  C6  UNL     1     -33.446  16.423  -3.891  1.00 20.00     0.396 C 
HETATM    3  N8  UNL     1     -33.575  18.152  -5.857  1.00 20.00    -0.195 NA
ENDROOT
BRANCH   2   4
HETATM    4  N9  UNL     1     -34.760  15.842  -3.617  1.00 20.00     0.105 N 
BRANCH   4   5
HETATM    5  C4  UNL     1     -34.634  14.422  -3.293  1.00 20.00     0.224 A 
HETATM    6  C2  UNL     1     -35.073  13.375  -4.279  1.00 20.00     0.038 A 
HETATM    7  C3  UNL     1     -33.613  13.567  -3.990  1.00 20.00     0.038 A 
ENDBRANCH   4   5
BRANCH   4   8
HETATM    8  C7  UNL     1     -35.419  16.560  -2.526  1.00 20.00     0.269 C 
HETATM    9  C5  UNL     1     -34.643  16.439  -1.258  1.00 20.00     0.037 C 
ENDBRANCH   4   8
ENDBRANCH   2   4
TORSDOF 3
ENDMDL
MODEL 8
REMARK VINA RESULT:      -3.5      1.980      3.258
REMARK  3 active torsions:
REMARK  status: ('A' for Active; 'I' for Inactive)
REMARK    1  A    between atoms: C4_4  and  N9_9 
REMARK    2  A    between atoms: C6_6  and  N9_9 
REMARK    3  A    between atoms: C7_7  and  N9_9 
ROOT
HETATM    1  C1  UNL     1     -37.257  14.946  -4.035  1.00 20.00     0.089 C 
HETATM    2  C6  UNL     1     -36.114  15.763  -4.438  1.00 20.00     0.396 C 
HETATM    3  N8  UNL     1     -38.166  14.299  -3.717  1.00 20.00    -0.195 NA
ENDROOT
BRANCH   2   4
HETATM    4  N9  UNL     1     -34.928  15.427  -3.651  1.00 20.00     0.105 N 
BRANCH   4   5
HETATM    5  C4  UNL     1     -35.089  15.875  -2.269  1.00 20.00     0.224 A 
HETATM    6  C2  UNL     1     -34.026  16.713  -1.612  1.00 20.00     0.038 A 
HETATM    7  C3  UNL     1     -35.352  17.323  -1.961  1.00 20.00     0.038 A 
ENDBRANCH   4   5
BRANCH   4   8
HETATM    8  C7  UNL     1     -34.677  13.987  -3.696  1.00 20.00     0.269 C 
HETATM    9  C5  UNL     1     -33.214  13.697  -3.719  1.00 20.00     0.037 C 
ENDBRANCH   4   8
ENDBRANCH   2   4
TORSDOF 3
ENDMDL
MODEL 9
REMARK VINA RESULT:      -3.5      2.353      3.748
REMARK  3 active torsions:
REMARK  status: ('A' for Active; 'I' for Inactive)
REMARK    1  A    between atoms: C4_4  and  N9_9 
REMARK    2  A    between atoms: C6_6  and  N9_9 
REMARK    3  A    between atoms: C7_7  and  N9_9 
ROOT
HETATM    1  C1  UNL     1     -37.249  15.041  -4.207  1.00 20.00     0.089 C 
HETATM    2  C6  UNL     1     -36.312  16.016  -4.762  1.00 20.00     0.396 C 
HETATM    3  N8  UNL     1     -37.995  14.269  -3.767  1.00 20.00    -0.195 NA
ENDROOT
BRANCH   2   4
HETATM    4  N9  UNL     1     -35.031  15.385  -5.081  1.00 20.00     0.105 N 
BRANCH   4   5
HETATM    5  C4  UNL     1     -34.398  14.871  -3.868  1.00 20.00     0.224 A 
HETATM    6  C2  UNL     1     -32.933  15.102  -3.618  1.00 20.00     0.038 A 
HETATM    7  C3  UNL     1     -33.956  15.811  -2.780  1.00 20.00     0.038 A 
ENDBRANCH   4   5
BRANCH   4   8
HETATM    8  C7  UNL     1     -35.220  14.310  -6.054  1.00 20.00     0.269 C 
HETATM    9  C5  UNL     1     -34.842  14.755  -7.427  1.00 20.00     0.037 C 
ENDBRANCH   4   8
ENDBRANCH   2   4
TORSDOF 3
ENDMDL
