MODEL 1
REMARK VINA RESULT:      -3.8      0.000      0.000
REMARK  3 active torsions:
REMARK  status: ('A' for Active; 'I' for Inactive)
REMARK    1  A    between atoms: C1_1  and  C4_4 
REMARK       I    between atoms: C1_1  and  N7_7 
REMARK    2  A    between atoms: C5_5  and  C6_6 
REMARK    3  A    between atoms: C6_6  and  N7_7 
ROOT
HETATM    1  C1  UNL     1     -35.564  14.162  -4.072  1.00 20.00     0.233 C 
HETATM    2  C3  UNL     1     -33.332  15.314  -3.683  1.00 20.00     0.152 C 
HETATM    3  N7  UNL     1     -34.749  15.087  -3.408  1.00 20.00    -0.356 N 
HETATM    4  O8  UNL     1     -36.759  14.004  -3.806  1.00 20.00    -0.272 OA
ENDROOT
BRANCH   3   5
HETATM    5  C6  UNL     1     -35.316  15.918  -2.353  1.00 20.00     0.125 C 
BRANCH   5   6
HETATM    6  C5  UNL     1     -34.243  16.606  -1.515  1.00 20.00     0.015 C 
HETATM    7  C2  UNL     1     -34.769  17.093  -0.172  1.00 20.00     0.006 C 
ENDBRANCH   5   6
ENDBRANCH   3   5
BRANCH   1   8
HETATM    8  C4  UNL     1     -34.884  13.350  -5.156  1.00 20.00     0.217 C 
HETATM    9 CL9  UNL     1     -35.051  14.142  -6.736  1.00 20.00    -0.121 Cl
ENDBRANCH   1   8
TORSDOF 3
ENDMDL
MODEL 2
REMARK VINA RESULT:      -3.7      1.580      1.838
REMARK  3 active torsions:
REMARK  status: ('A' for Active; 'I' for Inactive)
REMARK    1  A    between atoms: C1_1  and  C4_4 
REMARK       I    between atoms: C1_1  and  N7_7 
REMARK    2  A    between atoms: C5_5  and  C6_6 
REMARK    3  A    between atoms: C6_6  and  N7_7 
ROOT
HETATM    1  C1  UNL     1     -34.025  14.216  -3.760  1.00 20.00     0.233 C 
HETATM    2  C3  UNL     1     -36.128  15.517  -3.175  1.00 20.00     0.152 C 
HETATM    3  N7  UNL     1     -34.691  15.264  -3.111  1.00 20.00    -0.356 N 
HETATM    4  O8  UNL     1     -32.806  14.039  -3.677  1.00 20.00    -0.272 OA
ENDROOT
BRANCH   3   5
HETATM    5  C6  UNL     1     -33.932  16.200  -2.291  1.00 20.00     0.125 C 
BRANCH   5   6
HETATM    6  C5  UNL     1     -34.659  16.563  -1.001  1.00 20.00     0.015 C 
HETATM    7  C2  UNL     1     -33.997  17.714  -0.257  1.00 20.00     0.006 C 
ENDBRANCH   5   6
ENDBRANCH   3   5
BRANCH   1   8
HETATM    8  C4  UNL     1     -34.901  13.293  -4.583  1.00 20.00     0.217 C 
HETATM    9 CL9  UNL     1     -35.091  13.911  -6.235  1.00 20.00    -0.121 Cl
ENDBRANCH   1   8
TORSDOF 3
ENDMDL
MODEL 3
REMARK VINA RESULT:      -3.7     11.661     11.845
REMARK  3 active torsions:
REMARK  status: ('A' for Active; 'I' for Inactive)
REMARK    1  A    between atoms: C1_1  and  C4_4 
REMARK       I    between atoms: C1_1  and  N7_7 
REMARK    2  A    between atoms: C5_5  and  C6_6 
REMARK    3  A    between atoms: C6_6  and  N7_7 
ROOT
HETATM    1  C1  UNL     1     -34.319   5.474   3.455  1.00 20.00     0.233 C 
HETATM    2  C3  UNL     1     -33.293   6.875   5.311  1.00 20.00     0.152 C 
HETATM    3  N7  UNL     1     -33.322   6.318   3.961  1.00 20.00    -0.356 N 
HETATM    4  O8  UNL     1     -34.302   5.026   2.305  1.00 20.00    -0.272 OA
ENDROOT
BRANCH   3   5
HETATM    5  C6  UNL     1     -32.199   6.695   3.110  1.00 20.00     0.125 C 
BRANCH   5   6
HETATM    6  C5  UNL     1     -32.231   8.171   2.728  1.00 20.00     0.015 C 
HETATM    7  C2  UNL     1     -31.861   8.407   1.270  1.00 20.00     0.006 C 
ENDBRANCH   5   6
ENDBRANCH   3   5
BRANCH   1   8
HETATM    8  C4  UNL     1     -35.440   5.135   4.417  1.00 20.00     0.217 C 
HETATM    9 CL9  UNL     1     -34.948   3.841   5.527  1.00 20.00    -0.121 Cl
ENDBRANCH   1   8
TORSDOF 3
ENDMDL
MODEL 4
REMARK VINA RESULT:      -3.7     12.066     12.252
REMARK  3 active torsions:
REMARK  status: ('A' for Active; 'I' for Inactive)
REMARK    1  A    between atoms: C1_1  and  C4_4 
REMARK       I    between atoms: C1_1  and  N7_7 
REMARK    2  A    between atoms: C5_5  and  C6_6 
REMARK    3  A    between atoms: C6_6  and  N7_7 
ROOT
HETATM    1  C1  UNL     1     -33.931   6.189   5.369  1.00 20.00     0.233 C 
HETATM    2  C3  UNL     1     -33.975   5.558   2.907  1.00 20.00     0.152 C 
HETATM    3  N7  UNL     1     -33.441   6.279   4.060  1.00 20.00    -0.356 N 
HETATM    4  O8  UNL     1     -33.448   6.819   6.314  1.00 20.00    -0.272 OA
ENDROOT
BRANCH   3   5
HETATM    5  C6  UNL     1     -32.311   7.156   3.774  1.00 20.00     0.125 C 
BRANCH   5   6
HETATM    6  C5  UNL     1     -32.097   7.357   2.278  1.00 20.00     0.015 C 
HETATM    7  C2  UNL     1     -32.211   8.816   1.859  1.00 20.00     0.006 C 
ENDBRANCH   5   6
ENDBRANCH   3   5
BRANCH   1   8
HETATM    8  C4  UNL     1     -35.110   5.257   5.564  1.00 20.00     0.217 C 
HETATM    9 CL9  UNL     1     -34.561   3.588   5.814  1.00 20.00    -0.121 Cl
ENDBRANCH   1   8
TORSDOF 3
ENDMDL
MODEL 5
REMARK VINA RESULT:      -3.5      1.411      1.687
REMARK  3 active torsions:
REMARK  status: ('A' for Active; 'I' for Inactive)
REMARK    1  A    between atoms: C1_1  and  C4_4 
REMARK       I    between atoms: C1_1  and  N7_7 
REMARK    2  A    between atoms: C5_5  and  C6_6 
REMARK    3  A    between atoms: C6_6  and  N7_7 
ROOT
HETATM    1  C1  UNL     1     -34.738  14.057  -5.302  1.00 20.00     0.233 C 
HETATM    2  C3  UNL     1     -33.660  16.359  -5.256  1.00 20.00     0.152 C 
HETATM    3  N7  UNL     1     -34.126  15.124  -4.631  1.00 20.00    -0.356 N 
HETATM    4  O8  UNL     1     -35.117  13.031  -4.731  1.00 20.00    -0.272 OA
ENDROOT
BRANCH   3   5
HETATM    5  C6  UNL     1     -33.922  15.044  -3.189  1.00 20.00     0.125 C 
BRANCH   5   6
HETATM    6  C5  UNL     1     -35.010  15.773  -2.408  1.00 20.00     0.015 C 
HETATM    7  C2  UNL     1     -34.461  16.539  -1.213  1.00 20.00     0.006 C 
ENDBRANCH   5   6
ENDBRANCH   3   5
BRANCH   1   8
HETATM    8  C4  UNL     1     -34.912  14.238  -6.797  1.00 20.00     0.217 C 
HETATM    9 CL9  UNL     1     -36.505  14.925  -7.168  1.00 20.00    -0.121 Cl
ENDBRANCH   1   8
TORSDOF 3
ENDMDL
MODEL 6
REMARK VINA RESULT:      -3.5     11.547     11.700
REMARK  3 active torsions:
REMARK  status: ('A' for Active; 'I' for Inactive)
REMARK    1  A    between atoms: C1_1  and  C4_4 
REMARK       I    between atoms: C1_1  and  N7_7 
REMARK    2  A    between atoms: C5_5  and  C6_6 
REMARK    3  A    between atoms: C6_6  and  N7_7 
ROOT
HETATM    1  C1  UNL     1     -32.221   7.271   3.364  1.00 20.00     0.233 C 
HETATM    2  C3  UNL     1     -34.115   5.739   2.638  1.00 20.00     0.152 C 
HETATM    3  N7  UNL     1     -33.262   6.374   3.639  1.00 20.00    -0.356 N 
HETATM    4  O8  UNL     1     -31.524   7.784   4.244  1.00 20.00    -0.272 OA
ENDROOT
BRANCH   3   5
HETATM    5  C6  UNL     1     -33.551   6.011   5.021  1.00 20.00     0.125 C 
BRANCH   5   6
HETATM    6  C5  UNL     1     -34.907   5.330   5.170  1.00 20.00     0.015 C 
HETATM    7  C2  UNL     1     -34.820   4.006   5.915  1.00 20.00     0.006 C 
ENDBRANCH   5   6
ENDBRANCH   3   5
BRANCH   1   8
HETATM    8  C4  UNL     1     -31.993   7.581   1.898  1.00 20.00     0.217 C 
HETATM    9 CL9  UNL     1     -32.370   9.279   1.546  1.00 20.00    -0.121 Cl
ENDBRANCH   1   8
TORSDOF 3
ENDMDL
MODEL 7
REMARK VINA RESULT:      -3.5      2.848      4.527
REMARK  3 active torsions:
REMARK  status: ('A' for Active; 'I' for Inactive)
REMARK    1  A    between atoms: C1_1  and  C4_4 
REMARK       I    between atoms: C1_1  and  N7_7 
REMARK    2  A    between atoms: C5_5  and  C6_6 
REMARK    3  A    between atoms: C6_6  and  N7_7 
ROOT
HETATM    1  C1  UNL     1     -34.532  15.670  -3.063  1.00 20.00     0.233 C 
HETATM    2  C3  UNL     1     -36.771  14.731  -3.814  1.00 20.00     0.152 C 
HETATM    3  N7  UNL     1     -35.312  14.790  -3.824  1.00 20.00    -0.356 N 
HETATM    4  O8  UNL     1     -33.299  15.686  -3.104  1.00 20.00    -0.272 OA
ENDROOT
BRANCH   3   5
HETATM    5  C6  UNL     1     -34.659  13.841  -4.718  1.00 20.00     0.125 C 
BRANCH   5   6
HETATM    6  C5  UNL     1     -35.050  14.055  -6.176  1.00 20.00     0.015 C 
HETATM    7  C2  UNL     1     -34.291  15.204  -6.825  1.00 20.00     0.006 C 
ENDBRANCH   5   6
ENDBRANCH   3   5
BRANCH   1   8
HETATM    8  C4  UNL     1     -35.303  16.622  -2.169  1.00 20.00     0.217 C 
HETATM    9 CL9  UNL     1     -34.612  16.652  -0.535  1.00 20.00    -0.121 Cl
ENDBRANCH   1   8
TORSDOF 3
ENDMDL
MODEL 8
REMARK VINA RESULT:      -3.4      1.816      2.087
REMARK  3 active torsions:
REMARK  status: ('A' for Active; 'I' for Inactive)
REMARK    1  A    between atoms: C1_1  and  C4_4 
REMARK       I    between atoms: C1_1  and  N7_7 
REMARK    2  A    between atoms: C5_5  and  C6_6 
REMARK    3  A    between atoms: C6_6  and  N7_7 
ROOT
HETATM    1  C1  UNL     1     -34.123  15.660  -4.755  1.00 20.00     0.233 C 
HETATM    2  C3  UNL     1     -36.245  15.190  -3.436  1.00 20.00     0.152 C 
HETATM    3  N7  UNL     1     -35.030  15.947  -3.726  1.00 20.00    -0.356 N 
HETATM    4  O8  UNL     1     -33.107  16.328  -4.963  1.00 20.00    -0.272 OA
ENDROOT
BRANCH   3   5
HETATM    5  C6  UNL     1     -34.780  17.082  -2.844  1.00 20.00     0.125 C 
BRANCH   5   6
HETATM    6  C5  UNL     1     -34.007  16.683  -1.591  1.00 20.00     0.015 C 
HETATM    7  C2  UNL     1     -34.758  17.012  -0.309  1.00 20.00     0.006 C 
ENDBRANCH   5   6
ENDBRANCH   3   5
BRANCH   1   8
HETATM    8  C4  UNL     1     -34.466  14.459  -5.613  1.00 20.00     0.217 C 
HETATM    9 CL9  UNL     1     -34.456  14.889  -7.334  1.00 20.00    -0.121 Cl
ENDBRANCH   1   8
TORSDOF 3
ENDMDL
MODEL 9
REMARK VINA RESULT:      -3.4     12.223     12.425
REMARK  3 active torsions:
REMARK  status: ('A' for Active; 'I' for Inactive)
REMARK    1  A    between atoms: C1_1  and  C4_4 
REMARK       I    between atoms: C1_1  and  N7_7 
REMARK    2  A    between atoms: C5_5  and  C6_6 
REMARK    3  A    between atoms: C6_6  and  N7_7 
ROOT
HETATM    1  C1  UNL     1     -33.280   6.149   3.447  1.00 20.00     0.233 C 
HETATM    2  C3  UNL     1     -33.612   6.905   5.850  1.00 20.00     0.152 C 
HETATM    3  N7  UNL     1     -33.992   6.159   4.653  1.00 20.00    -0.356 N 
HETATM    4  O8  UNL     1     -33.639   5.503   2.458  1.00 20.00    -0.272 OA
ENDROOT
BRANCH   3   5
HETATM    5  C6  UNL     1     -35.220   5.382   4.770  1.00 20.00     0.125 C 
BRANCH   5   6
HETATM    6  C5  UNL     1     -35.215   4.468   5.990  1.00 20.00     0.015 C 
HETATM    7  C2  UNL     1     -34.088   3.446   5.953  1.00 20.00     0.006 C 
ENDBRANCH   5   6
ENDBRANCH   3   5
BRANCH   1   8
HETATM    8  C4  UNL     1     -32.021   6.992   3.422  1.00 20.00     0.217 C 
HETATM    9 CL9  UNL     1     -32.060   8.145   2.073  1.00 20.00    -0.121 Cl
ENDBRANCH   1   8
TORSDOF 3
ENDMDL
