MODEL 1
REMARK VINA RESULT:      -4.6      0.000      0.000
REMARK  0 active torsions:
REMARK  status: ('A' for Active; 'I' for Inactive)
ROOT
HETATM    1  C1  UNL     1     -33.574  17.267  -4.659  1.00 20.00     0.039 A 
HETATM    2  C2  UNL     1     -33.897  15.991  -5.130  1.00 20.00     0.022 A 
HETATM    3  C3  UNL     1     -34.414  15.243  -2.872  1.00 20.00     0.029 A 
HETATM    4  C4  UNL     1     -34.101  16.512  -2.421  1.00 20.00    -0.021 A 
HETATM    5  C5  UNL     1     -33.692  17.500  -3.303  1.00 20.00     0.075 A 
HETATM    6  C6  UNL     1     -34.315  14.987  -4.241  1.00 20.00     0.011 A 
HETATM    7  C7  UNL     1     -34.061  17.038  -1.038  1.00 20.00     0.073 C 
HETATM    8  C8  UNL     1     -33.936  18.538  -1.350  1.00 20.00     0.129 C 
HETATM    9  C9  UNL     1     -33.027  19.263  -0.372  1.00 20.00     0.040 C 
HETATM   10  O10 UNL     1     -33.404  18.694  -2.692  1.00 20.00    -0.345 OA
HETATM   11 BR11 UNL     1     -34.736  13.267  -4.907  1.00 20.00    -0.051 Br
ENDROOT
TORSDOF 0
ENDMDL
MODEL 2
REMARK VINA RESULT:      -4.5      2.661      4.312
REMARK  0 active torsions:
REMARK  status: ('A' for Active; 'I' for Inactive)
ROOT
HETATM    1  C1  UNL     1     -33.684  18.011  -3.609  1.00 20.00     0.039 A 
HETATM    2  C2  UNL     1     -33.731  18.446  -2.282  1.00 20.00     0.022 A 
HETATM    3  C3  UNL     1     -34.474  16.248  -1.543  1.00 20.00     0.029 A 
HETATM    4  C4  UNL     1     -34.414  15.828  -2.860  1.00 20.00    -0.021 A 
HETATM    5  C5  UNL     1     -34.025  16.697  -3.867  1.00 20.00     0.075 A 
HETATM    6  C6  UNL     1     -34.122  17.569  -1.256  1.00 20.00     0.011 A 
HETATM    7  C7  UNL     1     -34.783  14.522  -3.450  1.00 20.00     0.073 C 
HETATM    8  C8  UNL     1     -34.178  14.708  -4.851  1.00 20.00     0.129 C 
HETATM    9  C9  UNL     1     -35.034  14.086  -5.942  1.00 20.00     0.040 C 
HETATM   10  O10 UNL     1     -34.036  16.129  -5.115  1.00 20.00    -0.345 OA
HETATM   11 BR11 UNL     1     -34.183  18.190   0.529  1.00 20.00    -0.051 Br
ENDROOT
TORSDOF 0
ENDMDL
MODEL 3
REMARK VINA RESULT:      -4.4      2.607      4.595
REMARK  0 active torsions:
REMARK  status: ('A' for Active; 'I' for Inactive)
ROOT
HETATM    1  C1  UNL     1     -33.623  17.434  -4.564  1.00 20.00     0.039 A 
HETATM    2  C2  UNL     1     -33.764  17.599  -3.184  1.00 20.00     0.022 A 
HETATM    3  C3  UNL     1     -35.048  15.537  -3.025  1.00 20.00     0.029 A 
HETATM    4  C4  UNL     1     -34.894  15.381  -4.391  1.00 20.00    -0.021 A 
HETATM    5  C5  UNL     1     -34.192  16.315  -5.139  1.00 20.00     0.075 A 
HETATM    6  C6  UNL     1     -34.471  16.655  -2.419  1.00 20.00     0.011 A 
HETATM    7  C7  UNL     1     -35.441  14.340  -5.289  1.00 20.00     0.073 C 
HETATM    8  C8  UNL     1     -34.620  14.650  -6.551  1.00 20.00     0.129 C 
HETATM    9  C9  UNL     1     -35.426  14.473  -7.827  1.00 20.00     0.040 C 
HETATM   10  O10 UNL     1     -34.148  16.021  -6.477  1.00 20.00    -0.345 OA
HETATM   11 BR11 UNL     1     -34.651  16.910  -0.554  1.00 20.00    -0.051 Br
ENDROOT
TORSDOF 0
ENDMDL
MODEL 4
REMARK VINA RESULT:      -4.4      2.921      4.789
REMARK  0 active torsions:
REMARK  status: ('A' for Active; 'I' for Inactive)
ROOT
HETATM    1  C1  UNL     1     -33.089  15.533  -4.146  1.00 20.00     0.039 A 
HETATM    2  C2  UNL     1     -33.278  16.023  -2.852  1.00 20.00     0.022 A 
HETATM    3  C3  UNL     1     -35.696  15.928  -3.122  1.00 20.00     0.029 A 
HETATM    4  C4  UNL     1     -35.495  15.435  -4.399  1.00 20.00    -0.021 A 
HETATM    5  C5  UNL     1     -34.214  15.242  -4.894  1.00 20.00     0.075 A 
HETATM    6  C6  UNL     1     -34.573  16.218  -2.343  1.00 20.00     0.011 A 
HETATM    7  C7  UNL     1     -36.485  15.105  -5.448  1.00 20.00     0.073 C 
HETATM    8  C8  UNL     1     -35.563  14.359  -6.426  1.00 20.00     0.129 C 
HETATM    9  C9  UNL     1     -35.907  14.642  -7.880  1.00 20.00     0.040 C 
HETATM   10  O10 UNL     1     -34.191  14.765  -6.179  1.00 20.00    -0.345 OA
HETATM   11 BR11 UNL     1     -34.796  16.891  -0.589  1.00 20.00    -0.051 Br
ENDROOT
TORSDOF 0
ENDMDL
MODEL 5
REMARK VINA RESULT:      -4.3      2.789      4.697
REMARK  0 active torsions:
REMARK  status: ('A' for Active; 'I' for Inactive)
ROOT
HETATM    1  C1  UNL     1     -34.884  15.445  -2.539  1.00 20.00     0.039 A 
HETATM    2  C2  UNL     1     -34.449  16.359  -1.577  1.00 20.00     0.022 A 
HETATM    3  C3  UNL     1     -33.660  17.874  -3.312  1.00 20.00     0.029 A 
HETATM    4  C4  UNL     1     -34.104  16.965  -4.254  1.00 20.00    -0.021 A 
HETATM    5  C5  UNL     1     -34.705  15.776  -3.868  1.00 20.00     0.075 A 
HETATM    6  C6  UNL     1     -33.842  17.567  -1.961  1.00 20.00     0.011 A 
HETATM    7  C7  UNL     1     -33.988  17.004  -5.729  1.00 20.00     0.073 C 
HETATM    8  C8  UNL     1     -34.944  15.852  -6.079  1.00 20.00     0.129 C 
HETATM    9  C9  UNL     1     -34.459  15.032  -7.264  1.00 20.00     0.040 C 
HETATM   10  O10 UNL     1     -35.070  14.981  -4.924  1.00 20.00    -0.345 OA
HETATM   11 BR11 UNL     1     -33.255  18.781  -0.635  1.00 20.00    -0.051 Br
ENDROOT
TORSDOF 0
ENDMDL
MODEL 6
REMARK VINA RESULT:      -4.3      3.002      4.682
REMARK  0 active torsions:
REMARK  status: ('A' for Active; 'I' for Inactive)
ROOT
HETATM    1  C1  UNL     1     -33.084  18.948  -0.979  1.00 20.00     0.039 A 
HETATM    2  C2  UNL     1     -33.393  19.078   0.377  1.00 20.00     0.022 A 
HETATM    3  C3  UNL     1     -34.857  17.135   0.274  1.00 20.00     0.029 A 
HETATM    4  C4  UNL     1     -34.535  17.012  -1.065  1.00 20.00    -0.021 A 
HETATM    5  C5  UNL     1     -33.664  17.903  -1.673  1.00 20.00     0.075 A 
HETATM    6  C6  UNL     1     -34.273  18.176   1.000  1.00 20.00     0.011 A 
HETATM    7  C7  UNL     1     -35.044  16.055  -2.073  1.00 20.00     0.073 C 
HETATM    8  C8  UNL     1     -34.038  16.331  -3.202  1.00 20.00     0.129 C 
HETATM    9  C9  UNL     1     -34.678  16.271  -4.579  1.00 20.00     0.040 C 
HETATM   10  O10 UNL     1     -33.466  17.651  -3.006  1.00 20.00    -0.345 OA
HETATM   11 BR11 UNL     1     -34.678  18.383   2.836  1.00 20.00    -0.051 Br
ENDROOT
TORSDOF 0
ENDMDL
MODEL 7
REMARK VINA RESULT:      -4.3     13.480     15.162
REMARK  0 active torsions:
REMARK  status: ('A' for Active; 'I' for Inactive)
ROOT
HETATM    1  C1  UNL     1     -40.796   5.213  -0.961  1.00 20.00     0.039 A 
HETATM    2  C2  UNL     1     -41.399   6.423  -0.608  1.00 20.00     0.022 A 
HETATM    3  C3  UNL     1     -43.273   5.972  -2.094  1.00 20.00     0.029 A 
HETATM    4  C4  UNL     1     -42.670   4.773  -2.428  1.00 20.00    -0.021 A 
HETATM    5  C5  UNL     1     -41.456   4.407  -1.868  1.00 20.00     0.075 A 
HETATM    6  C6  UNL     1     -42.630   6.799  -1.170  1.00 20.00     0.011 A 
HETATM    7  C7  UNL     1     -43.091   3.748  -3.408  1.00 20.00     0.073 C 
HETATM    8  C8  UNL     1     -42.125   2.620  -3.011  1.00 20.00     0.129 C 
HETATM    9  C9  UNL     1     -41.623   1.834  -4.211  1.00 20.00     0.040 C 
HETATM   10  O10 UNL     1     -40.988   3.199  -2.318  1.00 20.00    -0.345 OA
HETATM   11 BR11 UNL     1     -43.417   8.446  -0.677  1.00 20.00    -0.051 Br
ENDROOT
TORSDOF 0
ENDMDL
MODEL 8
REMARK VINA RESULT:      -4.3      1.757      2.627
REMARK  0 active torsions:
REMARK  status: ('A' for Active; 'I' for Inactive)
ROOT
HETATM    1  C1  UNL     1     -34.999  14.038  -3.832  1.00 20.00     0.039 A 
HETATM    2  C2  UNL     1     -35.130  13.936  -5.219  1.00 20.00     0.022 A 
HETATM    3  C3  UNL     1     -34.504  16.272  -5.494  1.00 20.00     0.029 A 
HETATM    4  C4  UNL     1     -34.369  16.358  -4.120  1.00 20.00    -0.021 A 
HETATM    5  C5  UNL     1     -34.612  15.258  -3.311  1.00 20.00     0.075 A 
HETATM    6  C6  UNL     1     -34.882  15.046  -6.044  1.00 20.00     0.011 A 
HETATM    7  C7  UNL     1     -34.044  17.529  -3.276  1.00 20.00     0.073 C 
HETATM    8  C8  UNL     1     -33.784  16.806  -1.945  1.00 20.00     0.129 C 
HETATM    9  C9  UNL     1     -34.286  17.593  -0.746  1.00 20.00     0.040 C 
HETATM   10  O10 UNL     1     -34.450  15.516  -1.974  1.00 20.00    -0.345 OA
HETATM   11 BR11 UNL     1     -35.076  14.878  -7.918  1.00 20.00    -0.051 Br
ENDROOT
TORSDOF 0
ENDMDL
MODEL 9
REMARK VINA RESULT:      -4.2      1.575      2.213
REMARK  0 active torsions:
REMARK  status: ('A' for Active; 'I' for Inactive)
ROOT
HETATM    1  C1  UNL     1     -35.096  14.823  -2.991  1.00 20.00     0.039 A 
HETATM    2  C2  UNL     1     -35.003  14.710  -4.380  1.00 20.00     0.022 A 
HETATM    3  C3  UNL     1     -33.966  16.907  -4.533  1.00 20.00     0.029 A 
HETATM    4  C4  UNL     1     -34.056  17.003  -3.156  1.00 20.00    -0.021 A 
HETATM    5  C5  UNL     1     -34.610  15.977  -2.406  1.00 20.00     0.075 A 
HETATM    6  C6  UNL     1     -34.441  15.745  -5.146  1.00 20.00     0.011 A 
HETATM    7  C7  UNL     1     -33.693  18.126  -2.264  1.00 20.00     0.073 C 
HETATM    8  C8  UNL     1     -33.786  17.403  -0.911  1.00 20.00     0.129 C 
HETATM    9  C9  UNL     1     -34.350  18.290   0.186  1.00 20.00     0.040 C 
HETATM   10  O10 UNL     1     -34.639  16.238  -1.060  1.00 20.00    -0.345 OA
HETATM   11 BR11 UNL     1     -34.336  15.564  -7.025  1.00 20.00    -0.051 Br
ENDROOT
TORSDOF 0
ENDMDL
