MODEL 1
REMARK VINA RESULT:      -5.5      0.000      0.000
REMARK  2 active torsions:
REMARK  status: ('A' for Active; 'I' for Inactive)
REMARK    1  A    between atoms: C7_7  and  C12_12 
REMARK    2  A    between atoms: C11_11  and  C12_12 
ROOT
HETATM    1  C1  UNL     1     -34.495  14.426  -6.035  1.00 20.00     0.064 C 
HETATM    2  C2  UNL     1     -33.396  13.976  -3.858  1.00 20.00     0.019 C 
HETATM    3  C3  UNL     1     -35.919  13.928  -4.067  1.00 20.00     0.019 C 
HETATM    4  C4  UNL     1     -33.478  15.367  -3.224  1.00 20.00     0.007 C 
HETATM    5  C5  UNL     1     -35.995  15.319  -3.432  1.00 20.00     0.007 C 
HETATM    6  C6  UNL     1     -34.585  13.664  -4.775  1.00 20.00     0.093 C 
HETATM    7  C7  UNL     1     -34.809  15.581  -2.495  1.00 20.00    -0.007 C 
HETATM    8  N13 UNL     1     -34.424  15.025  -7.026  1.00 20.00    -0.197 NA
ENDROOT
BRANCH   7   9
HETATM    9  C12 UNL     1     -34.885  16.991  -1.913  1.00 20.00    -0.044 C 
HETATM   10  C9  UNL     1     -33.777  17.856  -2.549  1.00 20.00     0.015 C 
HETATM   11  C10 UNL     1     -36.255  17.606  -2.264  1.00 20.00     0.015 C 
BRANCH   9  12
HETATM   12  C11 UNL     1     -34.699  16.905  -0.373  1.00 20.00     0.004 C 
HETATM   13  C8  UNL     1     -33.945  18.056   0.282  1.00 20.00     0.006 C 
ENDBRANCH   9  12
ENDBRANCH   7   9
TORSDOF 2
ENDMDL
MODEL 2
REMARK VINA RESULT:      -5.0      2.661      5.149
REMARK  2 active torsions:
REMARK  status: ('A' for Active; 'I' for Inactive)
REMARK    1  A    between atoms: C7_7  and  C12_12 
REMARK    2  A    between atoms: C11_11  and  C12_12 
ROOT
HETATM    1  C1  UNL     1     -32.667  18.827  -0.286  1.00 20.00     0.064 C 
HETATM    2  C2  UNL     1     -34.391  19.262  -2.015  1.00 20.00     0.019 C 
HETATM    3  C3  UNL     1     -34.613  17.296  -0.435  1.00 20.00     0.019 C 
HETATM    4  C4  UNL     1     -33.909  18.317  -3.118  1.00 20.00     0.007 C 
HETATM    5  C5  UNL     1     -34.130  16.356  -1.541  1.00 20.00     0.007 C 
HETATM    6  C6  UNL     1     -34.104  18.733  -0.604  1.00 20.00     0.093 C 
HETATM    7  C7  UNL     1     -34.465  16.900  -2.935  1.00 20.00    -0.007 C 
HETATM    8  N13 UNL     1     -31.537  18.901  -0.036  1.00 20.00    -0.197 NA
ENDROOT
BRANCH   7   9
HETATM    9  C12 UNL     1     -33.931  15.966  -4.020  1.00 20.00    -0.044 C 
HETATM   10  C9  UNL     1     -33.320  16.814  -5.154  1.00 20.00     0.015 C 
HETATM   11  C10 UNL     1     -32.827  15.076  -3.416  1.00 20.00     0.015 C 
BRANCH   9  12
HETATM   12  C11 UNL     1     -35.105  15.100  -4.554  1.00 20.00     0.004 C 
HETATM   13  C8  UNL     1     -35.083  13.624  -4.176  1.00 20.00     0.006 C 
ENDBRANCH   9  12
ENDBRANCH   7   9
TORSDOF 2
ENDMDL
MODEL 3
REMARK VINA RESULT:      -4.9      2.389      4.993
REMARK  2 active torsions:
REMARK  status: ('A' for Active; 'I' for Inactive)
REMARK    1  A    between atoms: C7_7  and  C12_12 
REMARK    2  A    between atoms: C11_11  and  C12_12 
ROOT
HETATM    1  C1  UNL     1     -36.142  18.943  -1.041  1.00 20.00     0.064 C 
HETATM    2  C2  UNL     1     -34.707  17.115  -0.177  1.00 20.00     0.019 C 
HETATM    3  C3  UNL     1     -33.737  18.938  -1.641  1.00 20.00     0.019 C 
HETATM    4  C4  UNL     1     -34.729  16.166  -1.378  1.00 20.00     0.007 C 
HETATM    5  C5  UNL     1     -33.761  17.986  -2.839  1.00 20.00     0.007 C 
HETATM    6  C6  UNL     1     -34.786  18.593  -0.578  1.00 20.00     0.093 C 
HETATM    7  C7  UNL     1     -33.644  16.520  -2.402  1.00 20.00    -0.007 C 
HETATM    8  N13 UNL     1     -37.209  19.218  -1.404  1.00 20.00    -0.197 NA
ENDROOT
BRANCH   7   9
HETATM    9  C12 UNL     1     -33.718  15.591  -3.611  1.00 20.00    -0.044 C 
HETATM   10  C9  UNL     1     -33.642  16.436  -4.899  1.00 20.00     0.015 C 
HETATM   11  C10 UNL     1     -32.514  14.628  -3.579  1.00 20.00     0.015 C 
BRANCH   9  12
HETATM   12  C11 UNL     1     -35.055  14.801  -3.551  1.00 20.00     0.004 C 
HETATM   13  C8  UNL     1     -35.068  13.441  -4.238  1.00 20.00     0.006 C 
ENDBRANCH   9  12
ENDBRANCH   7   9
TORSDOF 2
ENDMDL
MODEL 4
REMARK VINA RESULT:      -4.9      1.556      2.349
REMARK  2 active torsions:
REMARK  status: ('A' for Active; 'I' for Inactive)
REMARK    1  A    between atoms: C7_7  and  C12_12 
REMARK    2  A    between atoms: C11_11  and  C12_12 
ROOT
HETATM    1  C1  UNL     1     -34.908  13.680  -5.252  1.00 20.00     0.064 C 
HETATM    2  C2  UNL     1     -36.318  15.695  -5.567  1.00 20.00     0.019 C 
HETATM    3  C3  UNL     1     -33.811  15.807  -5.899  1.00 20.00     0.019 C 
HETATM    4  C4  UNL     1     -36.162  16.349  -4.192  1.00 20.00     0.007 C 
HETATM    5  C5  UNL     1     -33.660  16.460  -4.523  1.00 20.00     0.007 C 
HETATM    6  C6  UNL     1     -35.065  14.933  -6.014  1.00 20.00     0.093 C 
HETATM    7  C7  UNL     1     -34.918  17.243  -4.125  1.00 20.00    -0.007 C 
HETATM    8  N13 UNL     1     -34.785  12.694  -4.652  1.00 20.00    -0.197 NA
ENDROOT
BRANCH   7   9
HETATM    9  C12 UNL     1     -34.759  17.844  -2.731  1.00 20.00    -0.044 C 
HETATM   10  C9  UNL     1     -33.651  18.916  -2.771  1.00 20.00     0.015 C 
HETATM   11  C10 UNL     1     -36.085  18.518  -2.321  1.00 20.00     0.015 C 
BRANCH   9  12
HETATM   12  C11 UNL     1     -34.389  16.708  -1.737  1.00 20.00     0.004 C 
HETATM   13  C8  UNL     1     -34.723  16.957  -0.271  1.00 20.00     0.006 C 
ENDBRANCH   9  12
ENDBRANCH   7   9
TORSDOF 2
ENDMDL
MODEL 5
REMARK VINA RESULT:      -4.9      1.473      1.814
REMARK  2 active torsions:
REMARK  status: ('A' for Active; 'I' for Inactive)
REMARK    1  A    between atoms: C7_7  and  C12_12 
REMARK    2  A    between atoms: C11_11  and  C12_12 
ROOT
HETATM    1  C1  UNL     1     -35.531  15.547  -5.361  1.00 20.00     0.064 C 
HETATM    2  C2  UNL     1     -33.288  16.411  -4.753  1.00 20.00     0.019 C 
HETATM    3  C3  UNL     1     -34.371  14.565  -3.402  1.00 20.00     0.019 C 
HETATM    4  C4  UNL     1     -33.674  17.425  -3.674  1.00 20.00     0.007 C 
HETATM    5  C5  UNL     1     -34.756  15.583  -2.325  1.00 20.00     0.007 C 
HETATM    6  C6  UNL     1     -34.217  15.192  -4.793  1.00 20.00     0.093 C 
HETATM    7  C7  UNL     1     -33.784  16.769  -2.292  1.00 20.00    -0.007 C 
HETATM    8  N13 UNL     1     -36.564  15.825  -5.809  1.00 20.00    -0.197 NA
ENDROOT
BRANCH   7   9
HETATM    9  C12 UNL     1     -34.218  17.791  -1.243  1.00 20.00    -0.044 C 
HETATM   10  C9  UNL     1     -32.973  18.546  -0.735  1.00 20.00     0.015 C 
HETATM   11  C10 UNL     1     -35.179  18.804  -1.896  1.00 20.00     0.015 C 
BRANCH   9  12
HETATM   12  C11 UNL     1     -34.918  17.040  -0.077  1.00 20.00     0.004 C 
HETATM   13  C8  UNL     1     -35.059  17.807   1.233  1.00 20.00     0.006 C 
ENDBRANCH   9  12
ENDBRANCH   7   9
TORSDOF 2
ENDMDL
MODEL 6
REMARK VINA RESULT:      -4.7      2.100      3.634
REMARK  2 active torsions:
REMARK  status: ('A' for Active; 'I' for Inactive)
REMARK    1  A    between atoms: C7_7  and  C12_12 
REMARK    2  A    between atoms: C11_11  and  C12_12 
ROOT
HETATM    1  C1  UNL     1     -36.754  16.251  -7.848  1.00 20.00     0.064 C 
HETATM    2  C2  UNL     1     -34.738  17.340  -6.901  1.00 20.00     0.019 C 
HETATM    3  C3  UNL     1     -34.652  14.942  -7.707  1.00 20.00     0.019 C 
HETATM    4  C4  UNL     1     -34.821  16.849  -5.454  1.00 20.00     0.007 C 
HETATM    5  C5  UNL     1     -34.737  14.455  -6.259  1.00 20.00     0.007 C 
HETATM    6  C6  UNL     1     -35.282  16.325  -7.913  1.00 20.00     0.093 C 
HETATM    7  C7  UNL     1     -34.151  15.481  -5.280  1.00 20.00    -0.007 C 
HETATM    8  N13 UNL     1     -37.911  16.193  -7.798  1.00 20.00    -0.197 NA
ENDROOT
BRANCH   7   9
HETATM    9  C12 UNL     1     -34.291  14.991  -3.840  1.00 20.00    -0.044 C 
HETATM   10  C9  UNL     1     -35.781  14.725  -3.543  1.00 20.00     0.015 C 
HETATM   11  C10 UNL     1     -33.511  13.670  -3.682  1.00 20.00     0.015 C 
BRANCH   9  12
HETATM   12  C11 UNL     1     -33.727  16.080  -2.887  1.00 20.00     0.004 C 
HETATM   13  C8  UNL     1     -34.495  16.307  -1.590  1.00 20.00     0.006 C 
ENDBRANCH   9  12
ENDBRANCH   7   9
TORSDOF 2
ENDMDL
MODEL 7
REMARK VINA RESULT:      -4.7      1.280      1.488
REMARK  2 active torsions:
REMARK  status: ('A' for Active; 'I' for Inactive)
REMARK    1  A    between atoms: C7_7  and  C12_12 
REMARK    2  A    between atoms: C11_11  and  C12_12 
ROOT
HETATM    1  C1  UNL     1     -35.899  14.912  -6.203  1.00 20.00     0.064 C 
HETATM    2  C2  UNL     1     -33.680  15.871  -5.650  1.00 20.00     0.019 C 
HETATM    3  C3  UNL     1     -34.677  14.022  -4.237  1.00 20.00     0.019 C 
HETATM    4  C4  UNL     1     -34.087  16.897  -4.590  1.00 20.00     0.007 C 
HETATM    5  C5  UNL     1     -35.083  15.052  -3.180  1.00 20.00     0.007 C 
HETATM    6  C6  UNL     1     -34.565  14.619  -5.645  1.00 20.00     0.093 C 
HETATM    7  C7  UNL     1     -34.155  16.272  -3.191  1.00 20.00    -0.007 C 
HETATM    8  N13 UNL     1     -36.947  15.143  -6.642  1.00 20.00    -0.197 NA
ENDROOT
BRANCH   7   9
HETATM    9  C12 UNL     1     -34.610  17.304  -2.161  1.00 20.00    -0.044 C 
HETATM   10  C9  UNL     1     -33.634  18.498  -2.183  1.00 20.00     0.015 C 
HETATM   11  C10 UNL     1     -36.017  17.807  -2.542  1.00 20.00     0.015 C 
BRANCH   9  12
HETATM   12  C11 UNL     1     -34.626  16.634  -0.759  1.00 20.00     0.004 C 
HETATM   13  C8  UNL     1     -35.137  17.490   0.393  1.00 20.00     0.006 C 
ENDBRANCH   9  12
ENDBRANCH   7   9
TORSDOF 2
ENDMDL
MODEL 8
REMARK VINA RESULT:      -4.6      2.597      4.186
REMARK  2 active torsions:
REMARK  status: ('A' for Active; 'I' for Inactive)
REMARK    1  A    between atoms: C7_7  and  C12_12 
REMARK    2  A    between atoms: C11_11  and  C12_12 
ROOT
HETATM    1  C1  UNL     1     -34.656  13.632  -3.907  1.00 20.00     0.064 C 
HETATM    2  C2  UNL     1     -32.977  15.447  -3.722  1.00 20.00     0.019 C 
HETATM    3  C3  UNL     1     -35.369  15.818  -2.979  1.00 20.00     0.019 C 
HETATM    4  C4  UNL     1     -33.264  16.211  -5.018  1.00 20.00     0.007 C 
HETATM    5  C5  UNL     1     -35.651  16.580  -4.276  1.00 20.00     0.007 C 
HETATM    6  C6  UNL     1     -34.229  14.801  -3.116  1.00 20.00     0.093 C 
HETATM    7  C7  UNL     1     -34.384  17.242  -4.833  1.00 20.00    -0.007 C 
HETATM    8  N13 UNL     1     -34.992  12.712  -4.528  1.00 20.00    -0.197 NA
ENDROOT
BRANCH   7   9
HETATM    9  C12 UNL     1     -34.684  17.955  -6.149  1.00 20.00    -0.044 C 
HETATM   10  C9  UNL     1     -36.141  18.462  -6.124  1.00 20.00     0.015 C 
HETATM   11  C10 UNL     1     -33.740  19.167  -6.290  1.00 20.00     0.015 C 
BRANCH   9  12
HETATM   12  C11 UNL     1     -34.471  16.954  -7.318  1.00 20.00     0.004 C 
HETATM   13  C8  UNL     1     -35.730  16.337  -7.917  1.00 20.00     0.006 C 
ENDBRANCH   9  12
ENDBRANCH   7   9
TORSDOF 2
ENDMDL
MODEL 9
REMARK VINA RESULT:      -4.5      2.650      4.881
REMARK  2 active torsions:
REMARK  status: ('A' for Active; 'I' for Inactive)
REMARK    1  A    between atoms: C7_7  and  C12_12 
REMARK    2  A    between atoms: C11_11  and  C12_12 
ROOT
HETATM    1  C1  UNL     1     -34.236  16.156  -1.915  1.00 20.00     0.064 C 
HETATM    2  C2  UNL     1     -34.304  14.243  -3.492  1.00 20.00     0.019 C 
HETATM    3  C3  UNL     1     -33.498  16.519  -4.254  1.00 20.00     0.019 C 
HETATM    4  C4  UNL     1     -35.655  14.499  -4.165  1.00 20.00     0.007 C 
HETATM    5  C5  UNL     1     -34.851  16.770  -4.926  1.00 20.00     0.007 C 
HETATM    6  C6  UNL     1     -33.583  15.534  -3.083  1.00 20.00     0.093 C 
HETATM    7  C7  UNL     1     -35.524  15.460  -5.353  1.00 20.00    -0.007 C 
HETATM    8  N13 UNL     1     -34.748  16.645  -0.996  1.00 20.00    -0.197 NA
ENDROOT
BRANCH   7   9
HETATM    9  C12 UNL     1     -36.891  15.736  -5.976  1.00 20.00    -0.044 C 
HETATM   10  C9  UNL     1     -37.986  15.146  -5.064  1.00 20.00     0.015 C 
HETATM   11  C10 UNL     1     -37.098  17.261  -6.076  1.00 20.00     0.015 C 
BRANCH   9  12
HETATM   12  C11 UNL     1     -36.937  15.081  -7.384  1.00 20.00     0.004 C 
HETATM   13  C8  UNL     1     -35.626  14.509  -7.907  1.00 20.00     0.006 C 
ENDBRANCH   9  12
ENDBRANCH   7   9
TORSDOF 2
ENDMDL
