MODEL 1
REMARK VINA RESULT:      -4.1      0.000      0.000
REMARK  6 active torsions:
REMARK  status: ('A' for Active; 'I' for Inactive)
REMARK    1  A    between atoms: C1_1  and  C5_5 
REMARK    2  A    between atoms: C1_1  and  O10_10 
REMARK    3  A    between atoms: C5_5  and  C6_6 
REMARK    4  A    between atoms: C6_6  and  C7_7 
REMARK    5  A    between atoms: C7_7  and  O11_11 
REMARK    6  A    between atoms: C8_8  and  O11_11 
ROOT
HETATM    1  C6  UNL     1     -33.663   5.744   2.841  1.00 20.00     0.036 C 
ENDROOT
BRANCH   1   2
HETATM    2  C5  UNL     1     -32.167   5.932   3.073  1.00 20.00     0.113 C 
BRANCH   2   3
HETATM    3  C1  UNL     1     -31.770   7.390   3.051  1.00 20.00     0.258 C 
HETATM    4  O9  UNL     1     -31.330   8.017   4.005  1.00 20.00    -0.265 OA
BRANCH   3   5
HETATM    5  O10 UNL     1     -31.981   7.887   1.795  1.00 20.00    -0.326 OA
HETATM    6  C4  UNL     1     -32.385   9.259   1.735  1.00 20.00     0.213 C 
ENDBRANCH   3   5
ENDBRANCH   2   3
ENDBRANCH   1   2
BRANCH   1   7
HETATM    7  C7  UNL     1     -34.489   6.359   3.962  1.00 20.00     0.168 C 
BRANCH   7   8
HETATM    8  O11 UNL     1     -35.355   5.365   4.492  1.00 20.00    -0.387 OA
BRANCH   8   9
HETATM    9  C8  UNL     1     -35.062   5.091   5.856  1.00 20.00     0.113 C 
HETATM   10  C2  UNL     1     -34.375   3.739   5.959  1.00 20.00     0.039 C 
HETATM   11  C3  UNL     1     -34.196   6.210   6.416  1.00 20.00     0.039 C 
ENDBRANCH   8   9
ENDBRANCH   7   8
ENDBRANCH   1   7
TORSDOF 6
ENDMDL
MODEL 2
REMARK VINA RESULT:      -4.0      1.212      5.019
REMARK  6 active torsions:
REMARK  status: ('A' for Active; 'I' for Inactive)
REMARK    1  A    between atoms: C1_1  and  C5_5 
REMARK    2  A    between atoms: C1_1  and  O10_10 
REMARK    3  A    between atoms: C5_5  and  C6_6 
REMARK    4  A    between atoms: C6_6  and  C7_7 
REMARK    5  A    between atoms: C7_7  and  O11_11 
REMARK    6  A    between atoms: C8_8  and  O11_11 
ROOT
HETATM    1  C6  UNL     1     -33.598   5.488   3.033  1.00 20.00     0.036 C 
ENDROOT
BRANCH   1   2
HETATM    2  C5  UNL     1     -34.726   5.853   3.993  1.00 20.00     0.113 C 
BRANCH   2   3
HETATM    3  C1  UNL     1     -34.934   4.793   5.051  1.00 20.00     0.258 C 
HETATM    4  O9  UNL     1     -35.080   3.598   4.834  1.00 20.00    -0.265 OA
BRANCH   3   5
HETATM    5  O10 UNL     1     -34.929   5.390   6.280  1.00 20.00    -0.326 OA
HETATM    6  C4  UNL     1     -34.017   6.482   6.431  1.00 20.00     0.213 C 
ENDBRANCH   3   5
ENDBRANCH   2   3
ENDBRANCH   1   2
BRANCH   1   7
HETATM    7  C7  UNL     1     -32.514   6.555   3.007  1.00 20.00     0.168 C 
BRANCH   7   8
HETATM    8  O11 UNL     1     -33.089   7.784   2.585  1.00 20.00    -0.387 OA
BRANCH   8   9
HETATM    9  C8  UNL     1     -32.111   8.656   2.034  1.00 20.00     0.113 C 
HETATM   10  C2  UNL     1     -31.703   8.146   0.661  1.00 20.00     0.039 C 
HETATM   11  C3  UNL     1     -32.678  10.066   1.969  1.00 20.00     0.039 C 
ENDBRANCH   8   9
ENDBRANCH   7   8
ENDBRANCH   1   7
TORSDOF 6
ENDMDL
MODEL 3
REMARK VINA RESULT:      -3.9      1.331      5.189
REMARK  6 active torsions:
REMARK  status: ('A' for Active; 'I' for Inactive)
REMARK    1  A    between atoms: C1_1  and  C5_5 
REMARK    2  A    between atoms: C1_1  and  O10_10 
REMARK    3  A    between atoms: C5_5  and  C6_6 
REMARK    4  A    between atoms: C6_6  and  C7_7 
REMARK    5  A    between atoms: C7_7  and  O11_11 
REMARK    6  A    between atoms: C8_8  and  O11_11 
ROOT
HETATM    1  C6  UNL     1     -32.619   6.346   3.565  1.00 20.00     0.036 C 
ENDROOT
BRANCH   1   2
HETATM    2  C5  UNL     1     -34.054   6.328   4.083  1.00 20.00     0.113 C 
BRANCH   2   3
HETATM    3  C1  UNL     1     -34.110   6.218   5.590  1.00 20.00     0.258 C 
HETATM    4  O9  UNL     1     -33.402   6.841   6.370  1.00 20.00    -0.265 OA
BRANCH   3   5
HETATM    5  O10 UNL     1     -35.077   5.315   5.932  1.00 20.00    -0.326 OA
HETATM    6  C4  UNL     1     -34.822   3.962   5.539  1.00 20.00     0.213 C 
ENDBRANCH   3   5
ENDBRANCH   2   3
ENDBRANCH   1   2
BRANCH   1   7
HETATM    7  C7  UNL     1     -32.210   7.733   3.091  1.00 20.00     0.168 C 
BRANCH   7   8
HETATM    8  O11 UNL     1     -31.895   7.670   1.706  1.00 20.00    -0.387 OA
BRANCH   8   9
HETATM    9  C8  UNL     1     -31.951   8.954   1.100  1.00 20.00     0.113 C 
HETATM   10  C2  UNL     1     -32.627   8.838  -0.257  1.00 20.00     0.039 C 
HETATM   11  C3  UNL     1     -32.691   9.911   2.021  1.00 20.00     0.039 C 
ENDBRANCH   8   9
ENDBRANCH   7   8
ENDBRANCH   1   7
TORSDOF 6
ENDMDL
MODEL 4
REMARK VINA RESULT:      -3.9      1.219      1.604
REMARK  6 active torsions:
REMARK  status: ('A' for Active; 'I' for Inactive)
REMARK    1  A    between atoms: C1_1  and  C5_5 
REMARK    2  A    between atoms: C1_1  and  O10_10 
REMARK    3  A    between atoms: C5_5  and  C6_6 
REMARK    4  A    between atoms: C6_6  and  C7_7 
REMARK    5  A    between atoms: C7_7  and  O11_11 
REMARK    6  A    between atoms: C8_8  and  O11_11 
ROOT
HETATM    1  C6  UNL     1     -32.528   6.565   2.905  1.00 20.00     0.036 C 
ENDROOT
BRANCH   1   2
HETATM    2  C5  UNL     1     -31.716   7.855   2.959  1.00 20.00     0.113 C 
BRANCH   2   3
HETATM    3  C1  UNL     1     -32.119   8.823   1.870  1.00 20.00     0.258 C 
HETATM    4  O9  UNL     1     -32.783   9.836   2.036  1.00 20.00    -0.265 OA
BRANCH   3   5
HETATM    5  O10 UNL     1     -31.617   8.381   0.678  1.00 20.00    -0.326 OA
HETATM    6  C4  UNL     1     -32.413   8.680  -0.474  1.00 20.00     0.213 C 
ENDBRANCH   3   5
ENDBRANCH   2   3
ENDBRANCH   1   2
BRANCH   1   7
HETATM    7  C7  UNL     1     -33.807   6.670   3.722  1.00 20.00     0.168 C 
BRANCH   7   8
HETATM    8  O11 UNL     1     -34.243   5.360   4.062  1.00 20.00    -0.387 OA
BRANCH   8   9
HETATM    9  C8  UNL     1     -34.860   5.331   5.342  1.00 20.00     0.113 C 
HETATM   10  C2  UNL     1     -34.867   3.903   5.862  1.00 20.00     0.039 C 
HETATM   11  C3  UNL     1     -34.114   6.271   6.278  1.00 20.00     0.039 C 
ENDBRANCH   8   9
ENDBRANCH   7   8
ENDBRANCH   1   7
TORSDOF 6
ENDMDL
MODEL 5
REMARK VINA RESULT:      -3.9     11.246     11.951
REMARK  6 active torsions:
REMARK  status: ('A' for Active; 'I' for Inactive)
REMARK    1  A    between atoms: C1_1  and  C5_5 
REMARK    2  A    between atoms: C1_1  and  O10_10 
REMARK    3  A    between atoms: C5_5  and  C6_6 
REMARK    4  A    between atoms: C6_6  and  C7_7 
REMARK    5  A    between atoms: C7_7  and  O11_11 
REMARK    6  A    between atoms: C8_8  and  O11_11 
ROOT
HETATM    1  C6  UNL     1     -34.715  15.129  -2.889  1.00 20.00     0.036 C 
ENDROOT
BRANCH   1   2
HETATM    2  C5  UNL     1     -33.722  14.547  -3.890  1.00 20.00     0.113 C 
BRANCH   2   3
HETATM    3  C1  UNL     1     -34.400  13.664  -4.912  1.00 20.00     0.258 C 
HETATM    4  O9  UNL     1     -34.878  12.561  -4.686  1.00 20.00    -0.265 OA
BRANCH   3   5
HETATM    5  O10 UNL     1     -34.390  14.300  -6.122  1.00 20.00    -0.326 OA
HETATM    6  C4  UNL     1     -35.676  14.654  -6.643  1.00 20.00     0.213 C 
ENDBRANCH   3   5
ENDBRANCH   2   3
ENDBRANCH   1   2
BRANCH   1   7
HETATM    7  C7  UNL     1     -34.125  16.308  -2.130  1.00 20.00     0.168 C 
BRANCH   7   8
HETATM    8  O11 UNL     1     -34.669  16.327  -0.817  1.00 20.00    -0.387 OA
BRANCH   8   9
HETATM    9  C8  UNL     1     -34.664  17.638  -0.269  1.00 20.00     0.113 C 
HETATM   10  C2  UNL     1     -35.204  17.590   1.151  1.00 20.00     0.039 C 
HETATM   11  C3  UNL     1     -33.250  18.196  -0.318  1.00 20.00     0.039 C 
ENDBRANCH   8   9
ENDBRANCH   7   8
ENDBRANCH   1   7
TORSDOF 6
ENDMDL
MODEL 6
REMARK VINA RESULT:      -3.8     11.332     12.711
REMARK  6 active torsions:
REMARK  status: ('A' for Active; 'I' for Inactive)
REMARK    1  A    between atoms: C1_1  and  C5_5 
REMARK    2  A    between atoms: C1_1  and  O10_10 
REMARK    3  A    between atoms: C5_5  and  C6_6 
REMARK    4  A    between atoms: C6_6  and  C7_7 
REMARK    5  A    between atoms: C7_7  and  O11_11 
REMARK    6  A    between atoms: C8_8  and  O11_11 
ROOT
HETATM    1  C6  UNL     1     -34.203  15.168  -5.745  1.00 20.00     0.036 C 
ENDROOT
BRANCH   1   2
HETATM    2  C5  UNL     1     -35.650  14.725  -5.559  1.00 20.00     0.113 C 
BRANCH   2   3
HETATM    3  C1  UNL     1     -35.791  13.701  -4.455  1.00 20.00     0.258 C 
HETATM    4  O9  UNL     1     -35.004  12.792  -4.232  1.00 20.00    -0.265 OA
BRANCH   3   5
HETATM    5  O10 UNL     1     -36.934  13.961  -3.754  1.00 20.00    -0.326 OA
HETATM    6  C4  UNL     1     -37.420  15.305  -3.844  1.00 20.00     0.213 C 
ENDBRANCH   3   5
ENDBRANCH   2   3
ENDBRANCH   1   2
BRANCH   1   7
HETATM    7  C7  UNL     1     -33.915  16.472  -5.015  1.00 20.00     0.168 C 
BRANCH   7   8
HETATM    8  O11 UNL     1     -33.361  16.172  -3.741  1.00 20.00    -0.387 OA
BRANCH   8   9
HETATM    9  C8  UNL     1     -33.853  17.050  -2.738  1.00 20.00     0.113 C 
HETATM   10  C2  UNL     1     -34.783  18.069  -3.377  1.00 20.00     0.039 C 
HETATM   11  C3  UNL     1     -34.558  16.236  -1.663  1.00 20.00     0.039 C 
ENDBRANCH   8   9
ENDBRANCH   7   8
ENDBRANCH   1   7
TORSDOF 6
ENDMDL
MODEL 7
REMARK VINA RESULT:      -3.8     11.026     13.258
REMARK  6 active torsions:
REMARK  status: ('A' for Active; 'I' for Inactive)
REMARK    1  A    between atoms: C1_1  and  C5_5 
REMARK    2  A    between atoms: C1_1  and  O10_10 
REMARK    3  A    between atoms: C5_5  and  C6_6 
REMARK    4  A    between atoms: C6_6  and  C7_7 
REMARK    5  A    between atoms: C7_7  and  O11_11 
REMARK    6  A    between atoms: C8_8  and  O11_11 
ROOT
HETATM    1  C6  UNL     1     -33.197  15.063  -3.687  1.00 20.00     0.036 C 
ENDROOT
BRANCH   1   2
HETATM    2  C5  UNL     1     -34.449  14.328  -3.220  1.00 20.00     0.113 C 
BRANCH   2   3
HETATM    3  C1  UNL     1     -35.142  13.612  -4.357  1.00 20.00     0.258 C 
HETATM    4  O9  UNL     1     -34.786  12.547  -4.841  1.00 20.00    -0.265 OA
BRANCH   3   5
HETATM    5  O10 UNL     1     -36.226  14.348  -4.747  1.00 20.00    -0.326 OA
HETATM    6  C4  UNL     1     -37.029  14.872  -3.685  1.00 20.00     0.213 C 
ENDBRANCH   3   5
ENDBRANCH   2   3
ENDBRANCH   1   2
BRANCH   1   7
HETATM    7  C7  UNL     1     -33.476  16.534  -3.962  1.00 20.00     0.168 C 
BRANCH   7   8
HETATM    8  O11 UNL     1     -32.979  16.862  -5.252  1.00 20.00    -0.387 OA
BRANCH   8   9
HETATM    9  C8  UNL     1     -34.021  17.290  -6.119  1.00 20.00     0.113 C 
HETATM   10  C2  UNL     1     -34.389  16.154  -7.060  1.00 20.00     0.039 C 
HETATM   11  C3  UNL     1     -35.211  17.743  -5.286  1.00 20.00     0.039 C 
ENDBRANCH   8   9
ENDBRANCH   7   8
ENDBRANCH   1   7
TORSDOF 6
ENDMDL
MODEL 8
REMARK VINA RESULT:      -3.8     11.254     12.153
REMARK  6 active torsions:
REMARK  status: ('A' for Active; 'I' for Inactive)
REMARK    1  A    between atoms: C1_1  and  C5_5 
REMARK    2  A    between atoms: C1_1  and  O10_10 
REMARK    3  A    between atoms: C5_5  and  C6_6 
REMARK    4  A    between atoms: C6_6  and  C7_7 
REMARK    5  A    between atoms: C7_7  and  O11_11 
REMARK    6  A    between atoms: C8_8  and  O11_11 
ROOT
HETATM    1  C6  UNL     1     -33.844  15.382  -3.599  1.00 20.00     0.036 C 
ENDROOT
BRANCH   1   2
HETATM    2  C5  UNL     1     -34.964  15.050  -4.580  1.00 20.00     0.113 C 
BRANCH   2   3
HETATM    3  C1  UNL     1     -35.609  13.718  -4.273  1.00 20.00     0.258 C 
HETATM    4  O9  UNL     1     -35.065  12.627  -4.384  1.00 20.00    -0.265 OA
BRANCH   3   5
HETATM    5  O10 UNL     1     -36.890  13.934  -3.851  1.00 20.00    -0.326 OA
HETATM    6  C4  UNL     1     -37.573  15.020  -4.487  1.00 20.00     0.213 C 
ENDBRANCH   3   5
ENDBRANCH   2   3
ENDBRANCH   1   2
BRANCH   1   7
HETATM    7  C7  UNL     1     -34.379  16.046  -2.338  1.00 20.00     0.168 C 
BRANCH   7   8
HETATM    8  O11 UNL     1     -33.398  16.946  -1.843  1.00 20.00    -0.387 OA
BRANCH   8   9
HETATM    9  C8  UNL     1     -33.957  17.872  -0.921  1.00 20.00     0.113 C 
HETATM   10  C2  UNL     1     -34.879  17.132   0.035  1.00 20.00     0.039 C 
HETATM   11  C3  UNL     1     -32.834  18.587  -0.185  1.00 20.00     0.039 C 
ENDBRANCH   8   9
ENDBRANCH   7   8
ENDBRANCH   1   7
TORSDOF 6
ENDMDL
MODEL 9
REMARK VINA RESULT:      -3.8     10.994     12.176
REMARK  6 active torsions:
REMARK  status: ('A' for Active; 'I' for Inactive)
REMARK    1  A    between atoms: C1_1  and  C5_5 
REMARK    2  A    between atoms: C1_1  and  O10_10 
REMARK    3  A    between atoms: C5_5  and  C6_6 
REMARK    4  A    between atoms: C6_6  and  C7_7 
REMARK    5  A    between atoms: C7_7  and  O11_11 
REMARK    6  A    between atoms: C8_8  and  O11_11 
ROOT
HETATM    1  C6  UNL     1     -35.864  15.410  -4.707  1.00 20.00     0.036 C 
ENDROOT
BRANCH   1   2
HETATM    2  C5  UNL     1     -34.472  14.843  -4.970  1.00 20.00     0.113 C 
BRANCH   2   3
HETATM    3  C1  UNL     1     -34.303  13.462  -4.379  1.00 20.00     0.258 C 
HETATM    4  O9  UNL     1     -35.117  12.553  -4.464  1.00 20.00    -0.265 OA
BRANCH   3   5
HETATM    5  O10 UNL     1     -33.096  13.399  -3.741  1.00 20.00    -0.326 OA
HETATM    6  C4  UNL     1     -32.420  14.651  -3.577  1.00 20.00     0.213 C 
ENDBRANCH   3   5
ENDBRANCH   2   3
ENDBRANCH   1   2
BRANCH   1   7
HETATM    7  C7  UNL     1     -36.068  15.742  -3.236  1.00 20.00     0.168 C 
BRANCH   7   8
HETATM    8  O11 UNL     1     -36.064  17.154  -3.080  1.00 20.00    -0.387 OA
BRANCH   8   9
HETATM    9  C8  UNL     1     -35.060  17.575  -2.165  1.00 20.00     0.113 C 
HETATM   10  C2  UNL     1     -34.678  16.407  -1.270  1.00 20.00     0.039 C 
HETATM   11  C3  UNL     1     -33.866  18.107  -2.943  1.00 20.00     0.039 C 
ENDBRANCH   8   9
ENDBRANCH   7   8
ENDBRANCH   1   7
TORSDOF 6
ENDMDL
