MODEL 1
REMARK VINA RESULT:      -4.9      0.000      0.000
REMARK  0 active torsions:
REMARK  status: ('A' for Active; 'I' for Inactive)
ROOT
HETATM    1  C1  UNL     1     -35.398  13.874  -4.283  1.00 20.00     0.064 C 
HETATM    2  C2  UNL     1     -35.980  15.688  -2.691  1.00 20.00     0.023 C 
HETATM    3  C3  UNL     1     -35.314  16.238  -5.082  1.00 20.00     0.028 C 
HETATM    4  C4  UNL     1     -34.020  17.220  -3.129  1.00 20.00     0.013 C 
HETATM    5  C5  UNL     1     -35.985  15.219  -4.150  1.00 20.00     0.094 C 
HETATM    6  C6  UNL     1     -34.595  16.137  -2.204  1.00 20.00    -0.017 C 
HETATM    7  C7  UNL     1     -33.943  16.787  -4.611  1.00 20.00    -0.046 C 
HETATM    8  C8  UNL     1     -34.678  16.656  -0.767  1.00 20.00     0.010 C 
HETATM    9  C9  UNL     1     -33.590  18.021  -5.468  1.00 20.00     0.015 C 
HETATM   10  C10 UNL     1     -32.818  15.755  -4.815  1.00 20.00     0.015 C 
HETATM   11  N11 UNL     1     -34.935  12.816  -4.388  1.00 20.00    -0.197 NA
ENDROOT
TORSDOF 0
ENDMDL
MODEL 2
REMARK VINA RESULT:      -4.8      1.537      1.823
REMARK  0 active torsions:
REMARK  status: ('A' for Active; 'I' for Inactive)
ROOT
HETATM    1  C1  UNL     1     -37.355  15.351  -3.673  1.00 20.00     0.064 C 
HETATM    2  C2  UNL     1     -36.200  17.118  -2.364  1.00 20.00     0.023 C 
HETATM    3  C3  UNL     1     -35.365  16.474  -4.677  1.00 20.00     0.028 C 
HETATM    4  C4  UNL     1     -33.823  16.318  -2.665  1.00 20.00     0.013 C 
HETATM    5  C5  UNL     1     -36.586  16.605  -3.756  1.00 20.00     0.094 C 
HETATM    6  C6  UNL     1     -35.042  16.334  -1.730  1.00 20.00    -0.017 C 
HETATM    7  C7  UNL     1     -34.132  15.756  -4.071  1.00 20.00    -0.046 C 
HETATM    8  C8  UNL     1     -34.666  16.942  -0.377  1.00 20.00     0.010 C 
HETATM    9  C9  UNL     1     -32.916  16.017  -4.985  1.00 20.00     0.015 C 
HETATM   10  C10 UNL     1     -34.338  14.231  -4.010  1.00 20.00     0.015 C 
HETATM   11  N11 UNL     1     -37.960  14.364  -3.606  1.00 20.00    -0.197 NA
ENDROOT
TORSDOF 0
ENDMDL
MODEL 3
REMARK VINA RESULT:      -4.5      1.193      3.222
REMARK  0 active torsions:
REMARK  status: ('A' for Active; 'I' for Inactive)
ROOT
HETATM    1  C1  UNL     1     -34.366  13.850  -3.838  1.00 20.00     0.064 C 
HETATM    2  C2  UNL     1     -33.237  15.969  -4.473  1.00 20.00     0.023 C 
HETATM    3  C3  UNL     1     -34.611  15.831  -2.339  1.00 20.00     0.028 C 
HETATM    4  C4  UNL     1     -35.174  17.550  -4.122  1.00 20.00     0.013 C 
HETATM    5  C5  UNL     1     -33.716  15.070  -3.328  1.00 20.00     0.094 C 
HETATM    6  C6  UNL     1     -34.376  16.741  -5.154  1.00 20.00    -0.017 C 
HETATM    7  C7  UNL     1     -35.738  16.690  -2.967  1.00 20.00    -0.046 C 
HETATM    8  C8  UNL     1     -33.817  17.666  -6.238  1.00 20.00     0.010 C 
HETATM    9  C9  UNL     1     -36.299  17.631  -1.879  1.00 20.00     0.015 C 
HETATM   10  C10 UNL     1     -36.907  15.818  -3.463  1.00 20.00     0.015 C 
HETATM   11  N11 UNL     1     -34.877  12.890  -4.240  1.00 20.00    -0.197 NA
ENDROOT
TORSDOF 0
ENDMDL
MODEL 4
REMARK VINA RESULT:      -4.5      1.977      2.762
REMARK  0 active torsions:
REMARK  status: ('A' for Active; 'I' for Inactive)
ROOT
HETATM    1  C1  UNL     1     -37.432  15.056  -3.700  1.00 20.00     0.064 C 
HETATM    2  C2  UNL     1     -35.032  15.251  -3.091  1.00 20.00     0.023 C 
HETATM    3  C3  UNL     1     -36.027  16.738  -4.897  1.00 20.00     0.028 C 
HETATM    4  C4  UNL     1     -34.049  15.233  -5.417  1.00 20.00     0.013 C 
HETATM    5  C5  UNL     1     -36.287  15.977  -3.589  1.00 20.00     0.094 C 
HETATM    6  C6  UNL     1     -34.362  14.391  -4.172  1.00 20.00    -0.017 C 
HETATM    7  C7  UNL     1     -35.286  15.947  -6.005  1.00 20.00    -0.046 C 
HETATM    8  C8  UNL     1     -33.082  13.753  -3.626  1.00 20.00     0.010 C 
HETATM    9  C9  UNL     1     -34.815  16.944  -7.085  1.00 20.00     0.015 C 
HETATM   10  C10 UNL     1     -36.218  14.933  -6.698  1.00 20.00     0.015 C 
HETATM   11  N11 UNL     1     -38.333  14.331  -3.788  1.00 20.00    -0.197 NA
ENDROOT
TORSDOF 0
ENDMDL
MODEL 5
REMARK VINA RESULT:      -4.5      1.675      3.341
REMARK  0 active torsions:
REMARK  status: ('A' for Active; 'I' for Inactive)
ROOT
HETATM    1  C1  UNL     1     -36.811  14.415  -4.190  1.00 20.00     0.064 C 
HETATM    2  C2  UNL     1     -35.526  15.000  -6.233  1.00 20.00     0.023 C 
HETATM    3  C3  UNL     1     -34.394  13.802  -4.298  1.00 20.00     0.028 C 
HETATM    4  C4  UNL     1     -33.505  16.033  -5.125  1.00 20.00     0.013 C 
HETATM    5  C5  UNL     1     -35.703  14.014  -5.073  1.00 20.00     0.094 C 
HETATM    6  C6  UNL     1     -34.849  16.313  -5.814  1.00 20.00    -0.017 C 
HETATM    7  C7  UNL     1     -33.622  15.088  -3.908  1.00 20.00    -0.046 C 
HETATM    8  C8  UNL     1     -34.644  17.218  -7.031  1.00 20.00     0.010 C 
HETATM    9  C9  UNL     1     -32.201  14.687  -3.456  1.00 20.00     0.015 C 
HETATM   10  C10 UNL     1     -34.288  15.813  -2.723  1.00 20.00     0.015 C 
HETATM   11  N11 UNL     1     -37.685  14.732  -3.495  1.00 20.00    -0.197 NA
ENDROOT
TORSDOF 0
ENDMDL
MODEL 6
REMARK VINA RESULT:      -4.5      1.857      2.282
REMARK  0 active torsions:
REMARK  status: ('A' for Active; 'I' for Inactive)
ROOT
HETATM    1  C1  UNL     1     -34.052  13.520  -4.371  1.00 20.00     0.064 C 
HETATM    2  C2  UNL     1     -36.364  14.415  -4.507  1.00 20.00     0.023 C 
HETATM    3  C3  UNL     1     -34.738  14.747  -6.433  1.00 20.00     0.028 C 
HETATM    4  C4  UNL     1     -35.820  16.749  -5.304  1.00 20.00     0.013 C 
HETATM    5  C5  UNL     1     -35.171  13.836  -5.275  1.00 20.00     0.094 C 
HETATM    6  C6  UNL     1     -36.161  15.878  -4.087  1.00 20.00    -0.017 C 
HETATM    7  C7  UNL     1     -34.586  16.251  -6.092  1.00 20.00    -0.046 C 
HETATM    8  C8  UNL     1     -37.415  16.409  -3.388  1.00 20.00     0.010 C 
HETATM    9  C9  UNL     1     -34.490  17.045  -7.412  1.00 20.00     0.015 C 
HETATM   10  C10 UNL     1     -33.293  16.525  -5.301  1.00 20.00     0.015 C 
HETATM   11  N11 UNL     1     -33.171  13.271  -3.659  1.00 20.00    -0.197 NA
ENDROOT
TORSDOF 0
ENDMDL
MODEL 7
REMARK VINA RESULT:      -4.5      2.000      3.279
REMARK  0 active torsions:
REMARK  status: ('A' for Active; 'I' for Inactive)
ROOT
HETATM    1  C1  UNL     1     -35.004  17.860  -5.358  1.00 20.00     0.064 C 
HETATM    2  C2  UNL     1     -33.758  17.276  -3.291  1.00 20.00     0.023 C 
HETATM    3  C3  UNL     1     -33.849  15.650  -5.244  1.00 20.00     0.028 C 
HETATM    4  C4  UNL     1     -34.670  14.946  -2.946  1.00 20.00     0.013 C 
HETATM    5  C5  UNL     1     -33.849  17.125  -4.814  1.00 20.00     0.094 C 
HETATM    6  C6  UNL     1     -34.785  16.422  -2.535  1.00 20.00    -0.017 C 
HETATM    7  C7  UNL     1     -34.813  14.718  -4.467  1.00 20.00    -0.046 C 
HETATM    8  C8  UNL     1     -34.590  16.569  -1.024  1.00 20.00     0.010 C 
HETATM    9  C9  UNL     1     -34.438  13.254  -4.785  1.00 20.00     0.015 C 
HETATM   10  C10 UNL     1     -36.275  14.918  -4.909  1.00 20.00     0.015 C 
HETATM   11  N11 UNL     1     -35.913  18.440  -5.786  1.00 20.00    -0.197 NA
ENDROOT
TORSDOF 0
ENDMDL
MODEL 8
REMARK VINA RESULT:      -4.4      1.725      2.095
REMARK  0 active torsions:
REMARK  status: ('A' for Active; 'I' for Inactive)
ROOT
HETATM    1  C1  UNL     1     -37.925  15.221  -4.006  1.00 20.00     0.064 C 
HETATM    2  C2  UNL     1     -36.419  16.846  -2.885  1.00 20.00     0.023 C 
HETATM    3  C3  UNL     1     -36.157  16.344  -5.364  1.00 20.00     0.028 C 
HETATM    4  C4  UNL     1     -34.213  15.988  -3.768  1.00 20.00     0.013 C 
HETATM    5  C5  UNL     1     -37.132  16.450  -4.182  1.00 20.00     0.094 C 
HETATM    6  C6  UNL     1     -35.189  15.978  -2.582  1.00 20.00    -0.017 C 
HETATM    7  C7  UNL     1     -34.858  15.541  -5.100  1.00 20.00    -0.046 C 
HETATM    8  C8  UNL     1     -34.489  16.472  -1.314  1.00 20.00     0.010 C 
HETATM    9  C9  UNL     1     -33.866  15.825  -6.248  1.00 20.00     0.015 C 
HETATM   10  C10 UNL     1     -35.122  14.023  -5.091  1.00 20.00     0.015 C 
HETATM   11  N11 UNL     1     -38.550  14.254  -3.867  1.00 20.00    -0.197 NA
ENDROOT
TORSDOF 0
ENDMDL
MODEL 9
REMARK VINA RESULT:      -4.4      1.482      2.938
REMARK  0 active torsions:
REMARK  status: ('A' for Active; 'I' for Inactive)
ROOT
HETATM    1  C1  UNL     1     -34.071  13.923  -3.592  1.00 20.00     0.064 C 
HETATM    2  C2  UNL     1     -34.438  16.378  -3.511  1.00 20.00     0.023 C 
HETATM    3  C3  UNL     1     -36.272  14.828  -4.346  1.00 20.00     0.028 C 
HETATM    4  C4  UNL     1     -35.393  16.694  -5.827  1.00 20.00     0.013 C 
HETATM    5  C5  UNL     1     -35.072  14.987  -3.401  1.00 20.00     0.094 C 
HETATM    6  C6  UNL     1     -34.131  16.791  -4.957  1.00 20.00    -0.017 C 
HETATM    7  C7  UNL     1     -36.050  15.296  -5.807  1.00 20.00    -0.046 C 
HETATM    8  C8  UNL     1     -33.566  18.212  -4.997  1.00 20.00     0.010 C 
HETATM    9  C9  UNL     1     -37.424  15.385  -6.505  1.00 20.00     0.015 C 
HETATM   10  C10 UNL     1     -35.200  14.287  -6.603  1.00 20.00     0.015 C 
HETATM   11  N11 UNL     1     -33.282  13.086  -3.742  1.00 20.00    -0.197 NA
ENDROOT
TORSDOF 0
ENDMDL
