MODEL 1
REMARK VINA RESULT:      -4.1      0.000      0.000
REMARK  3 active torsions:
REMARK  status: ('A' for Active; 'I' for Inactive)
REMARK    1  A    between atoms: C5_5  and  C6_6 
REMARK    2  A    between atoms: C6_6  and  C7_7 
REMARK    3  A    between atoms: C7_7  and  N9_9 
ROOT
HETATM    1  C1  UNL     1     -34.386  13.812  -4.342  1.00 20.00     0.095 C 
HETATM    2  C7  UNL     1     -33.631  15.074  -4.411  1.00 20.00     0.327 C 
HETATM    3  N8  UNL     1     -34.977  12.814  -4.291  1.00 20.00    -0.195 NA
ENDROOT
BRANCH   2   4
HETATM    4  C6  UNL     1     -33.507  15.735  -3.027  1.00 20.00     0.050 C 
BRANCH   4   5
HETATM    5  C5  UNL     1     -34.820  15.844  -2.241  1.00 20.00    -0.001 C 
HETATM    6  C2  UNL     1     -34.616  16.581  -0.925  1.00 20.00     0.005 C 
ENDBRANCH   4   5
ENDBRANCH   2   4
BRANCH   2   7
HETATM    7  N9  UNL     1     -34.248  15.984  -5.375  1.00 20.00     0.098 N 
HETATM    8  C3  UNL     1     -34.263  15.383  -6.709  1.00 20.00     0.311 C 
HETATM    9  C4  UNL     1     -33.537  17.262  -5.399  1.00 20.00     0.311 C 
ENDBRANCH   2   7
TORSDOF 3
ENDMDL
MODEL 2
REMARK VINA RESULT:      -3.9      1.085      1.299
REMARK  3 active torsions:
REMARK  status: ('A' for Active; 'I' for Inactive)
REMARK    1  A    between atoms: C5_5  and  C6_6 
REMARK    2  A    between atoms: C6_6  and  C7_7 
REMARK    3  A    between atoms: C7_7  and  N9_9 
ROOT
HETATM    1  C1  UNL     1     -34.575  13.824  -4.250  1.00 20.00     0.095 C 
HETATM    2  C7  UNL     1     -34.231  15.203  -3.863  1.00 20.00     0.327 C 
HETATM    3  N8  UNL     1     -34.842  12.736  -4.556  1.00 20.00    -0.195 NA
ENDROOT
BRANCH   2   4
HETATM    4  C6  UNL     1     -34.777  15.552  -2.468  1.00 20.00     0.050 C 
BRANCH   4   5
HETATM    5  C5  UNL     1     -34.012  16.660  -1.732  1.00 20.00    -0.001 C 
HETATM    6  C2  UNL     1     -34.661  16.984  -0.394  1.00 20.00     0.005 C 
ENDBRANCH   4   5
ENDBRANCH   2   4
BRANCH   2   7
HETATM    7  N9  UNL     1     -34.712  16.148  -4.868  1.00 20.00     0.098 N 
HETATM    8  C3  UNL     1     -36.169  16.077  -4.983  1.00 20.00     0.311 C 
HETATM    9  C4  UNL     1     -34.084  15.883  -6.163  1.00 20.00     0.311 C 
ENDBRANCH   2   7
TORSDOF 3
ENDMDL
MODEL 3
REMARK VINA RESULT:      -3.7     11.693     13.111
REMARK  3 active torsions:
REMARK  status: ('A' for Active; 'I' for Inactive)
REMARK    1  A    between atoms: C5_5  and  C6_6 
REMARK    2  A    between atoms: C6_6  and  C7_7 
REMARK    3  A    between atoms: C7_7  and  N9_9 
ROOT
HETATM    1  C1  UNL     1     -33.687   6.461   5.743  1.00 20.00     0.095 C 
HETATM    2  C7  UNL     1     -33.567   5.551   4.592  1.00 20.00     0.327 C 
HETATM    3  N8  UNL     1     -33.779   7.175   6.654  1.00 20.00    -0.195 NA
ENDROOT
BRANCH   2   4
HETATM    4  C6  UNL     1     -33.311   6.323   3.285  1.00 20.00     0.050 C 
BRANCH   4   5
HETATM    5  C5  UNL     1     -32.020   7.152   3.265  1.00 20.00    -0.001 C 
HETATM    6  C2  UNL     1     -32.038   8.172   2.136  1.00 20.00     0.005 C 
ENDBRANCH   4   5
ENDBRANCH   2   4
BRANCH   2   7
HETATM    7  N9  UNL     1     -34.756   4.709   4.481  1.00 20.00     0.098 N 
HETATM    8  C3  UNL     1     -35.866   5.464   3.901  1.00 20.00     0.311 C 
HETATM    9  C4  UNL     1     -35.130   4.177   5.792  1.00 20.00     0.311 C 
ENDBRANCH   2   7
TORSDOF 3
ENDMDL
MODEL 4
REMARK VINA RESULT:      -3.7      1.318      1.340
REMARK  3 active torsions:
REMARK  status: ('A' for Active; 'I' for Inactive)
REMARK    1  A    between atoms: C5_5  and  C6_6 
REMARK    2  A    between atoms: C6_6  and  C7_7 
REMARK    3  A    between atoms: C7_7  and  N9_9 
ROOT
HETATM    1  C1  UNL     1     -36.245  14.442  -3.979  1.00 20.00     0.095 C 
HETATM    2  C7  UNL     1     -34.810  14.726  -4.143  1.00 20.00     0.327 C 
HETATM    3  N8  UNL     1     -37.377  14.214  -3.853  1.00 20.00    -0.195 NA
ENDROOT
BRANCH   2   4
HETATM    4  C6  UNL     1     -34.201  15.322  -2.862  1.00 20.00     0.050 C 
BRANCH   4   5
HETATM    5  C5  UNL     1     -35.154  16.199  -2.039  1.00 20.00    -0.001 C 
HETATM    6  C2  UNL     1     -34.461  16.762  -0.808  1.00 20.00     0.005 C 
ENDBRANCH   4   5
ENDBRANCH   2   4
BRANCH   2   7
HETATM    7  N9  UNL     1     -34.593  15.608  -5.288  1.00 20.00     0.098 N 
HETATM    8  C3  UNL     1     -34.591  14.840  -6.533  1.00 20.00     0.311 C 
HETATM    9  C4  UNL     1     -33.335  16.341  -5.138  1.00 20.00     0.311 C 
ENDBRANCH   2   7
TORSDOF 3
ENDMDL
MODEL 5
REMARK VINA RESULT:      -3.7      1.542      2.836
REMARK  3 active torsions:
REMARK  status: ('A' for Active; 'I' for Inactive)
REMARK    1  A    between atoms: C5_5  and  C6_6 
REMARK    2  A    between atoms: C6_6  and  C7_7 
REMARK    3  A    between atoms: C7_7  and  N9_9 
ROOT
HETATM    1  C1  UNL     1     -33.923  16.271  -4.527  1.00 20.00     0.095 C 
HETATM    2  C7  UNL     1     -35.144  15.910  -3.788  1.00 20.00     0.327 C 
HETATM    3  N8  UNL     1     -32.962  16.559  -5.112  1.00 20.00    -0.195 NA
ENDROOT
BRANCH   2   4
HETATM    4  C6  UNL     1     -34.842  15.609  -2.309  1.00 20.00     0.050 C 
BRANCH   4   5
HETATM    5  C5  UNL     1     -34.095  16.721  -1.561  1.00 20.00    -0.001 C 
HETATM    6  C2  UNL     1     -34.771  17.046  -0.237  1.00 20.00     0.005 C 
ENDBRANCH   4   5
ENDBRANCH   2   4
BRANCH   2   7
HETATM    7  N9  UNL     1     -35.812  14.780  -4.429  1.00 20.00     0.098 N 
HETATM    8  C3  UNL     1     -37.186  14.653  -3.942  1.00 20.00     0.311 C 
HETATM    9  C4  UNL     1     -35.069  13.542  -4.189  1.00 20.00     0.311 C 
ENDBRANCH   2   7
TORSDOF 3
ENDMDL
MODEL 6
REMARK VINA RESULT:      -3.7      1.785      3.739
REMARK  3 active torsions:
REMARK  status: ('A' for Active; 'I' for Inactive)
REMARK    1  A    between atoms: C5_5  and  C6_6 
REMARK    2  A    between atoms: C6_6  and  C7_7 
REMARK    3  A    between atoms: C7_7  and  N9_9 
ROOT
HETATM    1  C1  UNL     1     -36.787  14.517  -4.060  1.00 20.00     0.095 C 
HETATM    2  C7  UNL     1     -35.403  14.811  -4.466  1.00 20.00     0.327 C 
HETATM    3  N8  UNL     1     -37.880  14.290  -3.739  1.00 20.00    -0.195 NA
ENDROOT
BRANCH   2   4
HETATM    4  C6  UNL     1     -34.983  13.976  -5.689  1.00 20.00     0.050 C 
BRANCH   4   5
HETATM    5  C5  UNL     1     -34.717  14.786  -6.966  1.00 20.00    -0.001 C 
HETATM    6  C2  UNL     1     -34.248  16.195  -6.638  1.00 20.00     0.005 C 
ENDBRANCH   4   5
ENDBRANCH   2   4
BRANCH   2   7
HETATM    7  N9  UNL     1     -34.488  14.601  -3.346  1.00 20.00     0.098 N 
HETATM    8  C3  UNL     1     -33.940  15.877  -2.886  1.00 20.00     0.311 C 
HETATM    9  C4  UNL     1     -33.409  13.691  -3.731  1.00 20.00     0.311 C 
ENDBRANCH   2   7
TORSDOF 3
ENDMDL
MODEL 7
REMARK VINA RESULT:      -3.7      1.684      2.258
REMARK  3 active torsions:
REMARK  status: ('A' for Active; 'I' for Inactive)
REMARK    1  A    between atoms: C5_5  and  C6_6 
REMARK    2  A    between atoms: C6_6  and  C7_7 
REMARK    3  A    between atoms: C7_7  and  N9_9 
ROOT
HETATM    1  C1  UNL     1     -36.572  14.665  -3.613  1.00 20.00     0.095 C 
HETATM    2  C7  UNL     1     -35.156  14.997  -3.378  1.00 20.00     0.327 C 
HETATM    3  N8  UNL     1     -37.687  14.400  -3.796  1.00 20.00    -0.195 NA
ENDROOT
BRANCH   2   4
HETATM    4  C6  UNL     1     -34.971  16.491  -3.059  1.00 20.00     0.050 C 
BRANCH   4   5
HETATM    5  C5  UNL     1     -33.975  16.793  -1.931  1.00 20.00    -0.001 C 
HETATM    6  C2  UNL     1     -34.652  16.748  -0.570  1.00 20.00     0.005 C 
ENDBRANCH   4   5
ENDBRANCH   2   4
BRANCH   2   7
HETATM    7  N9  UNL     1     -34.343  14.599  -4.526  1.00 20.00     0.098 N 
HETATM    8  C3  UNL     1     -34.633  15.452  -5.679  1.00 20.00     0.311 C 
HETATM    9  C4  UNL     1     -34.578  13.194  -4.857  1.00 20.00     0.311 C 
ENDBRANCH   2   7
TORSDOF 3
ENDMDL
MODEL 8
REMARK VINA RESULT:      -3.6      1.812      2.246
REMARK  3 active torsions:
REMARK  status: ('A' for Active; 'I' for Inactive)
REMARK    1  A    between atoms: C5_5  and  C6_6 
REMARK    2  A    between atoms: C6_6  and  C7_7 
REMARK    3  A    between atoms: C7_7  and  N9_9 
ROOT
HETATM    1  C1  UNL     1     -34.942  13.797  -4.388  1.00 20.00     0.095 C 
HETATM    2  C7  UNL     1     -35.172  15.223  -4.103  1.00 20.00     0.327 C 
HETATM    3  N8  UNL     1     -34.758  12.673  -4.615  1.00 20.00    -0.195 NA
ENDROOT
BRANCH   2   4
HETATM    4  C6  UNL     1     -35.302  15.485  -2.592  1.00 20.00     0.050 C 
BRANCH   4   5
HETATM    5  C5  UNL     1     -34.187  16.350  -1.987  1.00 20.00    -0.001 C 
HETATM    6  C2  UNL     1     -34.583  16.880  -0.617  1.00 20.00     0.005 C 
ENDBRANCH   4   5
ENDBRANCH   2   4
BRANCH   2   7
HETATM    7  N9  UNL     1     -36.350  15.703  -4.824  1.00 20.00     0.098 N 
HETATM    8  C3  UNL     1     -36.385  17.165  -4.833  1.00 20.00     0.311 C 
HETATM    9  C4  UNL     1     -37.571  15.166  -4.222  1.00 20.00     0.311 C 
ENDBRANCH   2   7
TORSDOF 3
ENDMDL
MODEL 9
REMARK VINA RESULT:      -3.6      1.270      3.631
REMARK  3 active torsions:
REMARK  status: ('A' for Active; 'I' for Inactive)
REMARK    1  A    between atoms: C5_5  and  C6_6 
REMARK    2  A    between atoms: C6_6  and  C7_7 
REMARK    3  A    between atoms: C7_7  and  N9_9 
ROOT
HETATM    1  C1  UNL     1     -34.716  13.800  -4.942  1.00 20.00     0.095 C 
HETATM    2  C7  UNL     1     -34.601  15.189  -5.417  1.00 20.00     0.327 C 
HETATM    3  N8  UNL     1     -34.811  12.706  -4.564  1.00 20.00    -0.195 NA
ENDROOT
BRANCH   2   4
HETATM    4  C6  UNL     1     -34.401  15.250  -6.942  1.00 20.00     0.050 C 
BRANCH   4   5
HETATM    5  C5  UNL     1     -35.425  14.454  -7.762  1.00 20.00    -0.001 C 
HETATM    6  C2  UNL     1     -36.781  15.143  -7.770  1.00 20.00     0.005 C 
ENDBRANCH   4   5
ENDBRANCH   2   4
BRANCH   2   7
HETATM    7  N9  UNL     1     -33.519  15.879  -4.717  1.00 20.00     0.098 N 
HETATM    8  C3  UNL     1     -33.759  15.874  -3.274  1.00 20.00     0.311 C 
HETATM    9  C4  UNL     1     -33.384  17.250  -5.208  1.00 20.00     0.311 C 
ENDBRANCH   2   7
TORSDOF 3
ENDMDL
