MODEL 1
REMARK VINA RESULT:      -5.0      0.000      0.000
REMARK  4 active torsions:
REMARK  status: ('A' for Active; 'I' for Inactive)
REMARK    1  A    between atoms: C1_1  and  C8_8 
REMARK    2  A    between atoms: C4_4  and  C7_7 
REMARK    3  A    between atoms: C7_7  and  O10_10 
REMARK    4  A    between atoms: C8_8  and  O10_10 
ROOT
HETATM    1  C6  UNL     1     -34.559   5.297   3.327  1.00 20.00     0.048 C 
HETATM    2  C8  UNL     1     -34.118   6.387   4.287  1.00 20.00     0.186 C 
ENDROOT
BRANCH   2   3
HETATM    3  C1  UNL     1     -34.273   5.950   5.736  1.00 20.00     0.151 C 
HETATM    4  C5  UNL     1     -34.918   4.610   5.985  1.00 20.00     0.093 C 
HETATM    5  O9  UNL     1     -33.899   6.653   6.675  1.00 20.00    -0.296 OA
ENDBRANCH   2   3
BRANCH   2   6
HETATM    6  O10 UNL     1     -32.753   6.676   4.032  1.00 20.00    -0.378 OA
BRANCH   6   7
HETATM    7  C7  UNL     1     -32.491   6.781   2.637  1.00 20.00     0.173 C 
BRANCH   7   8
HETATM    8  C4  UNL     1     -31.846   8.121   2.357  1.00 20.00     0.009 A 
HETATM    9  C2  UNL     1     -31.714   8.618   0.943  1.00 20.00     0.007 A 
HETATM   10  C3  UNL     1     -32.680   9.279   1.886  1.00 20.00     0.007 A 
ENDBRANCH   7   8
ENDBRANCH   6   7
ENDBRANCH   2   6
TORSDOF 4
ENDMDL
MODEL 2
REMARK VINA RESULT:      -4.7      1.258      1.701
REMARK  4 active torsions:
REMARK  status: ('A' for Active; 'I' for Inactive)
REMARK    1  A    between atoms: C1_1  and  C8_8 
REMARK    2  A    between atoms: C4_4  and  C7_7 
REMARK    3  A    between atoms: C7_7  and  O10_10 
REMARK    4  A    between atoms: C8_8  and  O10_10 
ROOT
HETATM    1  C6  UNL     1     -33.727   6.815   6.141  1.00 20.00     0.048 C 
HETATM    2  C8  UNL     1     -33.675   6.062   4.823  1.00 20.00     0.186 C 
ENDROOT
BRANCH   2   3
HETATM    3  C1  UNL     1     -34.887   5.159   4.648  1.00 20.00     0.151 C 
HETATM    4  C5  UNL     1     -35.064   4.045   5.650  1.00 20.00     0.093 C 
HETATM    5  O9  UNL     1     -35.693   5.315   3.731  1.00 20.00    -0.296 OA
ENDBRANCH   2   3
BRANCH   2   6
HETATM    6  O10 UNL     1     -33.648   7.013   3.772  1.00 20.00    -0.378 OA
BRANCH   6   7
HETATM    7  C7  UNL     1     -32.592   6.752   2.855  1.00 20.00     0.173 C 
BRANCH   7   8
HETATM    8  C4  UNL     1     -31.905   8.056   2.510  1.00 20.00     0.009 A 
HETATM    9  C2  UNL     1     -31.736   8.467   1.073  1.00 20.00     0.007 A 
HETATM   10  C3  UNL     1     -32.698   9.208   1.960  1.00 20.00     0.007 A 
ENDBRANCH   7   8
ENDBRANCH   6   7
ENDBRANCH   2   6
TORSDOF 4
ENDMDL
MODEL 3
REMARK VINA RESULT:      -4.4      1.279      4.563
REMARK  4 active torsions:
REMARK  status: ('A' for Active; 'I' for Inactive)
REMARK    1  A    between atoms: C1_1  and  C8_8 
REMARK    2  A    between atoms: C4_4  and  C7_7 
REMARK    3  A    between atoms: C7_7  and  O10_10 
REMARK    4  A    between atoms: C8_8  and  O10_10 
ROOT
HETATM    1  C6  UNL     1     -32.578   5.378   2.308  1.00 20.00     0.048 C 
HETATM    2  C8  UNL     1     -32.559   6.270   3.537  1.00 20.00     0.186 C 
ENDROOT
BRANCH   2   3
HETATM    3  C1  UNL     1     -31.794   7.560   3.278  1.00 20.00     0.151 C 
HETATM    4  C5  UNL     1     -32.056   8.263   1.970  1.00 20.00     0.093 C 
HETATM    5  O9  UNL     1     -30.990   8.018   4.090  1.00 20.00    -0.296 OA
ENDBRANCH   2   3
BRANCH   2   6
HETATM    6  O10 UNL     1     -33.900   6.584   3.875  1.00 20.00    -0.378 OA
BRANCH   6   7
HETATM    7  C7  UNL     1     -34.769   5.479   3.658  1.00 20.00     0.173 C 
BRANCH   7   8
HETATM    8  C4  UNL     1     -35.365   5.051   4.982  1.00 20.00     0.009 A 
HETATM    9  C2  UNL     1     -34.735   3.937   5.772  1.00 20.00     0.007 A 
HETATM   10  C3  UNL     1     -34.647   5.354   6.268  1.00 20.00     0.007 A 
ENDBRANCH   7   8
ENDBRANCH   6   7
ENDBRANCH   2   6
TORSDOF 4
ENDMDL
MODEL 4
REMARK VINA RESULT:      -4.3     10.588     11.559
REMARK  4 active torsions:
REMARK  status: ('A' for Active; 'I' for Inactive)
REMARK    1  A    between atoms: C1_1  and  C8_8 
REMARK    2  A    between atoms: C4_4  and  C7_7 
REMARK    3  A    between atoms: C7_7  and  O10_10 
REMARK    4  A    between atoms: C8_8  and  O10_10 
ROOT
HETATM    1  C6  UNL     1     -35.019  16.023  -4.854  1.00 20.00     0.048 C 
HETATM    2  C8  UNL     1     -35.645  14.814  -4.182  1.00 20.00     0.186 C 
ENDROOT
BRANCH   2   3
HETATM    3  C1  UNL     1     -34.702  13.619  -4.196  1.00 20.00     0.151 C 
HETATM    4  C5  UNL     1     -33.296  13.848  -3.701  1.00 20.00     0.093 C 
HETATM    5  O9  UNL     1     -35.056  12.510  -4.596  1.00 20.00    -0.296 OA
ENDBRANCH   2   3
BRANCH   2   6
HETATM    6  O10 UNL     1     -35.940  15.157  -2.839  1.00 20.00    -0.378 OA
BRANCH   6   7
HETATM    7  C7  UNL     1     -35.480  16.465  -2.518  1.00 20.00     0.173 C 
BRANCH   7   8
HETATM    8  C4  UNL     1     -34.586  16.388  -1.298  1.00 20.00     0.009 A 
HETATM    9  C2  UNL     1     -33.666  17.528  -0.960  1.00 20.00     0.007 A 
HETATM   10  C3  UNL     1     -34.867  17.249  -0.099  1.00 20.00     0.007 A 
ENDBRANCH   7   8
ENDBRANCH   6   7
ENDBRANCH   2   6
TORSDOF 4
ENDMDL
MODEL 5
REMARK VINA RESULT:      -4.3     10.970     11.692
REMARK  4 active torsions:
REMARK  status: ('A' for Active; 'I' for Inactive)
REMARK    1  A    between atoms: C1_1  and  C8_8 
REMARK    2  A    between atoms: C4_4  and  C7_7 
REMARK    3  A    between atoms: C7_7  and  O10_10 
REMARK    4  A    between atoms: C8_8  and  O10_10 
ROOT
HETATM    1  C6  UNL     1     -32.787  14.839  -3.732  1.00 20.00     0.048 C 
HETATM    2  C8  UNL     1     -34.268  14.981  -4.039  1.00 20.00     0.186 C 
ENDROOT
BRANCH   2   3
HETATM    3  C1  UNL     1     -34.771  13.835  -4.904  1.00 20.00     0.151 C 
HETATM    4  C5  UNL     1     -35.091  14.150  -6.344  1.00 20.00     0.093 C 
HETATM    5  O9  UNL     1     -34.921  12.697  -4.460  1.00 20.00    -0.296 OA
ENDBRANCH   2   3
BRANCH   2   6
HETATM    6  O10 UNL     1     -34.975  14.982  -2.810  1.00 20.00    -0.378 OA
BRANCH   6   7
HETATM    7  C7  UNL     1     -35.232  16.304  -2.352  1.00 20.00     0.173 C 
BRANCH   7   8
HETATM    8  C4  UNL     1     -34.596  16.486  -0.990  1.00 20.00     0.009 A 
HETATM    9  C2  UNL     1     -33.678  17.649  -0.732  1.00 20.00     0.007 A 
HETATM   10  C3  UNL     1     -35.038  17.607  -0.092  1.00 20.00     0.007 A 
ENDBRANCH   7   8
ENDBRANCH   6   7
ENDBRANCH   2   6
TORSDOF 4
ENDMDL
MODEL 6
REMARK VINA RESULT:      -4.1     11.141     11.864
REMARK  4 active torsions:
REMARK  status: ('A' for Active; 'I' for Inactive)
REMARK    1  A    between atoms: C1_1  and  C8_8 
REMARK    2  A    between atoms: C4_4  and  C7_7 
REMARK    3  A    between atoms: C7_7  and  O10_10 
REMARK    4  A    between atoms: C8_8  and  O10_10 
ROOT
HETATM    1  C6  UNL     1     -36.990  14.829  -3.777  1.00 20.00     0.048 C 
HETATM    2  C8  UNL     1     -35.479  14.679  -3.747  1.00 20.00     0.186 C 
ENDROOT
BRANCH   2   3
HETATM    3  C1  UNL     1     -34.985  13.786  -4.876  1.00 20.00     0.151 C 
HETATM    4  C5  UNL     1     -34.760  14.436  -6.218  1.00 20.00     0.093 C 
HETATM    5  O9  UNL     1     -34.780  12.582  -4.717  1.00 20.00    -0.296 OA
ENDBRANCH   2   3
BRANCH   2   6
HETATM    6  O10 UNL     1     -34.904  15.967  -3.888  1.00 20.00    -0.378 OA
BRANCH   6   7
HETATM    7  C7  UNL     1     -33.893  16.199  -2.914  1.00 20.00     0.173 C 
BRANCH   7   8
HETATM    8  C4  UNL     1     -34.395  17.220  -1.915  1.00 20.00     0.009 A 
HETATM    9  C2  UNL     1     -34.683  16.813  -0.496  1.00 20.00     0.007 A 
HETATM   10  C3  UNL     1     -33.502  17.692  -0.802  1.00 20.00     0.007 A 
ENDBRANCH   7   8
ENDBRANCH   6   7
ENDBRANCH   2   6
TORSDOF 4
ENDMDL
MODEL 7
REMARK VINA RESULT:      -4.1      1.346      4.800
REMARK  4 active torsions:
REMARK  status: ('A' for Active; 'I' for Inactive)
REMARK    1  A    between atoms: C1_1  and  C8_8 
REMARK    2  A    between atoms: C4_4  and  C7_7 
REMARK    3  A    between atoms: C7_7  and  O10_10 
REMARK    4  A    between atoms: C8_8  and  O10_10 
ROOT
HETATM    1  C6  UNL     1     -31.855   5.870   2.992  1.00 20.00     0.048 C 
HETATM    2  C8  UNL     1     -32.449   7.231   3.309  1.00 20.00     0.186 C 
ENDROOT
BRANCH   2   3
HETATM    3  C1  UNL     1     -32.250   8.209   2.159  1.00 20.00     0.151 C 
HETATM    4  C5  UNL     1     -32.873   9.574   2.303  1.00 20.00     0.093 C 
HETATM    5  O9  UNL     1     -31.616   7.909   1.148  1.00 20.00    -0.296 OA
ENDBRANCH   2   3
BRANCH   2   6
HETATM    6  O10 UNL     1     -33.838   7.064   3.542  1.00 20.00    -0.378 OA
BRANCH   6   7
HETATM    7  C7  UNL     1     -34.207   5.690   3.553  1.00 20.00     0.173 C 
BRANCH   7   8
HETATM    8  C4  UNL     1     -35.070   5.421   4.767  1.00 20.00     0.009 A 
HETATM    9  C2  UNL     1     -34.841   4.191   5.602  1.00 20.00     0.007 A 
HETATM   10  C3  UNL     1     -34.493   5.547   6.149  1.00 20.00     0.007 A 
ENDBRANCH   7   8
ENDBRANCH   6   7
ENDBRANCH   2   6
TORSDOF 4
ENDMDL
MODEL 8
REMARK VINA RESULT:      -3.8     11.357     12.991
REMARK  4 active torsions:
REMARK  status: ('A' for Active; 'I' for Inactive)
REMARK    1  A    between atoms: C1_1  and  C8_8 
REMARK    2  A    between atoms: C4_4  and  C7_7 
REMARK    3  A    between atoms: C7_7  and  O10_10 
REMARK    4  A    between atoms: C8_8  and  O10_10 
ROOT
HETATM    1  C6  UNL     1     -36.143  17.301  -4.909  1.00 20.00     0.048 C 
HETATM    2  C8  UNL     1     -35.063  16.235  -4.908  1.00 20.00     0.186 C 
ENDROOT
BRANCH   2   3
HETATM    3  C1  UNL     1     -33.672  16.849  -4.988  1.00 20.00     0.151 C 
HETATM    4  C5  UNL     1     -33.586  18.303  -5.380  1.00 20.00     0.093 C 
HETATM    5  O9  UNL     1     -32.654  16.199  -4.751  1.00 20.00    -0.296 OA
ENDBRANCH   2   3
BRANCH   2   6
HETATM    6  O10 UNL     1     -35.174  15.492  -3.705  1.00 20.00    -0.378 OA
BRANCH   6   7
HETATM    7  C7  UNL     1     -35.608  16.308  -2.623  1.00 20.00     0.173 C 
BRANCH   7   8
HETATM    8  C4  UNL     1     -34.585  16.235  -1.510  1.00 20.00     0.009 A 
HETATM    9  C2  UNL     1     -33.688  17.408  -1.227  1.00 20.00     0.007 A 
HETATM   10  C3  UNL     1     -34.774  17.040  -0.255  1.00 20.00     0.007 A 
ENDBRANCH   7   8
ENDBRANCH   6   7
ENDBRANCH   2   6
TORSDOF 4
ENDMDL
MODEL 9
REMARK VINA RESULT:      -3.7     10.593     11.638
REMARK  4 active torsions:
REMARK  status: ('A' for Active; 'I' for Inactive)
REMARK    1  A    between atoms: C1_1  and  C8_8 
REMARK    2  A    between atoms: C4_4  and  C7_7 
REMARK    3  A    between atoms: C7_7  and  O10_10 
REMARK    4  A    between atoms: C8_8  and  O10_10 
ROOT
HETATM    1  C6  UNL     1     -34.104  17.643  -3.297  1.00 20.00     0.048 C 
HETATM    2  C8  UNL     1     -33.750  16.764  -2.111  1.00 20.00     0.186 C 
ENDROOT
BRANCH   2   3
HETATM    3  C1  UNL     1     -33.780  17.548  -0.807  1.00 20.00     0.151 C 
HETATM    4  C5  UNL     1     -34.910  17.252   0.147  1.00 20.00     0.093 C 
HETATM    5  O9  UNL     1     -32.929  18.393  -0.531  1.00 20.00    -0.296 OA
ENDBRANCH   2   3
BRANCH   2   6
HETATM    6  O10 UNL     1     -34.698  15.711  -2.043  1.00 20.00    -0.378 OA
BRANCH   6   7
HETATM    7  C7  UNL     1     -35.306  15.469  -3.306  1.00 20.00     0.173 C 
BRANCH   7   8
HETATM    8  C4  UNL     1     -35.009  14.048  -3.732  1.00 20.00     0.009 A 
HETATM    9  C2  UNL     1     -34.477  13.765  -5.110  1.00 20.00     0.007 A 
HETATM   10  C3  UNL     1     -33.588  13.591  -3.909  1.00 20.00     0.007 A 
ENDBRANCH   7   8
ENDBRANCH   6   7
ENDBRANCH   2   6
TORSDOF 4
ENDMDL
