MODEL 1
REMARK VINA RESULT:      -4.0      0.000      0.000
REMARK  3 active torsions:
REMARK  status: ('A' for Active; 'I' for Inactive)
REMARK    1  A    between atoms: C5_5  and  C6_6 
REMARK    2  A    between atoms: C6_6  and  C7_7 
REMARK    3  A    between atoms: C7_7  and  N9_9 
ROOT
HETATM    1  C1  UNL     1     -34.697  13.928  -4.237  1.00 20.00     0.095 C 
HETATM    2  C7  UNL     1     -34.463  15.379  -4.167  1.00 20.00     0.327 C 
HETATM    3  N8  UNL     1     -34.886  12.784  -4.291  1.00 20.00    -0.195 NA
ENDROOT
BRANCH   2   4
HETATM    4  C6  UNL     1     -33.792  15.780  -2.841  1.00 20.00     0.050 C 
BRANCH   4   5
HETATM    5  C5  UNL     1     -34.763  16.157  -1.714  1.00 20.00    -0.001 C 
HETATM    6  C2  UNL     1     -34.147  17.186  -0.776  1.00 20.00     0.005 C 
ENDBRANCH   4   5
ENDBRANCH   2   4
BRANCH   2   7
HETATM    7  N9  UNL     1     -33.677  15.825  -5.316  1.00 20.00     0.098 N 
HETATM    8  C3  UNL     1     -33.473  17.273  -5.265  1.00 20.00     0.311 C 
HETATM    9  C4  UNL     1     -34.336  15.446  -6.565  1.00 20.00     0.311 C 
ENDBRANCH   2   7
TORSDOF 3
ENDMDL
MODEL 2
REMARK VINA RESULT:      -3.9      1.349      2.603
REMARK  3 active torsions:
REMARK  status: ('A' for Active; 'I' for Inactive)
REMARK    1  A    between atoms: C5_5  and  C6_6 
REMARK    2  A    between atoms: C6_6  and  C7_7 
REMARK    3  A    between atoms: C7_7  and  N9_9 
ROOT
HETATM    1  C1  UNL     1     -33.531  15.801  -4.169  1.00 20.00     0.095 C 
HETATM    2  C7  UNL     1     -34.254  15.008  -3.162  1.00 20.00     0.327 C 
HETATM    3  N8  UNL     1     -32.956  16.427  -4.959  1.00 20.00    -0.195 NA
ENDROOT
BRANCH   2   4
HETATM    4  C6  UNL     1     -35.007  15.909  -2.166  1.00 20.00     0.050 C 
BRANCH   4   5
HETATM    5  C5  UNL     1     -34.112  16.826  -1.322  1.00 20.00    -0.001 C 
HETATM    6  C2  UNL     1     -34.784  17.192  -0.005  1.00 20.00     0.005 C 
ENDBRANCH   4   5
ENDBRANCH   2   4
BRANCH   2   7
HETATM    7  N9  UNL     1     -35.160  14.063  -3.812  1.00 20.00     0.098 N 
HETATM    8  C3  UNL     1     -34.433  13.240  -4.779  1.00 20.00     0.311 C 
HETATM    9  C4  UNL     1     -36.256  14.774  -4.469  1.00 20.00     0.311 C 
ENDBRANCH   2   7
TORSDOF 3
ENDMDL
MODEL 3
REMARK VINA RESULT:      -3.9      1.685      2.175
REMARK  3 active torsions:
REMARK  status: ('A' for Active; 'I' for Inactive)
REMARK    1  A    between atoms: C5_5  and  C6_6 
REMARK    2  A    between atoms: C6_6  and  C7_7 
REMARK    3  A    between atoms: C7_7  and  N9_9 
ROOT
HETATM    1  C1  UNL     1     -36.740  14.735  -3.880  1.00 20.00     0.095 C 
HETATM    2  C7  UNL     1     -35.381  15.246  -4.116  1.00 20.00     0.327 C 
HETATM    3  N8  UNL     1     -37.814  14.336  -3.692  1.00 20.00    -0.195 NA
ENDROOT
BRANCH   2   4
HETATM    4  C6  UNL     1     -34.504  15.124  -2.857  1.00 20.00     0.050 C 
BRANCH   4   5
HETATM    5  C5  UNL     1     -34.063  16.461  -2.245  1.00 20.00    -0.001 C 
HETATM    6  C2  UNL     1     -34.630  16.640  -0.843  1.00 20.00     0.005 C 
ENDBRANCH   4   5
ENDBRANCH   2   4
BRANCH   2   7
HETATM    7  N9  UNL     1     -34.771  14.565  -5.256  1.00 20.00     0.098 N 
HETATM    8  C3  UNL     1     -35.596  14.731  -6.453  1.00 20.00     0.311 C 
HETATM    9  C4  UNL     1     -34.579  13.146  -4.961  1.00 20.00     0.311 C 
ENDBRANCH   2   7
TORSDOF 3
ENDMDL
MODEL 4
REMARK VINA RESULT:      -3.9      1.344      1.600
REMARK  3 active torsions:
REMARK  status: ('A' for Active; 'I' for Inactive)
REMARK    1  A    between atoms: C5_5  and  C6_6 
REMARK    2  A    between atoms: C6_6  and  C7_7 
REMARK    3  A    between atoms: C7_7  and  N9_9 
ROOT
HETATM    1  C1  UNL     1     -35.148  13.799  -4.035  1.00 20.00     0.095 C 
HETATM    2  C7  UNL     1     -35.404  15.136  -3.477  1.00 20.00     0.327 C 
HETATM    3  N8  UNL     1     -34.948  12.743  -4.471  1.00 20.00    -0.195 NA
ENDROOT
BRANCH   2   4
HETATM    4  C6  UNL     1     -34.245  15.607  -2.580  1.00 20.00     0.050 C 
BRANCH   4   5
HETATM    5  C5  UNL     1     -34.672  16.382  -1.326  1.00 20.00    -0.001 C 
HETATM    6  C2  UNL     1     -33.701  17.515  -1.022  1.00 20.00     0.005 C 
ENDBRANCH   4   5
ENDBRANCH   2   4
BRANCH   2   7
HETATM    7  N9  UNL     1     -35.669  16.094  -4.548  1.00 20.00     0.098 N 
HETATM    8  C3  UNL     1     -36.836  15.680  -5.328  1.00 20.00     0.311 C 
HETATM    9  C4  UNL     1     -34.499  16.230  -5.414  1.00 20.00     0.311 C 
ENDBRANCH   2   7
TORSDOF 3
ENDMDL
MODEL 5
REMARK VINA RESULT:      -3.7      2.325      2.898
REMARK  3 active torsions:
REMARK  status: ('A' for Active; 'I' for Inactive)
REMARK    1  A    between atoms: C5_5  and  C6_6 
REMARK    2  A    between atoms: C6_6  and  C7_7 
REMARK    3  A    between atoms: C7_7  and  N9_9 
ROOT
HETATM    1  C1  UNL     1     -36.839  14.506  -4.203  1.00 20.00     0.095 C 
HETATM    2  C7  UNL     1     -35.566  14.682  -4.921  1.00 20.00     0.327 C 
HETATM    3  N8  UNL     1     -37.840  14.369  -3.633  1.00 20.00    -0.195 NA
ENDROOT
BRANCH   2   4
HETATM    4  C6  UNL     1     -34.636  13.471  -4.731  1.00 20.00     0.050 C 
BRANCH   4   5
HETATM    5  C5  UNL     1     -33.457  13.706  -3.777  1.00 20.00    -0.001 C 
HETATM    6  C2  UNL     1     -33.122  15.187  -3.668  1.00 20.00     0.005 C 
ENDBRANCH   4   5
ENDBRANCH   2   4
BRANCH   2   7
HETATM    7  N9  UNL     1     -35.813  14.945  -6.338  1.00 20.00     0.098 N 
HETATM    8  C3  UNL     1     -34.562  14.888  -7.094  1.00 20.00     0.311 C 
HETATM    9  C4  UNL     1     -36.456  16.246  -6.513  1.00 20.00     0.311 C 
ENDBRANCH   2   7
TORSDOF 3
ENDMDL
MODEL 6
REMARK VINA RESULT:      -3.7      1.732      3.807
REMARK  3 active torsions:
REMARK  status: ('A' for Active; 'I' for Inactive)
REMARK    1  A    between atoms: C5_5  and  C6_6 
REMARK    2  A    between atoms: C6_6  and  C7_7 
REMARK    3  A    between atoms: C7_7  and  N9_9 
ROOT
HETATM    1  C1  UNL     1     -36.601  14.307  -3.860  1.00 20.00     0.095 C 
HETATM    2  C7  UNL     1     -35.137  14.162  -3.897  1.00 20.00     0.327 C 
HETATM    3  N8  UNL     1     -37.756  14.416  -3.828  1.00 20.00    -0.195 NA
ENDROOT
BRANCH   2   4
HETATM    4  C6  UNL     1     -34.658  13.606  -5.250  1.00 20.00     0.050 C 
BRANCH   4   5
HETATM    5  C5  UNL     1     -35.327  14.235  -6.480  1.00 20.00    -0.001 C 
HETATM    6  C2  UNL     1     -34.354  15.126  -7.241  1.00 20.00     0.005 C 
ENDBRANCH   4   5
ENDBRANCH   2   4
BRANCH   2   7
HETATM    7  N9  UNL     1     -34.491  15.436  -3.588  1.00 20.00     0.098 N 
HETATM    8  C3  UNL     1     -33.039  15.319  -3.721  1.00 20.00     0.311 C 
HETATM    9  C4  UNL     1     -34.846  15.876  -2.240  1.00 20.00     0.311 C 
ENDBRANCH   2   7
TORSDOF 3
ENDMDL
MODEL 7
REMARK VINA RESULT:      -3.5      2.194      3.562
REMARK  3 active torsions:
REMARK  status: ('A' for Active; 'I' for Inactive)
REMARK    1  A    between atoms: C5_5  and  C6_6 
REMARK    2  A    between atoms: C6_6  and  C7_7 
REMARK    3  A    between atoms: C7_7  and  N9_9 
ROOT
HETATM    1  C1  UNL     1     -34.382  16.568  -1.312  1.00 20.00     0.095 C 
HETATM    2  C7  UNL     1     -33.952  16.189  -2.668  1.00 20.00     0.327 C 
HETATM    3  N8  UNL     1     -34.718  16.864  -0.242  1.00 20.00    -0.195 NA
ENDROOT
BRANCH   2   4
HETATM    4  C6  UNL     1     -34.894  15.139  -3.286  1.00 20.00     0.050 C 
BRANCH   4   5
HETATM    5  C5  UNL     1     -34.250  13.771  -3.553  1.00 20.00    -0.001 C 
HETATM    6  C2  UNL     1     -34.707  13.198  -4.888  1.00 20.00     0.005 C 
ENDBRANCH   4   5
ENDBRANCH   2   4
BRANCH   2   7
HETATM    7  N9  UNL     1     -33.844  17.372  -3.519  1.00 20.00     0.098 N 
HETATM    8  C3  UNL     1     -35.132  18.062  -3.601  1.00 20.00     0.311 C 
HETATM    9  C4  UNL     1     -33.378  17.002  -4.854  1.00 20.00     0.311 C 
ENDBRANCH   2   7
TORSDOF 3
ENDMDL
MODEL 8
REMARK VINA RESULT:      -3.4     11.275     12.603
REMARK  3 active torsions:
REMARK  status: ('A' for Active; 'I' for Inactive)
REMARK    1  A    between atoms: C5_5  and  C6_6 
REMARK    2  A    between atoms: C6_6  and  C7_7 
REMARK    3  A    between atoms: C7_7  and  N9_9 
ROOT
HETATM    1  C1  UNL     1     -33.918   6.559   5.564  1.00 20.00     0.095 C 
HETATM    2  C7  UNL     1     -33.918   6.547   4.093  1.00 20.00     0.327 C 
HETATM    3  N8  UNL     1     -33.917   6.573   6.725  1.00 20.00    -0.195 NA
ENDROOT
BRANCH   2   4
HETATM    4  C6  UNL     1     -32.509   6.286   3.529  1.00 20.00     0.050 C 
BRANCH   4   5
HETATM    5  C5  UNL     1     -31.669   7.546   3.283  1.00 20.00    -0.001 C 
HETATM    6  C2  UNL     1     -32.077   8.237   1.989  1.00 20.00     0.005 C 
ENDBRANCH   4   5
ENDBRANCH   2   4
BRANCH   2   7
HETATM    7  N9  UNL     1     -34.880   5.568   3.591  1.00 20.00     0.098 N 
HETATM    8  C3  UNL     1     -35.153   4.552   4.607  1.00 20.00     0.311 C 
HETATM    9  C4  UNL     1     -34.385   4.945   2.365  1.00 20.00     0.311 C 
ENDBRANCH   2   7
TORSDOF 3
ENDMDL
MODEL 9
REMARK VINA RESULT:      -3.4      1.333      3.729
REMARK  3 active torsions:
REMARK  status: ('A' for Active; 'I' for Inactive)
REMARK    1  A    between atoms: C5_5  and  C6_6 
REMARK    2  A    between atoms: C6_6  and  C7_7 
REMARK    3  A    between atoms: C7_7  and  N9_9 
ROOT
HETATM    1  C1  UNL     1     -34.669  13.732  -4.351  1.00 20.00     0.095 C 
HETATM    2  C7  UNL     1     -34.321  15.149  -4.156  1.00 20.00     0.327 C 
HETATM    3  N8  UNL     1     -34.939  12.615  -4.508  1.00 20.00    -0.195 NA
ENDROOT
BRANCH   2   4
HETATM    4  C6  UNL     1     -34.810  16.018  -5.328  1.00 20.00     0.050 C 
BRANCH   4   5
HETATM    5  C5  UNL     1     -34.073  15.788  -6.654  1.00 20.00    -0.001 C 
HETATM    6  C2  UNL     1     -34.957  15.056  -7.656  1.00 20.00     0.005 C 
ENDBRANCH   4   5
ENDBRANCH   2   4
BRANCH   2   7
HETATM    7  N9  UNL     1     -34.846  15.632  -2.880  1.00 20.00     0.098 N 
HETATM    8  C3  UNL     1     -36.119  16.325  -3.081  1.00 20.00     0.311 C 
HETATM    9  C4  UNL     1     -33.880  16.515  -2.230  1.00 20.00     0.311 C 
ENDBRANCH   2   7
TORSDOF 3
ENDMDL
