MODEL 1
REMARK VINA RESULT:      -4.0      0.000      0.000
REMARK  3 active torsions:
REMARK  status: ('A' for Active; 'I' for Inactive)
REMARK    1  A    between atoms: C6_6  and  C8_8 
REMARK    2  A    between atoms: C7_7  and  C8_8 
REMARK    3  A    between atoms: C8_8  and  N10_10 
ROOT
HETATM    1  C1  UNL     1     -34.959  13.909  -4.149  1.00 20.00     0.102 C 
HETATM    2  C8  UNL     1     -35.078  15.344  -3.809  1.00 20.00     0.244 C 
HETATM    3  N9  UNL     1     -34.865  12.783  -4.416  1.00 20.00    -0.194 NA
ENDROOT
BRANCH   2   4
HETATM    4  C6  UNL     1     -34.074  15.702  -2.682  1.00 20.00     0.053 C 
HETATM    5  C2  UNL     1     -34.697  16.343  -1.443  1.00 20.00     0.009 C 
ENDBRANCH   2   4
BRANCH   2   6
HETATM    6  C7  UNL     1     -36.510  15.651  -3.300  1.00 20.00     0.053 C 
HETATM    7  C3  UNL     1     -37.610  14.774  -3.895  1.00 20.00     0.009 C 
ENDBRANCH   2   6
BRANCH   2   8
HETATM    8  N10 UNL     1     -34.797  16.143  -4.987  1.00 20.00     0.103 N 
HETATM    9  C4  UNL     1     -33.352  16.322  -5.164  1.00 20.00     0.311 C 
HETATM   10  C5  UNL     1     -35.457  17.450  -4.903  1.00 20.00     0.311 C 
ENDBRANCH   2   8
TORSDOF 3
ENDMDL
MODEL 2
REMARK VINA RESULT:      -3.9      1.358      2.402
REMARK  3 active torsions:
REMARK  status: ('A' for Active; 'I' for Inactive)
REMARK    1  A    between atoms: C6_6  and  C8_8 
REMARK    2  A    between atoms: C7_7  and  C8_8 
REMARK    3  A    between atoms: C8_8  and  N10_10 
ROOT
HETATM    1  C1  UNL     1     -36.828  14.885  -3.695  1.00 20.00     0.102 C 
HETATM    2  C8  UNL     1     -35.538  15.607  -3.638  1.00 20.00     0.244 C 
HETATM    3  N9  UNL     1     -37.840  14.317  -3.739  1.00 20.00    -0.194 NA
ENDROOT
BRANCH   2   4
HETATM    4  C6  UNL     1     -34.387  14.607  -3.354  1.00 20.00     0.053 C 
HETATM    5  C2  UNL     1     -34.378  13.366  -4.244  1.00 20.00     0.009 C 
ENDBRANCH   2   4
BRANCH   2   6
HETATM    6  C7  UNL     1     -35.567  16.654  -2.495  1.00 20.00     0.053 C 
HETATM    7  C3  UNL     1     -34.626  16.363  -1.328  1.00 20.00     0.009 C 
ENDBRANCH   2   6
BRANCH   2   8
HETATM    8  N10 UNL     1     -35.304  16.275  -4.905  1.00 20.00     0.103 N 
HETATM    9  C4  UNL     1     -33.982  16.910  -4.925  1.00 20.00     0.311 C 
HETATM   10  C5  UNL     1     -36.344  17.273  -5.171  1.00 20.00     0.311 C 
ENDBRANCH   2   8
TORSDOF 3
ENDMDL
MODEL 3
REMARK VINA RESULT:      -3.9      1.560      2.723
REMARK  3 active torsions:
REMARK  status: ('A' for Active; 'I' for Inactive)
REMARK    1  A    between atoms: C6_6  and  C8_8 
REMARK    2  A    between atoms: C7_7  and  C8_8 
REMARK    3  A    between atoms: C8_8  and  N10_10 
ROOT
HETATM    1  C1  UNL     1     -36.482  14.823  -3.930  1.00 20.00     0.102 C 
HETATM    2  C8  UNL     1     -35.132  15.331  -4.258  1.00 20.00     0.244 C 
HETATM    3  N9  UNL     1     -37.541  14.424  -3.671  1.00 20.00    -0.194 NA
ENDROOT
BRANCH   2   4
HETATM    4  C6  UNL     1     -34.248  15.337  -2.984  1.00 20.00     0.053 C 
HETATM    5  C2  UNL     1     -34.814  16.136  -1.812  1.00 20.00     0.009 C 
ENDBRANCH   2   4
BRANCH   2   6
HETATM    6  C7  UNL     1     -35.227  16.783  -4.791  1.00 20.00     0.053 C 
HETATM    7  C3  UNL     1     -33.889  17.440  -5.124  1.00 20.00     0.009 C 
ENDBRANCH   2   6
BRANCH   2   8
HETATM    8  N10 UNL     1     -34.529  14.480  -5.267  1.00 20.00     0.103 N 
HETATM    9  C4  UNL     1     -35.360  14.432  -6.475  1.00 20.00     0.311 C 
HETATM   10  C5  UNL     1     -34.318  13.124  -4.750  1.00 20.00     0.311 C 
ENDBRANCH   2   8
TORSDOF 3
ENDMDL
MODEL 4
REMARK VINA RESULT:      -3.8      1.080      2.889
REMARK  3 active torsions:
REMARK  status: ('A' for Active; 'I' for Inactive)
REMARK    1  A    between atoms: C6_6  and  C8_8 
REMARK    2  A    between atoms: C7_7  and  C8_8 
REMARK    3  A    between atoms: C8_8  and  N10_10 
ROOT
HETATM    1  C1  UNL     1     -35.034  13.823  -4.415  1.00 20.00     0.102 C 
HETATM    2  C8  UNL     1     -35.259  15.269  -4.196  1.00 20.00     0.244 C 
HETATM    3  N9  UNL     1     -34.856  12.688  -4.587  1.00 20.00    -0.194 NA
ENDROOT
BRANCH   2   4
HETATM    4  C6  UNL     1     -34.231  16.091  -5.016  1.00 20.00     0.053 C 
HETATM    5  C2  UNL     1     -34.125  15.704  -6.490  1.00 20.00     0.009 C 
ENDBRANCH   2   4
BRANCH   2   6
HETATM    6  C7  UNL     1     -35.072  15.613  -2.696  1.00 20.00     0.053 C 
HETATM    7  C3  UNL     1     -33.816  16.417  -2.369  1.00 20.00     0.009 C 
ENDBRANCH   2   6
BRANCH   2   8
HETATM    8  N10 UNL     1     -36.605  15.615  -4.613  1.00 20.00     0.103 N 
HETATM    9  C4  UNL     1     -36.854  17.050  -4.437  1.00 20.00     0.311 C 
HETATM   10  C5  UNL     1     -37.600  14.838  -3.867  1.00 20.00     0.311 C 
ENDBRANCH   2   8
TORSDOF 3
ENDMDL
MODEL 5
REMARK VINA RESULT:      -3.8      1.681      2.763
REMARK  3 active torsions:
REMARK  status: ('A' for Active; 'I' for Inactive)
REMARK    1  A    between atoms: C6_6  and  C8_8 
REMARK    2  A    between atoms: C7_7  and  C8_8 
REMARK    3  A    between atoms: C8_8  and  N10_10 
ROOT
HETATM    1  C1  UNL     1     -34.721  13.761  -4.918  1.00 20.00     0.102 C 
HETATM    2  C8  UNL     1     -34.637  15.171  -5.357  1.00 20.00     0.244 C 
HETATM    3  N9  UNL     1     -34.789  12.654  -4.573  1.00 20.00    -0.194 NA
ENDROOT
BRANCH   2   4
HETATM    4  C6  UNL     1     -35.965  15.904  -5.032  1.00 20.00     0.053 C 
HETATM    5  C2  UNL     1     -37.068  15.014  -4.461  1.00 20.00     0.009 C 
ENDBRANCH   2   4
BRANCH   2   6
HETATM    6  C7  UNL     1     -34.408  15.236  -6.889  1.00 20.00     0.053 C 
HETATM    7  C3  UNL     1     -35.445  14.495  -7.730  1.00 20.00     0.009 C 
ENDBRANCH   2   6
BRANCH   2   8
HETATM    8  N10 UNL     1     -33.538  15.824  -4.671  1.00 20.00     0.103 N 
HETATM    9  C4  UNL     1     -33.740  15.800  -3.218  1.00 20.00     0.311 C 
HETATM   10  C5  UNL     1     -33.380  17.207  -5.133  1.00 20.00     0.311 C 
ENDBRANCH   2   8
TORSDOF 3
ENDMDL
MODEL 6
REMARK VINA RESULT:      -3.8      1.466      3.351
REMARK  3 active torsions:
REMARK  status: ('A' for Active; 'I' for Inactive)
REMARK    1  A    between atoms: C6_6  and  C8_8 
REMARK    2  A    between atoms: C7_7  and  C8_8 
REMARK    3  A    between atoms: C8_8  and  N10_10 
ROOT
HETATM    1  C1  UNL     1     -34.010  14.158  -4.291  1.00 20.00     0.102 C 
HETATM    2  C8  UNL     1     -34.465  15.529  -4.615  1.00 20.00     0.244 C 
HETATM    3  N9  UNL     1     -33.654  13.083  -4.038  1.00 20.00    -0.194 NA
ENDROOT
BRANCH   2   4
HETATM    4  C6  UNL     1     -35.244  15.521  -5.956  1.00 20.00     0.053 C 
HETATM    5  C2  UNL     1     -34.498  14.889  -7.131  1.00 20.00     0.009 C 
ENDBRANCH   2   4
BRANCH   2   6
HETATM    6  C7  UNL     1     -33.242  16.470  -4.768  1.00 20.00     0.053 C 
HETATM    7  C3  UNL     1     -33.573  17.893  -5.213  1.00 20.00     0.009 C 
ENDBRANCH   2   6
BRANCH   2   8
HETATM    8  N10 UNL     1     -35.325  16.014  -3.553  1.00 20.00     0.103 N 
HETATM    9  C4  UNL     1     -34.633  15.973  -2.260  1.00 20.00     0.311 C 
HETATM   10  C5  UNL     1     -36.564  15.234  -3.484  1.00 20.00     0.311 C 
ENDBRANCH   2   8
TORSDOF 3
ENDMDL
MODEL 7
REMARK VINA RESULT:      -3.8      1.334      2.586
REMARK  3 active torsions:
REMARK  status: ('A' for Active; 'I' for Inactive)
REMARK    1  A    between atoms: C6_6  and  C8_8 
REMARK    2  A    between atoms: C7_7  and  C8_8 
REMARK    3  A    between atoms: C8_8  and  N10_10 
ROOT
HETATM    1  C1  UNL     1     -33.967  14.178  -3.956  1.00 20.00     0.102 C 
HETATM    2  C8  UNL     1     -34.448  15.543  -4.263  1.00 20.00     0.244 C 
HETATM    3  N9  UNL     1     -33.589  13.108  -3.714  1.00 20.00    -0.194 NA
ENDROOT
BRANCH   2   4
HETATM    4  C6  UNL     1     -33.239  16.483  -4.510  1.00 20.00     0.053 C 
HETATM    5  C2  UNL     1     -33.603  17.894  -4.969  1.00 20.00     0.009 C 
ENDBRANCH   2   4
BRANCH   2   6
HETATM    6  C7  UNL     1     -35.261  16.101  -3.066  1.00 20.00     0.053 C 
HETATM    7  C3  UNL     1     -34.488  16.208  -1.753  1.00 20.00     0.009 C 
ENDBRANCH   2   6
BRANCH   2   8
HETATM    8  N10 UNL     1     -35.286  15.504  -5.446  1.00 20.00     0.103 N 
HETATM    9  C4  UNL     1     -36.605  14.941  -5.135  1.00 20.00     0.311 C 
HETATM   10  C5  UNL     1     -34.649  14.726  -6.514  1.00 20.00     0.311 C 
ENDBRANCH   2   8
TORSDOF 3
ENDMDL
MODEL 8
REMARK VINA RESULT:      -3.7      1.796      3.006
REMARK  3 active torsions:
REMARK  status: ('A' for Active; 'I' for Inactive)
REMARK    1  A    between atoms: C6_6  and  C8_8 
REMARK    2  A    between atoms: C7_7  and  C8_8 
REMARK    3  A    between atoms: C8_8  and  N10_10 
ROOT
HETATM    1  C1  UNL     1     -36.623  14.660  -4.117  1.00 20.00     0.102 C 
HETATM    2  C8  UNL     1     -35.260  15.126  -4.452  1.00 20.00     0.244 C 
HETATM    3  N9  UNL     1     -37.693  14.292  -3.854  1.00 20.00    -0.194 NA
ENDROOT
BRANCH   2   4
HETATM    4  C6  UNL     1     -34.785  14.461  -5.770  1.00 20.00     0.053 C 
HETATM    5  C2  UNL     1     -35.763  14.575  -6.937  1.00 20.00     0.009 C 
ENDBRANCH   2   4
BRANCH   2   6
HETATM    6  C7  UNL     1     -34.272  14.730  -3.324  1.00 20.00     0.053 C 
HETATM    7  C3  UNL     1     -33.273  13.636  -3.694  1.00 20.00     0.009 C 
ENDBRANCH   2   6
BRANCH   2   8
HETATM    8  N10 UNL     1     -35.269  16.569  -4.608  1.00 20.00     0.103 N 
HETATM    9  C4  UNL     1     -33.937  17.064  -4.974  1.00 20.00     0.311 C 
HETATM   10  C5  UNL     1     -35.728  17.225  -3.380  1.00 20.00     0.311 C 
ENDBRANCH   2   8
TORSDOF 3
ENDMDL
MODEL 9
REMARK VINA RESULT:      -3.7      1.431      2.937
REMARK  3 active torsions:
REMARK  status: ('A' for Active; 'I' for Inactive)
REMARK    1  A    between atoms: C6_6  and  C8_8 
REMARK    2  A    between atoms: C7_7  and  C8_8 
REMARK    3  A    between atoms: C8_8  and  N10_10 
ROOT
HETATM    1  C1  UNL     1     -33.937  16.169  -4.517  1.00 20.00     0.102 C 
HETATM    2  C8  UNL     1     -35.066  15.425  -3.915  1.00 20.00     0.244 C 
HETATM    3  N9  UNL     1     -33.051  16.752  -4.989  1.00 20.00    -0.194 NA
ENDROOT
BRANCH   2   4
HETATM    4  C6  UNL     1     -35.483  16.095  -2.580  1.00 20.00     0.053 C 
HETATM    5  C2  UNL     1     -34.330  16.412  -1.629  1.00 20.00     0.009 C 
ENDBRANCH   2   4
BRANCH   2   6
HETATM    6  C7  UNL     1     -34.639  13.966  -3.614  1.00 20.00     0.053 C 
HETATM    7  C3  UNL     1     -33.137  13.700  -3.701  1.00 20.00     0.009 C 
ENDBRANCH   2   6
BRANCH   2   8
HETATM    8  N10 UNL     1     -36.188  15.426  -4.834  1.00 20.00     0.103 N 
HETATM    9  C4  UNL     1     -37.361  14.787  -4.228  1.00 20.00     0.311 C 
HETATM   10  C5  UNL     1     -35.839  14.748  -6.087  1.00 20.00     0.311 C 
ENDBRANCH   2   8
TORSDOF 3
ENDMDL
