MODEL 1
REMARK VINA RESULT:      -4.0      0.000      0.000
REMARK  4 active torsions:
REMARK  status: ('A' for Active; 'I' for Inactive)
REMARK    1  A    between atoms: C1_1  and  C8_8 
REMARK    2  A    between atoms: C7_7  and  N10_10 
REMARK    3  A    between atoms: C8_8  and  N10_10 
REMARK    4  A    between atoms: C9_9  and  N10_10 
ROOT
HETATM    1  N10 UNL     1     -34.787  16.015  -3.799  1.00 20.00     0.103 N 
ENDROOT
BRANCH   1   2
HETATM    2  C7  UNL     1     -34.905  17.018  -2.730  1.00 20.00     0.269 C 
HETATM    3  C3  UNL     1     -34.666  16.407  -1.391  1.00 20.00     0.037 C 
ENDBRANCH   1   2
BRANCH   1   4
HETATM    4  C8  UNL     1     -35.473  14.799  -3.454  1.00 20.00     0.287 C 
HETATM    5  C4  UNL     1     -36.847  14.723  -4.099  1.00 20.00     0.051 C 
BRANCH   4   6
HETATM    6  C1  UNL     1     -34.602  13.641  -3.910  1.00 20.00     0.155 C 
HETATM    7  C2  UNL     1     -33.123  13.766  -3.647  1.00 20.00     0.093 C 
HETATM    8  O11 UNL     1     -35.067  12.627  -4.429  1.00 20.00    -0.296 OA
ENDBRANCH   4   6
ENDBRANCH   1   4
BRANCH   1   9
HETATM    9  C9  UNL     1     -35.295  16.579  -5.060  1.00 20.00     0.216 C 
HETATM   10  C5  UNL     1     -34.227  16.437  -6.135  1.00 20.00     0.042 C 
HETATM   11  C6  UNL     1     -35.674  18.035  -4.831  1.00 20.00     0.042 C 
ENDBRANCH   1   9
TORSDOF 4
ENDMDL
MODEL 2
REMARK VINA RESULT:      -3.9      1.344      2.874
REMARK  4 active torsions:
REMARK  status: ('A' for Active; 'I' for Inactive)
REMARK    1  A    between atoms: C1_1  and  C8_8 
REMARK    2  A    between atoms: C7_7  and  N10_10 
REMARK    3  A    between atoms: C8_8  and  N10_10 
REMARK    4  A    between atoms: C9_9  and  N10_10 
ROOT
HETATM    1  N10 UNL     1     -34.499  15.787  -4.131  1.00 20.00     0.103 N 
ENDROOT
BRANCH   1   2
HETATM    2  C7  UNL     1     -33.651  16.955  -3.851  1.00 20.00     0.269 C 
HETATM    3  C3  UNL     1     -33.547  17.843  -5.045  1.00 20.00     0.037 C 
ENDBRANCH   1   2
BRANCH   1   4
HETATM    4  C8  UNL     1     -33.720  14.682  -4.624  1.00 20.00     0.287 C 
HETATM    5  C4  UNL     1     -32.982  13.967  -3.506  1.00 20.00     0.051 C 
BRANCH   4   6
HETATM    6  C1  UNL     1     -34.675  13.734  -5.330  1.00 20.00     0.155 C 
HETATM    7  C2  UNL     1     -35.329  14.247  -6.586  1.00 20.00     0.093 C 
HETATM    8  O11 UNL     1     -34.882  12.587  -4.933  1.00 20.00    -0.296 OA
ENDBRANCH   4   6
ENDBRANCH   1   4
BRANCH   1   9
HETATM    9  C9  UNL     1     -35.244  15.418  -2.918  1.00 20.00     0.216 C 
HETATM   10  C5  UNL     1     -36.736  15.542  -3.191  1.00 20.00     0.042 C 
HETATM   11  C6  UNL     1     -34.804  16.324  -1.776  1.00 20.00     0.042 C 
ENDBRANCH   1   9
TORSDOF 4
ENDMDL
MODEL 3
REMARK VINA RESULT:      -3.8      1.078      2.578
REMARK  4 active torsions:
REMARK  status: ('A' for Active; 'I' for Inactive)
REMARK    1  A    between atoms: C1_1  and  C8_8 
REMARK    2  A    between atoms: C7_7  and  N10_10 
REMARK    3  A    between atoms: C8_8  and  N10_10 
REMARK    4  A    between atoms: C9_9  and  N10_10 
ROOT
HETATM    1  N10 UNL     1     -35.749  15.571  -3.505  1.00 20.00     0.103 N 
ENDROOT
BRANCH   1   2
HETATM    2  C7  UNL     1     -37.105  15.960  -3.920  1.00 20.00     0.269 C 
HETATM    3  C3  UNL     1     -38.032  14.791  -3.895  1.00 20.00     0.037 C 
ENDBRANCH   1   2
BRANCH   1   4
HETATM    4  C8  UNL     1     -34.983  15.076  -4.617  1.00 20.00     0.287 C 
HETATM    5  C4  UNL     1     -33.854  16.021  -4.991  1.00 20.00     0.051 C 
BRANCH   4   6
HETATM    6  C1  UNL     1     -34.436  13.716  -4.222  1.00 20.00     0.155 C 
HETATM    7  C2  UNL     1     -33.053  13.693  -3.624  1.00 20.00     0.093 C 
HETATM    8  O11 UNL     1     -35.092  12.680  -4.338  1.00 20.00    -0.296 OA
ENDBRANCH   4   6
ENDBRANCH   1   4
BRANCH   1   9
HETATM    9  C9  UNL     1     -35.085  16.716  -2.863  1.00 20.00     0.216 C 
HETATM   10  C5  UNL     1     -34.647  16.318  -1.461  1.00 20.00     0.042 C 
HETATM   11  C6  UNL     1     -36.049  17.894  -2.839  1.00 20.00     0.042 C 
ENDBRANCH   1   9
TORSDOF 4
ENDMDL
MODEL 4
REMARK VINA RESULT:      -3.8      0.922      3.007
REMARK  4 active torsions:
REMARK  status: ('A' for Active; 'I' for Inactive)
REMARK    1  A    between atoms: C1_1  and  C8_8 
REMARK    2  A    between atoms: C7_7  and  N10_10 
REMARK    3  A    between atoms: C8_8  and  N10_10 
REMARK    4  A    between atoms: C9_9  and  N10_10 
ROOT
HETATM    1  N10 UNL     1     -34.655  16.255  -3.822  1.00 20.00     0.103 N 
ENDROOT
BRANCH   1   2
HETATM    2  C7  UNL     1     -34.632  17.331  -4.823  1.00 20.00     0.269 C 
HETATM    3  C3  UNL     1     -34.454  16.783  -6.198  1.00 20.00     0.037 C 
ENDBRANCH   1   2
BRANCH   1   4
HETATM    4  C8  UNL     1     -34.105  15.036  -4.351  1.00 20.00     0.287 C 
HETATM    5  C4  UNL     1     -32.806  14.656  -3.663  1.00 20.00     0.051 C 
BRANCH   4   6
HETATM    6  C1  UNL     1     -35.149  13.949  -4.164  1.00 20.00     0.155 C 
HETATM    7  C2  UNL     1     -36.576  14.405  -4.000  1.00 20.00     0.093 C 
HETATM    8  O11 UNL     1     -34.868  12.750  -4.187  1.00 20.00    -0.296 OA
ENDBRANCH   4   6
ENDBRANCH   1   4
BRANCH   1   9
HETATM    9  C9  UNL     1     -33.932  16.690  -2.617  1.00 20.00     0.216 C 
HETATM   10  C5  UNL     1     -34.763  16.354  -1.387  1.00 20.00     0.042 C 
HETATM   11  C6  UNL     1     -33.658  18.184  -2.720  1.00 20.00     0.042 C 
ENDBRANCH   1   9
TORSDOF 4
ENDMDL
MODEL 5
REMARK VINA RESULT:      -3.8      1.586      3.493
REMARK  4 active torsions:
REMARK  status: ('A' for Active; 'I' for Inactive)
REMARK    1  A    between atoms: C1_1  and  C8_8 
REMARK    2  A    between atoms: C7_7  and  N10_10 
REMARK    3  A    between atoms: C8_8  and  N10_10 
REMARK    4  A    between atoms: C9_9  and  N10_10 
ROOT
HETATM    1  N10 UNL     1     -34.813  15.666  -4.391  1.00 20.00     0.103 N 
ENDROOT
BRANCH   1   2
HETATM    2  C7  UNL     1     -33.885  16.021  -5.475  1.00 20.00     0.269 C 
HETATM    3  C3  UNL     1     -34.548  15.915  -6.807  1.00 20.00     0.037 C 
ENDBRANCH   1   2
BRANCH   1   4
HETATM    4  C8  UNL     1     -35.740  14.648  -4.808  1.00 20.00     0.287 C 
HETATM    5  C4  UNL     1     -35.302  13.265  -4.357  1.00 20.00     0.051 C 
BRANCH   4   6
HETATM    6  C1  UNL     1     -37.096  15.000  -4.219  1.00 20.00     0.155 C 
HETATM    7  C2  UNL     1     -37.491  16.454  -4.258  1.00 20.00     0.093 C 
HETATM    8  O11 UNL     1     -37.862  14.149  -3.768  1.00 20.00    -0.296 OA
ENDBRANCH   4   6
ENDBRANCH   1   4
BRANCH   1   9
HETATM    9  C9  UNL     1     -34.048  15.242  -3.209  1.00 20.00     0.216 C 
HETATM   10  C5  UNL     1     -34.312  16.216  -2.069  1.00 20.00     0.042 C 
HETATM   11  C6  UNL     1     -32.571  15.188  -3.572  1.00 20.00     0.042 C 
ENDBRANCH   1   9
TORSDOF 4
ENDMDL
MODEL 6
REMARK VINA RESULT:      -3.8      1.489      2.049
REMARK  4 active torsions:
REMARK  status: ('A' for Active; 'I' for Inactive)
REMARK    1  A    between atoms: C1_1  and  C8_8 
REMARK    2  A    between atoms: C7_7  and  N10_10 
REMARK    3  A    between atoms: C8_8  and  N10_10 
REMARK    4  A    between atoms: C9_9  and  N10_10 
ROOT
HETATM    1  N10 UNL     1     -35.116  15.565  -5.435  1.00 20.00     0.103 N 
ENDROOT
BRANCH   1   2
HETATM    2  C7  UNL     1     -34.952  17.014  -5.253  1.00 20.00     0.269 C 
HETATM    3  C3  UNL     1     -33.509  17.389  -5.196  1.00 20.00     0.037 C 
ENDBRANCH   1   2
BRANCH   1   4
HETATM    4  C8  UNL     1     -35.430  14.913  -4.192  1.00 20.00     0.287 C 
HETATM    5  C4  UNL     1     -36.908  14.583  -4.084  1.00 20.00     0.051 C 
BRANCH   4   6
HETATM    6  C1  UNL     1     -34.590  13.650  -4.117  1.00 20.00     0.155 C 
HETATM    7  C2  UNL     1     -33.167  13.812  -3.647  1.00 20.00     0.093 C 
HETATM    8  O11 UNL     1     -35.045  12.537  -4.382  1.00 20.00    -0.296 OA
ENDBRANCH   4   6
ENDBRANCH   1   4
BRANCH   1   9
HETATM    9  C9  UNL     1     -36.152  15.312  -6.449  1.00 20.00     0.216 C 
HETATM   10  C5  UNL     1     -35.555  14.479  -7.575  1.00 20.00     0.042 C 
HETATM   11  C6  UNL     1     -36.682  16.646  -6.955  1.00 20.00     0.042 C 
ENDBRANCH   1   9
TORSDOF 4
ENDMDL
MODEL 7
REMARK VINA RESULT:      -3.8      1.339      2.864
REMARK  4 active torsions:
REMARK  status: ('A' for Active; 'I' for Inactive)
REMARK    1  A    between atoms: C1_1  and  C8_8 
REMARK    2  A    between atoms: C7_7  and  N10_10 
REMARK    3  A    between atoms: C8_8  and  N10_10 
REMARK    4  A    between atoms: C9_9  and  N10_10 
ROOT
HETATM    1  N10 UNL     1     -34.727  15.650  -3.249  1.00 20.00     0.103 N 
ENDROOT
BRANCH   1   2
HETATM    2  C7  UNL     1     -35.753  16.468  -3.912  1.00 20.00     0.269 C 
HETATM    3  C3  UNL     1     -37.124  16.026  -3.528  1.00 20.00     0.037 C 
ENDBRANCH   1   2
BRANCH   1   4
HETATM    4  C8  UNL     1     -33.871  15.006  -4.210  1.00 20.00     0.287 C 
HETATM    5  C4  UNL     1     -32.588  14.499  -3.574  1.00 20.00     0.051 C 
BRANCH   4   6
HETATM    6  C1  UNL     1     -34.657  13.858  -4.820  1.00 20.00     0.155 C 
HETATM    7  C2  UNL     1     -35.050  14.004  -6.267  1.00 20.00     0.093 C 
HETATM    8  O11 UNL     1     -34.931  12.836  -4.191  1.00 20.00    -0.296 OA
ENDBRANCH   4   6
ENDBRANCH   1   4
BRANCH   1   9
HETATM    9  C9  UNL     1     -33.954  16.488  -2.320  1.00 20.00     0.216 C 
HETATM   10  C5  UNL     1     -34.643  16.496  -0.963  1.00 20.00     0.042 C 
HETATM   11  C6  UNL     1     -33.840  17.891  -2.901  1.00 20.00     0.042 C 
ENDBRANCH   1   9
TORSDOF 4
ENDMDL
MODEL 8
REMARK VINA RESULT:      -3.7      2.024      3.326
REMARK  4 active torsions:
REMARK  status: ('A' for Active; 'I' for Inactive)
REMARK    1  A    between atoms: C1_1  and  C8_8 
REMARK    2  A    between atoms: C7_7  and  N10_10 
REMARK    3  A    between atoms: C8_8  and  N10_10 
REMARK    4  A    between atoms: C9_9  and  N10_10 
ROOT
HETATM    1  N10 UNL     1     -35.042  15.405  -4.293  1.00 20.00     0.103 N 
ENDROOT
BRANCH   1   2
HETATM    2  C7  UNL     1     -36.135  14.423  -4.251  1.00 20.00     0.269 C 
HETATM    3  C3  UNL     1     -37.367  15.014  -3.655  1.00 20.00     0.037 C 
ENDBRANCH   1   2
BRANCH   1   4
HETATM    4  C8  UNL     1     -34.144  15.235  -3.182  1.00 20.00     0.287 C 
HETATM    5  C4  UNL     1     -32.751  14.834  -3.636  1.00 20.00     0.051 C 
BRANCH   4   6
HETATM    6  C1  UNL     1     -34.104  16.552  -2.427  1.00 20.00     0.155 C 
HETATM    7  C2  UNL     1     -34.629  16.536  -1.014  1.00 20.00     0.093 C 
HETATM    8  O11 UNL     1     -33.631  17.580  -2.913  1.00 20.00    -0.296 OA
ENDBRANCH   4   6
ENDBRANCH   1   4
BRANCH   1   9
HETATM    9  C9  UNL     1     -34.332  15.295  -5.577  1.00 20.00     0.216 C 
HETATM   10  C5  UNL     1     -34.328  16.653  -6.263  1.00 20.00     0.042 C 
HETATM   11  C6  UNL     1     -35.017  14.236  -6.429  1.00 20.00     0.042 C 
ENDBRANCH   1   9
TORSDOF 4
ENDMDL
MODEL 9
REMARK VINA RESULT:      -3.7      1.401      2.892
REMARK  4 active torsions:
REMARK  status: ('A' for Active; 'I' for Inactive)
REMARK    1  A    between atoms: C1_1  and  C8_8 
REMARK    2  A    between atoms: C7_7  and  N10_10 
REMARK    3  A    between atoms: C8_8  and  N10_10 
REMARK    4  A    between atoms: C9_9  and  N10_10 
ROOT
HETATM    1  N10 UNL     1     -34.603  15.844  -5.019  1.00 20.00     0.103 N 
ENDROOT
BRANCH   1   2
HETATM    2  C7  UNL     1     -33.980  16.046  -6.336  1.00 20.00     0.269 C 
HETATM    3  C3  UNL     1     -34.510  15.075  -7.336  1.00 20.00     0.037 C 
ENDBRANCH   1   2
BRANCH   1   4
HETATM    4  C8  UNL     1     -33.651  15.354  -4.059  1.00 20.00     0.287 C 
HETATM    5  C4  UNL     1     -33.785  16.057  -2.720  1.00 20.00     0.051 C 
BRANCH   4   6
HETATM    6  C1  UNL     1     -33.886  13.861  -3.909  1.00 20.00     0.155 C 
HETATM    7  C2  UNL     1     -35.286  13.369  -4.176  1.00 20.00     0.093 C 
HETATM    8  O11 UNL     1     -32.983  13.074  -3.626  1.00 20.00    -0.296 OA
ENDBRANCH   4   6
ENDBRANCH   1   4
BRANCH   1   9
HETATM    9  C9  UNL     1     -35.218  17.103  -4.569  1.00 20.00     0.216 C 
HETATM   10  C5  UNL     1     -36.732  16.983  -4.671  1.00 20.00     0.042 C 
HETATM   11  C6  UNL     1     -34.685  18.245  -5.423  1.00 20.00     0.042 C 
ENDBRANCH   1   9
TORSDOF 4
ENDMDL
