MODEL 1
REMARK VINA RESULT:      -4.9      0.000      0.000
REMARK  3 active torsions:
REMARK  status: ('A' for Active; 'I' for Inactive)
REMARK    1  A    between atoms: C1_1  and  C4_4 
REMARK    2  A    between atoms: C1_1  and  C7_7 
REMARK    3  A    between atoms: C7_7  and  C8_8 
ROOT
HETATM    1  C1  UNL     1     -33.600   5.903   3.081  1.00 20.00     0.131 C 
HETATM    2  O9  UNL     1     -34.069   5.028   2.356  1.00 20.00    -0.298 OA
ENDROOT
BRANCH   1   3
HETATM    3  C4  UNL     1     -32.216   6.450   2.839  1.00 20.00     0.055 A 
HETATM    4  C2  UNL     1     -32.095   7.834   2.312  1.00 20.00     0.013 A 
HETATM    5  C3  UNL     1     -31.729   7.532   3.733  1.00 20.00     0.013 A 
ENDBRANCH   1   3
BRANCH   1   6
HETATM    6  C7  UNL     1     -34.341   6.467   4.284  1.00 20.00     0.082 C 
BRANCH   6   7
HETATM    7  C8  UNL     1     -34.022   5.747   5.602  1.00 20.00    -0.016 C 
HETATM    8  C5  UNL     1     -35.075   4.686   5.930  1.00 20.00     0.010 C 
HETATM    9  C6  UNL     1     -33.937   6.761   6.745  1.00 20.00     0.010 C 
ENDBRANCH   6   7
ENDBRANCH   1   6
TORSDOF 3
ENDMDL
MODEL 2
REMARK VINA RESULT:      -4.9      1.753      4.170
REMARK  3 active torsions:
REMARK  status: ('A' for Active; 'I' for Inactive)
REMARK    1  A    between atoms: C1_1  and  C4_4 
REMARK    2  A    between atoms: C1_1  and  C7_7 
REMARK    3  A    between atoms: C7_7  and  C8_8 
ROOT
HETATM    1  C1  UNL     1     -34.029   6.394   5.569  1.00 20.00     0.131 C 
HETATM    2  O9  UNL     1     -33.391   6.899   6.490  1.00 20.00    -0.298 OA
ENDROOT
BRANCH   1   3
HETATM    3  C4  UNL     1     -34.983   5.254   5.822  1.00 20.00     0.055 A 
HETATM    4  C2  UNL     1     -35.194   4.266   4.733  1.00 20.00     0.013 A 
HETATM    5  C3  UNL     1     -34.417   3.888   5.957  1.00 20.00     0.013 A 
ENDBRANCH   1   3
BRANCH   1   6
HETATM    6  C7  UNL     1     -33.882   6.834   4.121  1.00 20.00     0.082 C 
BRANCH   6   7
HETATM    7  C8  UNL     1     -32.439   6.778   3.598  1.00 20.00    -0.016 C 
HETATM    8  C5  UNL     1     -32.168   7.890   2.582  1.00 20.00     0.010 C 
HETATM    9  C6  UNL     1     -32.167   5.415   2.957  1.00 20.00     0.010 C 
ENDBRANCH   6   7
ENDBRANCH   1   6
TORSDOF 3
ENDMDL
MODEL 3
REMARK VINA RESULT:      -4.7      1.808      2.612
REMARK  3 active torsions:
REMARK  status: ('A' for Active; 'I' for Inactive)
REMARK    1  A    between atoms: C1_1  and  C4_4 
REMARK    2  A    between atoms: C1_1  and  C7_7 
REMARK    3  A    between atoms: C7_7  and  C8_8 
ROOT
HETATM    1  C1  UNL     1     -32.071   7.395   3.094  1.00 20.00     0.131 C 
HETATM    2  O9  UNL     1     -31.134   7.862   3.738  1.00 20.00    -0.298 OA
ENDROOT
BRANCH   1   3
HETATM    3  C4  UNL     1     -32.602   8.104   1.873  1.00 20.00     0.055 A 
HETATM    4  C2  UNL     1     -32.462   9.581   1.807  1.00 20.00     0.013 A 
HETATM    5  C3  UNL     1     -31.619   8.703   0.933  1.00 20.00     0.013 A 
ENDBRANCH   1   3
BRANCH   1   6
HETATM    6  C7  UNL     1     -32.791   6.114   3.487  1.00 20.00     0.082 C 
BRANCH   6   7
HETATM    7  C8  UNL     1     -34.123   6.349   4.213  1.00 20.00    -0.016 C 
HETATM    8  C5  UNL     1     -33.957   6.260   5.732  1.00 20.00     0.010 C 
HETATM    9  C6  UNL     1     -35.161   5.324   3.747  1.00 20.00     0.010 C 
ENDBRANCH   6   7
ENDBRANCH   1   6
TORSDOF 3
ENDMDL
MODEL 4
REMARK VINA RESULT:      -4.7      0.896      3.796
REMARK  3 active torsions:
REMARK  status: ('A' for Active; 'I' for Inactive)
REMARK    1  A    between atoms: C1_1  and  C4_4 
REMARK    2  A    between atoms: C1_1  and  C7_7 
REMARK    3  A    between atoms: C7_7  and  C8_8 
ROOT
HETATM    1  C1  UNL     1     -34.160   5.672   3.787  1.00 20.00     0.131 C 
HETATM    2  O9  UNL     1     -35.313   5.763   3.370  1.00 20.00    -0.298 OA
ENDROOT
BRANCH   1   3
HETATM    3  C4  UNL     1     -33.879   5.217   5.197  1.00 20.00     0.055 A 
HETATM    4  C2  UNL     1     -34.335   6.084   6.314  1.00 20.00     0.013 A 
HETATM    5  C3  UNL     1     -35.029   4.786   6.032  1.00 20.00     0.013 A 
ENDBRANCH   1   3
BRANCH   1   6
HETATM    6  C7  UNL     1     -32.945   6.044   2.950  1.00 20.00     0.082 C 
BRANCH   6   7
HETATM    7  C8  UNL     1     -32.513   7.510   3.102  1.00 20.00    -0.016 C 
HETATM    8  C5  UNL     1     -32.115   8.119   1.756  1.00 20.00     0.010 C 
HETATM    9  C6  UNL     1     -31.340   7.611   4.081  1.00 20.00     0.010 C 
ENDBRANCH   6   7
ENDBRANCH   1   6
TORSDOF 3
ENDMDL
MODEL 5
REMARK VINA RESULT:      -4.4      1.418      4.241
REMARK  3 active torsions:
REMARK  status: ('A' for Active; 'I' for Inactive)
REMARK    1  A    between atoms: C1_1  and  C4_4 
REMARK    2  A    between atoms: C1_1  and  C7_7 
REMARK    3  A    between atoms: C7_7  and  C8_8 
ROOT
HETATM    1  C1  UNL     1     -32.563   6.527   3.294  1.00 20.00     0.131 C 
HETATM    2  O9  UNL     1     -32.033   5.457   3.003  1.00 20.00    -0.298 OA
ENDROOT
BRANCH   1   3
HETATM    3  C4  UNL     1     -33.933   6.567   3.923  1.00 20.00     0.055 A 
HETATM    4  C2  UNL     1     -34.843   5.416   3.691  1.00 20.00     0.013 A 
HETATM    5  C3  UNL     1     -34.216   5.625   5.037  1.00 20.00     0.013 A 
ENDBRANCH   1   3
BRANCH   1   6
HETATM    6  C7  UNL     1     -31.918   7.875   3.010  1.00 20.00     0.082 C 
BRANCH   6   7
HETATM    7  C8  UNL     1     -32.460   8.570   1.753  1.00 20.00    -0.016 C 
HETATM    8  C5  UNL     1     -31.482   8.451   0.582  1.00 20.00     0.010 C 
HETATM    9  C6  UNL     1     -32.736  10.046   2.047  1.00 20.00     0.010 C 
ENDBRANCH   6   7
ENDBRANCH   1   6
TORSDOF 3
ENDMDL
MODEL 6
REMARK VINA RESULT:      -4.2     11.295     12.213
REMARK  3 active torsions:
REMARK  status: ('A' for Active; 'I' for Inactive)
REMARK    1  A    between atoms: C1_1  and  C4_4 
REMARK    2  A    between atoms: C1_1  and  C7_7 
REMARK    3  A    between atoms: C7_7  and  C8_8 
ROOT
HETATM    1  C1  UNL     1     -34.247  13.893  -4.084  1.00 20.00     0.131 C 
HETATM    2  O9  UNL     1     -33.257  13.247  -3.749  1.00 20.00    -0.298 OA
ENDROOT
BRANCH   1   3
HETATM    3  C4  UNL     1     -34.811  13.780  -5.478  1.00 20.00     0.055 A 
HETATM    4  C2  UNL     1     -35.837  14.769  -5.899  1.00 20.00     0.013 A 
HETATM    5  C3  UNL     1     -34.449  14.832  -6.463  1.00 20.00     0.013 A 
ENDBRANCH   1   3
BRANCH   1   6
HETATM    6  C7  UNL     1     -34.949  14.874  -3.157  1.00 20.00     0.082 C 
BRANCH   6   7
HETATM    7  C8  UNL     1     -34.010  15.913  -2.528  1.00 20.00    -0.016 C 
HETATM    8  C5  UNL     1     -34.589  16.477  -1.228  1.00 20.00     0.010 C 
HETATM    9  C6  UNL     1     -33.754  17.053  -3.516  1.00 20.00     0.010 C 
ENDBRANCH   6   7
ENDBRANCH   1   6
TORSDOF 3
ENDMDL
MODEL 7
REMARK VINA RESULT:      -4.2     11.388     12.506
REMARK  3 active torsions:
REMARK  status: ('A' for Active; 'I' for Inactive)
REMARK    1  A    between atoms: C1_1  and  C4_4 
REMARK    2  A    between atoms: C1_1  and  C7_7 
REMARK    3  A    between atoms: C7_7  and  C8_8 
ROOT
HETATM    1  C1  UNL     1     -35.116  13.768  -5.055  1.00 20.00     0.131 C 
HETATM    2  O9  UNL     1     -34.846  12.619  -4.712  1.00 20.00    -0.298 OA
ENDROOT
BRANCH   1   3
HETATM    3  C4  UNL     1     -35.174  14.149  -6.513  1.00 20.00     0.055 A 
HETATM    4  C2  UNL     1     -35.812  15.441  -6.872  1.00 20.00     0.013 A 
HETATM    5  C3  UNL     1     -34.326  15.278  -6.973  1.00 20.00     0.013 A 
ENDBRANCH   1   3
BRANCH   1   6
HETATM    6  C7  UNL     1     -35.365  14.892  -4.061  1.00 20.00     0.082 C 
BRANCH   6   7
HETATM    7  C8  UNL     1     -34.281  15.017  -2.981  1.00 20.00    -0.016 C 
HETATM    8  C5  UNL     1     -34.628  16.106  -1.962  1.00 20.00     0.010 C 
HETATM    9  C6  UNL     1     -32.930  15.328  -3.628  1.00 20.00     0.010 C 
ENDBRANCH   6   7
ENDBRANCH   1   6
TORSDOF 3
ENDMDL
MODEL 8
REMARK VINA RESULT:      -4.0     11.439     12.056
REMARK  3 active torsions:
REMARK  status: ('A' for Active; 'I' for Inactive)
REMARK    1  A    between atoms: C1_1  and  C4_4 
REMARK    2  A    between atoms: C1_1  and  C7_7 
REMARK    3  A    between atoms: C7_7  and  C8_8 
ROOT
HETATM    1  C1  UNL     1     -33.667  15.539  -3.669  1.00 20.00     0.131 C 
HETATM    2  O9  UNL     1     -33.264  15.931  -4.762  1.00 20.00    -0.298 OA
ENDROOT
BRANCH   1   3
HETATM    3  C4  UNL     1     -34.284  14.173  -3.515  1.00 20.00     0.055 A 
HETATM    4  C2  UNL     1     -35.562  13.900  -4.222  1.00 20.00     0.013 A 
HETATM    5  C3  UNL     1     -34.286  13.272  -4.696  1.00 20.00     0.013 A 
ENDBRANCH   1   3
BRANCH   1   6
HETATM    6  C7  UNL     1     -33.619  16.396  -2.413  1.00 20.00     0.082 C 
BRANCH   6   7
HETATM    7  C8  UNL     1     -34.941  16.428  -1.633  1.00 20.00    -0.016 C 
HETATM    8  C5  UNL     1     -36.006  17.245  -2.369  1.00 20.00     0.010 C 
HETATM    9  C6  UNL     1     -34.713  17.014  -0.238  1.00 20.00     0.010 C 
ENDBRANCH   6   7
ENDBRANCH   1   6
TORSDOF 3
ENDMDL
MODEL 9
REMARK VINA RESULT:      -4.0     11.082     13.035
REMARK  3 active torsions:
REMARK  status: ('A' for Active; 'I' for Inactive)
REMARK    1  A    between atoms: C1_1  and  C4_4 
REMARK    2  A    between atoms: C1_1  and  C7_7 
REMARK    3  A    between atoms: C7_7  and  C8_8 
ROOT
HETATM    1  C1  UNL     1     -34.711  13.710  -4.616  1.00 20.00     0.131 C 
HETATM    2  O9  UNL     1     -34.793  12.512  -4.883  1.00 20.00    -0.298 OA
ENDROOT
BRANCH   1   3
HETATM    3  C4  UNL     1     -33.958  14.183  -3.399  1.00 20.00     0.055 A 
HETATM    4  C2  UNL     1     -32.915  15.225  -3.585  1.00 20.00     0.013 A 
HETATM    5  C3  UNL     1     -34.212  15.564  -2.916  1.00 20.00     0.013 A 
ENDBRANCH   1   3
BRANCH   1   6
HETATM    6  C7  UNL     1     -35.384  14.791  -5.448  1.00 20.00     0.082 C 
BRANCH   6   7
HETATM    7  C8  UNL     1     -34.758  14.984  -6.837  1.00 20.00    -0.016 C 
HETATM    8  C5  UNL     1     -34.418  16.453  -7.099  1.00 20.00     0.010 C 
HETATM    9  C6  UNL     1     -35.716  14.476  -7.918  1.00 20.00     0.010 C 
ENDBRANCH   6   7
ENDBRANCH   1   6
TORSDOF 3
ENDMDL
