MODEL 1
REMARK VINA RESULT:      -4.9      0.000      0.000
REMARK  4 active torsions:
REMARK  status: ('A' for Active; 'I' for Inactive)
REMARK    1  A    between atoms: C3_3  and  C7_7 
REMARK    2  A    between atoms: C5_5  and  C6_6 
REMARK    3  A    between atoms: C6_6  and  C7_7 
REMARK    4  A    between atoms: C7_7  and  O8_8 
ROOT
HETATM    1  C7  UNL     1     -34.330   6.077   3.947  1.00 20.00     0.122 C 
ENDROOT
BRANCH   1   2
HETATM    2  C3  UNL     1     -33.978   5.361   5.245  1.00 20.00     0.014 A 
HETATM    3  C1  UNL     1     -34.415   5.930   6.566  1.00 20.00     0.007 A 
HETATM    4  C2  UNL     1     -35.051   4.673   6.043  1.00 20.00     0.007 A 
ENDBRANCH   1   2
BRANCH   1   5
HETATM    5  C6  UNL     1     -33.179   6.007   2.937  1.00 20.00     0.032 C 
BRANCH   5   6
HETATM    6  C5  UNL     1     -32.092   7.043   3.231  1.00 20.00    -0.002 C 
HETATM    7  C4  UNL     1     -32.052   8.126   2.164  1.00 20.00     0.005 C 
ENDBRANCH   5   6
ENDBRANCH   1   5
BRANCH   1   8
HETATM    8  O8  UNL     1     -35.500   5.478   3.397  1.00 20.00    -0.395 OA
HETATM    9  H22 UNL     1     -36.194   6.155   3.419  1.00 20.00     0.210 HD
ENDBRANCH   1   8
TORSDOF 4
ENDMDL
MODEL 2
REMARK VINA RESULT:      -4.4      1.450      1.639
REMARK  4 active torsions:
REMARK  status: ('A' for Active; 'I' for Inactive)
REMARK    1  A    between atoms: C3_3  and  C7_7 
REMARK    2  A    between atoms: C5_5  and  C6_6 
REMARK    3  A    between atoms: C6_6  and  C7_7 
REMARK    4  A    between atoms: C7_7  and  O8_8 
ROOT
HETATM    1  C7  UNL     1     -33.411   5.890   4.648  1.00 20.00     0.122 C 
ENDROOT
BRANCH   1   2
HETATM    2  C3  UNL     1     -34.776   5.251   4.866  1.00 20.00     0.014 A 
HETATM    3  C1  UNL     1     -34.882   3.794   5.225  1.00 20.00     0.007 A 
HETATM    4  C2  UNL     1     -35.209   4.846   6.248  1.00 20.00     0.007 A 
ENDBRANCH   1   2
BRANCH   1   5
HETATM    5  C6  UNL     1     -33.282   6.470   3.235  1.00 20.00     0.032 C 
BRANCH   5   6
HETATM    6  C5  UNL     1     -31.984   7.261   3.055  1.00 20.00    -0.002 C 
HETATM    7  C4  UNL     1     -32.116   8.305   1.957  1.00 20.00     0.005 C 
ENDBRANCH   5   6
ENDBRANCH   1   5
BRANCH   1   8
HETATM    8  O8  UNL     1     -33.227   6.918   5.617  1.00 20.00    -0.395 OA
HETATM    9  H22 UNL     1     -33.888   7.602   5.425  1.00 20.00     0.210 HD
ENDBRANCH   1   8
TORSDOF 4
ENDMDL
MODEL 3
REMARK VINA RESULT:      -4.3      1.571      4.071
REMARK  4 active torsions:
REMARK  status: ('A' for Active; 'I' for Inactive)
REMARK    1  A    between atoms: C3_3  and  C7_7 
REMARK    2  A    between atoms: C5_5  and  C6_6 
REMARK    3  A    between atoms: C6_6  and  C7_7 
REMARK    4  A    between atoms: C7_7  and  O8_8 
ROOT
HETATM    1  C7  UNL     1     -33.770   6.589   3.856  1.00 20.00     0.122 C 
ENDROOT
BRANCH   1   2
HETATM    2  C3  UNL     1     -32.449   6.670   3.103  1.00 20.00     0.014 A 
HETATM    3  C1  UNL     1     -32.111   7.893   2.296  1.00 20.00     0.007 A 
HETATM    4  C2  UNL     1     -31.369   7.606   3.571  1.00 20.00     0.007 A 
ENDBRANCH   1   2
BRANCH   1   5
HETATM    5  C6  UNL     1     -34.501   5.272   3.568  1.00 20.00     0.032 C 
BRANCH   5   6
HETATM    6  C5  UNL     1     -35.465   4.891   4.694  1.00 20.00    -0.002 C 
HETATM    7  C4  UNL     1     -34.846   3.869   5.634  1.00 20.00     0.005 C 
ENDBRANCH   5   6
ENDBRANCH   1   5
BRANCH   1   8
HETATM    8  O8  UNL     1     -33.509   6.707   5.252  1.00 20.00    -0.395 OA
HETATM    9  H22 UNL     1     -32.890   7.446   5.356  1.00 20.00     0.210 HD
ENDBRANCH   1   8
TORSDOF 4
ENDMDL
MODEL 4
REMARK VINA RESULT:      -4.1      1.612      2.336
REMARK  4 active torsions:
REMARK  status: ('A' for Active; 'I' for Inactive)
REMARK    1  A    between atoms: C3_3  and  C7_7 
REMARK    2  A    between atoms: C5_5  and  C6_6 
REMARK    3  A    between atoms: C6_6  and  C7_7 
REMARK    4  A    between atoms: C7_7  and  O8_8 
ROOT
HETATM    1  C7  UNL     1     -32.792   6.476   2.953  1.00 20.00     0.122 C 
ENDROOT
BRANCH   1   2
HETATM    2  C3  UNL     1     -33.974   6.496   3.912  1.00 20.00     0.014 A 
HETATM    3  C1  UNL     1     -35.089   5.498   3.761  1.00 20.00     0.007 A 
HETATM    4  C2  UNL     1     -34.145   5.399   4.926  1.00 20.00     0.007 A 
ENDBRANCH   1   2
BRANCH   1   5
HETATM    5  C6  UNL     1     -32.078   7.832   2.911  1.00 20.00     0.032 C 
BRANCH   5   6
HETATM    6  C5  UNL     1     -31.919   8.354   1.480  1.00 20.00    -0.002 C 
HETATM    7  C4  UNL     1     -32.438   9.777   1.346  1.00 20.00     0.005 C 
ENDBRANCH   5   6
ENDBRANCH   1   5
BRANCH   1   8
HETATM    8  O8  UNL     1     -31.883   5.459   3.369  1.00 20.00    -0.395 OA
HETATM    9  H22 UNL     1     -32.225   5.107   4.205  1.00 20.00     0.210 HD
ENDBRANCH   1   8
TORSDOF 4
ENDMDL
MODEL 5
REMARK VINA RESULT:      -4.1      1.080      3.735
REMARK  4 active torsions:
REMARK  status: ('A' for Active; 'I' for Inactive)
REMARK    1  A    between atoms: C3_3  and  C7_7 
REMARK    2  A    between atoms: C5_5  and  C6_6 
REMARK    3  A    between atoms: C6_6  and  C7_7 
REMARK    4  A    between atoms: C7_7  and  O8_8 
ROOT
HETATM    1  C7  UNL     1     -33.840   5.490   3.347  1.00 20.00     0.122 C 
ENDROOT
BRANCH   1   2
HETATM    2  C3  UNL     1     -33.288   6.907   3.420  1.00 20.00     0.014 A 
HETATM    3  C1  UNL     1     -31.854   7.143   3.808  1.00 20.00     0.007 A 
HETATM    4  C2  UNL     1     -32.300   7.388   2.393  1.00 20.00     0.007 A 
ENDBRANCH   1   2
BRANCH   1   5
HETATM    5  C6  UNL     1     -35.172   5.366   4.095  1.00 20.00     0.032 C 
BRANCH   5   6
HETATM    6  C5  UNL     1     -35.014   4.648   5.438  1.00 20.00    -0.002 C 
HETATM    7  C4  UNL     1     -34.501   5.591   6.515  1.00 20.00     0.005 C 
ENDBRANCH   5   6
ENDBRANCH   1   5
BRANCH   1   8
HETATM    8  O8  UNL     1     -34.013   5.136   1.978  1.00 20.00    -0.395 OA
HETATM    9  H22 UNL     1     -34.442   4.267   1.968  1.00 20.00     0.210 HD
ENDBRANCH   1   8
TORSDOF 4
ENDMDL
MODEL 6
REMARK VINA RESULT:      -4.1      1.495      3.384
REMARK  4 active torsions:
REMARK  status: ('A' for Active; 'I' for Inactive)
REMARK    1  A    between atoms: C3_3  and  C7_7 
REMARK    2  A    between atoms: C5_5  and  C6_6 
REMARK    3  A    between atoms: C6_6  and  C7_7 
REMARK    4  A    between atoms: C7_7  and  O8_8 
ROOT
HETATM    1  C7  UNL     1     -34.374   4.498   5.070  1.00 20.00     0.122 C 
ENDROOT
BRANCH   1   2
HETATM    2  C3  UNL     1     -34.465   5.608   4.032  1.00 20.00     0.014 A 
HETATM    3  C1  UNL     1     -33.242   6.033   3.267  1.00 20.00     0.007 A 
HETATM    4  C2  UNL     1     -34.344   5.287   2.568  1.00 20.00     0.007 A 
ENDBRANCH   1   2
BRANCH   1   5
HETATM    5  C6  UNL     1     -34.179   5.063   6.482  1.00 20.00     0.032 C 
BRANCH   5   6
HETATM    6  C5  UNL     1     -34.457   6.567   6.543  1.00 20.00    -0.002 C 
HETATM    7  C4  UNL     1     -33.194   7.354   6.856  1.00 20.00     0.005 C 
ENDBRANCH   5   6
ENDBRANCH   1   5
BRANCH   1   8
HETATM    8  O8  UNL     1     -35.568   3.721   5.015  1.00 20.00    -0.395 OA
HETATM    9  H22 UNL     1     -36.042   3.998   4.216  1.00 20.00     0.210 HD
ENDBRANCH   1   8
TORSDOF 4
ENDMDL
MODEL 7
REMARK VINA RESULT:      -4.1     11.770     12.282
REMARK  4 active torsions:
REMARK  status: ('A' for Active; 'I' for Inactive)
REMARK    1  A    between atoms: C3_3  and  C7_7 
REMARK    2  A    between atoms: C5_5  and  C6_6 
REMARK    3  A    between atoms: C6_6  and  C7_7 
REMARK    4  A    between atoms: C7_7  and  O8_8 
ROOT
HETATM    1  C7  UNL     1     -33.799  15.771  -3.847  1.00 20.00     0.122 C 
ENDROOT
BRANCH   1   2
HETATM    2  C3  UNL     1     -34.248  14.348  -3.547  1.00 20.00     0.014 A 
HETATM    3  C1  UNL     1     -35.491  13.795  -4.188  1.00 20.00     0.007 A 
HETATM    4  C2  UNL     1     -34.140  13.283  -4.602  1.00 20.00     0.007 A 
ENDBRANCH   1   2
BRANCH   1   5
HETATM    5  C6  UNL     1     -33.658  16.599  -2.564  1.00 20.00     0.032 C 
BRANCH   5   6
HETATM    6  C5  UNL     1     -34.730  16.245  -1.531  1.00 20.00    -0.002 C 
HETATM    7  C4  UNL     1     -34.610  17.109  -0.285  1.00 20.00     0.005 C 
ENDBRANCH   5   6
ENDBRANCH   1   5
BRANCH   1   8
HETATM    8  O8  UNL     1     -32.552  15.722  -4.535  1.00 20.00    -0.395 OA
HETATM    9  H22 UNL     1     -32.700  15.202  -5.340  1.00 20.00     0.210 HD
ENDBRANCH   1   8
TORSDOF 4
ENDMDL
MODEL 8
REMARK VINA RESULT:      -3.9     11.315     12.681
REMARK  4 active torsions:
REMARK  status: ('A' for Active; 'I' for Inactive)
REMARK    1  A    between atoms: C3_3  and  C7_7 
REMARK    2  A    between atoms: C5_5  and  C6_6 
REMARK    3  A    between atoms: C6_6  and  C7_7 
REMARK    4  A    between atoms: C7_7  and  O8_8 
ROOT
HETATM    1  C7  UNL     1     -34.167  13.591  -4.737  1.00 20.00     0.122 C 
ENDROOT
BRANCH   1   2
HETATM    2  C3  UNL     1     -34.821  14.674  -5.584  1.00 20.00     0.014 A 
HETATM    3  C1  UNL     1     -34.242  15.042  -6.922  1.00 20.00     0.007 A 
HETATM    4  C2  UNL     1     -35.551  14.308  -6.847  1.00 20.00     0.007 A 
ENDBRANCH   1   2
BRANCH   1   5
HETATM    5  C6  UNL     1     -33.421  14.189  -3.539  1.00 20.00     0.032 C 
BRANCH   5   6
HETATM    6  C5  UNL     1     -33.741  15.673  -3.344  1.00 20.00    -0.002 C 
HETATM    7  C4  UNL     1     -34.588  15.901  -2.102  1.00 20.00     0.005 C 
ENDBRANCH   5   6
ENDBRANCH   1   5
BRANCH   1   8
HETATM    8  O8  UNL     1     -35.176  12.692  -4.285  1.00 20.00    -0.395 OA
HETATM    9  H22 UNL     1     -36.000  13.201  -4.237  1.00 20.00     0.210 HD
ENDBRANCH   1   8
TORSDOF 4
ENDMDL
MODEL 9
REMARK VINA RESULT:      -3.9     11.559     12.442
REMARK  4 active torsions:
REMARK  status: ('A' for Active; 'I' for Inactive)
REMARK    1  A    between atoms: C3_3  and  C7_7 
REMARK    2  A    between atoms: C5_5  and  C6_6 
REMARK    3  A    between atoms: C6_6  and  C7_7 
REMARK    4  A    between atoms: C7_7  and  O8_8 
ROOT
HETATM    1  C7  UNL     1     -32.915  15.188  -3.498  1.00 20.00     0.122 C 
ENDROOT
BRANCH   1   2
HETATM    2  C3  UNL     1     -34.078  16.017  -2.972  1.00 20.00     0.014 A 
HETATM    3  C1  UNL     1     -33.994  16.667  -1.619  1.00 20.00     0.007 A 
HETATM    4  C2  UNL     1     -33.953  17.511  -2.862  1.00 20.00     0.007 A 
ENDBRANCH   1   2
BRANCH   1   5
HETATM    5  C6  UNL     1     -33.330  13.734  -3.754  1.00 20.00     0.032 C 
BRANCH   5   6
HETATM    6  C5  UNL     1     -34.823  13.610  -4.070  1.00 20.00    -0.002 C 
HETATM    7  C4  UNL     1     -35.080  13.666  -5.568  1.00 20.00     0.005 C 
ENDBRANCH   5   6
ENDBRANCH   1   5
BRANCH   1   8
HETATM    8  O8  UNL     1     -32.440  15.779  -4.705  1.00 20.00    -0.395 OA
HETATM    9  H22 UNL     1     -32.516  15.102  -5.395  1.00 20.00     0.210 HD
ENDBRANCH   1   8
TORSDOF 4
ENDMDL
