MODEL 1
REMARK VINA RESULT:      -4.2      0.000      0.000
REMARK  1 active torsions:
REMARK  status: ('A' for Active; 'I' for Inactive)
REMARK    1  A    between atoms: C2_2  and  C3_3 
ROOT
HETATM    1  C1  UNL     1     -34.017   5.853   3.962  1.00 20.00     0.064 C 
HETATM    2  C2  UNL     1     -35.162   5.068   4.448  1.00 20.00     0.194 C 
HETATM    3  N4  UNL     1     -33.116   6.473   3.577  1.00 20.00    -0.197 NA
ENDROOT
BRANCH   2   4
HETATM    4  C3  UNL     1     -35.032   4.754   5.925  1.00 20.00     0.366 C 
HETATM    5  F5  UNL     1     -34.769   5.885   6.626  1.00 20.00    -0.213 F 
HETATM    6  F6  UNL     1     -33.998   3.904   6.138  1.00 20.00    -0.213 F 
ENDBRANCH   2   4
TORSDOF 1
ENDMDL
MODEL 2
REMARK VINA RESULT:      -4.1      0.701      1.309
REMARK  1 active torsions:
REMARK  status: ('A' for Active; 'I' for Inactive)
REMARK    1  A    between atoms: C2_2  and  C3_3 
ROOT
HETATM    1  C1  UNL     1     -33.661   6.006   3.865  1.00 20.00     0.064 C 
HETATM    2  C2  UNL     1     -34.823   5.343   4.474  1.00 20.00     0.194 C 
HETATM    3  N4  UNL     1     -32.746   6.531   3.382  1.00 20.00    -0.197 NA
ENDROOT
BRANCH   2   4
HETATM    4  C3  UNL     1     -34.555   4.973   5.921  1.00 20.00     0.366 C 
HETATM    5  F5  UNL     1     -35.429   4.022   6.334  1.00 20.00    -0.213 F 
HETATM    6  F6  UNL     1     -34.729   6.052   6.723  1.00 20.00    -0.213 F 
ENDBRANCH   2   4
TORSDOF 1
ENDMDL
MODEL 3
REMARK VINA RESULT:      -4.0      2.256      2.641
REMARK  1 active torsions:
REMARK  status: ('A' for Active; 'I' for Inactive)
REMARK    1  A    between atoms: C2_2  and  C3_3 
ROOT
HETATM    1  C1  UNL     1     -34.305   5.986   6.265  1.00 20.00     0.064 C 
HETATM    2  C2  UNL     1     -34.984   4.781   5.767  1.00 20.00     0.194 C 
HETATM    3  N4  UNL     1     -33.767   6.935   6.659  1.00 20.00    -0.197 NA
ENDROOT
BRANCH   2   4
HETATM    4  C3  UNL     1     -35.073   4.779   4.253  1.00 20.00     0.366 C 
HETATM    5  F5  UNL     1     -34.004   5.420   3.718  1.00 20.00    -0.213 F 
HETATM    6  F6  UNL     1     -36.182   5.443   3.844  1.00 20.00    -0.213 F 
ENDBRANCH   2   4
TORSDOF 1
ENDMDL
MODEL 4
REMARK VINA RESULT:      -4.0      1.495      1.589
REMARK  1 active torsions:
REMARK  status: ('A' for Active; 'I' for Inactive)
REMARK    1  A    between atoms: C2_2  and  C3_3 
ROOT
HETATM    1  C1  UNL     1     -33.265   6.338   4.014  1.00 20.00     0.064 C 
HETATM    2  C2  UNL     1     -34.040   6.114   5.243  1.00 20.00     0.194 C 
HETATM    3  N4  UNL     1     -32.652   6.516   3.046  1.00 20.00    -0.197 NA
ENDROOT
BRANCH   2   4
HETATM    4  C3  UNL     1     -34.907   4.874   5.134  1.00 20.00     0.366 C 
HETATM    5  F5  UNL     1     -35.924   5.086   4.263  1.00 20.00    -0.213 F 
HETATM    6  F6  UNL     1     -35.464   4.581   6.335  1.00 20.00    -0.213 F 
ENDBRANCH   2   4
TORSDOF 1
ENDMDL
MODEL 5
REMARK VINA RESULT:      -3.9      1.317      1.699
REMARK  1 active torsions:
REMARK  status: ('A' for Active; 'I' for Inactive)
REMARK    1  A    between atoms: C2_2  and  C3_3 
ROOT
HETATM    1  C1  UNL     1     -33.529   6.242   4.354  1.00 20.00     0.064 C 
HETATM    2  C2  UNL     1     -34.110   5.983   5.679  1.00 20.00     0.194 C 
HETATM    3  N4  UNL     1     -33.070   6.446   3.309  1.00 20.00    -0.197 NA
ENDROOT
BRANCH   2   4
HETATM    4  C3  UNL     1     -35.130   4.862   5.629  1.00 20.00     0.366 C 
HETATM    5  F5  UNL     1     -34.507   3.657   5.659  1.00 20.00    -0.213 F 
HETATM    6  F6  UNL     1     -35.835   4.917   4.473  1.00 20.00    -0.213 F 
ENDBRANCH   2   4
TORSDOF 1
ENDMDL
MODEL 6
REMARK VINA RESULT:      -3.8      2.391      2.633
REMARK  1 active torsions:
REMARK  status: ('A' for Active; 'I' for Inactive)
REMARK    1  A    between atoms: C2_2  and  C3_3 
ROOT
HETATM    1  C1  UNL     1     -34.933   4.336   5.524  1.00 20.00     0.064 C 
HETATM    2  C2  UNL     1     -34.766   5.320   6.603  1.00 20.00     0.194 C 
HETATM    3  N4  UNL     1     -35.067   3.559   4.673  1.00 20.00    -0.197 NA
ENDROOT
BRANCH   2   4
HETATM    4  C3  UNL     1     -33.793   6.415   6.210  1.00 20.00     0.366 C 
HETATM    5  F5  UNL     1     -33.967   7.504   6.999  1.00 20.00    -0.213 F 
HETATM    6  F6  UNL     1     -34.016   6.807   4.932  1.00 20.00    -0.213 F 
ENDBRANCH   2   4
TORSDOF 1
ENDMDL
MODEL 7
REMARK VINA RESULT:      -3.7      2.502      3.042
REMARK  1 active torsions:
REMARK  status: ('A' for Active; 'I' for Inactive)
REMARK    1  A    between atoms: C2_2  and  C3_3 
ROOT
HETATM    1  C1  UNL     1     -34.951   4.748   4.955  1.00 20.00     0.064 C 
HETATM    2  C2  UNL     1     -34.768   5.425   3.663  1.00 20.00     0.194 C 
HETATM    3  N4  UNL     1     -35.096   4.212   5.973  1.00 20.00    -0.197 NA
ENDROOT
BRANCH   2   4
HETATM    4  C3  UNL     1     -33.584   6.373   3.696  1.00 20.00     0.366 C 
HETATM    5  F5  UNL     1     -32.520   5.821   3.062  1.00 20.00    -0.213 F 
HETATM    6  F6  UNL     1     -33.207   6.611   4.976  1.00 20.00    -0.213 F 
ENDBRANCH   2   4
TORSDOF 1
ENDMDL
MODEL 8
REMARK VINA RESULT:      -3.7      2.846      3.244
REMARK  1 active torsions:
REMARK  status: ('A' for Active; 'I' for Inactive)
REMARK    1  A    between atoms: C2_2  and  C3_3 
ROOT
HETATM    1  C1  UNL     1     -34.609   4.880   5.016  1.00 20.00     0.064 C 
HETATM    2  C2  UNL     1     -33.904   6.140   4.742  1.00 20.00     0.194 C 
HETATM    3  N4  UNL     1     -35.167   3.887   5.234  1.00 20.00    -0.197 NA
ENDROOT
BRANCH   2   4
HETATM    4  C3  UNL     1     -33.343   6.168   3.333  1.00 20.00     0.366 C 
HETATM    5  F5  UNL     1     -34.030   5.311   2.536  1.00 20.00    -0.213 F 
HETATM    6  F6  UNL     1     -32.050   5.763   3.332  1.00 20.00    -0.213 F 
ENDBRANCH   2   4
TORSDOF 1
ENDMDL
MODEL 9
REMARK VINA RESULT:      -3.6      2.887      3.259
REMARK  1 active torsions:
REMARK  status: ('A' for Active; 'I' for Inactive)
REMARK    1  A    between atoms: C2_2  and  C3_3 
ROOT
HETATM    1  C1  UNL     1     -34.660   4.832   5.094  1.00 20.00     0.064 C 
HETATM    2  C2  UNL     1     -34.043   6.128   4.777  1.00 20.00     0.194 C 
HETATM    3  N4  UNL     1     -35.149   3.811   5.344  1.00 20.00    -0.197 NA
ENDROOT
BRANCH   2   4
HETATM    4  C3  UNL     1     -33.234   6.059   3.496  1.00 20.00     0.366 C 
HETATM    5  F5  UNL     1     -32.998   7.307   3.020  1.00 20.00    -0.213 F 
HETATM    6  F6  UNL     1     -33.922   5.391   2.539  1.00 20.00    -0.213 F 
ENDBRANCH   2   4
TORSDOF 1
ENDMDL
