MODEL 1
REMARK VINA RESULT:      -5.1      0.000      0.000
REMARK  5 active torsions:
REMARK  status: ('A' for Active; 'I' for Inactive)
REMARK    1  A    between atoms: C4_4  and  C6_6 
REMARK    2  A    between atoms: C4_4  and  C7_7 
REMARK    3  A    between atoms: C5_5  and  C8_8 
REMARK    4  A    between atoms: C5_5  and  N9_9 
REMARK    5  A    between atoms: C7_7  and  N9_9 
ROOT
HETATM    1  C3  UNL     1     -32.136   5.547   2.988  1.00 20.00     0.042 C 
HETATM    2  C7  UNL     1     -33.092   6.482   3.726  1.00 20.00     0.217 C 
ENDROOT
BRANCH   2   3
HETATM    3  C4  UNL     1     -34.480   5.841   3.866  1.00 20.00     0.039 C 
BRANCH   3   4
HETATM    4  C6  UNL     1     -34.901   5.502   5.312  1.00 20.00    -0.021 C 
HETATM    5  C1  UNL     1     -34.049   6.306   6.299  1.00 20.00     0.009 C 
HETATM    6  C2  UNL     1     -34.777   4.009   5.622  1.00 20.00     0.009 C 
ENDBRANCH   3   4
ENDBRANCH   2   3
BRANCH   2   7
HETATM    7  N9  UNL     1     -33.190   7.725   2.991  1.00 20.00     0.092 N 
HETATM    8  H28 UNL     1     -34.003   7.695   2.370  1.00 20.00     0.316 HD
BRANCH   7   9
HETATM    9  C5  UNL     1     -31.994   7.962   2.186  1.00 20.00     0.340 C 
BRANCH   9  10
HETATM   10  C8  UNL     1     -32.153   9.218   1.356  1.00 20.00     0.381 C 
HETATM   11  F10 UNL     1     -33.138   9.993   1.872  1.00 20.00    -0.213 F 
HETATM   12  F11 UNL     1     -32.547   8.875   0.103  1.00 20.00    -0.213 F 
ENDBRANCH   9  10
ENDBRANCH   7   9
ENDBRANCH   2   7
TORSDOF 5
ENDMDL
MODEL 2
REMARK VINA RESULT:      -5.1      0.579      1.056
REMARK  5 active torsions:
REMARK  status: ('A' for Active; 'I' for Inactive)
REMARK    1  A    between atoms: C4_4  and  C6_6 
REMARK    2  A    between atoms: C4_4  and  C7_7 
REMARK    3  A    between atoms: C5_5  and  C8_8 
REMARK    4  A    between atoms: C5_5  and  N9_9 
REMARK    5  A    between atoms: C7_7  and  N9_9 
ROOT
HETATM    1  C3  UNL     1     -32.175   5.480   3.008  1.00 20.00     0.042 C 
HETATM    2  C7  UNL     1     -33.151   6.387   3.754  1.00 20.00     0.217 C 
ENDROOT
BRANCH   2   3
HETATM    3  C4  UNL     1     -34.528   5.719   3.879  1.00 20.00     0.039 C 
BRANCH   3   4
HETATM    4  C6  UNL     1     -34.965   5.388   5.321  1.00 20.00    -0.021 C 
HETATM    5  C1  UNL     1     -34.138   6.213   6.313  1.00 20.00     0.009 C 
HETATM    6  C2  UNL     1     -34.826   3.900   5.648  1.00 20.00     0.009 C 
ENDBRANCH   3   4
ENDBRANCH   2   3
BRANCH   2   7
HETATM    7  N9  UNL     1     -33.269   7.638   3.035  1.00 20.00     0.092 N 
HETATM    8  H28 UNL     1     -33.950   7.538   2.278  1.00 20.00     0.316 HD
BRANCH   7   9
HETATM    9  C5  UNL     1     -31.988   8.044   2.462  1.00 20.00     0.340 C 
BRANCH   9  10
HETATM   10  C8  UNL     1     -32.199   8.775   1.153  1.00 20.00     0.381 C 
HETATM   11  F10 UNL     1     -31.182   8.499   0.300  1.00 20.00    -0.213 F 
HETATM   12  F11 UNL     1     -32.160  10.112   1.379  1.00 20.00    -0.213 F 
ENDBRANCH   9  10
ENDBRANCH   7   9
ENDBRANCH   2   7
TORSDOF 5
ENDMDL
MODEL 3
REMARK VINA RESULT:      -4.7      0.725      1.121
REMARK  5 active torsions:
REMARK  status: ('A' for Active; 'I' for Inactive)
REMARK    1  A    between atoms: C4_4  and  C6_6 
REMARK    2  A    between atoms: C4_4  and  C7_7 
REMARK    3  A    between atoms: C5_5  and  C8_8 
REMARK    4  A    between atoms: C5_5  and  N9_9 
REMARK    5  A    between atoms: C7_7  and  N9_9 
ROOT
HETATM    1  C3  UNL     1     -32.223   5.419   2.990  1.00 20.00     0.042 C 
HETATM    2  C7  UNL     1     -32.551   6.734   3.692  1.00 20.00     0.217 C 
ENDROOT
BRANCH   2   3
HETATM    3  C4  UNL     1     -33.640   6.527   4.755  1.00 20.00     0.039 C 
BRANCH   3   4
HETATM    4  C6  UNL     1     -34.441   5.214   4.623  1.00 20.00    -0.021 C 
HETATM    5  C1  UNL     1     -35.717   5.469   3.815  1.00 20.00     0.009 C 
HETATM    6  C2  UNL     1     -34.804   4.612   5.981  1.00 20.00     0.009 C 
ENDBRANCH   3   4
ENDBRANCH   2   3
BRANCH   2   7
HETATM    7  N9  UNL     1     -32.999   7.693   2.703  1.00 20.00     0.092 N 
HETATM    8  H28 UNL     1     -33.702   7.262   2.099  1.00 20.00     0.316 HD
BRANCH   7   9
HETATM    9  C5  UNL     1     -31.889   8.158   1.875  1.00 20.00     0.340 C 
BRANCH   9  10
HETATM   10  C8  UNL     1     -32.237   9.473   1.211  1.00 20.00     0.381 C 
HETATM   11  F10 UNL     1     -33.189  10.117   1.929  1.00 20.00    -0.213 F 
HETATM   12  F11 UNL     1     -32.776   9.226  -0.010  1.00 20.00    -0.213 F 
ENDBRANCH   9  10
ENDBRANCH   7   9
ENDBRANCH   2   7
TORSDOF 5
ENDMDL
MODEL 4
REMARK VINA RESULT:      -4.6      0.711      1.550
REMARK  5 active torsions:
REMARK  status: ('A' for Active; 'I' for Inactive)
REMARK    1  A    between atoms: C4_4  and  C6_6 
REMARK    2  A    between atoms: C4_4  and  C7_7 
REMARK    3  A    between atoms: C5_5  and  C8_8 
REMARK    4  A    between atoms: C5_5  and  N9_9 
REMARK    5  A    between atoms: C7_7  and  N9_9 
ROOT
HETATM    1  C3  UNL     1     -32.067   5.422   2.786  1.00 20.00     0.042 C 
HETATM    2  C7  UNL     1     -32.854   6.411   3.642  1.00 20.00     0.217 C 
ENDROOT
BRANCH   2   3
HETATM    3  C4  UNL     1     -34.157   5.776   4.150  1.00 20.00     0.039 C 
BRANCH   3   4
HETATM    4  C6  UNL     1     -34.110   5.262   5.604  1.00 20.00    -0.021 C 
HETATM    5  C1  UNL     1     -35.225   4.236   5.825  1.00 20.00     0.009 C 
HETATM    6  C2  UNL     1     -34.240   6.392   6.628  1.00 20.00     0.009 C 
ENDBRANCH   3   4
ENDBRANCH   2   3
BRANCH   2   7
HETATM    7  N9  UNL     1     -33.152   7.584   2.846  1.00 20.00     0.092 N 
HETATM    8  H28 UNL     1     -33.735   7.320   2.048  1.00 20.00     0.316 HD
BRANCH   7   9
HETATM    9  C5  UNL     1     -31.930   8.211   2.347  1.00 20.00     0.340 C 
BRANCH   9  10
HETATM   10  C8  UNL     1     -32.176   8.858   1.001  1.00 20.00     0.381 C 
HETATM   11  F10 UNL     1     -31.204   8.495   0.128  1.00 20.00    -0.213 F 
HETATM   12  F11 UNL     1     -32.092  10.206   1.134  1.00 20.00    -0.213 F 
ENDBRANCH   9  10
ENDBRANCH   7   9
ENDBRANCH   2   7
TORSDOF 5
ENDMDL
MODEL 5
REMARK VINA RESULT:      -4.6     10.651     11.624
REMARK  5 active torsions:
REMARK  status: ('A' for Active; 'I' for Inactive)
REMARK    1  A    between atoms: C4_4  and  C6_6 
REMARK    2  A    between atoms: C4_4  and  C7_7 
REMARK    3  A    between atoms: C5_5  and  C8_8 
REMARK    4  A    between atoms: C5_5  and  N9_9 
REMARK    5  A    between atoms: C7_7  and  N9_9 
ROOT
HETATM    1  C3  UNL     1     -33.496  17.794  -5.159  1.00 20.00     0.042 C 
HETATM    2  C7  UNL     1     -34.008  16.482  -4.572  1.00 20.00     0.217 C 
ENDROOT
BRANCH   2   3
HETATM    3  C4  UNL     1     -33.582  16.339  -3.104  1.00 20.00     0.039 C 
BRANCH   3   4
HETATM    4  C6  UNL     1     -34.714  15.953  -2.129  1.00 20.00    -0.021 C 
HETATM    5  C1  UNL     1     -36.072  16.260  -2.769  1.00 20.00     0.009 C 
HETATM    6  C2  UNL     1     -34.604  16.679  -0.786  1.00 20.00     0.009 C 
ENDBRANCH   3   4
ENDBRANCH   2   3
BRANCH   2   7
HETATM    7  N9  UNL     1     -33.478  15.383  -5.352  1.00 20.00     0.092 N 
HETATM    8  H28 UNL     1     -33.037  15.744  -6.202  1.00 20.00     0.316 HD
BRANCH   7   9
HETATM    9  C5  UNL     1     -34.531  14.444  -5.731  1.00 20.00     0.340 C 
BRANCH   9  10
HETATM   10  C8  UNL     1     -34.471  13.201  -4.868  1.00 20.00     0.381 C 
HETATM   11  F10 UNL     1     -35.496  13.204  -3.981  1.00 20.00    -0.213 F 
HETATM   12  F11 UNL     1     -33.328  13.223  -4.138  1.00 20.00    -0.213 F 
ENDBRANCH   9  10
ENDBRANCH   7   9
ENDBRANCH   2   7
TORSDOF 5
ENDMDL
MODEL 6
REMARK VINA RESULT:      -4.4     10.756     11.929
REMARK  5 active torsions:
REMARK  status: ('A' for Active; 'I' for Inactive)
REMARK    1  A    between atoms: C4_4  and  C6_6 
REMARK    2  A    between atoms: C4_4  and  C7_7 
REMARK    3  A    between atoms: C5_5  and  C8_8 
REMARK    4  A    between atoms: C5_5  and  N9_9 
REMARK    5  A    between atoms: C7_7  and  N9_9 
ROOT
HETATM    1  C3  UNL     1     -33.456  13.755  -3.793  1.00 20.00     0.042 C 
HETATM    2  C7  UNL     1     -33.113  15.237  -3.666  1.00 20.00     0.217 C 
ENDROOT
BRANCH   2   3
HETATM    3  C4  UNL     1     -34.227  15.993  -2.929  1.00 20.00     0.039 C 
BRANCH   3   4
HETATM    4  C6  UNL     1     -33.750  16.897  -1.773  1.00 20.00    -0.021 C 
HETATM    5  C1  UNL     1     -34.690  16.739  -0.574  1.00 20.00     0.009 C 
HETATM    6  C2  UNL     1     -33.675  18.371  -2.176  1.00 20.00     0.009 C 
ENDBRANCH   3   4
ENDBRANCH   2   3
BRANCH   2   7
HETATM    7  N9  UNL     1     -32.930  15.789  -4.993  1.00 20.00     0.092 N 
HETATM    8  H28 UNL     1     -32.156  16.457  -4.984  1.00 20.00     0.316 HD
BRANCH   7   9
HETATM    9  C5  UNL     1     -34.136  16.473  -5.453  1.00 20.00     0.340 C 
BRANCH   9  10
HETATM   10  C8  UNL     1     -34.761  15.726  -6.612  1.00 20.00     0.381 C 
HETATM   11  F10 UNL     1     -35.751  14.918  -6.162  1.00 20.00    -0.213 F 
HETATM   12  F11 UNL     1     -33.827  14.917  -7.173  1.00 20.00    -0.213 F 
ENDBRANCH   9  10
ENDBRANCH   7   9
ENDBRANCH   2   7
TORSDOF 5
ENDMDL
MODEL 7
REMARK VINA RESULT:      -4.4      3.088      5.376
REMARK  5 active torsions:
REMARK  status: ('A' for Active; 'I' for Inactive)
REMARK    1  A    between atoms: C4_4  and  C6_6 
REMARK    2  A    between atoms: C4_4  and  C7_7 
REMARK    3  A    between atoms: C5_5  and  C8_8 
REMARK    4  A    between atoms: C5_5  and  N9_9 
REMARK    5  A    between atoms: C7_7  and  N9_9 
ROOT
HETATM    1  C3  UNL     1     -32.129   5.322   3.025  1.00 20.00     0.042 C 
HETATM    2  C7  UNL     1     -32.984   6.586   3.024  1.00 20.00     0.217 C 
ENDROOT
BRANCH   2   3
HETATM    3  C4  UNL     1     -32.112   7.833   2.816  1.00 20.00     0.039 C 
BRANCH   3   4
HETATM    4  C6  UNL     1     -32.494   8.703   1.599  1.00 20.00    -0.021 C 
HETATM    5  C1  UNL     1     -31.405   8.596   0.527  1.00 20.00     0.009 C 
HETATM    6  C2  UNL     1     -32.705  10.171   1.973  1.00 20.00     0.009 C 
ENDBRANCH   3   4
ENDBRANCH   2   3
BRANCH   2   7
HETATM    7  N9  UNL     1     -33.686   6.676   4.287  1.00 20.00     0.092 N 
HETATM    8  H28 UNL     1     -33.017   6.851   5.042  1.00 20.00     0.316 HD
BRANCH   7   9
HETATM    9  C5  UNL     1     -34.411   5.442   4.580  1.00 20.00     0.340 C 
BRANCH   9  10
HETATM   10  C8  UNL     1     -34.430   5.179   6.071  1.00 20.00     0.381 C 
HETATM   11  F10 UNL     1     -35.530   4.458   6.400  1.00 20.00    -0.213 F 
HETATM   12  F11 UNL     1     -34.533   6.361   6.730  1.00 20.00    -0.213 F 
ENDBRANCH   9  10
ENDBRANCH   7   9
ENDBRANCH   2   7
TORSDOF 5
ENDMDL
MODEL 8
REMARK VINA RESULT:      -4.1     10.626     11.739
REMARK  5 active torsions:
REMARK  status: ('A' for Active; 'I' for Inactive)
REMARK    1  A    between atoms: C4_4  and  C6_6 
REMARK    2  A    between atoms: C4_4  and  C7_7 
REMARK    3  A    between atoms: C5_5  and  C8_8 
REMARK    4  A    between atoms: C5_5  and  N9_9 
REMARK    5  A    between atoms: C7_7  and  N9_9 
ROOT
HETATM    1  C3  UNL     1     -34.188  13.726  -3.538  1.00 20.00     0.042 C 
HETATM    2  C7  UNL     1     -33.359  14.918  -4.012  1.00 20.00     0.217 C 
ENDROOT
BRANCH   2   3
HETATM    3  C4  UNL     1     -33.665  16.164  -3.168  1.00 20.00     0.039 C 
BRANCH   3   4
HETATM    4  C6  UNL     1     -34.882  16.034  -2.228  1.00 20.00    -0.021 C 
HETATM    5  C1  UNL     1     -36.089  16.745  -2.847  1.00 20.00     0.009 C 
HETATM    6  C2  UNL     1     -34.609  16.604  -0.834  1.00 20.00     0.009 C 
ENDBRANCH   3   4
ENDBRANCH   2   3
BRANCH   2   7
HETATM    7  N9  UNL     1     -33.665  15.174  -5.404  1.00 20.00     0.092 N 
HETATM    8  H28 UNL     1     -33.921  16.157  -5.526  1.00 20.00     0.316 HD
BRANCH   7   9
HETATM    9  C5  UNL     1     -34.771  14.340  -5.867  1.00 20.00     0.340 C 
BRANCH   9  10
HETATM   10  C8  UNL     1     -35.935  15.201  -6.311  1.00 20.00     0.381 C 
HETATM   11  F10 UNL     1     -35.640  16.510  -6.125  1.00 20.00    -0.213 F 
HETATM   12  F11 UNL     1     -37.010  14.932  -5.528  1.00 20.00    -0.213 F 
ENDBRANCH   9  10
ENDBRANCH   7   9
ENDBRANCH   2   7
TORSDOF 5
ENDMDL
MODEL 9
REMARK VINA RESULT:      -4.1      2.980      5.097
REMARK  5 active torsions:
REMARK  status: ('A' for Active; 'I' for Inactive)
REMARK    1  A    between atoms: C4_4  and  C6_6 
REMARK    2  A    between atoms: C4_4  and  C7_7 
REMARK    3  A    between atoms: C5_5  and  C8_8 
REMARK    4  A    between atoms: C5_5  and  N9_9 
REMARK    5  A    between atoms: C7_7  and  N9_9 
ROOT
HETATM    1  C3  UNL     1     -32.243   5.386   2.954  1.00 20.00     0.042 C 
HETATM    2  C7  UNL     1     -32.910   6.758   2.965  1.00 20.00     0.217 C 
ENDROOT
BRANCH   2   3
HETATM    3  C4  UNL     1     -31.866   7.870   3.137  1.00 20.00     0.039 C 
BRANCH   3   4
HETATM    4  C6  UNL     1     -31.765   8.860   1.957  1.00 20.00    -0.021 C 
HETATM    5  C1  UNL     1     -32.898   9.887   2.048  1.00 20.00     0.009 C 
HETATM    6  C2  UNL     1     -31.814   8.159   0.599  1.00 20.00     0.009 C 
ENDBRANCH   3   4
ENDBRANCH   2   3
BRANCH   2   7
HETATM    7  N9  UNL     1     -33.867   6.803   4.052  1.00 20.00     0.092 N 
HETATM    8  H28 UNL     1     -33.395   7.082   4.915  1.00 20.00     0.316 HD
BRANCH   7   9
HETATM    9  C5  UNL     1     -34.496   5.501   4.259  1.00 20.00     0.340 C 
BRANCH   9  10
HETATM   10  C8  UNL     1     -34.774   5.274   5.730  1.00 20.00     0.381 C 
HETATM   11  F10 UNL     1     -34.277   6.303   6.459  1.00 20.00    -0.213 F 
HETATM   12  F11 UNL     1     -34.117   4.159   6.139  1.00 20.00    -0.213 F 
ENDBRANCH   9  10
ENDBRANCH   7   9
ENDBRANCH   2   7
TORSDOF 5
ENDMDL
