MODEL 1
REMARK VINA RESULT:      -3.9      0.000      0.000
REMARK  1 active torsions:
REMARK  status: ('A' for Active; 'I' for Inactive)
REMARK    1  A    between atoms: C3_3  and  C6_6 
ROOT
HETATM    1  C1  UNL     1     -34.703  15.272  -2.423  1.00 20.00     0.019 A 
HETATM    2  C2  UNL     1     -34.619  16.639  -2.028  1.00 20.00     0.028 A 
HETATM    3  C3  UNL     1     -34.069  15.041  -3.624  1.00 20.00     0.015 A 
HETATM    4  C4  UNL     1     -33.923  17.400  -2.942  1.00 20.00     0.051 A 
HETATM    5  S8  UNL     1     -33.376  16.467  -4.270  1.00 20.00    -0.085 SA
HETATM    6 BR9  UNL     1     -33.598  19.262  -2.764  1.00 20.00    -0.043 Br
ENDROOT
BRANCH   3   7
HETATM    7  C6  UNL     1     -33.987  13.672  -4.306  1.00 20.00     0.185 A 
HETATM    8  C5  UNL     1     -34.877  13.405  -5.501  1.00 20.00     0.206 A 
HETATM    9  O7  UNL     1     -35.068  12.716  -4.264  1.00 20.00    -0.376 OA
ENDBRANCH   3   7
TORSDOF 1
ENDMDL
MODEL 2
REMARK VINA RESULT:      -3.6      1.705      1.778
REMARK  1 active torsions:
REMARK  status: ('A' for Active; 'I' for Inactive)
REMARK    1  A    between atoms: C3_3  and  C6_6 
ROOT
HETATM    1  C1  UNL     1     -33.670  15.893  -2.669  1.00 20.00     0.019 A 
HETATM    2  C2  UNL     1     -34.320  17.037  -2.118  1.00 20.00     0.028 A 
HETATM    3  C3  UNL     1     -34.560  15.033  -3.273  1.00 20.00     0.015 A 
HETATM    4  C4  UNL     1     -35.682  17.006  -2.323  1.00 20.00     0.051 A 
HETATM    5  S8  UNL     1     -36.172  15.603  -3.176  1.00 20.00    -0.085 SA
HETATM    6 BR9  UNL     1     -36.887  18.352  -1.740  1.00 20.00    -0.043 Br
ENDROOT
BRANCH   3   7
HETATM    7  C6  UNL     1     -34.163  13.721  -3.955  1.00 20.00     0.185 A 
HETATM    8  C5  UNL     1     -34.634  13.470  -5.372  1.00 20.00     0.206 A 
HETATM    9  O7  UNL     1     -35.122  12.691  -4.279  1.00 20.00    -0.376 OA
ENDBRANCH   3   7
TORSDOF 1
ENDMDL
MODEL 3
REMARK VINA RESULT:      -3.5      3.095      4.171
REMARK  1 active torsions:
REMARK  status: ('A' for Active; 'I' for Inactive)
REMARK    1  A    between atoms: C3_3  and  C6_6 
ROOT
HETATM    1  C1  UNL     1     -34.068  14.102  -3.731  1.00 20.00     0.019 A 
HETATM    2  C2  UNL     1     -34.503  13.661  -5.015  1.00 20.00     0.028 A 
HETATM    3  C3  UNL     1     -34.091  15.475  -3.620  1.00 20.00     0.015 A 
HETATM    4  C4  UNL     1     -34.841  14.714  -5.836  1.00 20.00     0.051 A 
HETATM    5  S8  UNL     1     -34.633  16.227  -5.060  1.00 20.00    -0.085 SA
HETATM    6 BR9  UNL     1     -35.467  14.527  -7.619  1.00 20.00    -0.043 Br
ENDROOT
BRANCH   3   7
HETATM    7  C6  UNL     1     -33.682  16.245  -2.362  1.00 20.00     0.185 A 
HETATM    8  C5  UNL     1     -34.724  16.488  -1.290  1.00 20.00     0.206 A 
HETATM    9  O7  UNL     1     -34.186  17.565  -2.059  1.00 20.00    -0.376 OA
ENDBRANCH   3   7
TORSDOF 1
ENDMDL
MODEL 4
REMARK VINA RESULT:      -3.5      2.380      2.792
REMARK  1 active torsions:
REMARK  status: ('A' for Active; 'I' for Inactive)
REMARK    1  A    between atoms: C3_3  and  C6_6 
ROOT
HETATM    1  C1  UNL     1     -34.612  14.075  -4.780  1.00 20.00     0.019 A 
HETATM    2  C2  UNL     1     -34.684  14.371  -3.387  1.00 20.00     0.028 A 
HETATM    3  C3  UNL     1     -34.411  15.206  -5.540  1.00 20.00     0.015 A 
HETATM    4  C4  UNL     1     -34.535  15.718  -3.137  1.00 20.00     0.051 A 
HETATM    5  S8  UNL     1     -34.311  16.618  -4.577  1.00 20.00    -0.085 SA
HETATM    6 BR9  UNL     1     -34.570  16.499  -1.406  1.00 20.00    -0.043 Br
ENDROOT
BRANCH   3   7
HETATM    7  C6  UNL     1     -34.290  15.208  -7.066  1.00 20.00     0.185 A 
HETATM    8  C5  UNL     1     -35.435  15.767  -7.883  1.00 20.00     0.206 A 
HETATM    9  O7  UNL     1     -35.111  14.376  -7.914  1.00 20.00    -0.376 OA
ENDBRANCH   3   7
TORSDOF 1
ENDMDL
MODEL 5
REMARK VINA RESULT:      -3.5      2.799      3.600
REMARK  1 active torsions:
REMARK  status: ('A' for Active; 'I' for Inactive)
REMARK    1  A    between atoms: C3_3  and  C6_6 
ROOT
HETATM    1  C1  UNL     1     -35.165  14.555  -6.973  1.00 20.00     0.019 A 
HETATM    2  C2  UNL     1     -34.980  15.678  -7.832  1.00 20.00     0.028 A 
HETATM    3  C3  UNL     1     -35.089  14.904  -5.643  1.00 20.00     0.015 A 
HETATM    4  C4  UNL     1     -34.770  16.841  -7.125  1.00 20.00     0.051 A 
HETATM    5  S8  UNL     1     -34.795  16.578  -5.433  1.00 20.00    -0.085 SA
HETATM    6 BR9  UNL     1     -34.487  18.543  -7.918  1.00 20.00    -0.043 Br
ENDROOT
BRANCH   3   7
HETATM    7  C6  UNL     1     -35.248  13.918  -4.482  1.00 20.00     0.185 A 
HETATM    8  C5  UNL     1     -34.003  13.399  -3.796  1.00 20.00     0.206 A 
HETATM    9  O7  UNL     1     -34.836  12.537  -4.572  1.00 20.00    -0.376 OA
ENDBRANCH   3   7
TORSDOF 1
ENDMDL
MODEL 6
REMARK VINA RESULT:      -3.5      1.216      1.574
REMARK  1 active torsions:
REMARK  status: ('A' for Active; 'I' for Inactive)
REMARK    1  A    between atoms: C3_3  and  C6_6 
ROOT
HETATM    1  C1  UNL     1     -33.360  16.307  -4.579  1.00 20.00     0.019 A 
HETATM    2  C2  UNL     1     -33.626  17.579  -3.992  1.00 20.00     0.028 A 
HETATM    3  C3  UNL     1     -33.925  15.278  -3.860  1.00 20.00     0.015 A 
HETATM    4  C4  UNL     1     -34.383  17.471  -2.846  1.00 20.00     0.051 A 
HETATM    5  S8  UNL     1     -34.770  15.843  -2.482  1.00 20.00    -0.085 SA
HETATM    6 BR9  UNL     1     -34.942  18.945  -1.786  1.00 20.00    -0.043 Br
ENDROOT
BRANCH   3   7
HETATM    7  C6  UNL     1     -33.816  13.799  -4.241  1.00 20.00     0.185 A 
HETATM    8  C5  UNL     1     -34.758  13.249  -5.291  1.00 20.00     0.206 A 
HETATM    9  O7  UNL     1     -34.845  12.835  -3.926  1.00 20.00    -0.376 OA
ENDBRANCH   3   7
TORSDOF 1
ENDMDL
MODEL 7
REMARK VINA RESULT:      -3.4      2.104      2.400
REMARK  1 active torsions:
REMARK  status: ('A' for Active; 'I' for Inactive)
REMARK    1  A    between atoms: C3_3  and  C6_6 
ROOT
HETATM    1  C1  UNL     1     -33.394  14.990  -4.235  1.00 20.00     0.019 A 
HETATM    2  C2  UNL     1     -33.281  15.656  -2.979  1.00 20.00     0.028 A 
HETATM    3  C3  UNL     1     -34.707  14.810  -4.609  1.00 20.00     0.015 A 
HETATM    4  C4  UNL     1     -34.514  15.957  -2.441  1.00 20.00     0.051 A 
HETATM    5  S8  UNL     1     -35.798  15.439  -3.449  1.00 20.00    -0.085 SA
HETATM    6 BR9  UNL     1     -34.773  16.845  -0.783  1.00 20.00    -0.043 Br
ENDROOT
BRANCH   3   7
HETATM    7  C6  UNL     1     -35.148  14.129  -5.907  1.00 20.00     0.185 A 
HETATM    8  C5  UNL     1     -34.873  14.828  -7.222  1.00 20.00     0.206 A 
HETATM    9  O7  UNL     1     -36.207  14.651  -6.740  1.00 20.00    -0.376 OA
ENDBRANCH   3   7
TORSDOF 1
ENDMDL
MODEL 8
REMARK VINA RESULT:      -3.4      2.392      2.618
REMARK  1 active torsions:
REMARK  status: ('A' for Active; 'I' for Inactive)
REMARK    1  A    between atoms: C3_3  and  C6_6 
ROOT
HETATM    1  C1  UNL     1     -33.550  16.235  -4.384  1.00 20.00     0.019 A 
HETATM    2  C2  UNL     1     -33.454  17.561  -4.898  1.00 20.00     0.028 A 
HETATM    3  C3  UNL     1     -34.083  15.360  -5.304  1.00 20.00     0.015 A 
HETATM    4  C4  UNL     1     -33.917  17.648  -6.193  1.00 20.00     0.051 A 
HETATM    5  S8  UNL     1     -34.466  16.136  -6.782  1.00 20.00    -0.085 SA
HETATM    6 BR9  UNL     1     -33.947  19.247  -7.217  1.00 20.00    -0.043 Br
ENDROOT
BRANCH   3   7
HETATM    7  C6  UNL     1     -34.309  13.868  -5.046  1.00 20.00     0.185 A 
HETATM    8  C5  UNL     1     -35.524  13.448  -4.246  1.00 20.00     0.206 A 
HETATM    9  O7  UNL     1     -34.202  13.281  -3.730  1.00 20.00    -0.376 OA
ENDBRANCH   3   7
TORSDOF 1
ENDMDL
MODEL 9
REMARK VINA RESULT:      -3.3      2.002      2.118
REMARK  1 active torsions:
REMARK  status: ('A' for Active; 'I' for Inactive)
REMARK    1  A    between atoms: C3_3  and  C6_6 
ROOT
HETATM    1  C1  UNL     1     -34.978  15.891  -2.185  1.00 20.00     0.019 A 
HETATM    2  C2  UNL     1     -34.399  16.630  -1.112  1.00 20.00     0.028 A 
HETATM    3  C3  UNL     1     -34.755  16.490  -3.405  1.00 20.00     0.015 A 
HETATM    4  C4  UNL     1     -33.757  17.766  -1.555  1.00 20.00     0.051 A 
HETATM    5  S8  UNL     1     -33.853  17.937  -3.256  1.00 20.00    -0.085 SA
HETATM    6 BR9  UNL     1     -32.863  19.003  -0.424  1.00 20.00    -0.043 Br
ENDROOT
BRANCH   3   7
HETATM    7  C6  UNL     1     -35.251  15.933  -4.743  1.00 20.00     0.185 A 
HETATM    8  C5  UNL     1     -34.405  14.899  -5.455  1.00 20.00     0.206 A 
HETATM    9  O7  UNL     1     -34.587  16.209  -5.995  1.00 20.00    -0.376 OA
ENDBRANCH   3   7
TORSDOF 1
ENDMDL
