MODEL 1
REMARK VINA RESULT:      -5.3      0.000      0.000
REMARK  2 active torsions:
REMARK  status: ('A' for Active; 'I' for Inactive)
REMARK    1  A    between atoms: C7_7  and  C10_10 
REMARK    2  A    between atoms: C8_8  and  C9_9 
ROOT
HETATM    1  C1  UNL     1     -34.585  15.801  -1.854  1.00 20.00    -0.019 A 
HETATM    2  C3  UNL     1     -34.719  17.059  -1.414  1.00 20.00    -0.087 A 
HETATM    3  C5  UNL     1     -35.180  18.007  -2.482  1.00 20.00     0.039 A 
HETATM    4  C8  UNL     1     -34.932  15.670  -3.299  1.00 20.00     0.021 A 
HETATM    5  C10 UNL     1     -35.304  17.127  -3.730  1.00 20.00     0.005 A 
HETATM    6  C11 UNL     1     -34.457  17.543  -0.034  1.00 20.00     0.043 C 
ENDROOT
BRANCH   4   7
HETATM    7  C9  UNL     1     -33.797  15.297  -4.289  1.00 20.00     0.022 C 
HETATM    8  C4  UNL     1     -34.371  14.985  -5.657  1.00 20.00    -0.082 C 
HETATM    9  C2  UNL     1     -35.064  13.841  -5.550  1.00 20.00    -0.019 C 
HETATM   10  C12 UNL     1     -34.187  15.861  -6.837  1.00 20.00     0.043 C 
HETATM   11  C7  UNL     1     -34.952  13.382  -4.115  1.00 20.00     0.014 C 
HETATM   12  C6  UNL     1     -33.514  13.852  -3.843  1.00 20.00     0.018 C 
ENDBRANCH   4   7
TORSDOF 2
ENDMDL
MODEL 2
REMARK VINA RESULT:      -4.9     10.904     12.603
REMARK  2 active torsions:
REMARK  status: ('A' for Active; 'I' for Inactive)
REMARK    1  A    between atoms: C7_7  and  C10_10 
REMARK    2  A    between atoms: C8_8  and  C9_9 
ROOT
HETATM    1  C1  UNL     1     -33.184   6.877   2.206  1.00 20.00    -0.019 A 
HETATM    2  C3  UNL     1     -32.154   7.732   2.150  1.00 20.00    -0.087 A 
HETATM    3  C5  UNL     1     -31.376   7.797   3.432  1.00 20.00     0.039 A 
HETATM    4  C8  UNL     1     -33.288   6.209   3.536  1.00 20.00     0.021 A 
HETATM    5  C10 UNL     1     -32.112   6.827   4.362  1.00 20.00     0.005 A 
HETATM    6  C11 UNL     1     -31.761   8.563   0.982  1.00 20.00     0.043 C 
ENDROOT
BRANCH   4   7
HETATM    7  C9  UNL     1     -34.528   6.524   4.414  1.00 20.00     0.022 C 
HETATM    8  C4  UNL     1     -34.360   5.930   5.799  1.00 20.00    -0.082 C 
HETATM    9  C2  UNL     1     -34.414   4.595   5.672  1.00 20.00    -0.019 C 
HETATM   10  C12 UNL     1     -34.139   6.746   7.014  1.00 20.00     0.043 C 
HETATM   11  C7  UNL     1     -34.623   4.293   4.206  1.00 20.00     0.014 C 
HETATM   12  C6  UNL     1     -35.522   5.490   3.859  1.00 20.00     0.018 C 
ENDBRANCH   4   7
TORSDOF 2
ENDMDL
MODEL 3
REMARK VINA RESULT:      -4.9      0.934      1.037
REMARK  2 active torsions:
REMARK  status: ('A' for Active; 'I' for Inactive)
REMARK    1  A    between atoms: C7_7  and  C10_10 
REMARK    2  A    between atoms: C8_8  and  C9_9 
ROOT
HETATM    1  C1  UNL     1     -34.556  16.159  -1.482  1.00 20.00    -0.019 A 
HETATM    2  C3  UNL     1     -35.024  17.238  -0.841  1.00 20.00    -0.087 A 
HETATM    3  C5  UNL     1     -35.666  18.234  -1.762  1.00 20.00     0.039 A 
HETATM    4  C8  UNL     1     -34.799  16.229  -2.953  1.00 20.00     0.021 A 
HETATM    5  C10 UNL     1     -35.511  17.607  -3.152  1.00 20.00     0.005 A 
HETATM    6  C11 UNL     1     -34.951  17.496   0.620  1.00 20.00     0.043 C 
ENDROOT
BRANCH   4   7
HETATM    7  C9  UNL     1     -33.566  16.339  -3.889  1.00 20.00     0.022 C 
HETATM    8  C4  UNL     1     -33.985  16.169  -5.336  1.00 20.00    -0.082 C 
HETATM    9  C2  UNL     1     -34.370  14.893  -5.495  1.00 20.00    -0.019 C 
HETATM   10  C12 UNL     1     -33.981  17.274  -6.321  1.00 20.00     0.043 C 
HETATM   11  C7  UNL     1     -34.204  14.206  -4.160  1.00 20.00     0.014 C 
HETATM   12  C6  UNL     1     -32.945  14.948  -3.683  1.00 20.00     0.018 C 
ENDBRANCH   4   7
TORSDOF 2
ENDMDL
MODEL 4
REMARK VINA RESULT:      -4.7     12.103     14.555
REMARK  2 active torsions:
REMARK  status: ('A' for Active; 'I' for Inactive)
REMARK    1  A    between atoms: C7_7  and  C10_10 
REMARK    2  A    between atoms: C8_8  and  C9_9 
ROOT
HETATM    1  C1  UNL     1     -41.288   3.421  -2.759  1.00 20.00    -0.019 A 
HETATM    2  C3  UNL     1     -41.967   2.296  -3.020  1.00 20.00    -0.087 A 
HETATM    3  C5  UNL     1     -43.333   2.279  -2.399  1.00 20.00     0.039 A 
HETATM    4  C8  UNL     1     -42.073   4.369  -1.916  1.00 20.00     0.021 A 
HETATM    5  C10 UNL     1     -43.417   3.615  -1.653  1.00 20.00     0.005 A 
HETATM    6  C11 UNL     1     -41.487   1.144  -3.826  1.00 20.00     0.043 C 
ENDROOT
BRANCH   4   7
HETATM    7  C9  UNL     1     -41.558   4.666  -0.483  1.00 20.00     0.022 C 
HETATM    8  C4  UNL     1     -42.505   5.607   0.235  1.00 20.00    -0.082 C 
HETATM    9  C2  UNL     1     -42.418   6.802  -0.369  1.00 20.00    -0.019 C 
HETATM   10  C12 UNL     1     -43.368   5.190   1.363  1.00 20.00     0.043 C 
HETATM   11  C7  UNL     1     -41.410   6.667  -1.486  1.00 20.00     0.014 C 
HETATM   12  C6  UNL     1     -40.449   5.683  -0.800  1.00 20.00     0.018 C 
ENDBRANCH   4   7
TORSDOF 2
ENDMDL
MODEL 5
REMARK VINA RESULT:      -4.6      1.419      2.526
REMARK  2 active torsions:
REMARK  status: ('A' for Active; 'I' for Inactive)
REMARK    1  A    between atoms: C7_7  and  C10_10 
REMARK    2  A    between atoms: C8_8  and  C9_9 
ROOT
HETATM    1  C1  UNL     1     -33.580  18.055  -2.210  1.00 20.00    -0.019 A 
HETATM    2  C3  UNL     1     -33.917  18.027  -0.914  1.00 20.00    -0.087 A 
HETATM    3  C5  UNL     1     -34.649  16.775  -0.526  1.00 20.00     0.039 A 
HETATM    4  C8  UNL     1     -34.020  16.827  -2.933  1.00 20.00     0.021 A 
HETATM    5  C10 UNL     1     -34.748  15.984  -1.835  1.00 20.00     0.005 A 
HETATM    6  C11 UNL     1     -33.636  19.082   0.094  1.00 20.00     0.043 C 
ENDROOT
BRANCH   4   7
HETATM    7  C9  UNL     1     -35.108  16.979  -4.029  1.00 20.00     0.022 C 
HETATM    8  C4  UNL     1     -35.347  15.653  -4.724  1.00 20.00    -0.082 C 
HETATM    9  C2  UNL     1     -34.244  15.368  -5.434  1.00 20.00    -0.019 C 
HETATM   10  C12 UNL     1     -36.586  14.859  -4.562  1.00 20.00     0.043 C 
HETATM   11  C7  UNL     1     -33.269  16.502  -5.221  1.00 20.00     0.014 C 
HETATM   12  C6  UNL     1     -34.283  17.654  -5.137  1.00 20.00     0.018 C 
ENDBRANCH   4   7
TORSDOF 2
ENDMDL
MODEL 6
REMARK VINA RESULT:      -4.4      2.309      3.773
REMARK  2 active torsions:
REMARK  status: ('A' for Active; 'I' for Inactive)
REMARK    1  A    between atoms: C7_7  and  C10_10 
REMARK    2  A    between atoms: C8_8  and  C9_9 
ROOT
HETATM    1  C1  UNL     1     -37.284  14.713  -4.275  1.00 20.00    -0.019 A 
HETATM    2  C3  UNL     1     -38.467  15.263  -3.973  1.00 20.00    -0.087 A 
HETATM    3  C5  UNL     1     -38.339  16.619  -3.342  1.00 20.00     0.039 A 
HETATM    4  C8  UNL     1     -36.141  15.598  -3.904  1.00 20.00     0.021 A 
HETATM    5  C10 UNL     1     -36.826  16.850  -3.265  1.00 20.00     0.005 A 
HETATM    6  C11 UNL     1     -39.805  14.659  -4.205  1.00 20.00     0.043 C 
ENDROOT
BRANCH   4   7
HETATM    7  C9  UNL     1     -35.184  15.118  -2.780  1.00 20.00     0.022 C 
HETATM    8  C4  UNL     1     -34.032  16.089  -2.617  1.00 20.00    -0.082 C 
HETATM    9  C2  UNL     1     -33.271  15.997  -3.719  1.00 20.00    -0.019 C 
HETATM   10  C12 UNL     1     -33.872  16.974  -1.441  1.00 20.00     0.043 C 
HETATM   11  C7  UNL     1     -33.908  14.962  -4.617  1.00 20.00     0.014 C 
HETATM   12  C6  UNL     1     -34.424  14.010  -3.527  1.00 20.00     0.018 C 
ENDBRANCH   4   7
TORSDOF 2
ENDMDL
MODEL 7
REMARK VINA RESULT:      -4.4      2.039      4.137
REMARK  2 active torsions:
REMARK  status: ('A' for Active; 'I' for Inactive)
REMARK    1  A    between atoms: C7_7  and  C10_10 
REMARK    2  A    between atoms: C8_8  and  C9_9 
ROOT
HETATM    1  C1  UNL     1     -36.607  15.082  -5.613  1.00 20.00    -0.019 A 
HETATM    2  C3  UNL     1     -37.784  15.680  -5.843  1.00 20.00    -0.087 A 
HETATM    3  C5  UNL     1     -37.992  16.905  -5.002  1.00 20.00     0.039 A 
HETATM    4  C8  UNL     1     -35.806  15.796  -4.576  1.00 20.00     0.021 A 
HETATM    5  C10 UNL     1     -36.722  16.990  -4.148  1.00 20.00     0.005 A 
HETATM    6  C11 UNL     1     -38.824  15.238  -6.807  1.00 20.00     0.043 C 
ENDROOT
BRANCH   4   7
HETATM    7  C9  UNL     1     -35.541  15.067  -3.232  1.00 20.00     0.022 C 
HETATM    8  C4  UNL     1     -34.468  15.789  -2.442  1.00 20.00    -0.082 C 
HETATM    9  C2  UNL     1     -33.310  15.634  -3.102  1.00 20.00    -0.019 C 
HETATM   10  C12 UNL     1     -34.741  16.543  -1.197  1.00 20.00     0.043 C 
HETATM   11  C7  UNL     1     -33.603  14.803  -4.330  1.00 20.00     0.014 C 
HETATM   12  C6  UNL     1     -34.683  13.890  -3.728  1.00 20.00     0.018 C 
ENDBRANCH   4   7
TORSDOF 2
ENDMDL
MODEL 8
REMARK VINA RESULT:      -4.4      1.266      2.316
REMARK  2 active torsions:
REMARK  status: ('A' for Active; 'I' for Inactive)
REMARK    1  A    between atoms: C7_7  and  C10_10 
REMARK    2  A    between atoms: C8_8  and  C9_9 
ROOT
HETATM    1  C1  UNL     1     -36.002  17.352  -1.838  1.00 20.00    -0.019 A 
HETATM    2  C3  UNL     1     -35.294  17.770  -0.780  1.00 20.00    -0.087 A 
HETATM    3  C5  UNL     1     -33.848  17.376  -0.849  1.00 20.00     0.039 A 
HETATM    4  C8  UNL     1     -35.161  16.600  -2.815  1.00 20.00     0.021 A 
HETATM    5  C10 UNL     1     -33.741  16.590  -2.161  1.00 20.00     0.005 A 
HETATM    6  C11 UNL     1     -35.814  18.543   0.378  1.00 20.00     0.043 C 
ENDROOT
BRANCH   4   7
HETATM    7  C9  UNL     1     -35.457  15.091  -3.020  1.00 20.00     0.022 C 
HETATM    8  C4  UNL     1     -34.570  14.521  -4.109  1.00 20.00    -0.082 C 
HETATM    9  C2  UNL     1     -34.963  15.065  -5.271  1.00 20.00    -0.019 C 
HETATM   10  C12 UNL     1     -33.464  13.573  -3.846  1.00 20.00     0.043 C 
HETATM   11  C7  UNL     1     -36.116  15.992  -4.965  1.00 20.00     0.014 C 
HETATM   12  C6  UNL     1     -36.760  15.179  -3.831  1.00 20.00     0.018 C 
ENDBRANCH   4   7
TORSDOF 2
ENDMDL
MODEL 9
REMARK VINA RESULT:      -4.4      3.121      5.678
REMARK  2 active torsions:
REMARK  status: ('A' for Active; 'I' for Inactive)
REMARK    1  A    between atoms: C7_7  and  C10_10 
REMARK    2  A    between atoms: C8_8  and  C9_9 
ROOT
HETATM    1  C1  UNL     1     -33.383  19.090   2.209  1.00 20.00    -0.019 A 
HETATM    2  C3  UNL     1     -32.046  19.060   2.141  1.00 20.00    -0.087 A 
HETATM    3  C5  UNL     1     -31.535  18.788   0.756  1.00 20.00     0.039 A 
HETATM    4  C8  UNL     1     -34.019  18.845   0.882  1.00 20.00     0.021 A 
HETATM    5  C10 UNL     1     -32.808  18.621  -0.081  1.00 20.00     0.005 A 
HETATM    6  C11 UNL     1     -31.101  19.263   3.270  1.00 20.00     0.043 C 
ENDROOT
BRANCH   4   7
HETATM    7  C9  UNL     1     -34.848  17.545   0.701  1.00 20.00     0.022 C 
HETATM    8  C4  UNL     1     -35.235  17.363  -0.753  1.00 20.00    -0.082 C 
HETATM    9  C2  UNL     1     -36.118  18.327  -1.057  1.00 20.00    -0.019 C 
HETATM   10  C12 UNL     1     -34.662  16.311  -1.623  1.00 20.00     0.043 C 
HETATM   11  C7  UNL     1     -36.328  19.151   0.191  1.00 20.00     0.014 C 
HETATM   12  C6  UNL     1     -36.213  18.020   1.226  1.00 20.00     0.018 C 
ENDBRANCH   4   7
TORSDOF 2
ENDMDL
