MODEL 1
REMARK VINA RESULT:      -4.4      0.000      0.000
REMARK  1 active torsions:
REMARK  status: ('A' for Active; 'I' for Inactive)
REMARK    1  A    between atoms: C7_7  and  C8_8 
ROOT
HETATM    1  C1  UNL     1     -36.725  14.937  -3.753  1.00 20.00     0.066 C 
HETATM    2  C4  UNL     1     -34.529  15.031  -4.895  1.00 20.00     0.048 C 
HETATM    3  C5  UNL     1     -33.191  15.577  -4.458  1.00 20.00     0.169 C 
HETATM    4  C6  UNL     1     -35.471  15.682  -3.905  1.00 20.00     0.124 C 
HETATM    5  C8  UNL     1     -34.633  15.699  -2.625  1.00 20.00     0.143 C 
HETATM    6  N9  UNL     1     -37.717  14.347  -3.632  1.00 20.00    -0.197 NA
HETATM    7  O10 UNL     1     -33.249  15.671  -3.029  1.00 20.00    -0.384 OA
ENDROOT
BRANCH   5   8
HETATM    8  C7  UNL     1     -34.876  16.913  -1.780  1.00 20.00     0.016 A 
HETATM    9  C2  UNL     1     -34.798  16.820  -0.281  1.00 20.00     0.007 A 
HETATM   10  C3  UNL     1     -33.737  17.563  -1.045  1.00 20.00     0.007 A 
ENDBRANCH   5   8
TORSDOF 1
ENDMDL
MODEL 2
REMARK VINA RESULT:      -4.3      1.653      1.865
REMARK  1 active torsions:
REMARK  status: ('A' for Active; 'I' for Inactive)
REMARK    1  A    between atoms: C7_7  and  C8_8 
ROOT
HETATM    1  C1  UNL     1     -34.894  13.994  -4.535  1.00 20.00     0.066 C 
HETATM    2  C4  UNL     1     -34.116  15.624  -6.229  1.00 20.00     0.048 C 
HETATM    3  C5  UNL     1     -33.582  17.031  -6.101  1.00 20.00     0.169 C 
HETATM    4  C6  UNL     1     -34.772  15.414  -4.881  1.00 20.00     0.124 C 
HETATM    5  C8  UNL     1     -33.832  16.173  -3.943  1.00 20.00     0.143 C 
HETATM    6  N9  UNL     1     -34.992  12.871  -4.261  1.00 20.00    -0.197 NA
HETATM    7  O10 UNL     1     -33.162  17.172  -4.738  1.00 20.00    -0.384 OA
ENDROOT
BRANCH   5   8
HETATM    8  C7  UNL     1     -34.549  16.844  -2.811  1.00 20.00     0.016 A 
HETATM    9  C2  UNL     1     -34.576  16.208  -1.449  1.00 20.00     0.007 A 
HETATM   10  C3  UNL     1     -33.771  17.456  -1.679  1.00 20.00     0.007 A 
ENDBRANCH   5   8
TORSDOF 1
ENDMDL
MODEL 3
REMARK VINA RESULT:      -4.3      1.552      3.827
REMARK  1 active torsions:
REMARK  status: ('A' for Active; 'I' for Inactive)
REMARK    1  A    between atoms: C7_7  and  C8_8 
ROOT
HETATM    1  C1  UNL     1     -36.925  14.534  -3.736  1.00 20.00     0.066 C 
HETATM    2  C4  UNL     1     -34.933  15.531  -2.653  1.00 20.00     0.048 C 
HETATM    3  C5  UNL     1     -33.619  16.017  -3.218  1.00 20.00     0.169 C 
HETATM    4  C6  UNL     1     -35.468  14.685  -3.790  1.00 20.00     0.124 C 
HETATM    5  C8  UNL     1     -34.997  15.463  -5.020  1.00 20.00     0.143 C 
HETATM    6  N9  UNL     1     -38.079  14.415  -3.695  1.00 20.00    -0.197 NA
HETATM    7  O10 UNL     1     -33.843  16.228  -4.617  1.00 20.00    -0.384 OA
ENDROOT
BRANCH   5   8
HETATM    8  C7  UNL     1     -34.623  14.575  -6.168  1.00 20.00     0.016 A 
HETATM    9  C2  UNL     1     -35.558  14.411  -7.334  1.00 20.00     0.007 A 
HETATM   10  C3  UNL     1     -34.272  15.171  -7.503  1.00 20.00     0.007 A 
ENDBRANCH   5   8
TORSDOF 1
ENDMDL
MODEL 4
REMARK VINA RESULT:      -4.2      1.911      2.531
REMARK  1 active torsions:
REMARK  status: ('A' for Active; 'I' for Inactive)
REMARK    1  A    between atoms: C7_7  and  C8_8 
ROOT
HETATM    1  C1  UNL     1     -35.362  13.612  -4.240  1.00 20.00     0.066 C 
HETATM    2  C4  UNL     1     -37.276  15.167  -4.473  1.00 20.00     0.048 C 
HETATM    3  C5  UNL     1     -37.540  16.533  -3.883  1.00 20.00     0.169 C 
HETATM    4  C6  UNL     1     -36.160  14.655  -3.587  1.00 20.00     0.124 C 
HETATM    5  C8  UNL     1     -35.359  15.928  -3.308  1.00 20.00     0.143 C 
HETATM    6  N9  UNL     1     -34.730  12.788  -4.756  1.00 20.00    -0.197 NA
HETATM    7  O10 UNL     1     -36.265  17.037  -3.468  1.00 20.00    -0.384 OA
ENDROOT
BRANCH   5   8
HETATM    8  C7  UNL     1     -34.775  15.963  -1.928  1.00 20.00     0.016 A 
HETATM    9  C2  UNL     1     -33.687  16.945  -1.591  1.00 20.00     0.007 A 
HETATM   10  C3  UNL     1     -35.063  17.121  -1.014  1.00 20.00     0.007 A 
ENDBRANCH   5   8
TORSDOF 1
ENDMDL
MODEL 5
REMARK VINA RESULT:      -4.2      1.998      2.435
REMARK  1 active torsions:
REMARK  status: ('A' for Active; 'I' for Inactive)
REMARK    1  A    between atoms: C7_7  and  C8_8 
ROOT
HETATM    1  C1  UNL     1     -34.238  13.926  -3.561  1.00 20.00     0.066 C 
HETATM    2  C4  UNL     1     -36.198  15.199  -4.383  1.00 20.00     0.048 C 
HETATM    3  C5  UNL     1     -36.775  16.533  -3.972  1.00 20.00     0.169 C 
HETATM    4  C6  UNL     1     -35.304  14.869  -3.207  1.00 20.00     0.124 C 
HETATM    5  C8  UNL     1     -34.768  16.247  -2.812  1.00 20.00     0.143 C 
HETATM    6  N9  UNL     1     -33.395  13.179  -3.842  1.00 20.00    -0.197 NA
HETATM    7  O10 UNL     1     -35.728  17.218  -3.273  1.00 20.00    -0.384 OA
ENDROOT
BRANCH   5   8
HETATM    8  C7  UNL     1     -34.580  16.402  -1.333  1.00 20.00     0.016 A 
HETATM    9  C2  UNL     1     -33.711  17.503  -0.791  1.00 20.00     0.007 A 
HETATM   10  C3  UNL     1     -35.202  17.564  -0.610  1.00 20.00     0.007 A 
ENDBRANCH   5   8
TORSDOF 1
ENDMDL
MODEL 6
REMARK VINA RESULT:      -4.1      2.282      2.776
REMARK  1 active torsions:
REMARK  status: ('A' for Active; 'I' for Inactive)
REMARK    1  A    between atoms: C7_7  and  C8_8 
ROOT
HETATM    1  C1  UNL     1     -33.601  17.220  -5.340  1.00 20.00     0.066 C 
HETATM    2  C4  UNL     1     -34.339  14.858  -5.450  1.00 20.00     0.048 C 
HETATM    3  C5  UNL     1     -34.838  13.910  -4.386  1.00 20.00     0.169 C 
HETATM    4  C6  UNL     1     -33.689  15.945  -4.621  1.00 20.00     0.124 C 
HETATM    5  C8  UNL     1     -34.611  16.015  -3.402  1.00 20.00     0.143 C 
HETATM    6  N9  UNL     1     -33.530  18.229  -5.909  1.00 20.00    -0.197 NA
HETATM    7  O10 UNL     1     -35.256  14.731  -3.289  1.00 20.00    -0.384 OA
ENDROOT
BRANCH   5   8
HETATM    8  C7  UNL     1     -33.878  16.313  -2.129  1.00 20.00     0.016 A 
HETATM    9  C2  UNL     1     -33.897  17.702  -1.551  1.00 20.00     0.007 A 
HETATM   10  C3  UNL     1     -34.641  16.592  -0.864  1.00 20.00     0.007 A 
ENDBRANCH   5   8
TORSDOF 1
ENDMDL
MODEL 7
REMARK VINA RESULT:      -4.0      2.097      3.808
REMARK  1 active torsions:
REMARK  status: ('A' for Active; 'I' for Inactive)
REMARK    1  A    between atoms: C7_7  and  C8_8 
ROOT
HETATM    1  C1  UNL     1     -34.504  13.873  -3.991  1.00 20.00     0.066 C 
HETATM    2  C4  UNL     1     -34.348  15.725  -2.355  1.00 20.00     0.048 C 
HETATM    3  C5  UNL     1     -34.284  17.224  -2.535  1.00 20.00     0.169 C 
HETATM    4  C6  UNL     1     -34.003  15.229  -3.743  1.00 20.00     0.124 C 
HETATM    5  C8  UNL     1     -34.668  16.279  -4.635  1.00 20.00     0.143 C 
HETATM    6  N9  UNL     1     -34.899  12.800  -4.188  1.00 20.00    -0.197 NA
HETATM    7  O10 UNL     1     -34.777  17.485  -3.854  1.00 20.00    -0.384 OA
ENDROOT
BRANCH   5   8
HETATM    8  C7  UNL     1     -33.887  16.567  -5.882  1.00 20.00     0.016 A 
HETATM    9  C2  UNL     1     -34.443  16.191  -7.228  1.00 20.00     0.007 A 
HETATM   10  C3  UNL     1     -34.347  17.637  -6.832  1.00 20.00     0.007 A 
ENDBRANCH   5   8
TORSDOF 1
ENDMDL
MODEL 8
REMARK VINA RESULT:      -4.0     11.623     13.377
REMARK  1 active torsions:
REMARK  status: ('A' for Active; 'I' for Inactive)
REMARK    1  A    between atoms: C7_7  and  C8_8 
ROOT
HETATM    1  C1  UNL     1     -42.906   6.735  -3.187  1.00 20.00     0.066 C 
HETATM    2  C4  UNL     1     -41.443   6.833  -1.191  1.00 20.00     0.048 C 
HETATM    3  C5  UNL     1     -40.703   5.756  -0.432  1.00 20.00     0.169 C 
HETATM    4  C6  UNL     1     -42.438   6.022  -1.994  1.00 20.00     0.124 C 
HETATM    5  C8  UNL     1     -41.633   4.766  -2.332  1.00 20.00     0.143 C 
HETATM    6  N9  UNL     1     -43.277   7.299  -4.131  1.00 20.00    -0.197 NA
HETATM    7  O10 UNL     1     -40.613   4.637  -1.322  1.00 20.00    -0.384 OA
ENDROOT
BRANCH   5   8
HETATM    8  C7  UNL     1     -42.468   3.522  -2.353  1.00 20.00     0.016 A 
HETATM    9  C2  UNL     1     -43.138   3.081  -3.624  1.00 20.00     0.007 A 
HETATM   10  C3  UNL     1     -41.981   2.296  -3.073  1.00 20.00     0.007 A 
ENDBRANCH   5   8
TORSDOF 1
ENDMDL
MODEL 9
REMARK VINA RESULT:      -4.0      2.307      3.806
REMARK  1 active torsions:
REMARK  status: ('A' for Active; 'I' for Inactive)
REMARK    1  A    between atoms: C7_7  and  C8_8 
ROOT
HETATM    1  C1  UNL     1     -34.216  16.547  -1.831  1.00 20.00     0.066 C 
HETATM    2  C4  UNL     1     -33.651  18.020  -3.741  1.00 20.00     0.048 C 
HETATM    3  C5  UNL     1     -33.661  17.781  -5.232  1.00 20.00     0.169 C 
HETATM    4  C6  UNL     1     -33.688  16.607  -3.198  1.00 20.00     0.124 C 
HETATM    5  C8  UNL     1     -34.585  15.895  -4.212  1.00 20.00     0.143 C 
HETATM    6  N9  UNL     1     -34.634  16.500  -0.750  1.00 20.00    -0.197 NA
HETATM    7  O10 UNL     1     -34.497  16.637  -5.444  1.00 20.00    -0.384 OA
ENDROOT
BRANCH   5   8
HETATM    8  C7  UNL     1     -34.177  14.475  -4.461  1.00 20.00     0.016 A 
HETATM    9  C2  UNL     1     -35.135  13.351  -4.179  1.00 20.00     0.007 A 
HETATM   10  C3  UNL     1     -34.784  13.701  -5.598  1.00 20.00     0.007 A 
ENDBRANCH   5   8
TORSDOF 1
ENDMDL
