MODEL 1
REMARK VINA RESULT:      -3.9      0.000      0.000
REMARK  0 active torsions:
REMARK  status: ('A' for Active; 'I' for Inactive)
ROOT
HETATM    1  C1  UNL     1     -33.231  14.441  -3.648  1.00 20.00     0.092 C 
HETATM    2  C2  UNL     1     -35.659  14.453  -4.990  1.00 20.00     0.023 C 
HETATM    3  C3  UNL     1     -35.465  15.563  -3.972  1.00 20.00     0.016 C 
HETATM    4  C4  UNL     1     -35.080  13.164  -4.435  1.00 20.00     0.148 C 
HETATM    5  C5  UNL     1     -33.975  15.765  -3.668  1.00 20.00    -0.014 C 
HETATM    6  C6  UNL     1     -33.807  16.436  -2.299  1.00 20.00     0.020 C 
HETATM    7  C7  UNL     1     -33.309  16.639  -4.743  1.00 20.00     0.020 C 
HETATM    8  N8  UNL     1     -33.690  13.292  -4.003  1.00 20.00    -0.305 NA
ENDROOT
TORSDOF 0
ENDMDL
MODEL 2
REMARK VINA RESULT:      -3.8      1.286      2.245
REMARK  0 active torsions:
REMARK  status: ('A' for Active; 'I' for Inactive)
ROOT
HETATM    1  C1  UNL     1     -35.895  15.167  -3.618  1.00 20.00     0.092 C 
HETATM    2  C2  UNL     1     -33.483  13.800  -3.741  1.00 20.00     0.023 C 
HETATM    3  C3  UNL     1     -33.390  15.311  -3.862  1.00 20.00     0.016 C 
HETATM    4  C4  UNL     1     -34.697  13.315  -4.514  1.00 20.00     0.148 C 
HETATM    5  C5  UNL     1     -34.651  15.980  -3.300  1.00 20.00    -0.014 C 
HETATM    6  C6  UNL     1     -34.818  17.378  -3.909  1.00 20.00     0.020 C 
HETATM    7  C7  UNL     1     -34.572  16.102  -1.771  1.00 20.00     0.020 C 
HETATM    8  N8  UNL     1     -35.936  13.986  -4.128  1.00 20.00    -0.305 NA
ENDROOT
TORSDOF 0
ENDMDL
MODEL 3
REMARK VINA RESULT:      -3.8      1.381      2.924
REMARK  0 active torsions:
REMARK  status: ('A' for Active; 'I' for Inactive)
ROOT
HETATM    1  C1  UNL     1     -35.011  13.483  -5.469  1.00 20.00     0.092 C 
HETATM    2  C2  UNL     1     -33.699  15.196  -3.725  1.00 20.00     0.023 C 
HETATM    3  C3  UNL     1     -33.784  15.664  -5.167  1.00 20.00     0.016 C 
HETATM    4  C4  UNL     1     -33.429  13.701  -3.704  1.00 20.00     0.148 C 
HETATM    5  C5  UNL     1     -34.911  14.933  -5.909  1.00 20.00    -0.014 C 
HETATM    6  C6  UNL     1     -34.648  14.965  -7.420  1.00 20.00     0.020 C 
HETATM    7  C7  UNL     1     -36.271  15.586  -5.620  1.00 20.00     0.020 C 
HETATM    8  N8  UNL     1     -34.388  12.928  -4.489  1.00 20.00    -0.305 NA
ENDROOT
TORSDOF 0
ENDMDL
MODEL 4
REMARK VINA RESULT:      -3.8     12.196     13.287
REMARK  0 active torsions:
REMARK  status: ('A' for Active; 'I' for Inactive)
ROOT
HETATM    1  C1  UNL     1     -35.039   4.145   4.513  1.00 20.00     0.092 C 
HETATM    2  C2  UNL     1     -34.324   6.230   6.199  1.00 20.00     0.023 C 
HETATM    3  C3  UNL     1     -33.856   6.358   4.759  1.00 20.00     0.016 C 
HETATM    4  C4  UNL     1     -34.181   4.784   6.640  1.00 20.00     0.148 C 
HETATM    5  C5  UNL     1     -34.690   5.459   3.836  1.00 20.00    -0.014 C 
HETATM    6  C6  UNL     1     -33.902   5.151   2.556  1.00 20.00     0.020 C 
HETATM    7  C7  UNL     1     -36.016   6.139   3.461  1.00 20.00     0.020 C 
HETATM    8  N8  UNL     1     -34.847   3.837   5.748  1.00 20.00    -0.305 NA
ENDROOT
TORSDOF 0
ENDMDL
MODEL 5
REMARK VINA RESULT:      -3.8      1.291      1.615
REMARK  0 active torsions:
REMARK  status: ('A' for Active; 'I' for Inactive)
ROOT
HETATM    1  C1  UNL     1     -34.506  13.632  -3.854  1.00 20.00     0.092 C 
HETATM    2  C2  UNL     1     -34.301  15.087  -6.208  1.00 20.00     0.023 C 
HETATM    3  C3  UNL     1     -34.386  15.908  -4.933  1.00 20.00     0.016 C 
HETATM    4  C4  UNL     1     -35.247  13.904  -6.100  1.00 20.00     0.148 C 
HETATM    5  C5  UNL     1     -34.002  15.058  -3.715  1.00 20.00    -0.014 C 
HETATM    6  C6  UNL     1     -34.607  15.664  -2.442  1.00 20.00     0.020 C 
HETATM    7  C7  UNL     1     -32.475  14.982  -3.559  1.00 20.00     0.020 C 
HETATM    8  N8  UNL     1     -35.034  13.098  -4.900  1.00 20.00    -0.305 NA
ENDROOT
TORSDOF 0
ENDMDL
MODEL 6
REMARK VINA RESULT:      -3.7     11.782     12.707
REMARK  0 active torsions:
REMARK  status: ('A' for Active; 'I' for Inactive)
ROOT
HETATM    1  C1  UNL     1     -33.629   6.552   5.454  1.00 20.00     0.092 C 
HETATM    2  C2  UNL     1     -34.966   4.230   4.733  1.00 20.00     0.023 C 
HETATM    3  C3  UNL     1     -34.967   5.339   3.695  1.00 20.00     0.016 C 
HETATM    4  C4  UNL     1     -35.148   4.841   6.111  1.00 20.00     0.148 C 
HETATM    5  C5  UNL     1     -33.832   6.335   3.964  1.00 20.00    -0.014 C 
HETATM    6  C6  UNL     1     -34.158   7.687   3.317  1.00 20.00     0.020 C 
HETATM    7  C7  UNL     1     -32.501   5.814   3.399  1.00 20.00     0.020 C 
HETATM    8  N8  UNL     1     -34.178   5.892   6.412  1.00 20.00    -0.305 NA
ENDROOT
TORSDOF 0
ENDMDL
MODEL 7
REMARK VINA RESULT:      -3.7      1.646      3.222
REMARK  0 active torsions:
REMARK  status: ('A' for Active; 'I' for Inactive)
ROOT
HETATM    1  C1  UNL     1     -33.781  15.805  -4.889  1.00 20.00     0.092 C 
HETATM    2  C2  UNL     1     -33.816  16.559  -2.218  1.00 20.00     0.023 C 
HETATM    3  C3  UNL     1     -34.782  15.451  -2.601  1.00 20.00     0.016 C 
HETATM    4  C4  UNL     1     -33.791  17.600  -3.324  1.00 20.00     0.148 C 
HETATM    5  C5  UNL     1     -34.352  14.787  -3.916  1.00 20.00    -0.014 C 
HETATM    6  C6  UNL     1     -35.557  14.107  -4.577  1.00 20.00     0.020 C 
HETATM    7  C7  UNL     1     -33.255  13.739  -3.667  1.00 20.00     0.020 C 
HETATM    8  N8  UNL     1     -33.506  17.038  -4.643  1.00 20.00    -0.305 NA
ENDROOT
TORSDOF 0
ENDMDL
MODEL 8
REMARK VINA RESULT:      -3.6     11.147     12.136
REMARK  0 active torsions:
REMARK  status: ('A' for Active; 'I' for Inactive)
ROOT
HETATM    1  C1  UNL     1     -42.672   5.484  -2.200  1.00 20.00     0.092 C 
HETATM    2  C2  UNL     1     -40.709   5.802  -0.265  1.00 20.00     0.023 C 
HETATM    3  C3  UNL     1     -40.940   7.000  -1.171  1.00 20.00     0.016 C 
HETATM    4  C4  UNL     1     -40.792   4.532  -1.093  1.00 20.00     0.148 C 
HETATM    5  C5  UNL     1     -42.319   6.917  -1.838  1.00 20.00    -0.014 C 
HETATM    6  C6  UNL     1     -42.331   7.758  -3.120  1.00 20.00     0.020 C 
HETATM    7  C7  UNL     1     -43.417   7.426  -0.891  1.00 20.00     0.020 C 
HETATM    8  N8  UNL     1     -42.029   4.422  -1.863  1.00 20.00    -0.305 NA
ENDROOT
TORSDOF 0
ENDMDL
MODEL 9
REMARK VINA RESULT:      -3.6      1.508      3.144
REMARK  0 active torsions:
REMARK  status: ('A' for Active; 'I' for Inactive)
ROOT
HETATM    1  C1  UNL     1     -35.197  15.381  -5.446  1.00 20.00     0.092 C 
HETATM    2  C2  UNL     1     -33.082  15.554  -3.658  1.00 20.00     0.023 C 
HETATM    3  C3  UNL     1     -34.433  15.225  -3.048  1.00 20.00     0.016 C 
HETATM    4  C4  UNL     1     -33.271  16.594  -4.749  1.00 20.00     0.148 C 
HETATM    5  C5  UNL     1     -35.390  14.676  -4.114  1.00 20.00    -0.014 C 
HETATM    6  C6  UNL     1     -36.843  14.876  -3.666  1.00 20.00     0.020 C 
HETATM    7  C7  UNL     1     -35.139  13.179  -4.358  1.00 20.00     0.020 C 
HETATM    8  N8  UNL     1     -34.260  16.208  -5.753  1.00 20.00    -0.305 NA
ENDROOT
TORSDOF 0
ENDMDL
