MODEL 1
REMARK VINA RESULT:      -3.3      0.000      0.000
REMARK  2 active torsions:
REMARK  status: ('A' for Active; 'I' for Inactive)
REMARK    1  A    between atoms: C1_1  and  C4_4 
REMARK    2  A    between atoms: C4_4  and  N5_5 
ROOT
HETATM    1  C4  UNL     1     -33.945   6.703   3.880  1.00 20.00     0.367 C 
ENDROOT
BRANCH   1   2
HETATM    2  C1  UNL     1     -32.612   6.596   3.168  1.00 20.00     0.247 C 
HETATM    3  O6  UNL     1     -31.914   5.587   3.180  1.00 20.00    -0.278 OA
HETATM    4 CL7  UNL     1     -32.217   8.080   2.342  1.00 20.00    -0.042 Cl
ENDBRANCH   1   2
BRANCH   1   5
HETATM    5  N5  UNL     1     -34.029   5.660   4.902  1.00 20.00     0.088 N 
HETATM    6  C2  UNL     1     -35.182   4.795   4.655  1.00 20.00     0.310 C 
HETATM    7  C3  UNL     1     -34.113   6.256   6.235  1.00 20.00     0.310 C 
ENDBRANCH   1   5
TORSDOF 2
ENDMDL
MODEL 2
REMARK VINA RESULT:      -3.1     11.738     11.926
REMARK  2 active torsions:
REMARK  status: ('A' for Active; 'I' for Inactive)
REMARK    1  A    between atoms: C1_1  and  C4_4 
REMARK    2  A    between atoms: C4_4  and  N5_5 
ROOT
HETATM    1  C4  UNL     1     -35.507  14.910  -3.822  1.00 20.00     0.367 C 
ENDROOT
BRANCH   1   2
HETATM    2  C1  UNL     1     -35.202  13.740  -4.737  1.00 20.00     0.247 C 
HETATM    3  O6  UNL     1     -35.009  12.597  -4.336  1.00 20.00    -0.278 OA
HETATM    4 CL7  UNL     1     -35.166  14.240  -6.407  1.00 20.00    -0.042 Cl
ENDBRANCH   1   2
BRANCH   1   5
HETATM    5  N5  UNL     1     -34.374  15.124  -2.923  1.00 20.00     0.088 N 
HETATM    6  C2  UNL     1     -34.710  16.121  -1.907  1.00 20.00     0.310 C 
HETATM    7  C3  UNL     1     -33.194  15.541  -3.678  1.00 20.00     0.310 C 
ENDBRANCH   1   5
TORSDOF 2
ENDMDL
MODEL 3
REMARK VINA RESULT:      -3.1     11.563     12.096
REMARK  2 active torsions:
REMARK  status: ('A' for Active; 'I' for Inactive)
REMARK    1  A    between atoms: C1_1  and  C4_4 
REMARK    2  A    between atoms: C4_4  and  N5_5 
ROOT
HETATM    1  C4  UNL     1     -33.764  14.366  -3.695  1.00 20.00     0.367 C 
ENDROOT
BRANCH   1   2
HETATM    2  C1  UNL     1     -34.961  13.591  -4.206  1.00 20.00     0.247 C 
HETATM    3  O6  UNL     1     -34.879  12.497  -4.755  1.00 20.00    -0.278 OA
HETATM    4 CL7  UNL     1     -36.445  14.456  -3.908  1.00 20.00    -0.042 Cl
ENDBRANCH   1   2
BRANCH   1   5
HETATM    5  N5  UNL     1     -34.078  15.795  -3.703  1.00 20.00     0.088 N 
HETATM    6  C2  UNL     1     -33.307  16.482  -4.738  1.00 20.00     0.310 C 
HETATM    7  C3  UNL     1     -33.812  16.383  -2.391  1.00 20.00     0.310 C 
ENDBRANCH   1   5
TORSDOF 2
ENDMDL
MODEL 4
REMARK VINA RESULT:      -3.1     12.029     12.893
REMARK  2 active torsions:
REMARK  status: ('A' for Active; 'I' for Inactive)
REMARK    1  A    between atoms: C1_1  and  C4_4 
REMARK    2  A    between atoms: C4_4  and  N5_5 
ROOT
HETATM    1  C4  UNL     1     -34.934  14.975  -4.831  1.00 20.00     0.367 C 
ENDROOT
BRANCH   1   2
HETATM    2  C1  UNL     1     -34.465  13.630  -4.314  1.00 20.00     0.247 C 
HETATM    3  O6  UNL     1     -35.121  12.598  -4.411  1.00 20.00    -0.278 OA
HETATM    4 CL7  UNL     1     -32.889  13.754  -3.576  1.00 20.00    -0.042 Cl
ENDBRANCH   1   2
BRANCH   1   5
HETATM    5  N5  UNL     1     -33.953  15.490  -5.786  1.00 20.00     0.088 N 
HETATM    6  C2  UNL     1     -33.735  16.920  -5.573  1.00 20.00     0.310 C 
HETATM    7  C3  UNL     1     -34.396  15.239  -7.157  1.00 20.00     0.310 C 
ENDBRANCH   1   5
TORSDOF 2
ENDMDL
MODEL 5
REMARK VINA RESULT:      -3.1     12.052     12.799
REMARK  2 active torsions:
REMARK  status: ('A' for Active; 'I' for Inactive)
REMARK    1  A    between atoms: C1_1  and  C4_4 
REMARK    2  A    between atoms: C4_4  and  N5_5 
ROOT
HETATM    1  C4  UNL     1     -34.611  14.803  -5.362  1.00 20.00     0.367 C 
ENDROOT
BRANCH   1   2
HETATM    2  C1  UNL     1     -34.335  13.587  -4.501  1.00 20.00     0.247 C 
HETATM    3  O6  UNL     1     -35.066  12.603  -4.462  1.00 20.00    -0.278 OA
HETATM    4 CL7  UNL     1     -32.860  13.781  -3.591  1.00 20.00    -0.042 Cl
ENDBRANCH   1   2
BRANCH   1   5
HETATM    5  N5  UNL     1     -35.634  14.468  -6.352  1.00 20.00     0.088 N 
HETATM    6  C2  UNL     1     -35.119  14.666  -7.706  1.00 20.00     0.310 C 
HETATM    7  C3  UNL     1     -36.835  15.276  -6.138  1.00 20.00     0.310 C 
ENDBRANCH   1   5
TORSDOF 2
ENDMDL
MODEL 6
REMARK VINA RESULT:      -3.0      2.882      3.664
REMARK  2 active torsions:
REMARK  status: ('A' for Active; 'I' for Inactive)
REMARK    1  A    between atoms: C1_1  and  C4_4 
REMARK    2  A    between atoms: C4_4  and  N5_5 
ROOT
HETATM    1  C4  UNL     1     -34.334   6.545   4.404  1.00 20.00     0.367 C 
ENDROOT
BRANCH   1   2
HETATM    2  C1  UNL     1     -34.208   6.122   5.854  1.00 20.00     0.247 C 
HETATM    3  O6  UNL     1     -33.688   6.816   6.721  1.00 20.00    -0.278 OA
HETATM    4 CL7  UNL     1     -34.896   4.540   6.110  1.00 20.00    -0.042 Cl
ENDBRANCH   1   2
BRANCH   1   5
HETATM    5  N5  UNL     1     -33.280   5.898   3.622  1.00 20.00     0.088 N 
HETATM    6  C2  UNL     1     -32.293   6.883   3.182  1.00 20.00     0.310 C 
HETATM    7  C3  UNL     1     -33.854   5.200   2.472  1.00 20.00     0.310 C 
ENDBRANCH   1   5
TORSDOF 2
ENDMDL
MODEL 7
REMARK VINA RESULT:      -3.0     11.325     11.766
REMARK  2 active torsions:
REMARK  status: ('A' for Active; 'I' for Inactive)
REMARK    1  A    between atoms: C1_1  and  C4_4 
REMARK    2  A    between atoms: C4_4  and  N5_5 
ROOT
HETATM    1  C4  UNL     1     -35.308  14.886  -4.534  1.00 20.00     0.367 C 
ENDROOT
BRANCH   1   2
HETATM    2  C1  UNL     1     -34.543  13.597  -4.311  1.00 20.00     0.247 C 
HETATM    3  O6  UNL     1     -34.992  12.487  -4.575  1.00 20.00    -0.278 OA
HETATM    4 CL7  UNL     1     -32.964  13.910  -3.642  1.00 20.00    -0.042 Cl
ENDBRANCH   1   2
BRANCH   1   5
HETATM    5  N5  UNL     1     -36.192  15.123  -3.393  1.00 20.00     0.088 N 
HETATM    6  C2  UNL     1     -37.589  14.933  -3.781  1.00 20.00     0.310 C 
HETATM    7  C3  UNL     1     -35.988  16.469  -2.858  1.00 20.00     0.310 C 
ENDBRANCH   1   5
TORSDOF 2
ENDMDL
MODEL 8
REMARK VINA RESULT:      -3.0      1.392      1.918
REMARK  2 active torsions:
REMARK  status: ('A' for Active; 'I' for Inactive)
REMARK    1  A    between atoms: C1_1  and  C4_4 
REMARK    2  A    between atoms: C4_4  and  N5_5 
ROOT
HETATM    1  C4  UNL     1     -32.606   6.132   3.390  1.00 20.00     0.367 C 
ENDROOT
BRANCH   1   2
HETATM    2  C1  UNL     1     -31.833   7.433   3.308  1.00 20.00     0.247 C 
HETATM    3  O6  UNL     1     -31.065   7.822   4.181  1.00 20.00    -0.278 OA
HETATM    4 CL7  UNL     1     -32.183   8.280   1.825  1.00 20.00    -0.042 Cl
ENDBRANCH   1   2
BRANCH   1   5
HETATM    5  N5  UNL     1     -33.917   6.389   3.986  1.00 20.00     0.088 N 
HETATM    6  C2  UNL     1     -33.833   6.340   5.445  1.00 20.00     0.310 C 
HETATM    7  C3  UNL     1     -34.898   5.421   3.497  1.00 20.00     0.310 C 
ENDBRANCH   1   5
TORSDOF 2
ENDMDL
MODEL 9
REMARK VINA RESULT:      -2.9     11.755     12.333
REMARK  2 active torsions:
REMARK  status: ('A' for Active; 'I' for Inactive)
REMARK    1  A    between atoms: C1_1  and  C4_4 
REMARK    2  A    between atoms: C4_4  and  N5_5 
ROOT
HETATM    1  C4  UNL     1     -35.091  15.763  -4.604  1.00 20.00     0.367 C 
ENDROOT
BRANCH   1   2
HETATM    2  C1  UNL     1     -33.727  16.119  -4.049  1.00 20.00     0.247 C 
HETATM    3  O6  UNL     1     -32.729  16.274  -4.746  1.00 20.00    -0.278 OA
HETATM    4 CL7  UNL     1     -33.775  16.278  -2.313  1.00 20.00    -0.042 Cl
ENDBRANCH   1   2
BRANCH   1   5
HETATM    5  N5  UNL     1     -35.644  14.647  -3.838  1.00 20.00     0.088 N 
HETATM    6  C2  UNL     1     -35.097  13.377  -4.317  1.00 20.00     0.310 C 
HETATM    7  C3  UNL     1     -37.104  14.640  -3.926  1.00 20.00     0.310 C 
ENDBRANCH   1   5
TORSDOF 2
ENDMDL
