MODEL 1
REMARK VINA RESULT:      -5.9      0.000      0.000
REMARK  1 active torsions:
REMARK  status: ('A' for Active; 'I' for Inactive)
REMARK    1  A    between atoms: C2_2  and  C3_3 
ROOT
HETATM    1  C1  UNL     1     -33.979   5.957   3.972  1.00 20.00    -0.077 C 
HETATM    2  C2  UNL     1     -33.071   6.109   2.998  1.00 20.00     0.044 C 
HETATM    3  C4  UNL     1     -35.091   4.944   3.891  1.00 20.00     0.034 C 
HETATM    4  C5  UNL     1     -33.948   6.771   5.240  1.00 20.00     0.034 C 
HETATM    5  C6  UNL     1     -35.093   4.042   5.127  1.00 20.00     0.004 C 
HETATM    6  C7  UNL     1     -33.957   5.861   6.470  1.00 20.00     0.004 C 
HETATM    7  C8  UNL     1     -35.108   4.855   6.423  1.00 20.00     0.001 C 
ENDROOT
BRANCH   2   8
HETATM    8  C3  UNL     1     -32.031   7.134   3.189  1.00 20.00     0.259 C 
HETATM    9  O9  UNL     1     -31.885   8.068   2.409  1.00 20.00    -0.302 OA
ENDBRANCH   2   8
TORSDOF 1
ENDMDL
MODEL 2
REMARK VINA RESULT:      -4.4      0.995      2.100
REMARK  1 active torsions:
REMARK  status: ('A' for Active; 'I' for Inactive)
REMARK    1  A    between atoms: C2_2  and  C3_3 
ROOT
HETATM    1  C1  UNL     1     -32.942   6.508   4.018  1.00 20.00    -0.077 C 
HETATM    2  C2  UNL     1     -32.261   7.593   3.625  1.00 20.00     0.044 C 
HETATM    3  C4  UNL     1     -33.115   6.143   5.469  1.00 20.00     0.034 C 
HETATM    4  C5  UNL     1     -33.612   5.576   3.042  1.00 20.00     0.034 C 
HETATM    5  C6  UNL     1     -34.595   5.957   5.808  1.00 20.00     0.004 C 
HETATM    6  C7  UNL     1     -35.089   5.392   3.392  1.00 20.00     0.004 C 
HETATM    7  C8  UNL     1     -35.279   4.978   4.852  1.00 20.00     0.001 C 
ENDROOT
BRANCH   2   8
HETATM    8  C3  UNL     1     -32.158   7.847   2.178  1.00 20.00     0.259 C 
HETATM    9  O9  UNL     1     -32.234   8.976   1.708  1.00 20.00    -0.302 OA
ENDBRANCH   2   8
TORSDOF 1
ENDMDL
MODEL 3
REMARK VINA RESULT:      -4.3     11.465     12.972
REMARK  1 active torsions:
REMARK  status: ('A' for Active; 'I' for Inactive)
REMARK    1  A    between atoms: C2_2  and  C3_3 
ROOT
HETATM    1  C1  UNL     1     -34.583  15.480  -3.073  1.00 20.00    -0.077 C 
HETATM    2  C2  UNL     1     -34.378  14.165  -3.234  1.00 20.00     0.044 C 
HETATM    3  C4  UNL     1     -34.682  16.123  -1.714  1.00 20.00     0.034 C 
HETATM    4  C5  UNL     1     -34.707  16.428  -4.237  1.00 20.00     0.034 C 
HETATM    5  C6  UNL     1     -33.694  17.283  -1.590  1.00 20.00     0.004 C 
HETATM    6  C7  UNL     1     -33.719  17.588  -4.101  1.00 20.00     0.004 C 
HETATM    7  C8  UNL     1     -33.839  18.279  -2.742  1.00 20.00     0.001 C 
ENDROOT
BRANCH   2   8
HETATM    8  C3  UNL     1     -34.299  13.651  -4.612  1.00 20.00     0.259 C 
HETATM    9  O9  UNL     1     -34.758  12.559  -4.926  1.00 20.00    -0.302 OA
ENDBRANCH   2   8
TORSDOF 1
ENDMDL
MODEL 4
REMARK VINA RESULT:      -4.1     11.656     12.397
REMARK  1 active torsions:
REMARK  status: ('A' for Active; 'I' for Inactive)
REMARK    1  A    between atoms: C2_2  and  C3_3 
ROOT
HETATM    1  C1  UNL     1     -34.152  15.858  -2.876  1.00 20.00    -0.077 C 
HETATM    2  C2  UNL     1     -33.905  16.509  -1.731  1.00 20.00     0.044 C 
HETATM    3  C4  UNL     1     -33.081  15.112  -3.629  1.00 20.00     0.034 C 
HETATM    4  C5  UNL     1     -35.525  15.800  -3.494  1.00 20.00     0.034 C 
HETATM    5  C6  UNL     1     -33.510  13.666  -3.889  1.00 20.00     0.004 C 
HETATM    6  C7  UNL     1     -35.941  14.352  -3.755  1.00 20.00     0.004 C 
HETATM    7  C8  UNL     1     -34.884  13.592  -4.558  1.00 20.00     0.001 C 
ENDROOT
BRANCH   2   8
HETATM    8  C3  UNL     1     -35.032  17.204  -1.085  1.00 20.00     0.259 C 
HETATM    9  O9  UNL     1     -35.165  17.237   0.133  1.00 20.00    -0.302 OA
ENDBRANCH   2   8
TORSDOF 1
ENDMDL
MODEL 5
REMARK VINA RESULT:      -4.1     11.665     12.977
REMARK  1 active torsions:
REMARK  status: ('A' for Active; 'I' for Inactive)
REMARK    1  A    between atoms: C2_2  and  C3_3 
ROOT
HETATM    1  C1  UNL     1     -34.078  15.341  -3.250  1.00 20.00    -0.077 C 
HETATM    2  C2  UNL     1     -34.386  15.925  -2.084  1.00 20.00     0.044 C 
HETATM    3  C4  UNL     1     -34.539  13.951  -3.605  1.00 20.00     0.034 C 
HETATM    4  C5  UNL     1     -33.265  16.034  -4.312  1.00 20.00     0.034 C 
HETATM    5  C6  UNL     1     -35.269  13.950  -4.949  1.00 20.00     0.004 C 
HETATM    6  C7  UNL     1     -34.000  16.021  -5.653  1.00 20.00     0.004 C 
HETATM    7  C8  UNL     1     -34.436  14.610  -6.049  1.00 20.00     0.001 C 
ENDROOT
BRANCH   2   8
HETATM    8  C3  UNL     1     -33.877  17.288  -1.849  1.00 20.00     0.259 C 
HETATM    9  O9  UNL     1     -33.345  17.610  -0.793  1.00 20.00    -0.302 OA
ENDBRANCH   2   8
TORSDOF 1
ENDMDL
MODEL 6
REMARK VINA RESULT:      -4.0      2.244      4.150
REMARK  1 active torsions:
REMARK  status: ('A' for Active; 'I' for Inactive)
REMARK    1  A    between atoms: C2_2  and  C3_3 
ROOT
HETATM    1  C1  UNL     1     -33.964   6.150   5.052  1.00 20.00    -0.077 C 
HETATM    2  C2  UNL     1     -34.238   5.454   6.164  1.00 20.00     0.044 C 
HETATM    3  C4  UNL     1     -32.981   7.292   5.035  1.00 20.00     0.034 C 
HETATM    4  C5  UNL     1     -34.597   5.833   3.723  1.00 20.00     0.034 C 
HETATM    5  C6  UNL     1     -31.920   7.077   3.954  1.00 20.00     0.004 C 
HETATM    6  C7  UNL     1     -33.529   5.627   2.648  1.00 20.00     0.004 C 
HETATM    7  C8  UNL     1     -32.549   6.800   2.588  1.00 20.00     0.001 C 
ENDROOT
BRANCH   2   8
HETATM    8  C3  UNL     1     -35.218   4.358   6.058  1.00 20.00     0.259 C 
HETATM    9  O9  UNL     1     -35.024   3.379   5.348  1.00 20.00    -0.302 OA
ENDBRANCH   2   8
TORSDOF 1
ENDMDL
MODEL 7
REMARK VINA RESULT:      -4.0     11.936     13.220
REMARK  1 active torsions:
REMARK  status: ('A' for Active; 'I' for Inactive)
REMARK    1  A    between atoms: C2_2  and  C3_3 
ROOT
HETATM    1  C1  UNL     1     -34.062  15.712  -4.234  1.00 20.00    -0.077 C 
HETATM    2  C2  UNL     1     -34.732  14.905  -5.069  1.00 20.00     0.044 C 
HETATM    3  C4  UNL     1     -33.466  17.022  -4.680  1.00 20.00     0.034 C 
HETATM    4  C5  UNL     1     -33.870  15.387  -2.776  1.00 20.00     0.034 C 
HETATM    5  C6  UNL     1     -33.950  18.168  -3.790  1.00 20.00     0.004 C 
HETATM    6  C7  UNL     1     -34.351  16.541  -1.895  1.00 20.00     0.004 C 
HETATM    7  C8  UNL     1     -33.720  17.871  -2.306  1.00 20.00     0.001 C 
ENDROOT
BRANCH   2   8
HETATM    8  C3  UNL     1     -35.269  13.649  -4.519  1.00 20.00     0.259 C 
HETATM    9  O9  UNL     1     -34.775  12.559  -4.783  1.00 20.00    -0.302 OA
ENDBRANCH   2   8
TORSDOF 1
ENDMDL
MODEL 8
REMARK VINA RESULT:      -3.9     12.800     14.679
REMARK  1 active torsions:
REMARK  status: ('A' for Active; 'I' for Inactive)
REMARK    1  A    between atoms: C2_2  and  C3_3 
ROOT
HETATM    1  C1  UNL     1     -34.226  15.576  -6.171  1.00 20.00    -0.077 C 
HETATM    2  C2  UNL     1     -34.840  14.409  -5.932  1.00 20.00     0.044 C 
HETATM    3  C4  UNL     1     -34.510  16.404  -7.397  1.00 20.00     0.034 C 
HETATM    4  C5  UNL     1     -33.220  16.170  -5.220  1.00 20.00     0.034 C 
HETATM    5  C6  UNL     1     -34.891  17.833  -7.010  1.00 20.00     0.004 C 
HETATM    6  C7  UNL     1     -33.606  17.602  -4.844  1.00 20.00     0.004 C 
HETATM    7  C8  UNL     1     -33.855  18.466  -6.080  1.00 20.00     0.001 C 
ENDROOT
BRANCH   2   8
HETATM    8  C3  UNL     1     -34.479  13.689  -4.699  1.00 20.00     0.259 C 
HETATM    9  O9  UNL     1     -35.011  12.630  -4.384  1.00 20.00    -0.302 OA
ENDBRANCH   2   8
TORSDOF 1
ENDMDL
MODEL 9
REMARK VINA RESULT:      -3.9     12.196     13.022
REMARK  1 active torsions:
REMARK  status: ('A' for Active; 'I' for Inactive)
REMARK    1  A    between atoms: C2_2  and  C3_3 
ROOT
HETATM    1  C1  UNL     1     -34.123  18.021   0.316  1.00 20.00    -0.077 C 
HETATM    2  C2  UNL     1     -34.793  17.015  -0.264  1.00 20.00     0.044 C 
HETATM    3  C4  UNL     1     -34.438  18.507   1.707  1.00 20.00     0.034 C 
HETATM    4  C5  UNL     1     -32.985  18.734  -0.366  1.00 20.00     0.034 C 
HETATM    5  C6  UNL     1     -33.182  18.503   2.579  1.00 20.00     0.004 C 
HETATM    6  C7  UNL     1     -31.735  18.730   0.516  1.00 20.00     0.004 C 
HETATM    7  C8  UNL     1     -32.029  19.263   1.919  1.00 20.00     0.001 C 
ENDROOT
BRANCH   2   8
HETATM    8  C3  UNL     1     -34.395  16.629  -1.628  1.00 20.00     0.259 C 
HETATM    9  O9  UNL     1     -34.913  15.685  -2.215  1.00 20.00    -0.302 OA
ENDBRANCH   2   8
TORSDOF 1
ENDMDL
