MODEL 1
REMARK VINA RESULT:      -4.9      0.000      0.000
REMARK  3 active torsions:
REMARK  status: ('A' for Active; 'I' for Inactive)
REMARK    1  A    between atoms: C2_2  and  C8_8 
REMARK    2  A    between atoms: C6_6  and  C7_7 
REMARK    3  A    between atoms: C6_6  and  C8_8 
ROOT
HETATM    1  C1  UNL     1     -32.128   8.046   2.184  1.00 20.00     0.063 C 
HETATM    2  C4  UNL     1     -31.890   5.705   2.882  1.00 20.00     0.025 C 
HETATM    3  C7  UNL     1     -32.260   7.122   3.326  1.00 20.00     0.089 C 
HETATM    4  N9  UNL     1     -32.022   8.775   1.287  1.00 20.00    -0.197 NA
ENDROOT
BRANCH   3   5
HETATM    5  C6  UNL     1     -33.692   7.140   3.899  1.00 20.00     0.030 C 
BRANCH   5   6
HETATM    6  C8  UNL     1     -34.231   5.751   4.290  1.00 20.00     0.052 C 
HETATM    7  C5  UNL     1     -35.586   5.494   3.636  1.00 20.00     0.018 C 
BRANCH   6   8
HETATM    8  C2  UNL     1     -34.392   5.611   5.801  1.00 20.00     0.127 C 
HETATM    9  C3  UNL     1     -35.095   4.373   6.295  1.00 20.00     0.091 C 
HETATM   10  O10 UNL     1     -34.002   6.475   6.586  1.00 20.00    -0.298 OA
ENDBRANCH   6   8
ENDBRANCH   5   6
ENDBRANCH   3   5
TORSDOF 3
ENDMDL
MODEL 2
REMARK VINA RESULT:      -4.5     11.154     12.108
REMARK  3 active torsions:
REMARK  status: ('A' for Active; 'I' for Inactive)
REMARK    1  A    between atoms: C2_2  and  C8_8 
REMARK    2  A    between atoms: C6_6  and  C7_7 
REMARK    3  A    between atoms: C6_6  and  C8_8 
ROOT
HETATM    1  C1  UNL     1     -34.421  16.791  -0.946  1.00 20.00     0.063 C 
HETATM    2  C4  UNL     1     -33.946  17.771  -3.145  1.00 20.00     0.025 C 
HETATM    3  C7  UNL     1     -33.935  16.492  -2.306  1.00 20.00     0.089 C 
HETATM    4  N9  UNL     1     -34.799  17.025   0.126  1.00 20.00    -0.197 NA
ENDROOT
BRANCH   3   5
HETATM    5  C6  UNL     1     -34.799  15.408  -2.984  1.00 20.00     0.030 C 
BRANCH   5   6
HETATM    6  C8  UNL     1     -34.011  14.162  -3.429  1.00 20.00     0.052 C 
HETATM    7  C5  UNL     1     -32.522  14.479  -3.549  1.00 20.00     0.018 C 
BRANCH   6   8
HETATM    8  C2  UNL     1     -34.499  13.635  -4.775  1.00 20.00     0.127 C 
HETATM    9  C3  UNL     1     -34.560  14.625  -5.909  1.00 20.00     0.091 C 
HETATM   10  O10 UNL     1     -34.860  12.468  -4.931  1.00 20.00    -0.298 OA
ENDBRANCH   6   8
ENDBRANCH   5   6
ENDBRANCH   3   5
TORSDOF 3
ENDMDL
MODEL 3
REMARK VINA RESULT:      -4.3      2.819      4.564
REMARK  3 active torsions:
REMARK  status: ('A' for Active; 'I' for Inactive)
REMARK    1  A    between atoms: C2_2  and  C8_8 
REMARK    2  A    between atoms: C6_6  and  C7_7 
REMARK    3  A    between atoms: C6_6  and  C8_8 
ROOT
HETATM    1  C1  UNL     1     -34.658   4.639   5.284  1.00 20.00     0.063 C 
HETATM    2  C4  UNL     1     -33.993   6.693   6.450  1.00 20.00     0.025 C 
HETATM    3  C7  UNL     1     -33.786   5.826   5.207  1.00 20.00     0.089 C 
HETATM    4  N9  UNL     1     -35.341   3.702   5.345  1.00 20.00    -0.197 NA
ENDROOT
BRANCH   3   5
HETATM    5  C6  UNL     1     -34.073   6.650   3.934  1.00 20.00     0.030 C 
BRANCH   5   6
HETATM    6  C8  UNL     1     -32.991   6.523   2.845  1.00 20.00     0.052 C 
HETATM    7  C5  UNL     1     -32.164   5.255   3.050  1.00 20.00     0.018 C 
BRANCH   6   8
HETATM    8  C2  UNL     1     -32.043   7.719   2.846  1.00 20.00     0.127 C 
HETATM    9  C3  UNL     1     -32.090   8.621   1.640  1.00 20.00     0.091 C 
HETATM   10  O10 UNL     1     -31.252   7.929   3.765  1.00 20.00    -0.298 OA
ENDBRANCH   6   8
ENDBRANCH   5   6
ENDBRANCH   3   5
TORSDOF 3
ENDMDL
MODEL 4
REMARK VINA RESULT:      -4.2     11.676     12.748
REMARK  3 active torsions:
REMARK  status: ('A' for Active; 'I' for Inactive)
REMARK    1  A    between atoms: C2_2  and  C8_8 
REMARK    2  A    between atoms: C6_6  and  C7_7 
REMARK    3  A    between atoms: C6_6  and  C8_8 
ROOT
HETATM    1  C1  UNL     1     -36.916  14.506  -4.088  1.00 20.00     0.063 C 
HETATM    2  C4  UNL     1     -35.238  13.986  -5.801  1.00 20.00     0.025 C 
HETATM    3  C7  UNL     1     -35.537  14.785  -4.532  1.00 20.00     0.089 C 
HETATM    4  N9  UNL     1     -38.002  14.291  -3.739  1.00 20.00    -0.197 NA
ENDROOT
BRANCH   3   5
HETATM    5  C6  UNL     1     -34.513  14.434  -3.433  1.00 20.00     0.030 C 
BRANCH   5   6
HETATM    6  C8  UNL     1     -33.778  15.653  -2.845  1.00 20.00     0.052 C 
HETATM    7  C5  UNL     1     -34.602  16.293  -1.729  1.00 20.00     0.018 C 
BRANCH   6   8
HETATM    8  C2  UNL     1     -33.501  16.714  -3.906  1.00 20.00     0.127 C 
HETATM    9  C3  UNL     1     -34.160  18.055  -3.712  1.00 20.00     0.091 C 
HETATM   10  O10 UNL     1     -32.802  16.487  -4.894  1.00 20.00    -0.298 OA
ENDBRANCH   6   8
ENDBRANCH   5   6
ENDBRANCH   3   5
TORSDOF 3
ENDMDL
MODEL 5
REMARK VINA RESULT:      -4.2     11.642     12.474
REMARK  3 active torsions:
REMARK  status: ('A' for Active; 'I' for Inactive)
REMARK    1  A    between atoms: C2_2  and  C8_8 
REMARK    2  A    between atoms: C6_6  and  C7_7 
REMARK    3  A    between atoms: C6_6  and  C8_8 
ROOT
HETATM    1  C1  UNL     1     -34.464  13.658  -4.378  1.00 20.00     0.063 C 
HETATM    2  C4  UNL     1     -32.486  14.856  -3.557  1.00 20.00     0.025 C 
HETATM    3  C7  UNL     1     -33.959  14.977  -3.953  1.00 20.00     0.089 C 
HETATM    4  N9  UNL     1     -34.863  12.621  -4.715  1.00 20.00    -0.197 NA
ENDROOT
BRANCH   3   5
HETATM    5  C6  UNL     1     -34.779  15.538  -2.773  1.00 20.00     0.030 C 
BRANCH   5   6
HETATM    6  C8  UNL     1     -34.079  16.674  -2.004  1.00 20.00     0.052 C 
HETATM    7  C5  UNL     1     -34.611  16.768  -0.576  1.00 20.00     0.018 C 
BRANCH   6   8
HETATM    8  C2  UNL     1     -34.284  18.026  -2.682  1.00 20.00     0.127 C 
HETATM    9  C3  UNL     1     -35.581  18.223  -3.422  1.00 20.00     0.091 C 
HETATM   10  O10 UNL     1     -33.425  18.908  -2.661  1.00 20.00    -0.298 OA
ENDBRANCH   6   8
ENDBRANCH   5   6
ENDBRANCH   3   5
TORSDOF 3
ENDMDL
MODEL 6
REMARK VINA RESULT:      -4.2     11.309     12.232
REMARK  3 active torsions:
REMARK  status: ('A' for Active; 'I' for Inactive)
REMARK    1  A    between atoms: C2_2  and  C8_8 
REMARK    2  A    between atoms: C6_6  and  C7_7 
REMARK    3  A    between atoms: C6_6  and  C8_8 
ROOT
HETATM    1  C1  UNL     1     -34.397  16.612  -1.202  1.00 20.00     0.063 C 
HETATM    2  C4  UNL     1     -34.173  17.220  -3.568  1.00 20.00     0.025 C 
HETATM    3  C7  UNL     1     -33.886  16.156  -2.508  1.00 20.00     0.089 C 
HETATM    4  N9  UNL     1     -34.797  16.970  -0.172  1.00 20.00    -0.197 NA
ENDROOT
BRANCH   3   5
HETATM    5  C6  UNL     1     -34.523  14.813  -2.922  1.00 20.00     0.030 C 
BRANCH   5   6
HETATM    6  C8  UNL     1     -35.401  14.896  -4.184  1.00 20.00     0.052 C 
HETATM    7  C5  UNL     1     -36.874  14.702  -3.832  1.00 20.00     0.018 C 
BRANCH   6   8
HETATM    8  C2  UNL     1     -35.011  13.840  -5.215  1.00 20.00     0.127 C 
HETATM    9  C3  UNL     1     -34.977  14.280  -6.656  1.00 20.00     0.091 C 
HETATM   10  O10 UNL     1     -34.766  12.675  -4.902  1.00 20.00    -0.298 OA
ENDBRANCH   6   8
ENDBRANCH   5   6
ENDBRANCH   3   5
TORSDOF 3
ENDMDL
MODEL 7
REMARK VINA RESULT:      -4.2      1.136      1.582
REMARK  3 active torsions:
REMARK  status: ('A' for Active; 'I' for Inactive)
REMARK    1  A    between atoms: C2_2  and  C8_8 
REMARK    2  A    between atoms: C6_6  and  C7_7 
REMARK    3  A    between atoms: C6_6  and  C8_8 
ROOT
HETATM    1  C1  UNL     1     -32.336   7.779   2.625  1.00 20.00     0.063 C 
HETATM    2  C4  UNL     1     -32.080   5.378   3.061  1.00 20.00     0.025 C 
HETATM    3  C7  UNL     1     -32.597   6.711   3.607  1.00 20.00     0.089 C 
HETATM    4  N9  UNL     1     -32.128   8.622   1.854  1.00 20.00    -0.197 NA
ENDROOT
BRANCH   3   5
HETATM    5  C6  UNL     1     -34.101   6.602   3.930  1.00 20.00     0.030 C 
BRANCH   5   6
HETATM    6  C8  UNL     1     -34.410   6.385   5.423  1.00 20.00     0.052 C 
HETATM    7  C5  UNL     1     -33.325   7.012   6.296  1.00 20.00     0.018 C 
BRANCH   6   8
HETATM    8  C2  UNL     1     -34.509   4.903   5.772  1.00 20.00     0.127 C 
HETATM    9  C3  UNL     1     -35.200   4.016   4.768  1.00 20.00     0.091 C 
HETATM   10  O10 UNL     1     -34.081   4.447   6.832  1.00 20.00    -0.298 OA
ENDBRANCH   6   8
ENDBRANCH   5   6
ENDBRANCH   3   5
TORSDOF 3
ENDMDL
MODEL 8
REMARK VINA RESULT:      -4.1     11.530     11.998
REMARK  3 active torsions:
REMARK  status: ('A' for Active; 'I' for Inactive)
REMARK    1  A    between atoms: C2_2  and  C8_8 
REMARK    2  A    between atoms: C6_6  and  C7_7 
REMARK    3  A    between atoms: C6_6  and  C8_8 
ROOT
HETATM    1  C1  UNL     1     -34.466  13.973  -4.399  1.00 20.00     0.063 C 
HETATM    2  C4  UNL     1     -33.483  16.092  -5.150  1.00 20.00     0.025 C 
HETATM    3  C7  UNL     1     -34.389  15.419  -4.118  1.00 20.00     0.089 C 
HETATM    4  N9  UNL     1     -34.530  12.835  -4.620  1.00 20.00    -0.197 NA
ENDROOT
BRANCH   3   5
HETATM    5  C6  UNL     1     -33.859  15.686  -2.695  1.00 20.00     0.030 C 
BRANCH   5   6
HETATM    6  C8  UNL     1     -34.915  16.247  -1.724  1.00 20.00     0.052 C 
HETATM    7  C5  UNL     1     -35.976  17.042  -2.481  1.00 20.00     0.018 C 
BRANCH   6   8
HETATM    8  C2  UNL     1     -34.290  17.161  -0.674  1.00 20.00     0.127 C 
HETATM    9  C3  UNL     1     -35.096  17.410   0.575  1.00 20.00     0.091 C 
HETATM   10  O10 UNL     1     -33.196  17.701  -0.840  1.00 20.00    -0.298 OA
ENDBRANCH   6   8
ENDBRANCH   5   6
ENDBRANCH   3   5
TORSDOF 3
ENDMDL
MODEL 9
REMARK VINA RESULT:      -4.1     11.970     13.150
REMARK  3 active torsions:
REMARK  status: ('A' for Active; 'I' for Inactive)
REMARK    1  A    between atoms: C2_2  and  C8_8 
REMARK    2  A    between atoms: C6_6  and  C7_7 
REMARK    3  A    between atoms: C6_6  and  C8_8 
ROOT
HETATM    1  C1  UNL     1     -35.041  13.639  -5.378  1.00 20.00     0.063 C 
HETATM    2  C4  UNL     1     -35.307  14.477  -7.669  1.00 20.00     0.025 C 
HETATM    3  C7  UNL     1     -35.192  14.859  -6.193  1.00 20.00     0.089 C 
HETATM    4  N9  UNL     1     -34.925  12.680  -4.735  1.00 20.00    -0.197 NA
ENDROOT
BRANCH   3   5
HETATM    5  C6  UNL     1     -34.003  15.821  -5.988  1.00 20.00     0.030 C 
BRANCH   5   6
HETATM    6  C8  UNL     1     -34.115  16.702  -4.729  1.00 20.00     0.052 C 
HETATM    7  C5  UNL     1     -33.493  18.075  -4.974  1.00 20.00     0.018 C 
BRANCH   6   8
HETATM    8  C2  UNL     1     -33.419  16.066  -3.529  1.00 20.00     0.127 C 
HETATM    9  C3  UNL     1     -33.865  16.526  -2.165  1.00 20.00     0.091 C 
HETATM   10  O10 UNL     1     -32.513  15.242  -3.655  1.00 20.00    -0.298 OA
ENDBRANCH   6   8
ENDBRANCH   5   6
ENDBRANCH   3   5
TORSDOF 3
ENDMDL
