MODEL 1
REMARK VINA RESULT:      -4.6      0.000      0.000
REMARK  1 active torsions:
REMARK  status: ('A' for Active; 'I' for Inactive)
REMARK    1  A    between atoms: C2_2  and  C7_7 
ROOT
HETATM    1  C1  UNL     1     -34.056  15.628  -5.054  1.00 20.00     0.141 C 
HETATM    2  C3  UNL     1     -33.299  16.916  -4.802  1.00 20.00     0.079 C 
HETATM    3  C4  UNL     1     -33.849  17.644  -3.587  1.00 20.00     0.007 C 
HETATM    4  C5  UNL     1     -33.893  16.738  -2.362  1.00 20.00     0.002 C 
HETATM    5  C6  UNL     1     -34.732  15.490  -2.637  1.00 20.00     0.024 C 
HETATM    6  C7  UNL     1     -34.257  14.687  -3.862  1.00 20.00     0.070 C 
HETATM    7  C8  UNL     1     -32.941  13.951  -3.591  1.00 20.00     0.031 C 
HETATM    8  O9  UNL     1     -34.409  15.322  -6.194  1.00 20.00    -0.297 OA
ENDROOT
BRANCH   6   9
HETATM    9  C2  UNL     1     -35.320  13.651  -4.137  1.00 20.00     0.248 C 
HETATM   10  O10 UNL     1     -35.071  12.513  -4.516  1.00 20.00    -0.306 OA
ENDBRANCH   6   9
TORSDOF 1
ENDMDL
MODEL 2
REMARK VINA RESULT:      -4.6      1.463      3.017
REMARK  1 active torsions:
REMARK  status: ('A' for Active; 'I' for Inactive)
REMARK    1  A    between atoms: C2_2  and  C7_7 
ROOT
HETATM    1  C1  UNL     1     -34.595  13.655  -4.685  1.00 20.00     0.141 C 
HETATM    2  C3  UNL     1     -33.863  13.983  -3.400  1.00 20.00     0.079 C 
HETATM    3  C4  UNL     1     -32.768  15.009  -3.643  1.00 20.00     0.007 C 
HETATM    4  C5  UNL     1     -33.306  16.249  -4.347  1.00 20.00     0.002 C 
HETATM    5  C6  UNL     1     -33.967  15.878  -5.674  1.00 20.00     0.024 C 
HETATM    6  C7  UNL     1     -35.087  14.832  -5.533  1.00 20.00     0.070 C 
HETATM    7  C8  UNL     1     -36.342  15.419  -4.877  1.00 20.00     0.031 C 
HETATM    8  O9  UNL     1     -34.856  12.487  -4.975  1.00 20.00    -0.297 OA
ENDROOT
BRANCH   6   9
HETATM    9  C2  UNL     1     -35.454  14.401  -6.932  1.00 20.00     0.248 C 
HETATM   10  O10 UNL     1     -34.767  14.646  -7.917  1.00 20.00    -0.306 OA
ENDBRANCH   6   9
TORSDOF 1
ENDMDL
MODEL 3
REMARK VINA RESULT:      -4.5      1.572      2.447
REMARK  1 active torsions:
REMARK  status: ('A' for Active; 'I' for Inactive)
REMARK    1  A    between atoms: C2_2  and  C7_7 
ROOT
HETATM    1  C1  UNL     1     -36.150  14.971  -3.656  1.00 20.00     0.141 C 
HETATM    2  C3  UNL     1     -36.109  16.086  -2.631  1.00 20.00     0.079 C 
HETATM    3  C4  UNL     1     -34.787  16.090  -1.881  1.00 20.00     0.007 C 
HETATM    4  C5  UNL     1     -33.600  16.123  -2.836  1.00 20.00     0.002 C 
HETATM    5  C6  UNL     1     -33.641  14.937  -3.799  1.00 20.00     0.024 C 
HETATM    6  C7  UNL     1     -34.952  14.841  -4.601  1.00 20.00     0.070 C 
HETATM    7  C8  UNL     1     -35.052  15.934  -5.672  1.00 20.00     0.031 C 
HETATM    8  O9  UNL     1     -37.153  14.264  -3.771  1.00 20.00    -0.297 OA
ENDROOT
BRANCH   6   9
HETATM    9  C2  UNL     1     -34.932  13.505  -5.302  1.00 20.00     0.248 C 
HETATM   10  O10 UNL     1     -34.638  12.454  -4.745  1.00 20.00    -0.306 OA
ENDBRANCH   6   9
TORSDOF 1
ENDMDL
MODEL 4
REMARK VINA RESULT:      -4.5      1.827      2.506
REMARK  1 active torsions:
REMARK  status: ('A' for Active; 'I' for Inactive)
REMARK    1  A    between atoms: C2_2  and  C7_7 
ROOT
HETATM    1  C1  UNL     1     -34.842  16.112  -4.724  1.00 20.00     0.141 C 
HETATM    2  C3  UNL     1     -33.332  16.105  -4.606  1.00 20.00     0.079 C 
HETATM    3  C4  UNL     1     -32.869  15.080  -3.583  1.00 20.00     0.007 C 
HETATM    4  C5  UNL     1     -33.444  13.698  -3.873  1.00 20.00     0.002 C 
HETATM    5  C6  UNL     1     -34.971  13.739  -3.906  1.00 20.00     0.024 C 
HETATM    6  C7  UNL     1     -35.538  14.759  -4.908  1.00 20.00     0.070 C 
HETATM    7  C8  UNL     1     -35.349  14.305  -6.360  1.00 20.00     0.031 C 
HETATM    8  O9  UNL     1     -35.462  17.175  -4.760  1.00 20.00    -0.297 OA
ENDROOT
BRANCH   6   9
HETATM    9  C2  UNL     1     -37.021  14.850  -4.640  1.00 20.00     0.248 C 
HETATM   10  O10 UNL     1     -37.599  14.168  -3.801  1.00 20.00    -0.306 OA
ENDBRANCH   6   9
TORSDOF 1
ENDMDL
MODEL 5
REMARK VINA RESULT:      -4.4      1.672      2.034
REMARK  1 active torsions:
REMARK  status: ('A' for Active; 'I' for Inactive)
REMARK    1  A    between atoms: C2_2  and  C7_7 
ROOT
HETATM    1  C1  UNL     1     -35.456  15.476  -5.543  1.00 20.00     0.141 C 
HETATM    2  C3  UNL     1     -34.057  15.733  -6.064  1.00 20.00     0.079 C 
HETATM    3  C4  UNL     1     -33.209  16.443  -5.023  1.00 20.00     0.007 C 
HETATM    4  C5  UNL     1     -33.214  15.699  -3.692  1.00 20.00     0.002 C 
HETATM    5  C6  UNL     1     -34.639  15.532  -3.167  1.00 20.00     0.024 C 
HETATM    6  C7  UNL     1     -35.582  14.829  -4.160  1.00 20.00     0.070 C 
HETATM    7  C8  UNL     1     -35.270  13.334  -4.288  1.00 20.00     0.031 C 
HETATM    8  O9  UNL     1     -36.439  15.699  -6.251  1.00 20.00    -0.297 OA
ENDROOT
BRANCH   6   9
HETATM    9  C2  UNL     1     -36.977  14.966  -3.601  1.00 20.00     0.248 C 
HETATM   10  O10 UNL     1     -37.853  14.122  -3.754  1.00 20.00    -0.306 OA
ENDBRANCH   6   9
TORSDOF 1
ENDMDL
MODEL 6
REMARK VINA RESULT:      -4.4      1.802      3.464
REMARK  1 active torsions:
REMARK  status: ('A' for Active; 'I' for Inactive)
REMARK    1  A    between atoms: C2_2  and  C7_7 
ROOT
HETATM    1  C1  UNL     1     -35.515  15.599  -4.174  1.00 20.00     0.141 C 
HETATM    2  C3  UNL     1     -35.785  14.108  -4.171  1.00 20.00     0.079 C 
HETATM    3  C4  UNL     1     -34.540  13.328  -4.560  1.00 20.00     0.007 C 
HETATM    4  C5  UNL     1     -33.344  13.712  -3.696  1.00 20.00     0.002 C 
HETATM    5  C6  UNL     1     -33.062  15.211  -3.791  1.00 20.00     0.024 C 
HETATM    6  C7  UNL     1     -34.272  16.089  -3.425  1.00 20.00     0.070 C 
HETATM    7  C8  UNL     1     -34.565  16.066  -1.921  1.00 20.00     0.031 C 
HETATM    8  O9  UNL     1     -36.321  16.380  -4.683  1.00 20.00    -0.297 OA
ENDROOT
BRANCH   6   9
HETATM    9  C2  UNL     1     -33.909  17.504  -3.806  1.00 20.00     0.248 C 
HETATM   10  O10 UNL     1     -33.329  17.797  -4.845  1.00 20.00    -0.306 OA
ENDBRANCH   6   9
TORSDOF 1
ENDMDL
MODEL 7
REMARK VINA RESULT:      -4.3      1.878      3.056
REMARK  1 active torsions:
REMARK  status: ('A' for Active; 'I' for Inactive)
REMARK    1  A    between atoms: C2_2  and  C7_7 
ROOT
HETATM    1  C1  UNL     1     -33.773  15.950  -5.303  1.00 20.00     0.141 C 
HETATM    2  C3  UNL     1     -34.275  16.499  -6.623  1.00 20.00     0.079 C 
HETATM    3  C4  UNL     1     -34.592  15.375  -7.596  1.00 20.00     0.007 C 
HETATM    4  C5  UNL     1     -35.543  14.353  -6.983  1.00 20.00     0.002 C 
HETATM    5  C6  UNL     1     -34.960  13.770  -5.697  1.00 20.00     0.024 C 
HETATM    6  C7  UNL     1     -34.596  14.836  -4.648  1.00 20.00     0.070 C 
HETATM    7  C8  UNL     1     -35.840  15.459  -4.005  1.00 20.00     0.031 C 
HETATM    8  O9  UNL     1     -32.795  16.452  -4.749  1.00 20.00    -0.297 OA
ENDROOT
BRANCH   6   9
HETATM    9  C2  UNL     1     -33.819  14.128  -3.565  1.00 20.00     0.248 C 
HETATM   10  O10 UNL     1     -33.211  13.079  -3.745  1.00 20.00    -0.306 OA
ENDBRANCH   6   9
TORSDOF 1
ENDMDL
MODEL 8
REMARK VINA RESULT:      -4.2      1.678      2.595
REMARK  1 active torsions:
REMARK  status: ('A' for Active; 'I' for Inactive)
REMARK    1  A    between atoms: C2_2  and  C7_7 
ROOT
HETATM    1  C1  UNL     1     -33.655  15.729  -4.266  1.00 20.00     0.141 C 
HETATM    2  C3  UNL     1     -33.616  17.222  -4.522  1.00 20.00     0.079 C 
HETATM    3  C4  UNL     1     -33.578  17.518  -6.013  1.00 20.00     0.007 C 
HETATM    4  C5  UNL     1     -34.714  16.823  -6.754  1.00 20.00     0.002 C 
HETATM    5  C6  UNL     1     -34.666  15.312  -6.529  1.00 20.00     0.024 C 
HETATM    6  C7  UNL     1     -34.691  14.910  -5.043  1.00 20.00     0.070 C 
HETATM    7  C8  UNL     1     -36.068  15.133  -4.410  1.00 20.00     0.031 C 
HETATM    8  O9  UNL     1     -32.940  15.224  -3.399  1.00 20.00    -0.297 OA
ENDROOT
BRANCH   6   9
HETATM    9  C2  UNL     1     -34.390  13.432  -4.991  1.00 20.00     0.248 C 
HETATM   10  O10 UNL     1     -35.021  12.638  -4.303  1.00 20.00    -0.306 OA
ENDBRANCH   6   9
TORSDOF 1
ENDMDL
MODEL 9
REMARK VINA RESULT:      -4.1      2.208      3.474
REMARK  1 active torsions:
REMARK  status: ('A' for Active; 'I' for Inactive)
REMARK    1  A    between atoms: C2_2  and  C7_7 
ROOT
HETATM    1  C1  UNL     1     -33.431  14.755  -3.777  1.00 20.00     0.141 C 
HETATM    2  C3  UNL     1     -34.043  13.774  -4.756  1.00 20.00     0.079 C 
HETATM    3  C4  UNL     1     -35.421  13.330  -4.293  1.00 20.00     0.007 C 
HETATM    4  C5  UNL     1     -36.329  14.521  -4.008  1.00 20.00     0.002 C 
HETATM    5  C6  UNL     1     -35.707  15.442  -2.960  1.00 20.00     0.024 C 
HETATM    6  C7  UNL     1     -34.299  15.938  -3.334  1.00 20.00     0.070 C 
HETATM    7  C8  UNL     1     -34.336  16.970  -4.467  1.00 20.00     0.031 C 
HETATM    8  O9  UNL     1     -32.254  14.644  -3.433  1.00 20.00    -0.297 OA
ENDROOT
BRANCH   6   9
HETATM    9  C2  UNL     1     -33.739  16.616  -2.107  1.00 20.00     0.248 C 
HETATM   10  O10 UNL     1     -34.283  16.580  -1.009  1.00 20.00    -0.306 OA
ENDBRANCH   6   9
TORSDOF 1
ENDMDL
