MODEL 1
REMARK VINA RESULT:      -5.4      0.000      0.000
REMARK  3 active torsions:
REMARK  status: ('A' for Active; 'I' for Inactive)
REMARK    1  A    between atoms: C1_1  and  C4_4 
REMARK    2  A    between atoms: C2_2  and  C9_9 
REMARK    3  A    between atoms: C9_9  and  O10_10 
ROOT
HETATM    1  C3  UNL     1     -34.637   4.763   4.124  1.00 20.00    -0.011 C 
HETATM    2  C4  UNL     1     -33.943   5.843   4.502  1.00 20.00    -0.008 C 
HETATM    3  C5  UNL     1     -35.373   4.151   5.270  1.00 20.00     0.028 C 
HETATM    4  C6  UNL     1     -34.107   6.123   5.961  1.00 20.00     0.048 C 
HETATM    5  C7  UNL     1     -34.739   4.832   6.482  1.00 20.00     0.009 C 
ENDROOT
BRANCH   2   6
HETATM    6  C1  UNL     1     -33.165   6.629   3.621  1.00 20.00    -0.069 C 
HETATM    7  C2  UNL     1     -32.504   7.297   2.873  1.00 20.00    -0.075 C 
BRANCH   7   8
HETATM    8  C9  UNL     1     -31.701   8.111   1.961  1.00 20.00     0.261 C 
BRANCH   8   9
HETATM    9  O10 UNL     1     -32.408   9.297   1.630  1.00 20.00    -0.384 OA
HETATM   10  C8  UNL     1     -32.602   9.415   0.227  1.00 20.00     0.202 C 
ENDBRANCH   8   9
ENDBRANCH   7   8
ENDBRANCH   2   6
TORSDOF 3
ENDMDL
MODEL 2
REMARK VINA RESULT:      -4.3     11.011     11.740
REMARK  3 active torsions:
REMARK  status: ('A' for Active; 'I' for Inactive)
REMARK    1  A    between atoms: C1_1  and  C4_4 
REMARK    2  A    between atoms: C2_2  and  C9_9 
REMARK    3  A    between atoms: C9_9  and  O10_10 
ROOT
HETATM    1  C3  UNL     1     -34.945  17.511   0.831  1.00 20.00    -0.011 C 
HETATM    2  C4  UNL     1     -34.277  17.401  -0.323  1.00 20.00    -0.008 C 
HETATM    3  C5  UNL     1     -34.319  18.517   1.738  1.00 20.00     0.028 C 
HETATM    4  C6  UNL     1     -33.098  18.319  -0.369  1.00 20.00     0.048 C 
HETATM    5  C7  UNL     1     -32.956  18.756   1.089  1.00 20.00     0.009 C 
ENDROOT
BRANCH   2   6
HETATM    6  C1  UNL     1     -34.655  16.535  -1.374  1.00 20.00    -0.069 C 
HETATM    7  C2  UNL     1     -34.976  15.798  -2.267  1.00 20.00    -0.075 C 
BRANCH   7   8
HETATM    8  C9  UNL     1     -35.368  14.903  -3.355  1.00 20.00     0.261 C 
BRANCH   8   9
HETATM    9  O10 UNL     1     -34.422  13.850  -3.473  1.00 20.00    -0.384 OA
HETATM   10  C8  UNL     1     -34.462  13.252  -4.762  1.00 20.00     0.202 C 
ENDBRANCH   8   9
ENDBRANCH   7   8
ENDBRANCH   2   6
TORSDOF 3
ENDMDL
MODEL 3
REMARK VINA RESULT:      -4.3     11.333     12.068
REMARK  3 active torsions:
REMARK  status: ('A' for Active; 'I' for Inactive)
REMARK    1  A    between atoms: C1_1  and  C4_4 
REMARK    2  A    between atoms: C2_2  and  C9_9 
REMARK    3  A    between atoms: C9_9  and  O10_10 
ROOT
HETATM    1  C3  UNL     1     -34.810  17.029  -0.035  1.00 20.00    -0.011 C 
HETATM    2  C4  UNL     1     -34.415  16.961  -1.311  1.00 20.00    -0.008 C 
HETATM    3  C5  UNL     1     -34.114  18.125   0.701  1.00 20.00     0.028 C 
HETATM    4  C6  UNL     1     -33.392  18.003  -1.630  1.00 20.00     0.048 C 
HETATM    5  C7  UNL     1     -32.973  18.497  -0.245  1.00 20.00     0.009 C 
ENDROOT
BRANCH   2   6
HETATM    6  C1  UNL     1     -34.919  16.026  -2.245  1.00 20.00    -0.069 C 
HETATM    7  C2  UNL     1     -35.348  15.233  -3.038  1.00 20.00    -0.075 C 
BRANCH   7   8
HETATM    8  C9  UNL     1     -35.871  14.267  -4.003  1.00 20.00     0.261 C 
BRANCH   8   9
HETATM    9  O10 UNL     1     -37.247  14.028  -3.745  1.00 20.00    -0.384 OA
HETATM   10  C8  UNL     1     -38.054  15.122  -4.159  1.00 20.00     0.202 C 
ENDBRANCH   8   9
ENDBRANCH   7   8
ENDBRANCH   2   6
TORSDOF 3
ENDMDL
MODEL 4
REMARK VINA RESULT:      -4.3     11.169     11.785
REMARK  3 active torsions:
REMARK  status: ('A' for Active; 'I' for Inactive)
REMARK    1  A    between atoms: C1_1  and  C4_4 
REMARK    2  A    between atoms: C2_2  and  C9_9 
REMARK    3  A    between atoms: C9_9  and  O10_10 
ROOT
HETATM    1  C3  UNL     1     -33.559  14.547  -3.558  1.00 20.00    -0.011 C 
HETATM    2  C4  UNL     1     -34.514  15.264  -2.954  1.00 20.00    -0.008 C 
HETATM    3  C5  UNL     1     -34.129  13.613  -4.573  1.00 20.00     0.028 C 
HETATM    4  C6  UNL     1     -35.874  14.923  -3.472  1.00 20.00     0.048 C 
HETATM    5  C7  UNL     1     -35.623  13.630  -4.247  1.00 20.00     0.009 C 
ENDROOT
BRANCH   2   6
HETATM    6  C1  UNL     1     -34.260  16.238  -1.960  1.00 20.00    -0.069 C 
HETATM    7  C2  UNL     1     -34.044  17.065  -1.117  1.00 20.00    -0.075 C 
BRANCH   7   8
HETATM    8  C9  UNL     1     -33.781  18.071  -0.089  1.00 20.00     0.261 C 
BRANCH   8   9
HETATM    9  O10 UNL     1     -32.659  18.857  -0.463  1.00 20.00    -0.384 OA
HETATM   10  C8  UNL     1     -31.830  19.151   0.653  1.00 20.00     0.202 C 
ENDBRANCH   8   9
ENDBRANCH   7   8
ENDBRANCH   2   6
TORSDOF 3
ENDMDL
MODEL 5
REMARK VINA RESULT:      -4.2     11.074     11.656
REMARK  3 active torsions:
REMARK  status: ('A' for Active; 'I' for Inactive)
REMARK    1  A    between atoms: C1_1  and  C4_4 
REMARK    2  A    between atoms: C2_2  and  C9_9 
REMARK    3  A    between atoms: C9_9  and  O10_10 
ROOT
HETATM    1  C3  UNL     1     -33.686  14.580  -3.385  1.00 20.00    -0.011 C 
HETATM    2  C4  UNL     1     -34.720  15.226  -2.834  1.00 20.00    -0.008 C 
HETATM    3  C5  UNL     1     -34.117  13.727  -4.532  1.00 20.00     0.028 C 
HETATM    4  C6  UNL     1     -36.006  14.907  -3.526  1.00 20.00     0.048 C 
HETATM    5  C7  UNL     1     -35.637  13.689  -4.374  1.00 20.00     0.009 C 
ENDROOT
BRANCH   2   6
HETATM    6  C1  UNL     1     -34.602  16.115  -1.741  1.00 20.00    -0.069 C 
HETATM    7  C2  UNL     1     -34.501  16.870  -0.812  1.00 20.00    -0.075 C 
BRANCH   7   8
HETATM    8  C9  UNL     1     -34.381  17.790   0.319  1.00 20.00     0.261 C 
BRANCH   8   9
HETATM    9  O10 UNL     1     -35.403  17.522   1.267  1.00 20.00    -0.384 OA
HETATM   10  C8  UNL     1     -36.577  18.277   0.999  1.00 20.00     0.202 C 
ENDBRANCH   8   9
ENDBRANCH   7   8
ENDBRANCH   2   6
TORSDOF 3
ENDMDL
MODEL 6
REMARK VINA RESULT:      -4.2     10.626     11.715
REMARK  3 active torsions:
REMARK  status: ('A' for Active; 'I' for Inactive)
REMARK    1  A    between atoms: C1_1  and  C4_4 
REMARK    2  A    between atoms: C2_2  and  C9_9 
REMARK    3  A    between atoms: C9_9  and  O10_10 
ROOT
HETATM    1  C3  UNL     1     -40.805   4.779  -0.802  1.00 20.00    -0.011 C 
HETATM    2  C4  UNL     1     -41.539   4.642  -1.912  1.00 20.00    -0.008 C 
HETATM    3  C5  UNL     1     -40.866   6.171  -0.267  1.00 20.00     0.028 C 
HETATM    4  C6  UNL     1     -42.209   5.922  -2.293  1.00 20.00     0.048 C 
HETATM    5  C7  UNL     1     -41.484   6.952  -1.427  1.00 20.00     0.009 C 
ENDROOT
BRANCH   2   6
HETATM    6  C1  UNL     1     -41.676   3.427  -2.622  1.00 20.00    -0.069 C 
HETATM    7  C2  UNL     1     -41.793   2.395  -3.226  1.00 20.00    -0.075 C 
BRANCH   7   8
HETATM    8  C9  UNL     1     -41.933   1.139  -3.961  1.00 20.00     0.261 C 
BRANCH   8   9
HETATM    9  O10 UNL     1     -42.396   1.403  -5.278  1.00 20.00    -0.384 OA
HETATM   10  C8  UNL     1     -43.417   0.495  -5.666  1.00 20.00     0.202 C 
ENDBRANCH   8   9
ENDBRANCH   7   8
ENDBRANCH   2   6
TORSDOF 3
ENDMDL
MODEL 7
REMARK VINA RESULT:      -4.2     11.297     11.837
REMARK  3 active torsions:
REMARK  status: ('A' for Active; 'I' for Inactive)
REMARK    1  A    between atoms: C1_1  and  C4_4 
REMARK    2  A    between atoms: C2_2  and  C9_9 
REMARK    3  A    between atoms: C9_9  and  O10_10 
ROOT
HETATM    1  C3  UNL     1     -35.203  17.448   0.908  1.00 20.00    -0.011 C 
HETATM    2  C4  UNL     1     -34.343  17.423  -0.117  1.00 20.00    -0.008 C 
HETATM    3  C5  UNL     1     -34.789  18.433   1.952  1.00 20.00     0.028 C 
HETATM    4  C6  UNL     1     -33.219  18.389   0.079  1.00 20.00     0.048 C 
HETATM    5  C7  UNL     1     -33.349  18.759   1.557  1.00 20.00     0.009 C 
ENDROOT
BRANCH   2   6
HETATM    6  C1  UNL     1     -34.494  16.596  -1.253  1.00 20.00    -0.069 C 
HETATM    7  C2  UNL     1     -34.623  15.892  -2.218  1.00 20.00    -0.075 C 
BRANCH   7   8
HETATM    8  C9  UNL     1     -34.778  15.037  -3.394  1.00 20.00     0.261 C 
BRANCH   8   9
HETATM    9  O10 UNL     1     -33.548  14.965  -4.100  1.00 20.00    -0.384 OA
HETATM   10  C8  UNL     1     -33.259  16.183  -4.773  1.00 20.00     0.202 C 
ENDBRANCH   8   9
ENDBRANCH   7   8
ENDBRANCH   2   6
TORSDOF 3
ENDMDL
MODEL 8
REMARK VINA RESULT:      -4.0     10.361     11.562
REMARK  3 active torsions:
REMARK  status: ('A' for Active; 'I' for Inactive)
REMARK    1  A    between atoms: C1_1  and  C4_4 
REMARK    2  A    between atoms: C2_2  and  C9_9 
REMARK    3  A    between atoms: C9_9  and  O10_10 
ROOT
HETATM    1  C3  UNL     1     -42.016   5.856  -2.326  1.00 20.00    -0.011 C 
HETATM    2  C4  UNL     1     -41.560   4.661  -1.933  1.00 20.00    -0.008 C 
HETATM    3  C5  UNL     1     -41.482   6.958  -1.473  1.00 20.00     0.028 C 
HETATM    4  C6  UNL     1     -40.647   4.777  -0.755  1.00 20.00     0.048 C 
HETATM    5  C7  UNL     1     -40.896   6.208  -0.277  1.00 20.00     0.009 C 
ENDROOT
BRANCH   2   6
HETATM    6  C1  UNL     1     -41.889   3.442  -2.569  1.00 20.00    -0.069 C 
HETATM    7  C2  UNL     1     -42.170   2.407  -3.110  1.00 20.00    -0.075 C 
BRANCH   7   8
HETATM    8  C9  UNL     1     -42.510   1.146  -3.768  1.00 20.00     0.261 C 
BRANCH   8   9
HETATM    9  O10 UNL     1     -41.329   0.392  -3.999  1.00 20.00    -0.384 OA
HETATM   10  C8  UNL     1     -41.578  -1.005  -3.930  1.00 20.00     0.202 C 
ENDBRANCH   8   9
ENDBRANCH   7   8
ENDBRANCH   2   6
TORSDOF 3
ENDMDL
MODEL 9
REMARK VINA RESULT:      -3.9     10.890     11.704
REMARK  3 active torsions:
REMARK  status: ('A' for Active; 'I' for Inactive)
REMARK    1  A    between atoms: C1_1  and  C4_4 
REMARK    2  A    between atoms: C2_2  and  C9_9 
REMARK    3  A    between atoms: C9_9  and  O10_10 
ROOT
HETATM    1  C3  UNL     1     -36.166  17.866  -1.462  1.00 20.00    -0.011 C 
HETATM    2  C4  UNL     1     -35.110  17.109  -1.142  1.00 20.00    -0.008 C 
HETATM    3  C5  UNL     1     -36.614  18.705  -0.312  1.00 20.00     0.028 C 
HETATM    4  C6  UNL     1     -34.685  17.324   0.275  1.00 20.00     0.048 C 
HETATM    5  C7  UNL     1     -35.872  18.082   0.870  1.00 20.00     0.009 C 
ENDROOT
BRANCH   2   6
HETATM    6  C1  UNL     1     -34.468  16.229  -2.042  1.00 20.00    -0.069 C 
HETATM    7  C2  UNL     1     -33.923  15.480  -2.807  1.00 20.00    -0.075 C 
BRANCH   7   8
HETATM    8  C9  UNL     1     -33.257  14.569  -3.738  1.00 20.00     0.261 C 
BRANCH   8   9
HETATM    9  O10 UNL     1     -33.886  13.296  -3.694  1.00 20.00    -0.384 OA
HETATM   10  C8  UNL     1     -35.082  13.277  -4.462  1.00 20.00     0.202 C 
ENDBRANCH   8   9
ENDBRANCH   7   8
ENDBRANCH   2   6
TORSDOF 3
ENDMDL
