MODEL 1
REMARK VINA RESULT:      -4.6      0.000      0.000
REMARK  0 active torsions:
REMARK  status: ('A' for Active; 'I' for Inactive)
ROOT
HETATM    1  C1  UNL     1     -33.722  17.427  -1.192  1.00 20.00     0.015 C 
HETATM    2  C2  UNL     1     -33.924  17.288  -2.367  1.00 20.00    -0.082 C 
HETATM    3  C3  UNL     1     -34.726  13.174  -4.950  1.00 20.00     0.000 C 
HETATM    4  C4  UNL     1     -34.057  13.562  -3.629  1.00 20.00     0.003 C 
HETATM    5  C5  UNL     1     -35.390  14.378  -5.622  1.00 20.00     0.003 C 
HETATM    6  C6  UNL     1     -33.064  14.709  -3.823  1.00 20.00     0.042 C 
HETATM    7  C7  UNL     1     -34.402  15.527  -5.816  1.00 20.00     0.042 C 
HETATM    8  C8  UNL     1     -34.165  17.123  -3.766  1.00 20.00     0.235 A 
HETATM    9  C9  UNL     1     -33.746  15.864  -4.505  1.00 20.00     0.099 A 
HETATM   10  O10 UNL     1     -32.958  17.061  -4.542  1.00 20.00    -0.356 OA
ENDROOT
TORSDOF 0
ENDMDL
MODEL 2
REMARK VINA RESULT:      -4.5      1.902      2.661
REMARK  0 active torsions:
REMARK  status: ('A' for Active; 'I' for Inactive)
ROOT
HETATM    1  C1  UNL     1     -34.625  16.391  -1.383  1.00 20.00     0.015 C 
HETATM    2  C2  UNL     1     -34.325  15.720  -2.331  1.00 20.00    -0.082 C 
HETATM    3  C3  UNL     1     -36.706  15.055  -6.589  1.00 20.00     0.000 C 
HETATM    4  C4  UNL     1     -37.053  15.468  -5.158  1.00 20.00     0.003 C 
HETATM    5  C5  UNL     1     -35.198  14.860  -6.772  1.00 20.00     0.003 C 
HETATM    6  C6  UNL     1     -36.492  14.476  -4.138  1.00 20.00     0.042 C 
HETATM    7  C7  UNL     1     -34.633  13.871  -5.753  1.00 20.00     0.042 C 
HETATM    8  C8  UNL     1     -33.966  14.921  -3.461  1.00 20.00     0.235 A 
HETATM    9  C9  UNL     1     -35.015  14.294  -4.362  1.00 20.00     0.099 A 
HETATM   10  O10 UNL     1     -34.361  13.547  -3.328  1.00 20.00    -0.356 OA
ENDROOT
TORSDOF 0
ENDMDL
MODEL 3
REMARK VINA RESULT:      -4.3      1.464      4.198
REMARK  0 active torsions:
REMARK  status: ('A' for Active; 'I' for Inactive)
ROOT
HETATM    1  C1  UNL     1     -33.576  13.602  -3.811  1.00 20.00     0.015 C 
HETATM    2  C2  UNL     1     -33.472  14.797  -3.839  1.00 20.00    -0.082 C 
HETATM    3  C3  UNL     1     -34.181  18.095  -0.253  1.00 20.00     0.000 C 
HETATM    4  C4  UNL     1     -34.638  16.671  -0.580  1.00 20.00     0.003 C 
HETATM    5  C5  UNL     1     -33.174  18.616  -1.282  1.00 20.00     0.003 C 
HETATM    6  C6  UNL     1     -35.194  16.576  -2.002  1.00 20.00     0.042 C 
HETATM    7  C7  UNL     1     -33.726  18.521  -2.704  1.00 20.00     0.042 C 
HETATM    8  C8  UNL     1     -33.346  16.220  -3.872  1.00 20.00     0.235 A 
HETATM    9  C9  UNL     1     -34.187  17.117  -2.981  1.00 20.00     0.099 A 
HETATM   10  O10 UNL     1     -34.529  16.879  -4.352  1.00 20.00    -0.356 OA
ENDROOT
TORSDOF 0
ENDMDL
MODEL 4
REMARK VINA RESULT:      -4.2      1.946      2.905
REMARK  0 active torsions:
REMARK  status: ('A' for Active; 'I' for Inactive)
ROOT
HETATM    1  C1  UNL     1     -34.453  16.671  -1.216  1.00 20.00     0.015 C 
HETATM    2  C2  UNL     1     -34.651  15.903  -2.117  1.00 20.00    -0.082 C 
HETATM    3  C3  UNL     1     -34.600  16.684  -6.978  1.00 20.00     0.000 C 
HETATM    4  C4  UNL     1     -34.803  17.511  -5.707  1.00 20.00     0.003 C 
HETATM    5  C5  UNL     1     -34.248  15.229  -6.656  1.00 20.00     0.003 C 
HETATM    6  C6  UNL     1     -35.847  16.876  -4.788  1.00 20.00     0.042 C 
HETATM    7  C7  UNL     1     -35.288  14.591  -5.736  1.00 20.00     0.042 C 
HETATM    8  C8  UNL     1     -34.887  14.988  -3.190  1.00 20.00     0.235 A 
HETATM    9  C9  UNL     1     -35.479  15.443  -4.512  1.00 20.00     0.099 A 
HETATM   10  O10 UNL     1     -36.280  14.826  -3.496  1.00 20.00    -0.356 OA
ENDROOT
TORSDOF 0
ENDMDL
MODEL 5
REMARK VINA RESULT:      -4.2      1.640      4.150
REMARK  0 active torsions:
REMARK  status: ('A' for Active; 'I' for Inactive)
ROOT
HETATM    1  C1  UNL     1     -35.234  14.684  -7.852  1.00 20.00     0.015 C 
HETATM    2  C2  UNL     1     -35.218  14.493  -6.668  1.00 20.00    -0.082 C 
HETATM    3  C3  UNL     1     -33.934  17.531  -3.012  1.00 20.00     0.000 C 
HETATM    4  C4  UNL     1     -33.648  17.385  -4.509  1.00 20.00     0.003 C 
HETATM    5  C5  UNL     1     -34.951  16.494  -2.528  1.00 20.00     0.003 C 
HETATM    6  C6  UNL     1     -33.203  15.963  -4.856  1.00 20.00     0.042 C 
HETATM    7  C7  UNL     1     -34.510  15.072  -2.875  1.00 20.00     0.042 C 
HETATM    8  C8  UNL     1     -35.200  14.264  -5.257  1.00 20.00     0.235 A 
HETATM    9  C9  UNL     1     -34.214  14.973  -4.345  1.00 20.00     0.099 A 
HETATM   10  O10 UNL     1     -33.993  13.633  -4.803  1.00 20.00    -0.356 OA
ENDROOT
TORSDOF 0
ENDMDL
MODEL 6
REMARK VINA RESULT:      -4.2      1.566      2.748
REMARK  0 active torsions:
REMARK  status: ('A' for Active; 'I' for Inactive)
ROOT
HETATM    1  C1  UNL     1     -33.667  18.772  -6.449  1.00 20.00     0.015 C 
HETATM    2  C2  UNL     1     -33.671  18.103  -5.453  1.00 20.00    -0.082 C 
HETATM    3  C3  UNL     1     -34.445  13.270  -4.916  1.00 20.00     0.000 C 
HETATM    4  C4  UNL     1     -34.793  14.361  -5.932  1.00 20.00     0.003 C 
HETATM    5  C5  UNL     1     -33.553  13.808  -3.793  1.00 20.00     0.003 C 
HETATM    6  C6  UNL     1     -35.425  15.576  -5.252  1.00 20.00     0.042 C 
HETATM    7  C7  UNL     1     -34.181  15.023  -3.112  1.00 20.00     0.042 C 
HETATM    8  C8  UNL     1     -33.674  17.307  -4.266  1.00 20.00     0.235 A 
HETATM    9  C9  UNL     1     -34.533  16.061  -4.141  1.00 20.00     0.099 A 
HETATM   10  O10 UNL     1     -34.937  17.318  -3.583  1.00 20.00    -0.356 OA
ENDROOT
TORSDOF 0
ENDMDL
MODEL 7
REMARK VINA RESULT:      -4.2      1.702      2.492
REMARK  0 active torsions:
REMARK  status: ('A' for Active; 'I' for Inactive)
ROOT
HETATM    1  C1  UNL     1     -32.939  18.305  -0.392  1.00 20.00     0.015 C 
HETATM    2  C2  UNL     1     -33.782  17.541  -0.771  1.00 20.00    -0.082 C 
HETATM    3  C3  UNL     1     -33.869  14.705  -4.795  1.00 20.00     0.000 C 
HETATM    4  C4  UNL     1     -33.177  15.992  -4.339  1.00 20.00     0.003 C 
HETATM    5  C5  UNL     1     -34.712  14.088  -3.675  1.00 20.00     0.003 C 
HETATM    6  C6  UNL     1     -34.184  16.999  -3.780  1.00 20.00     0.042 C 
HETATM    7  C7  UNL     1     -35.717  15.093  -3.113  1.00 20.00     0.042 C 
HETATM    8  C8  UNL     1     -34.787  16.631  -1.223  1.00 20.00     0.235 A 
HETATM    9  C9  UNL     1     -35.007  16.351  -2.699  1.00 20.00     0.099 A 
HETATM   10  O10 UNL     1     -35.832  17.271  -1.972  1.00 20.00    -0.356 OA
ENDROOT
TORSDOF 0
ENDMDL
MODEL 8
REMARK VINA RESULT:      -4.1      2.243      3.612
REMARK  0 active torsions:
REMARK  status: ('A' for Active; 'I' for Inactive)
ROOT
HETATM    1  C1  UNL     1     -37.655  16.107  -6.750  1.00 20.00     0.015 C 
HETATM    2  C2  UNL     1     -37.018  16.299  -5.751  1.00 20.00    -0.082 C 
HETATM    3  C3  UNL     1     -33.360  13.642  -3.801  1.00 20.00     0.000 C 
HETATM    4  C4  UNL     1     -34.542  13.409  -4.745  1.00 20.00     0.003 C 
HETATM    5  C5  UNL     1     -33.233  15.117  -3.407  1.00 20.00     0.003 C 
HETATM    6  C6  UNL     1     -35.846  13.941  -4.148  1.00 20.00     0.042 C 
HETATM    7  C7  UNL     1     -34.535  15.651  -2.812  1.00 20.00     0.042 C 
HETATM    8  C8  UNL     1     -36.259  16.528  -4.562  1.00 20.00     0.235 A 
HETATM    9  C9  UNL     1     -35.676  15.383  -3.753  1.00 20.00     0.099 A 
HETATM   10  O10 UNL     1     -36.900  16.027  -3.379  1.00 20.00    -0.356 OA
ENDROOT
TORSDOF 0
ENDMDL
MODEL 9
REMARK VINA RESULT:      -4.0      2.042      3.720
REMARK  0 active torsions:
REMARK  status: ('A' for Active; 'I' for Inactive)
ROOT
HETATM    1  C1  UNL     1     -37.283  17.421  -6.566  1.00 20.00     0.015 C 
HETATM    2  C2  UNL     1     -36.885  16.324  -6.287  1.00 20.00    -0.082 C 
HETATM    3  C3  UNL     1     -32.928  14.991  -3.678  1.00 20.00     0.000 C 
HETATM    4  C4  UNL     1     -33.384  16.204  -4.491  1.00 20.00     0.003 C 
HETATM    5  C5  UNL     1     -34.024  13.925  -3.589  1.00 20.00     0.003 C 
HETATM    6  C6  UNL     1     -33.875  15.793  -5.880  1.00 20.00     0.042 C 
HETATM    7  C7  UNL     1     -34.518  13.513  -4.975  1.00 20.00     0.042 C 
HETATM    8  C8  UNL     1     -36.411  15.017  -5.953  1.00 20.00     0.235 A 
HETATM    9  C9  UNL     1     -34.933  14.730  -5.753  1.00 20.00     0.099 A 
HETATM   10  O10 UNL     1     -35.602  14.432  -6.985  1.00 20.00    -0.356 OA
ENDROOT
TORSDOF 0
ENDMDL
