MODEL 1
REMARK VINA RESULT:      -5.3      0.000      0.000
REMARK  2 active torsions:
REMARK  status: ('A' for Active; 'I' for Inactive)
REMARK    1  A    between atoms: C2_2  and  C3_3 
REMARK    2  A    between atoms: C3_3  and  O11_11 
ROOT
HETATM    1  C1  UNL     1     -33.756   6.400   4.766  1.00 20.00    -0.074 C 
HETATM    2  C2  UNL     1     -32.656   7.006   4.298  1.00 20.00     0.085 C 
HETATM    3  C4  UNL     1     -34.103   6.375   6.231  1.00 20.00     0.034 C 
HETATM    4  C5  UNL     1     -34.722   5.672   3.869  1.00 20.00     0.034 C 
HETATM    5  C6  UNL     1     -34.331   4.941   6.711  1.00 20.00     0.004 C 
HETATM    6  C7  UNL     1     -34.946   4.242   4.360  1.00 20.00     0.004 C 
HETATM    7  C8  UNL     1     -35.345   4.203   5.836  1.00 20.00     0.001 C 
ENDROOT
BRANCH   2   8
HETATM    8  C3  UNL     1     -32.370   6.995   2.850  1.00 20.00     0.282 C 
HETATM    9  O10 UNL     1     -32.079   6.009   2.192  1.00 20.00    -0.260 OA
BRANCH   8  10
HETATM   10  O11 UNL     1     -32.494   8.273   2.399  1.00 20.00    -0.323 OA
HETATM   11  C9  UNL     1     -31.817   8.560   1.171  1.00 20.00     0.213 C 
ENDBRANCH   8  10
ENDBRANCH   2   8
TORSDOF 2
ENDMDL
MODEL 2
REMARK VINA RESULT:      -4.5     11.396     12.758
REMARK  2 active torsions:
REMARK  status: ('A' for Active; 'I' for Inactive)
REMARK    1  A    between atoms: C2_2  and  C3_3 
REMARK    2  A    between atoms: C3_3  and  O11_11 
ROOT
HETATM    1  C1  UNL     1     -34.522  15.440  -3.052  1.00 20.00    -0.074 C 
HETATM    2  C2  UNL     1     -35.312  14.404  -3.368  1.00 20.00     0.085 C 
HETATM    3  C4  UNL     1     -34.660  16.194  -1.755  1.00 20.00     0.034 C 
HETATM    4  C5  UNL     1     -33.449  15.950  -3.977  1.00 20.00     0.034 C 
HETATM    5  C6  UNL     1     -34.819  17.693  -2.013  1.00 20.00     0.004 C 
HETATM    6  C7  UNL     1     -33.615  17.450  -4.224  1.00 20.00     0.004 C 
HETATM    7  C8  UNL     1     -33.709  18.235  -2.916  1.00 20.00     0.001 C 
ENDROOT
BRANCH   2   8
HETATM    8  C3  UNL     1     -35.128  13.705  -4.655  1.00 20.00     0.282 C 
HETATM    9  O10 UNL     1     -34.474  12.688  -4.823  1.00 20.00    -0.260 OA
BRANCH   8  10
HETATM   10  O11 UNL     1     -35.818  14.400  -5.600  1.00 20.00    -0.323 OA
HETATM   11  C9  UNL     1     -35.232  14.410  -6.906  1.00 20.00     0.213 C 
ENDBRANCH   8  10
ENDBRANCH   2   8
TORSDOF 2
ENDMDL
MODEL 3
REMARK VINA RESULT:      -4.4     11.374     12.563
REMARK  2 active torsions:
REMARK  status: ('A' for Active; 'I' for Inactive)
REMARK    1  A    between atoms: C2_2  and  C3_3 
REMARK    2  A    between atoms: C3_3  and  O11_11 
ROOT
HETATM    1  C1  UNL     1     -34.080  16.496  -3.309  1.00 20.00    -0.074 C 
HETATM    2  C2  UNL     1     -33.472  15.671  -4.173  1.00 20.00     0.085 C 
HETATM    3  C4  UNL     1     -33.826  17.981  -3.295  1.00 20.00     0.034 C 
HETATM    4  C5  UNL     1     -35.046  16.004  -2.264  1.00 20.00     0.034 C 
HETATM    5  C6  UNL     1     -33.416  18.448  -1.898  1.00 20.00     0.004 C 
HETATM    6  C7  UNL     1     -34.630  16.480  -0.872  1.00 20.00     0.004 C 
HETATM    7  C8  UNL     1     -34.413  17.993  -0.831  1.00 20.00     0.001 C 
ENDROOT
BRANCH   2   8
HETATM    8  C3  UNL     1     -33.763  14.224  -4.137  1.00 20.00     0.282 C 
HETATM    9  O10 UNL     1     -33.107  13.385  -3.541  1.00 20.00    -0.260 OA
BRANCH   8  10
HETATM   10  O11 UNL     1     -34.882  14.013  -4.880  1.00 20.00    -0.323 OA
HETATM   11  C9  UNL     1     -34.794  14.412  -6.252  1.00 20.00     0.213 C 
ENDBRANCH   8  10
ENDBRANCH   2   8
TORSDOF 2
ENDMDL
MODEL 4
REMARK VINA RESULT:      -4.4     11.496     13.890
REMARK  2 active torsions:
REMARK  status: ('A' for Active; 'I' for Inactive)
REMARK    1  A    between atoms: C2_2  and  C3_3 
REMARK    2  A    between atoms: C3_3  and  O11_11 
ROOT
HETATM    1  C1  UNL     1     -34.200  15.518  -5.364  1.00 20.00    -0.074 C 
HETATM    2  C2  UNL     1     -34.600  14.910  -4.238  1.00 20.00     0.085 C 
HETATM    3  C4  UNL     1     -33.418  16.805  -5.353  1.00 20.00     0.034 C 
HETATM    4  C5  UNL     1     -34.521  14.977  -6.732  1.00 20.00     0.034 C 
HETATM    5  C6  UNL     1     -34.102  17.863  -6.220  1.00 20.00     0.004 C 
HETATM    6  C7  UNL     1     -35.201  16.044  -7.591  1.00 20.00     0.004 C 
HETATM    7  C8  UNL     1     -34.394  17.343  -7.628  1.00 20.00     0.001 C 
ENDROOT
BRANCH   2   8
HETATM    8  C3  UNL     1     -35.365  13.650  -4.314  1.00 20.00     0.282 C 
HETATM    9  O10 UNL     1     -34.885  12.538  -4.471  1.00 20.00    -0.260 OA
BRANCH   8  10
HETATM   10  O11 UNL     1     -36.682  13.962  -4.175  1.00 20.00    -0.323 OA
HETATM   11  C9  UNL     1     -36.957  15.150  -3.427  1.00 20.00     0.213 C 
ENDBRANCH   8  10
ENDBRANCH   2   8
TORSDOF 2
ENDMDL
MODEL 5
REMARK VINA RESULT:      -4.4     11.414     12.361
REMARK  2 active torsions:
REMARK  status: ('A' for Active; 'I' for Inactive)
REMARK    1  A    between atoms: C2_2  and  C3_3 
REMARK    2  A    between atoms: C3_3  and  O11_11 
ROOT
HETATM    1  C1  UNL     1     -34.340  15.680  -3.176  1.00 20.00    -0.074 C 
HETATM    2  C2  UNL     1     -33.875  14.466  -3.505  1.00 20.00     0.085 C 
HETATM    3  C4  UNL     1     -33.716  16.517  -2.090  1.00 20.00     0.034 C 
HETATM    4  C5  UNL     1     -35.537  16.297  -3.849  1.00 20.00     0.034 C 
HETATM    5  C6  UNL     1     -34.767  16.945  -1.065  1.00 20.00     0.004 C 
HETATM    6  C7  UNL     1     -36.579  16.726  -2.815  1.00 20.00     0.004 C 
HETATM    7  C8  UNL     1     -35.970  17.614  -1.730  1.00 20.00     0.001 C 
ENDROOT
BRANCH   2   8
HETATM    8  C3  UNL     1     -34.530  13.694  -4.579  1.00 20.00     0.282 C 
HETATM    9  O10 UNL     1     -35.220  12.700  -4.418  1.00 20.00    -0.260 OA
BRANCH   8  10
HETATM   10  O11 UNL     1     -34.223  14.295  -5.760  1.00 20.00    -0.323 OA
HETATM   11  C9  UNL     1     -35.231  14.213  -6.772  1.00 20.00     0.213 C 
ENDBRANCH   8  10
ENDBRANCH   2   8
TORSDOF 2
ENDMDL
MODEL 6
REMARK VINA RESULT:      -4.3     11.635     12.698
REMARK  2 active torsions:
REMARK  status: ('A' for Active; 'I' for Inactive)
REMARK    1  A    between atoms: C2_2  and  C3_3 
REMARK    2  A    between atoms: C3_3  and  O11_11 
ROOT
HETATM    1  C1  UNL     1     -35.732  15.103  -3.264  1.00 20.00    -0.074 C 
HETATM    2  C2  UNL     1     -36.924  15.671  -3.497  1.00 20.00     0.085 C 
HETATM    3  C4  UNL     1     -34.674  15.763  -2.419  1.00 20.00     0.034 C 
HETATM    4  C5  UNL     1     -35.344  13.770  -3.847  1.00 20.00     0.034 C 
HETATM    5  C6  UNL     1     -33.352  15.857  -3.182  1.00 20.00     0.004 C 
HETATM    6  C7  UNL     1     -34.019  13.874  -4.603  1.00 20.00     0.004 C 
HETATM    7  C8  UNL     1     -32.921  14.501  -3.742  1.00 20.00     0.001 C 
ENDROOT
BRANCH   2   8
HETATM    8  C3  UNL     1     -37.920  14.974  -4.334  1.00 20.00     0.282 C 
HETATM    9  O10 UNL     1     -38.718  14.139  -3.939  1.00 20.00    -0.260 OA
BRANCH   8  10
HETATM   10  O11 UNL     1     -37.780  15.436  -5.606  1.00 20.00    -0.323 OA
HETATM   11  C9  UNL     1     -37.896  16.854  -5.761  1.00 20.00     0.213 C 
ENDBRANCH   8  10
ENDBRANCH   2   8
TORSDOF 2
ENDMDL
MODEL 7
REMARK VINA RESULT:      -4.2     11.662     12.645
REMARK  2 active torsions:
REMARK  status: ('A' for Active; 'I' for Inactive)
REMARK    1  A    between atoms: C2_2  and  C3_3 
REMARK    2  A    between atoms: C3_3  and  O11_11 
ROOT
HETATM    1  C1  UNL     1     -35.842  14.977  -3.476  1.00 20.00    -0.074 C 
HETATM    2  C2  UNL     1     -36.962  15.636  -3.805  1.00 20.00     0.085 C 
HETATM    3  C4  UNL     1     -34.825  15.539  -2.519  1.00 20.00     0.034 C 
HETATM    4  C5  UNL     1     -35.498  13.630  -4.055  1.00 20.00     0.034 C 
HETATM    5  C6  UNL     1     -33.432  15.549  -3.151  1.00 20.00     0.004 C 
HETATM    6  C7  UNL     1     -34.103  13.649  -4.681  1.00 20.00     0.004 C 
HETATM    7  C8  UNL     1     -33.050  14.175  -3.705  1.00 20.00     0.001 C 
ENDROOT
BRANCH   2   8
HETATM    8  C3  UNL     1     -37.922  15.032  -4.749  1.00 20.00     0.282 C 
HETATM    9  O10 UNL     1     -37.907  15.172  -5.962  1.00 20.00    -0.260 OA
BRANCH   8  10
HETATM   10  O11 UNL     1     -38.808  14.301  -4.020  1.00 20.00    -0.323 OA
HETATM   11  C9  UNL     1     -40.142  14.259  -4.536  1.00 20.00     0.213 C 
ENDBRANCH   8  10
ENDBRANCH   2   8
TORSDOF 2
ENDMDL
MODEL 8
REMARK VINA RESULT:      -4.2     11.827     12.761
REMARK  2 active torsions:
REMARK  status: ('A' for Active; 'I' for Inactive)
REMARK    1  A    between atoms: C2_2  and  C3_3 
REMARK    2  A    between atoms: C3_3  and  O11_11 
ROOT
HETATM    1  C1  UNL     1     -35.262  16.023  -2.843  1.00 20.00    -0.074 C 
HETATM    2  C2  UNL     1     -35.492  14.830  -3.409  1.00 20.00     0.085 C 
HETATM    3  C4  UNL     1     -34.150  16.247  -1.852  1.00 20.00     0.034 C 
HETATM    4  C5  UNL     1     -36.112  17.232  -3.132  1.00 20.00     0.034 C 
HETATM    5  C6  UNL     1     -34.689  16.865  -0.562  1.00 20.00     0.004 C 
HETATM    6  C7  UNL     1     -36.642  17.846  -1.835  1.00 20.00     0.004 C 
HETATM    7  C8  UNL     1     -35.518  18.121  -0.836  1.00 20.00     0.001 C 
ENDROOT
BRANCH   2   8
HETATM    8  C3  UNL     1     -36.598  14.675  -4.374  1.00 20.00     0.282 C 
HETATM    9  O10 UNL     1     -36.551  14.964  -5.559  1.00 20.00    -0.260 OA
BRANCH   8  10
HETATM   10  O11 UNL     1     -37.658  14.154  -3.699  1.00 20.00    -0.323 OA
HETATM   11  C9  UNL     1     -38.886  14.879  -3.830  1.00 20.00     0.213 C 
ENDBRANCH   8  10
ENDBRANCH   2   8
TORSDOF 2
ENDMDL
MODEL 9
REMARK VINA RESULT:      -4.2     11.376     12.408
REMARK  2 active torsions:
REMARK  status: ('A' for Active; 'I' for Inactive)
REMARK    1  A    between atoms: C2_2  and  C3_3 
REMARK    2  A    between atoms: C3_3  and  O11_11 
ROOT
HETATM    1  C1  UNL     1     -34.855  15.927  -3.491  1.00 20.00    -0.074 C 
HETATM    2  C2  UNL     1     -35.202  16.820  -2.553  1.00 20.00     0.085 C 
HETATM    3  C4  UNL     1     -35.865  15.263  -4.388  1.00 20.00     0.034 C 
HETATM    4  C5  UNL     1     -33.428  15.495  -3.706  1.00 20.00     0.034 C 
HETATM    5  C6  UNL     1     -35.732  13.741  -4.324  1.00 20.00     0.004 C 
HETATM    6  C7  UNL     1     -33.307  13.972  -3.644  1.00 20.00     0.004 C 
HETATM    7  C8  UNL     1     -34.296  13.284  -4.585  1.00 20.00     0.001 C 
ENDROOT
BRANCH   2   8
HETATM    8  C3  UNL     1     -34.164  17.436  -1.703  1.00 20.00     0.282 C 
HETATM    9  O10 UNL     1     -33.414  18.337  -2.042  1.00 20.00    -0.260 OA
BRANCH   8  10
HETATM   10  O11 UNL     1     -34.208  16.818  -0.492  1.00 20.00    -0.323 OA
HETATM   11  C9  UNL     1     -35.092  17.407   0.467  1.00 20.00     0.213 C 
ENDBRANCH   8  10
ENDBRANCH   2   8
TORSDOF 2
ENDMDL
