MODEL 1
REMARK VINA RESULT:      -3.3      0.000      0.000
REMARK  2 active torsions:
REMARK  status: ('A' for Active; 'I' for Inactive)
REMARK    1  A    between atoms: C4_4  and  O6_6 
REMARK    2  A    between atoms: C4_4  and  O7_7 
ROOT
HETATM    1  C1  UNL     1     -34.823   4.721   4.702  1.00 20.00     0.120 C 
HETATM    2  C4  UNL     1     -34.311   6.015   4.228  1.00 20.00     0.369 C 
HETATM    3  N5  UNL     1     -35.229   3.700   5.075  1.00 20.00    -0.192 NA
ENDROOT
BRANCH   2   4
HETATM    4  O6  UNL     1     -33.594   5.826   3.004  1.00 20.00    -0.354 OA
HETATM    5  C2  UNL     1     -32.319   6.454   3.008  1.00 20.00     0.206 C 
ENDBRANCH   2   4
BRANCH   2   6
HETATM    6  O7  UNL     1     -33.452   6.546   5.244  1.00 20.00    -0.354 OA
HETATM    7  C3  UNL     1     -34.076   6.572   6.521  1.00 20.00     0.206 C 
ENDBRANCH   2   6
TORSDOF 2
ENDMDL
MODEL 2
REMARK VINA RESULT:      -3.3     12.143     12.572
REMARK  2 active torsions:
REMARK  status: ('A' for Active; 'I' for Inactive)
REMARK    1  A    between atoms: C4_4  and  O6_6 
REMARK    2  A    between atoms: C4_4  and  O7_7 
ROOT
HETATM    1  C1  UNL     1     -35.466  13.595  -4.328  1.00 20.00     0.120 C 
HETATM    2  C4  UNL     1     -36.397  14.685  -4.003  1.00 20.00     0.369 C 
HETATM    3  N5  UNL     1     -34.730  12.735  -4.585  1.00 20.00    -0.192 NA
ENDROOT
BRANCH   2   4
HETATM    4  O6  UNL     1     -35.921  15.391  -2.852  1.00 20.00    -0.354 OA
HETATM    5  C2  UNL     1     -34.762  16.169  -3.122  1.00 20.00     0.206 C 
ENDBRANCH   2   4
BRANCH   2   6
HETATM    6  O7  UNL     1     -37.681  14.105  -3.749  1.00 20.00    -0.354 OA
HETATM    7  C3  UNL     1     -38.714  15.081  -3.695  1.00 20.00     0.206 C 
ENDBRANCH   2   6
TORSDOF 2
ENDMDL
MODEL 3
REMARK VINA RESULT:      -3.2     11.979     12.780
REMARK  2 active torsions:
REMARK  status: ('A' for Active; 'I' for Inactive)
REMARK    1  A    between atoms: C4_4  and  O6_6 
REMARK    2  A    between atoms: C4_4  and  O7_7 
ROOT
HETATM    1  C1  UNL     1     -35.990  13.841  -4.308  1.00 20.00     0.120 C 
HETATM    2  C4  UNL     1     -34.755  13.379  -4.958  1.00 20.00     0.369 C 
HETATM    3  N5  UNL     1     -36.966  14.204  -3.794  1.00 20.00    -0.192 NA
ENDROOT
BRANCH   2   4
HETATM    4  O6  UNL     1     -33.722  13.242  -3.977  1.00 20.00    -0.354 OA
HETATM    5  C2  UNL     1     -33.071  14.473  -3.687  1.00 20.00     0.206 C 
ENDBRANCH   2   4
BRANCH   2   6
HETATM    6  O7  UNL     1     -34.392  14.347  -5.949  1.00 20.00    -0.354 OA
HETATM    7  C3  UNL     1     -35.310  14.380  -7.034  1.00 20.00     0.206 C 
ENDBRANCH   2   6
TORSDOF 2
ENDMDL
MODEL 4
REMARK VINA RESULT:      -3.2     11.994     12.632
REMARK  2 active torsions:
REMARK  status: ('A' for Active; 'I' for Inactive)
REMARK    1  A    between atoms: C4_4  and  O6_6 
REMARK    2  A    between atoms: C4_4  and  O7_7 
ROOT
HETATM    1  C1  UNL     1     -34.382  13.723  -3.880  1.00 20.00     0.120 C 
HETATM    2  C4  UNL     1     -33.754  14.870  -3.209  1.00 20.00     0.369 C 
HETATM    3  N5  UNL     1     -34.879  12.816  -4.409  1.00 20.00    -0.192 NA
ENDROOT
BRANCH   2   4
HETATM    4  O6  UNL     1     -34.758  15.834  -2.872  1.00 20.00    -0.354 OA
HETATM    5  C2  UNL     1     -34.662  16.281  -1.526  1.00 20.00     0.206 C 
ENDBRANCH   2   4
BRANCH   2   6
HETATM    6  O7  UNL     1     -32.791  15.432  -4.108  1.00 20.00    -0.354 OA
HETATM    7  C3  UNL     1     -33.378  16.344  -5.028  1.00 20.00     0.206 C 
ENDBRANCH   2   6
TORSDOF 2
ENDMDL
MODEL 5
REMARK VINA RESULT:      -3.2     12.243     13.051
REMARK  2 active torsions:
REMARK  status: ('A' for Active; 'I' for Inactive)
REMARK    1  A    between atoms: C4_4  and  O6_6 
REMARK    2  A    between atoms: C4_4  and  O7_7 
ROOT
HETATM    1  C1  UNL     1     -35.489  13.588  -4.294  1.00 20.00     0.120 C 
HETATM    2  C4  UNL     1     -36.415  14.643  -3.856  1.00 20.00     0.369 C 
HETATM    3  N5  UNL     1     -34.759  12.754  -4.638  1.00 20.00    -0.192 NA
ENDROOT
BRANCH   2   4
HETATM    4  O6  UNL     1     -37.737  14.105  -3.750  1.00 20.00    -0.354 OA
HETATM    5  C2  UNL     1     -38.738  15.112  -3.677  1.00 20.00     0.206 C 
ENDBRANCH   2   4
BRANCH   2   6
HETATM    6  O7  UNL     1     -36.370  15.697  -4.825  1.00 20.00    -0.354 OA
HETATM    7  C3  UNL     1     -35.220  16.520  -4.676  1.00 20.00     0.206 C 
ENDBRANCH   2   6
TORSDOF 2
ENDMDL
MODEL 6
REMARK VINA RESULT:      -3.1      1.777      2.931
REMARK  2 active torsions:
REMARK  status: ('A' for Active; 'I' for Inactive)
REMARK    1  A    between atoms: C4_4  and  O6_6 
REMARK    2  A    between atoms: C4_4  and  O7_7 
ROOT
HETATM    1  C1  UNL     1     -34.022   6.460   5.534  1.00 20.00     0.120 C 
HETATM    2  C4  UNL     1     -34.391   6.013   4.183  1.00 20.00     0.369 C 
HETATM    3  N5  UNL     1     -33.732   6.814   6.601  1.00 20.00    -0.192 NA
ENDROOT
BRANCH   2   4
HETATM    4  O6  UNL     1     -35.292   4.905   4.276  1.00 20.00    -0.354 OA
HETATM    5  C2  UNL     1     -34.950   4.003   5.321  1.00 20.00     0.206 C 
ENDBRANCH   2   4
BRANCH   2   6
HETATM    6  O7  UNL     1     -33.188   5.636   3.502  1.00 20.00    -0.354 OA
HETATM    7  C3  UNL     1     -32.358   6.753   3.211  1.00 20.00     0.206 C 
ENDBRANCH   2   6
TORSDOF 2
ENDMDL
MODEL 7
REMARK VINA RESULT:      -3.1     12.447     12.738
REMARK  2 active torsions:
REMARK  status: ('A' for Active; 'I' for Inactive)
REMARK    1  A    between atoms: C4_4  and  O6_6 
REMARK    2  A    between atoms: C4_4  and  O7_7 
ROOT
HETATM    1  C1  UNL     1     -33.216  15.751  -4.362  1.00 20.00     0.120 C 
HETATM    2  C4  UNL     1     -33.527  14.701  -3.381  1.00 20.00     0.369 C 
HETATM    3  N5  UNL     1     -32.970  16.580  -5.137  1.00 20.00    -0.192 NA
ENDROOT
BRANCH   2   4
HETATM    4  O6  UNL     1     -33.553  13.429  -4.036  1.00 20.00    -0.354 OA
HETATM    5  C2  UNL     1     -34.740  13.222  -4.790  1.00 20.00     0.206 C 
ENDBRANCH   2   4
BRANCH   2   6
HETATM    6  O7  UNL     1     -34.803  15.003  -2.804  1.00 20.00    -0.354 OA
HETATM    7  C3  UNL     1     -34.742  16.103  -1.903  1.00 20.00     0.206 C 
ENDBRANCH   2   6
TORSDOF 2
ENDMDL
MODEL 8
REMARK VINA RESULT:      -3.1     11.903     12.530
REMARK  2 active torsions:
REMARK  status: ('A' for Active; 'I' for Inactive)
REMARK    1  A    between atoms: C4_4  and  O6_6 
REMARK    2  A    between atoms: C4_4  and  O7_7 
ROOT
HETATM    1  C1  UNL     1     -34.941  13.969  -3.894  1.00 20.00     0.120 C 
HETATM    2  C4  UNL     1     -35.053  15.360  -3.432  1.00 20.00     0.369 C 
HETATM    3  N5  UNL     1     -34.855  12.870  -4.260  1.00 20.00    -0.192 NA
ENDROOT
BRANCH   2   4
HETATM    4  O6  UNL     1     -34.717  16.247  -4.504  1.00 20.00    -0.354 OA
HETATM    5  C2  UNL     1     -33.332  16.225  -4.825  1.00 20.00     0.206 C 
ENDBRANCH   2   4
BRANCH   2   6
HETATM    6  O7  UNL     1     -34.153  15.530  -2.330  1.00 20.00    -0.354 OA
HETATM    7  C3  UNL     1     -34.673  16.409  -1.339  1.00 20.00     0.206 C 
ENDBRANCH   2   6
TORSDOF 2
ENDMDL
MODEL 9
REMARK VINA RESULT:      -3.1     12.186     12.740
REMARK  2 active torsions:
REMARK  status: ('A' for Active; 'I' for Inactive)
REMARK    1  A    between atoms: C4_4  and  O6_6 
REMARK    2  A    between atoms: C4_4  and  O7_7 
ROOT
HETATM    1  C1  UNL     1     -35.788  15.217  -3.214  1.00 20.00     0.120 C 
HETATM    2  C4  UNL     1     -36.477  14.337  -4.169  1.00 20.00     0.369 C 
HETATM    3  N5  UNL     1     -35.245  15.913  -2.460  1.00 20.00    -0.192 NA
ENDROOT
BRANCH   2   4
HETATM    4  O6  UNL     1     -37.818  14.106  -3.725  1.00 20.00    -0.354 OA
HETATM    5  C2  UNL     1     -38.731  15.089  -4.197  1.00 20.00     0.206 C 
ENDBRANCH   2   4
BRANCH   2   6
HETATM    6  O7  UNL     1     -35.746  13.107  -4.240  1.00 20.00    -0.354 OA
HETATM    7  C3  UNL     1     -34.475  13.268  -4.858  1.00 20.00     0.206 C 
ENDBRANCH   2   6
TORSDOF 2
ENDMDL
