MODEL 1
REMARK VINA RESULT:      -4.7      0.000      0.000
REMARK  4 active torsions:
REMARK  status: ('A' for Active; 'I' for Inactive)
REMARK    1  A    between atoms: C2_2  and  C6_6 
REMARK    2  A    between atoms: C3_3  and  C7_7 
REMARK    3  A    between atoms: C3_3  and  O9_9 
REMARK    4  A    between atoms: C6_6  and  C8_8 
ROOT
HETATM    1  C1  UNL     1     -32.097   5.752   2.957  1.00 20.00     0.045 A 
HETATM    2  C2  UNL     1     -33.062   6.256   3.999  1.00 20.00     0.023 A 
HETATM    3  C3  UNL     1     -32.198   7.232   3.229  1.00 20.00     0.062 A 
ENDROOT
BRANCH   3   4
HETATM    4  C7  UNL     1     -32.759   8.145   2.190  1.00 20.00     0.034 C 
HETATM    5  C4  UNL     1     -31.731   8.587   1.182  1.00 20.00     0.008 C 
ENDBRANCH   3   4
BRANCH   3   6
HETATM    6  O9  UNL     1     -31.108   7.809   3.971  1.00 20.00    -0.389 OA
HETATM    7  H25 UNL     1     -30.303   7.463   3.566  1.00 20.00     0.210 HD
ENDBRANCH   3   6
BRANCH   2   8
HETATM    8  C6  UNL     1     -34.531   6.145   3.778  1.00 20.00     0.007 C 
BRANCH   8   9
HETATM    9  C8  UNL     1     -35.149   4.943   4.513  1.00 20.00    -0.004 C 
HETATM   10  C5  UNL     1     -34.823   4.937   5.998  1.00 20.00     0.005 C 
ENDBRANCH   8   9
ENDBRANCH   2   8
TORSDOF 4
ENDMDL
MODEL 2
REMARK VINA RESULT:      -4.3      1.802      4.409
REMARK  4 active torsions:
REMARK  status: ('A' for Active; 'I' for Inactive)
REMARK    1  A    between atoms: C2_2  and  C6_6 
REMARK    2  A    between atoms: C3_3  and  C7_7 
REMARK    3  A    between atoms: C3_3  and  O9_9 
REMARK    4  A    between atoms: C6_6  and  C8_8 
ROOT
HETATM    1  C1  UNL     1     -32.558   5.293   3.272  1.00 20.00     0.045 A 
HETATM    2  C2  UNL     1     -32.997   6.620   2.709  1.00 20.00     0.023 A 
HETATM    3  C3  UNL     1     -33.746   6.005   3.871  1.00 20.00     0.062 A 
ENDROOT
BRANCH   3   4
HETATM    4  C7  UNL     1     -33.664   6.558   5.255  1.00 20.00     0.034 C 
HETATM    5  C4  UNL     1     -34.410   5.725   6.264  1.00 20.00     0.008 C 
ENDBRANCH   3   4
BRANCH   3   6
HETATM    6  O9  UNL     1     -35.036   5.452   3.550  1.00 20.00    -0.389 OA
HETATM    7  H25 UNL     1     -35.549   6.181   3.179  1.00 20.00     0.210 HD
ENDBRANCH   3   6
BRANCH   2   8
HETATM    8  C6  UNL     1     -32.133   7.824   2.864  1.00 20.00     0.007 C 
BRANCH   8   9
HETATM    9  C8  UNL     1     -31.812   8.498   1.519  1.00 20.00    -0.004 C 
HETATM   10  C5  UNL     1     -32.474   9.860   1.376  1.00 20.00     0.005 C 
ENDBRANCH   8   9
ENDBRANCH   2   8
TORSDOF 4
ENDMDL
MODEL 3
REMARK VINA RESULT:      -4.3     10.779     11.630
REMARK  4 active torsions:
REMARK  status: ('A' for Active; 'I' for Inactive)
REMARK    1  A    between atoms: C2_2  and  C6_6 
REMARK    2  A    between atoms: C3_3  and  C7_7 
REMARK    3  A    between atoms: C3_3  and  O9_9 
REMARK    4  A    between atoms: C6_6  and  C8_8 
ROOT
HETATM    1  C1  UNL     1     -36.014  14.857  -3.659  1.00 20.00     0.045 A 
HETATM    2  C2  UNL     1     -34.633  14.723  -3.070  1.00 20.00     0.023 A 
HETATM    3  C3  UNL     1     -34.989  13.986  -4.344  1.00 20.00     0.062 A 
ENDROOT
BRANCH   3   4
HETATM    4  C7  UNL     1     -34.443  14.384  -5.675  1.00 20.00     0.034 C 
HETATM    5  C4  UNL     1     -35.505  14.491  -6.737  1.00 20.00     0.008 C 
ENDBRANCH   3   4
BRANCH   3   6
HETATM    6  O9  UNL     1     -35.178  12.566  -4.203  1.00 20.00    -0.389 OA
HETATM    7  H25 UNL     1     -34.461  12.262  -3.632  1.00 20.00     0.210 HD
ENDBRANCH   3   6
BRANCH   2   8
HETATM    8  C6  UNL     1     -33.706  15.889  -3.057  1.00 20.00     0.007 C 
BRANCH   8   9
HETATM    9  C8  UNL     1     -34.247  17.063  -2.221  1.00 20.00    -0.004 C 
HETATM   10  C5  UNL     1     -34.568  16.662  -0.791  1.00 20.00     0.005 C 
ENDBRANCH   8   9
ENDBRANCH   2   8
TORSDOF 4
ENDMDL
MODEL 4
REMARK VINA RESULT:      -4.2      1.357      1.735
REMARK  4 active torsions:
REMARK  status: ('A' for Active; 'I' for Inactive)
REMARK    1  A    between atoms: C2_2  and  C6_6 
REMARK    2  A    between atoms: C3_3  and  C7_7 
REMARK    3  A    between atoms: C3_3  and  O9_9 
REMARK    4  A    between atoms: C6_6  and  C8_8 
ROOT
HETATM    1  C1  UNL     1     -34.154   6.083   2.923  1.00 20.00     0.045 A 
HETATM    2  C2  UNL     1     -33.588   5.702   4.267  1.00 20.00     0.023 A 
HETATM    3  C3  UNL     1     -32.673   6.217   3.178  1.00 20.00     0.062 A 
ENDROOT
BRANCH   3   4
HETATM    4  C7  UNL     1     -32.046   7.571   3.237  1.00 20.00     0.034 C 
HETATM    5  C4  UNL     1     -32.000   8.254   1.895  1.00 20.00     0.008 C 
ENDBRANCH   3   4
BRANCH   3   6
HETATM    6  O9  UNL     1     -31.837   5.225   2.553  1.00 20.00    -0.389 OA
HETATM    7  H25 UNL     1     -31.459   4.708   3.276  1.00 20.00     0.210 HD
ENDBRANCH   3   6
BRANCH   2   8
HETATM    8  C6  UNL     1     -33.920   6.506   5.477  1.00 20.00     0.007 C 
BRANCH   8   9
HETATM    9  C8  UNL     1     -34.589   5.665   6.579  1.00 20.00    -0.004 C 
HETATM   10  C5  UNL     1     -34.899   4.248   6.125  1.00 20.00     0.005 C 
ENDBRANCH   8   9
ENDBRANCH   2   8
TORSDOF 4
ENDMDL
MODEL 5
REMARK VINA RESULT:      -4.2     10.820     11.675
REMARK  4 active torsions:
REMARK  status: ('A' for Active; 'I' for Inactive)
REMARK    1  A    between atoms: C2_2  and  C6_6 
REMARK    2  A    between atoms: C3_3  and  C7_7 
REMARK    3  A    between atoms: C3_3  and  O9_9 
REMARK    4  A    between atoms: C6_6  and  C8_8 
ROOT
HETATM    1  C1  UNL     1     -34.368  14.271  -3.846  1.00 20.00     0.045 A 
HETATM    2  C2  UNL     1     -34.060  15.132  -2.648  1.00 20.00     0.023 A 
HETATM    3  C3  UNL     1     -33.270  15.303  -3.928  1.00 20.00     0.062 A 
ENDROOT
BRANCH   3   4
HETATM    4  C7  UNL     1     -33.430  16.495  -4.812  1.00 20.00     0.034 C 
HETATM    5  C4  UNL     1     -33.931  16.141  -6.187  1.00 20.00     0.008 C 
ENDBRANCH   3   4
BRANCH   3   6
HETATM    6  O9  UNL     1     -31.924  14.790  -3.895  1.00 20.00    -0.389 OA
HETATM    7  H25 UNL     1     -31.990  13.906  -3.513  1.00 20.00     0.210 HD
ENDBRANCH   3   6
BRANCH   2   8
HETATM    8  C6  UNL     1     -35.045  16.146  -2.179  1.00 20.00     0.007 C 
BRANCH   8   9
HETATM    9  C8  UNL     1     -34.688  16.721  -0.797  1.00 20.00    -0.004 C 
HETATM   10  C5  UNL     1     -33.532  17.706  -0.855  1.00 20.00     0.005 C 
ENDBRANCH   8   9
ENDBRANCH   2   8
TORSDOF 4
ENDMDL
MODEL 6
REMARK VINA RESULT:      -4.0     10.952     11.773
REMARK  4 active torsions:
REMARK  status: ('A' for Active; 'I' for Inactive)
REMARK    1  A    between atoms: C2_2  and  C6_6 
REMARK    2  A    between atoms: C3_3  and  C7_7 
REMARK    3  A    between atoms: C3_3  and  O9_9 
REMARK    4  A    between atoms: C6_6  and  C8_8 
ROOT
HETATM    1  C1  UNL     1     -36.022  16.024  -4.375  1.00 20.00     0.045 A 
HETATM    2  C2  UNL     1     -35.872  15.771  -2.897  1.00 20.00     0.023 A 
HETATM    3  C3  UNL     1     -36.211  14.630  -3.831  1.00 20.00     0.062 A 
ENDROOT
BRANCH   3   4
HETATM    4  C7  UNL     1     -35.230  13.557  -4.169  1.00 20.00     0.034 C 
HETATM    5  C4  UNL     1     -34.776  13.609  -5.604  1.00 20.00     0.008 C 
ENDBRANCH   3   4
BRANCH   3   6
HETATM    6  O9  UNL     1     -37.571  14.161  -3.764  1.00 20.00    -0.389 OA
HETATM    7  H25 UNL     1     -38.111  14.870  -4.139  1.00 20.00     0.210 HD
ENDBRANCH   3   6
BRANCH   2   8
HETATM    8  C6  UNL     1     -34.538  15.898  -2.246  1.00 20.00     0.007 C 
BRANCH   8   9
HETATM    9  C8  UNL     1     -34.612  16.612  -0.884  1.00 20.00    -0.004 C 
HETATM   10  C5  UNL     1     -33.585  17.725  -0.753  1.00 20.00     0.005 C 
ENDBRANCH   8   9
ENDBRANCH   2   8
TORSDOF 4
ENDMDL
MODEL 7
REMARK VINA RESULT:      -3.9     10.762     12.363
REMARK  4 active torsions:
REMARK  status: ('A' for Active; 'I' for Inactive)
REMARK    1  A    between atoms: C2_2  and  C6_6 
REMARK    2  A    between atoms: C3_3  and  C7_7 
REMARK    3  A    between atoms: C3_3  and  O9_9 
REMARK    4  A    between atoms: C6_6  and  C8_8 
ROOT
HETATM    1  C1  UNL     1     -34.753  13.896  -3.731  1.00 20.00     0.045 A 
HETATM    2  C2  UNL     1     -35.054  14.998  -4.714  1.00 20.00     0.023 A 
HETATM    3  C3  UNL     1     -35.149  15.261  -3.226  1.00 20.00     0.062 A 
ENDROOT
BRANCH   3   4
HETATM    4  C7  UNL     1     -34.154  16.106  -2.501  1.00 20.00     0.034 C 
HETATM    5  C4  UNL     1     -34.618  16.506  -1.125  1.00 20.00     0.008 C 
ENDBRANCH   3   4
BRANCH   3   6
HETATM    6  O9  UNL     1     -36.485  15.374  -2.703  1.00 20.00    -0.389 OA
HETATM    7  H25 UNL     1     -36.844  14.477  -2.705  1.00 20.00     0.210 HD
ENDBRANCH   3   6
BRANCH   2   8
HETATM    8  C6  UNL     1     -33.967  15.570  -5.557  1.00 20.00     0.007 C 
BRANCH   8   9
HETATM    9  C8  UNL     1     -34.280  15.483  -7.062  1.00 20.00    -0.004 C 
HETATM   10  C5  UNL     1     -35.365  14.465  -7.374  1.00 20.00     0.005 C 
ENDBRANCH   8   9
ENDBRANCH   2   8
TORSDOF 4
ENDMDL
MODEL 8
REMARK VINA RESULT:      -3.8     11.247     12.070
REMARK  4 active torsions:
REMARK  status: ('A' for Active; 'I' for Inactive)
REMARK    1  A    between atoms: C2_2  and  C6_6 
REMARK    2  A    between atoms: C3_3  and  C7_7 
REMARK    3  A    between atoms: C3_3  and  O9_9 
REMARK    4  A    between atoms: C6_6  and  C8_8 
ROOT
HETATM    1  C1  UNL     1     -34.521  13.306  -4.789  1.00 20.00     0.045 A 
HETATM    2  C2  UNL     1     -34.106  14.617  -4.173  1.00 20.00     0.023 A 
HETATM    3  C3  UNL     1     -34.778  14.595  -5.528  1.00 20.00     0.062 A 
ENDROOT
BRANCH   3   4
HETATM    4  C7  UNL     1     -36.178  15.072  -5.732  1.00 20.00     0.034 C 
HETATM    5  C4  UNL     1     -36.620  14.995  -7.169  1.00 20.00     0.008 C 
ENDBRANCH   3   4
BRANCH   3   6
HETATM    6  O9  UNL     1     -33.915  14.858  -6.650  1.00 20.00    -0.389 OA
HETATM    7  H25 UNL     1     -34.415  14.595  -7.433  1.00 20.00     0.210 HD
ENDBRANCH   3   6
BRANCH   2   8
HETATM    8  C6  UNL     1     -34.791  15.123  -2.951  1.00 20.00     0.007 C 
BRANCH   8   9
HETATM    9  C8  UNL     1     -34.009  16.255  -2.262  1.00 20.00    -0.004 C 
HETATM   10  C5  UNL     1     -34.590  16.624  -0.906  1.00 20.00     0.005 C 
ENDBRANCH   8   9
ENDBRANCH   2   8
TORSDOF 4
ENDMDL
MODEL 9
REMARK VINA RESULT:      -3.8      2.567      4.361
REMARK  4 active torsions:
REMARK  status: ('A' for Active; 'I' for Inactive)
REMARK    1  A    between atoms: C2_2  and  C6_6 
REMARK    2  A    between atoms: C3_3  and  C7_7 
REMARK    3  A    between atoms: C3_3  and  O9_9 
REMARK    4  A    between atoms: C6_6  and  C8_8 
ROOT
HETATM    1  C1  UNL     1     -34.654   3.660   4.785  1.00 20.00     0.045 A 
HETATM    2  C2  UNL     1     -35.435   4.911   4.477  1.00 20.00     0.023 A 
HETATM    3  C3  UNL     1     -34.851   4.702   5.858  1.00 20.00     0.062 A 
ENDROOT
BRANCH   3   4
HETATM    4  C7  UNL     1     -33.685   5.487   6.359  1.00 20.00     0.034 C 
HETATM    5  C4  UNL     1     -34.051   6.895   6.750  1.00 20.00     0.008 C 
ENDBRANCH   3   4
BRANCH   3   6
HETATM    6  O9  UNL     1     -35.803   4.371   6.886  1.00 20.00    -0.389 OA
HETATM    7  H25 UNL     1     -36.200   5.209   7.156  1.00 20.00     0.210 HD
ENDBRANCH   3   6
BRANCH   2   8
HETATM    8  C6  UNL     1     -34.890   5.921   3.527  1.00 20.00     0.007 C 
BRANCH   8   9
HETATM    9  C8  UNL     1     -33.646   5.414   2.776  1.00 20.00    -0.004 C 
HETATM   10  C5  UNL     1     -32.413   6.258   3.053  1.00 20.00     0.005 C 
ENDBRANCH   8   9
ENDBRANCH   2   8
TORSDOF 4
ENDMDL
