MODEL 1
REMARK VINA RESULT:      -5.8      0.000      0.000
REMARK  1 active torsions:
REMARK  status: ('A' for Active; 'I' for Inactive)
REMARK    1  A    between atoms: C3_3  and  C6_6 
ROOT
HETATM    1  C1  UNL     1     -32.109   7.962   2.472  1.00 20.00    -0.154 C 
HETATM    2  C5  UNL     1     -32.157   8.669   1.384  1.00 20.00     0.096 C 
HETATM    3  C6  UNL     1     -32.055   7.257   3.561  1.00 20.00     0.058 C 
ENDROOT
BRANCH   3   4
HETATM    4  C3  UNL     1     -33.144   6.424   3.984  1.00 20.00    -0.041 A 
HETATM    5  C2  UNL     1     -33.648   6.344   5.222  1.00 20.00    -0.009 A 
HETATM    6  C4  UNL     1     -34.743   5.356   5.137  1.00 20.00     0.156 A 
HETATM    7  C9  UNL     1     -33.298   7.023   6.492  1.00 20.00     0.052 C 
HETATM    8  C8  UNL     1     -34.899   4.812   3.748  1.00 20.00     0.088 A 
HETATM    9  O10 UNL     1     -35.435   5.028   6.090  1.00 20.00    -0.293 OA
HETATM   10  C7  UNL     1     -33.812   5.540   2.972  1.00 20.00     0.047 A 
ENDBRANCH   3   4
TORSDOF 1
ENDMDL
MODEL 2
REMARK VINA RESULT:      -5.5     10.851     11.578
REMARK  1 active torsions:
REMARK  status: ('A' for Active; 'I' for Inactive)
REMARK    1  A    between atoms: C3_3  and  C6_6 
ROOT
HETATM    1  C1  UNL     1     -34.460  16.808  -0.966  1.00 20.00    -0.154 C 
HETATM    2  C5  UNL     1     -34.899  17.171   0.200  1.00 20.00     0.096 C 
HETATM    3  C6  UNL     1     -34.017  16.450  -2.133  1.00 20.00     0.058 C 
ENDROOT
BRANCH   3   4
HETATM    4  C3  UNL     1     -34.660  15.432  -2.913  1.00 20.00    -0.041 A 
HETATM    5  C2  UNL     1     -34.075  14.355  -3.451  1.00 20.00    -0.009 A 
HETATM    6  C4  UNL     1     -35.155  13.629  -4.149  1.00 20.00     0.156 A 
HETATM    7  C9  UNL     1     -32.676  13.863  -3.439  1.00 20.00     0.052 C 
HETATM    8  C8  UNL     1     -36.476  14.326  -4.015  1.00 20.00     0.088 A 
HETATM    9  O10 UNL     1     -34.984  12.584  -4.760  1.00 20.00    -0.293 OA
HETATM   10  C7  UNL     1     -36.133  15.548  -3.176  1.00 20.00     0.047 A 
ENDBRANCH   3   4
TORSDOF 1
ENDMDL
MODEL 3
REMARK VINA RESULT:      -5.2      0.820      2.107
REMARK  1 active torsions:
REMARK  status: ('A' for Active; 'I' for Inactive)
REMARK    1  A    between atoms: C3_3  and  C6_6 
ROOT
HETATM    1  C1  UNL     1     -32.148   8.168   2.333  1.00 20.00    -0.154 C 
HETATM    2  C5  UNL     1     -32.369   9.185   1.556  1.00 20.00     0.096 C 
HETATM    3  C6  UNL     1     -31.922   7.151   3.107  1.00 20.00     0.058 C 
ENDROOT
BRANCH   3   4
HETATM    4  C3  UNL     1     -32.945   6.582   3.937  1.00 20.00    -0.041 A 
HETATM    5  C2  UNL     1     -33.885   5.710   3.552  1.00 20.00    -0.009 A 
HETATM    6  C4  UNL     1     -34.685   5.436   4.763  1.00 20.00     0.156 A 
HETATM    7  C9  UNL     1     -34.186   5.071   2.248  1.00 20.00     0.052 C 
HETATM    8  C8  UNL     1     -34.183   6.201   5.951  1.00 20.00     0.088 A 
HETATM    9  O10 UNL     1     -35.641   4.674   4.785  1.00 20.00    -0.293 OA
HETATM   10  C7  UNL     1     -33.003   6.976   5.383  1.00 20.00     0.047 A 
ENDBRANCH   3   4
TORSDOF 1
ENDMDL
MODEL 4
REMARK VINA RESULT:      -5.0     10.987     11.767
REMARK  1 active torsions:
REMARK  status: ('A' for Active; 'I' for Inactive)
REMARK    1  A    between atoms: C3_3  and  C6_6 
ROOT
HETATM    1  C1  UNL     1     -34.693  17.142  -1.258  1.00 20.00    -0.154 C 
HETATM    2  C5  UNL     1     -34.558  17.387   0.010  1.00 20.00     0.096 C 
HETATM    3  C6  UNL     1     -34.830  16.903  -2.527  1.00 20.00     0.058 C 
ENDROOT
BRANCH   3   4
HETATM    4  C3  UNL     1     -34.536  15.619  -3.097  1.00 20.00    -0.041 A 
HETATM    5  C2  UNL     1     -35.425  14.736  -3.567  1.00 20.00    -0.009 A 
HETATM    6  C4  UNL     1     -34.626  13.587  -4.039  1.00 20.00     0.156 A 
HETATM    7  C9  UNL     1     -36.905  14.758  -3.662  1.00 20.00     0.052 C 
HETATM    8  C8  UNL     1     -33.157  13.805  -3.833  1.00 20.00     0.088 A 
HETATM    9  O10 UNL     1     -35.113  12.582  -4.537  1.00 20.00    -0.293 OA
HETATM   10  C7  UNL     1     -33.103  15.185  -3.194  1.00 20.00     0.047 A 
ENDBRANCH   3   4
TORSDOF 1
ENDMDL
MODEL 5
REMARK VINA RESULT:      -4.9     11.294     12.622
REMARK  1 active torsions:
REMARK  status: ('A' for Active; 'I' for Inactive)
REMARK    1  A    between atoms: C3_3  and  C6_6 
ROOT
HETATM    1  C1  UNL     1     -34.099  16.398  -1.877  1.00 20.00    -0.154 C 
HETATM    2  C5  UNL     1     -34.735  16.667  -0.777  1.00 20.00     0.096 C 
HETATM    3  C6  UNL     1     -33.459  16.133  -2.975  1.00 20.00     0.058 C 
ENDROOT
BRANCH   3   4
HETATM    4  C3  UNL     1     -33.985  15.240  -3.967  1.00 20.00    -0.041 A 
HETATM    5  C2  UNL     1     -34.253  15.540  -5.244  1.00 20.00    -0.009 A 
HETATM    6  C4  UNL     1     -34.770  14.292  -5.841  1.00 20.00     0.156 A 
HETATM    7  C9  UNL     1     -34.117  16.791  -6.029  1.00 20.00     0.052 C 
HETATM    8  C8  UNL     1     -34.811  13.171  -4.846  1.00 20.00     0.088 A 
HETATM    9  O10 UNL     1     -35.119  14.193  -7.009  1.00 20.00    -0.293 OA
HETATM   10  C7  UNL     1     -34.278  13.820  -3.578  1.00 20.00     0.047 A 
ENDBRANCH   3   4
TORSDOF 1
ENDMDL
MODEL 6
REMARK VINA RESULT:      -4.7     11.530     12.994
REMARK  1 active torsions:
REMARK  status: ('A' for Active; 'I' for Inactive)
REMARK    1  A    between atoms: C3_3  and  C6_6 
ROOT
HETATM    1  C1  UNL     1     -34.036  16.107  -2.214  1.00 20.00    -0.154 C 
HETATM    2  C5  UNL     1     -34.765  16.551  -1.236  1.00 20.00     0.096 C 
HETATM    3  C6  UNL     1     -33.302  15.662  -3.188  1.00 20.00     0.058 C 
ENDROOT
BRANCH   3   4
HETATM    4  C3  UNL     1     -33.809  15.523  -4.523  1.00 20.00    -0.041 A 
HETATM    5  C2  UNL     1     -34.526  14.496  -4.997  1.00 20.00    -0.009 A 
HETATM    6  C4  UNL     1     -34.800  14.827  -6.410  1.00 20.00     0.156 A 
HETATM    7  C9  UNL     1     -35.013  13.241  -4.374  1.00 20.00     0.052 C 
HETATM    8  C8  UNL     1     -34.203  16.146  -6.802  1.00 20.00     0.088 A 
HETATM    9  O10 UNL     1     -35.439  14.107  -7.163  1.00 20.00    -0.293 OA
HETATM   10  C7  UNL     1     -33.533  16.612  -5.517  1.00 20.00     0.047 A 
ENDBRANCH   3   4
TORSDOF 1
ENDMDL
MODEL 7
REMARK VINA RESULT:      -4.7     10.986     13.112
REMARK  1 active torsions:
REMARK  status: ('A' for Active; 'I' for Inactive)
REMARK    1  A    between atoms: C3_3  and  C6_6 
ROOT
HETATM    1  C1  UNL     1     -33.600  18.076  -5.094  1.00 20.00    -0.154 C 
HETATM    2  C5  UNL     1     -33.566  19.166  -4.390  1.00 20.00     0.096 C 
HETATM    3  C6  UNL     1     -33.634  16.989  -5.804  1.00 20.00     0.058 C 
ENDROOT
BRANCH   3   4
HETATM    4  C3  UNL     1     -33.804  15.695  -5.208  1.00 20.00    -0.041 A 
HETATM    5  C2  UNL     1     -34.512  14.676  -5.711  1.00 20.00    -0.009 A 
HETATM    6  C4  UNL     1     -34.375  13.580  -4.730  1.00 20.00     0.156 A 
HETATM    7  C9  UNL     1     -35.307  14.525  -6.954  1.00 20.00     0.052 C 
HETATM    8  C8  UNL     1     -33.524  13.979  -3.561  1.00 20.00     0.088 A 
HETATM    9  O10 UNL     1     -34.895  12.482  -4.864  1.00 20.00    -0.293 OA
HETATM   10  C7  UNL     1     -33.140  15.414  -3.892  1.00 20.00     0.047 A 
ENDBRANCH   3   4
TORSDOF 1
ENDMDL
MODEL 8
REMARK VINA RESULT:      -4.4      9.458     11.077
REMARK  1 active torsions:
REMARK  status: ('A' for Active; 'I' for Inactive)
REMARK    1  A    between atoms: C3_3  and  C6_6 
ROOT
HETATM    1  C1  UNL     1     -41.923   2.708  -3.402  1.00 20.00    -0.154 C 
HETATM    2  C5  UNL     1     -41.244   1.687  -3.830  1.00 20.00     0.096 C 
HETATM    3  C6  UNL     1     -42.608   3.726  -2.977  1.00 20.00     0.058 C 
ENDROOT
BRANCH   3   4
HETATM    4  C3  UNL     1     -42.018   4.763  -2.180  1.00 20.00    -0.041 A 
HETATM    5  C2  UNL     1     -42.267   6.074  -2.273  1.00 20.00    -0.009 A 
HETATM    6  C4  UNL     1     -41.417   6.709  -1.246  1.00 20.00     0.156 A 
HETATM    7  C9  UNL     1     -43.161   6.865  -3.153  1.00 20.00     0.052 C 
HETATM    8  C8  UNL     1     -40.606   5.700  -0.488  1.00 20.00     0.088 A 
HETATM    9  O10 UNL     1     -41.385   7.914  -1.042  1.00 20.00    -0.293 OA
HETATM   10  C7  UNL     1     -41.019   4.382  -1.127  1.00 20.00     0.047 A 
ENDBRANCH   3   4
TORSDOF 1
ENDMDL
MODEL 9
REMARK VINA RESULT:      -4.4     11.634     12.490
REMARK  1 active torsions:
REMARK  status: ('A' for Active; 'I' for Inactive)
REMARK    1  A    between atoms: C3_3  and  C6_6 
ROOT
HETATM    1  C1  UNL     1     -34.710  16.726  -1.177  1.00 20.00    -0.154 C 
HETATM    2  C5  UNL     1     -34.470  15.884  -2.136  1.00 20.00     0.096 C 
HETATM    3  C6  UNL     1     -34.957  17.567  -0.219  1.00 20.00     0.058 C 
ENDROOT
BRANCH   3   4
HETATM    4  C3  UNL     1     -33.911  18.153   0.569  1.00 20.00    -0.041 A 
HETATM    5  C2  UNL     1     -33.917  18.320   1.897  1.00 20.00    -0.009 A 
HETATM    6  C4  UNL     1     -32.625  18.960   2.219  1.00 20.00     0.156 A 
HETATM    7  C9  UNL     1     -34.915  17.993   2.945  1.00 20.00     0.052 C 
HETATM    8  C8  UNL     1     -31.794  19.188   0.992  1.00 20.00     0.088 A 
HETATM    9  O10 UNL     1     -32.282  19.263   3.352  1.00 20.00    -0.293 OA
HETATM   10  C7  UNL     1     -32.672  18.638  -0.123  1.00 20.00     0.047 A 
ENDBRANCH   3   4
TORSDOF 1
ENDMDL
