MODEL 1
REMARK VINA RESULT:      -3.8      0.000      0.000
REMARK  2 active torsions:
REMARK  status: ('A' for Active; 'I' for Inactive)
REMARK    1  A    between atoms: C6_6  and  C7_7 
REMARK    2  A    between atoms: C7_7  and  N8_8 
ROOT
HETATM    1  C7  UNL     1     -35.037  14.222  -4.808  1.00 20.00     0.443 C 
HETATM    2  F9  UNL     1     -34.441  13.091  -5.299  1.00 20.00    -0.172 F 
HETATM    3  F10 UNL     1     -36.052  13.770  -4.018  1.00 20.00    -0.172 F 
ENDROOT
BRANCH   1   4
HETATM    4  C6  UNL     1     -33.988  14.950  -3.921  1.00 20.00     0.046 C 
HETATM    5  C1  UNL     1     -34.612  15.528  -2.640  1.00 20.00     0.023 C 
HETATM    6  C2  UNL     1     -32.897  13.940  -3.508  1.00 20.00     0.023 C 
HETATM    7  C3  UNL     1     -33.315  16.092  -4.707  1.00 20.00     0.023 C 
ENDBRANCH   1   4
BRANCH   1   8
HETATM    8  N8  UNL     1     -35.565  15.041  -5.914  1.00 20.00     0.152 N 
HETATM    9  C4  UNL     1     -35.451  14.368  -7.208  1.00 20.00     0.317 C 
HETATM   10  C5  UNL     1     -36.956  15.445  -5.698  1.00 20.00     0.317 C 
ENDBRANCH   1   8
TORSDOF 2
ENDMDL
MODEL 2
REMARK VINA RESULT:      -3.8      0.078      1.376
REMARK  2 active torsions:
REMARK  status: ('A' for Active; 'I' for Inactive)
REMARK    1  A    between atoms: C6_6  and  C7_7 
REMARK    2  A    between atoms: C7_7  and  N8_8 
ROOT
HETATM    1  C7  UNL     1     -35.100  14.208  -4.807  1.00 20.00     0.443 C 
HETATM    2  F9  UNL     1     -34.576  13.038  -5.285  1.00 20.00    -0.172 F 
HETATM    3  F10 UNL     1     -36.130  13.827  -3.998  1.00 20.00    -0.172 F 
ENDROOT
BRANCH   1   4
HETATM    4  C6  UNL     1     -34.001  14.889  -3.943  1.00 20.00     0.046 C 
HETATM    5  C1  UNL     1     -33.302  16.035  -4.692  1.00 20.00     0.023 C 
HETATM    6  C2  UNL     1     -34.656  15.476  -2.675  1.00 20.00     0.023 C 
HETATM    7  C3  UNL     1     -32.942  13.860  -3.506  1.00 20.00     0.023 C 
ENDBRANCH   1   4
BRANCH   1   8
HETATM    8  N8  UNL     1     -35.594  15.039  -5.920  1.00 20.00     0.152 N 
HETATM    9  C4  UNL     1     -35.468  14.366  -7.213  1.00 20.00     0.317 C 
HETATM   10  C5  UNL     1     -36.981  15.468  -5.728  1.00 20.00     0.317 C 
ENDBRANCH   1   8
TORSDOF 2
ENDMDL
MODEL 3
REMARK VINA RESULT:      -3.8      0.080      1.373
REMARK  2 active torsions:
REMARK  status: ('A' for Active; 'I' for Inactive)
REMARK    1  A    between atoms: C6_6  and  C7_7 
REMARK    2  A    between atoms: C7_7  and  N8_8 
ROOT
HETATM    1  C7  UNL     1     -35.105  14.234  -4.806  1.00 20.00     0.443 C 
HETATM    2  F9  UNL     1     -34.580  13.059  -5.273  1.00 20.00    -0.172 F 
HETATM    3  F10 UNL     1     -36.151  13.861  -4.015  1.00 20.00    -0.172 F 
ENDROOT
BRANCH   1   4
HETATM    4  C6  UNL     1     -34.016  14.910  -3.924  1.00 20.00     0.046 C 
HETATM    5  C1  UNL     1     -32.906  13.927  -3.519  1.00 20.00     0.023 C 
HETATM    6  C2  UNL     1     -33.369  16.059  -4.725  1.00 20.00     0.023 C 
HETATM    7  C3  UNL     1     -34.646  15.504  -2.650  1.00 20.00     0.023 C 
ENDBRANCH   1   4
BRANCH   1   8
HETATM    8  N8  UNL     1     -35.573  15.066  -5.930  1.00 20.00     0.152 N 
HETATM    9  C4  UNL     1     -35.468  14.374  -7.214  1.00 20.00     0.317 C 
HETATM   10  C5  UNL     1     -36.948  15.537  -5.743  1.00 20.00     0.317 C 
ENDBRANCH   1   8
TORSDOF 2
ENDMDL
MODEL 4
REMARK VINA RESULT:      -3.8      2.130      3.563
REMARK  2 active torsions:
REMARK  status: ('A' for Active; 'I' for Inactive)
REMARK    1  A    between atoms: C6_6  and  C7_7 
REMARK    2  A    between atoms: C7_7  and  N8_8 
ROOT
HETATM    1  C7  UNL     1     -33.554  15.733  -4.407  1.00 20.00     0.443 C 
HETATM    2  F9  UNL     1     -32.719  14.932  -3.676  1.00 20.00    -0.172 F 
HETATM    3  F10 UNL     1     -32.754  16.308  -5.350  1.00 20.00    -0.172 F 
ENDROOT
BRANCH   1   4
HETATM    4  C6  UNL     1     -34.586  14.807  -5.112  1.00 20.00     0.046 C 
HETATM    5  C1  UNL     1     -36.036  15.190  -4.772  1.00 20.00     0.023 C 
HETATM    6  C2  UNL     1     -34.404  14.930  -6.639  1.00 20.00     0.023 C 
HETATM    7  C3  UNL     1     -34.352  13.337  -4.714  1.00 20.00     0.023 C 
ENDBRANCH   1   4
BRANCH   1   8
HETATM    8  N8  UNL     1     -34.159  16.762  -3.542  1.00 20.00     0.152 N 
HETATM    9  C4  UNL     1     -33.807  16.582  -2.134  1.00 20.00     0.317 C 
HETATM   10  C5  UNL     1     -33.810  18.122  -3.960  1.00 20.00     0.317 C 
ENDBRANCH   1   8
TORSDOF 2
ENDMDL
MODEL 5
REMARK VINA RESULT:      -3.7      1.743      2.516
REMARK  2 active torsions:
REMARK  status: ('A' for Active; 'I' for Inactive)
REMARK    1  A    between atoms: C6_6  and  C7_7 
REMARK    2  A    between atoms: C7_7  and  N8_8 
ROOT
HETATM    1  C7  UNL     1     -34.293  15.882  -4.989  1.00 20.00     0.443 C 
HETATM    2  F9  UNL     1     -34.853  17.051  -4.550  1.00 20.00    -0.172 F 
HETATM    3  F10 UNL     1     -33.091  16.246  -5.523  1.00 20.00    -0.172 F 
ENDROOT
BRANCH   1   4
HETATM    4  C6  UNL     1     -34.045  14.989  -3.740  1.00 20.00     0.046 C 
HETATM    5  C1  UNL     1     -34.734  13.620  -3.860  1.00 20.00     0.023 C 
HETATM    6  C2  UNL     1     -32.528  14.750  -3.592  1.00 20.00     0.023 C 
HETATM    7  C3  UNL     1     -34.550  15.692  -2.465  1.00 20.00     0.023 C 
ENDBRANCH   1   4
BRANCH   1   8
HETATM    8  N8  UNL     1     -35.150  15.259  -6.015  1.00 20.00     0.152 N 
HETATM    9  C4  UNL     1     -36.360  16.038  -6.275  1.00 20.00     0.317 C 
HETATM   10  C5  UNL     1     -34.439  15.031  -7.276  1.00 20.00     0.317 C 
ENDBRANCH   1   8
TORSDOF 2
ENDMDL
MODEL 6
REMARK VINA RESULT:      -3.7      1.972      2.689
REMARK  2 active torsions:
REMARK  status: ('A' for Active; 'I' for Inactive)
REMARK    1  A    between atoms: C6_6  and  C7_7 
REMARK    2  A    between atoms: C7_7  and  N8_8 
ROOT
HETATM    1  C7  UNL     1     -33.730  15.562  -4.233  1.00 20.00     0.443 C 
HETATM    2  F9  UNL     1     -32.856  16.286  -4.997  1.00 20.00    -0.172 F 
HETATM    3  F10 UNL     1     -32.941  14.761  -3.460  1.00 20.00    -0.172 F 
ENDROOT
BRANCH   1   4
HETATM    4  C6  UNL     1     -34.486  16.566  -3.317  1.00 20.00     0.046 C 
HETATM    5  C1  UNL     1     -34.417  16.164  -1.834  1.00 20.00     0.023 C 
HETATM    6  C2  UNL     1     -33.841  17.959  -3.466  1.00 20.00     0.023 C 
HETATM    7  C3  UNL     1     -35.965  16.671  -3.736  1.00 20.00     0.023 C 
ENDBRANCH   1   4
BRANCH   1   8
HETATM    8  N8  UNL     1     -34.609  14.749  -5.093  1.00 20.00     0.152 N 
HETATM    9  C4  UNL     1     -34.342  14.960  -6.516  1.00 20.00     0.317 C 
HETATM   10  C5  UNL     1     -34.524  13.319  -4.790  1.00 20.00     0.317 C 
ENDBRANCH   1   8
TORSDOF 2
ENDMDL
MODEL 7
REMARK VINA RESULT:      -3.7      1.725      2.599
REMARK  2 active torsions:
REMARK  status: ('A' for Active; 'I' for Inactive)
REMARK    1  A    between atoms: C6_6  and  C7_7 
REMARK    2  A    between atoms: C7_7  and  N8_8 
ROOT
HETATM    1  C7  UNL     1     -34.086  15.624  -5.207  1.00 20.00     0.443 C 
HETATM    2  F9  UNL     1     -32.900  16.300  -5.310  1.00 20.00    -0.172 F 
HETATM    3  F10 UNL     1     -34.121  14.808  -6.299  1.00 20.00    -0.172 F 
ENDROOT
BRANCH   1   4
HETATM    4  C6  UNL     1     -34.011  14.750  -3.922  1.00 20.00     0.046 C 
HETATM    5  C1  UNL     1     -32.562  14.428  -3.524  1.00 20.00     0.023 C 
HETATM    6  C2  UNL     1     -34.668  15.521  -2.758  1.00 20.00     0.023 C 
HETATM    7  C3  UNL     1     -34.779  13.430  -4.122  1.00 20.00     0.023 C 
ENDBRANCH   1   4
BRANCH   1   8
HETATM    8  N8  UNL     1     -35.217  16.570  -5.229  1.00 20.00     0.152 N 
HETATM    9  C4  UNL     1     -34.798  17.928  -5.574  1.00 20.00     0.317 C 
HETATM   10  C5  UNL     1     -36.285  16.145  -6.137  1.00 20.00     0.317 C 
ENDBRANCH   1   8
TORSDOF 2
ENDMDL
MODEL 8
REMARK VINA RESULT:      -3.7      2.288      3.436
REMARK  2 active torsions:
REMARK  status: ('A' for Active; 'I' for Inactive)
REMARK    1  A    between atoms: C6_6  and  C7_7 
REMARK    2  A    between atoms: C7_7  and  N8_8 
ROOT
HETATM    1  C7  UNL     1     -34.953  15.842  -3.324  1.00 20.00     0.443 C 
HETATM    2  F9  UNL     1     -35.553  16.722  -4.184  1.00 20.00    -0.172 F 
HETATM    3  F10 UNL     1     -35.982  15.239  -2.663  1.00 20.00    -0.172 F 
ENDROOT
BRANCH   1   4
HETATM    4  C6  UNL     1     -34.213  14.782  -4.189  1.00 20.00     0.046 C 
HETATM    5  C1  UNL     1     -32.785  14.515  -3.683  1.00 20.00     0.023 C 
HETATM    6  C2  UNL     1     -34.997  13.454  -4.128  1.00 20.00     0.023 C 
HETATM    7  C3  UNL     1     -34.144  15.235  -5.659  1.00 20.00     0.023 C 
ENDBRANCH   1   4
BRANCH   1   8
HETATM    8  N8  UNL     1     -34.081  16.565  -2.380  1.00 20.00     0.152 N 
HETATM    9  C4  UNL     1     -33.838  17.947  -2.796  1.00 20.00     0.317 C 
HETATM   10  C5  UNL     1     -34.606  16.555  -1.012  1.00 20.00     0.317 C 
ENDBRANCH   1   8
TORSDOF 2
ENDMDL
MODEL 9
REMARK VINA RESULT:      -3.6      2.001      3.112
REMARK  2 active torsions:
REMARK  status: ('A' for Active; 'I' for Inactive)
REMARK    1  A    between atoms: C6_6  and  C7_7 
REMARK    2  A    between atoms: C7_7  and  N8_8 
ROOT
HETATM    1  C7  UNL     1     -35.194  15.566  -3.199  1.00 20.00     0.443 C 
HETATM    2  F9  UNL     1     -36.350  14.847  -3.056  1.00 20.00    -0.172 F 
HETATM    3  F10 UNL     1     -34.621  15.560  -1.961  1.00 20.00    -0.172 F 
ENDROOT
BRANCH   1   4
HETATM    4  C6  UNL     1     -34.281  14.783  -4.185  1.00 20.00     0.046 C 
HETATM    5  C1  UNL     1     -34.267  15.413  -5.587  1.00 20.00     0.023 C 
HETATM    6  C2  UNL     1     -32.836  14.794  -3.642  1.00 20.00     0.023 C 
HETATM    7  C3  UNL     1     -34.742  13.318  -4.301  1.00 20.00     0.023 C 
ENDBRANCH   1   4
BRANCH   1   8
HETATM    8  N8  UNL     1     -35.499  16.944  -3.624  1.00 20.00     0.152 N 
HETATM    9  C4  UNL     1     -36.933  17.230  -3.593  1.00 20.00     0.317 C 
HETATM   10  C5  UNL     1     -34.786  17.946  -2.828  1.00 20.00     0.317 C 
ENDBRANCH   1   8
TORSDOF 2
ENDMDL
