MODEL 1
REMARK VINA RESULT:      -3.8      0.000      0.000
REMARK  1 active torsions:
REMARK  status: ('A' for Active; 'I' for Inactive)
REMARK    1  A    between atoms: C1_1  and  C6_6 
ROOT
HETATM    1  C1  UNL     1     -34.125  16.302  -2.465  1.00 20.00     0.149 C 
HETATM    2  C2  UNL     1     -35.596  15.084  -3.536  1.00 20.00     0.209 C 
HETATM    3  C3  UNL     1     -34.219  14.959  -4.175  1.00 20.00     0.070 C 
HETATM    4  C4  UNL     1     -33.585  13.592  -3.903  1.00 20.00     0.042 C 
HETATM    5  C5  UNL     1     -34.252  15.246  -5.672  1.00 20.00     0.042 C 
HETATM    6  N7  UNL     1     -33.407  15.988  -3.495  1.00 20.00    -0.257 NA
HETATM    7  O8  UNL     1     -35.348  15.750  -2.304  1.00 20.00    -0.335 OA
ENDROOT
BRANCH   1   8
HETATM    8  C6  UNL     1     -33.724  17.255  -1.400  1.00 20.00     0.200 C 
HETATM    9 CL9  UNL     1     -34.817  17.009  -0.033  1.00 20.00    -0.122 Cl
ENDBRANCH   1   8
TORSDOF 1
ENDMDL
MODEL 2
REMARK VINA RESULT:      -3.7      1.478      1.982
REMARK  1 active torsions:
REMARK  status: ('A' for Active; 'I' for Inactive)
REMARK    1  A    between atoms: C1_1  and  C6_6 
ROOT
HETATM    1  C1  UNL     1     -34.544  15.905  -2.289  1.00 20.00     0.149 C 
HETATM    2  C2  UNL     1     -33.265  15.008  -3.823  1.00 20.00     0.209 C 
HETATM    3  C3  UNL     1     -34.738  14.777  -4.141  1.00 20.00     0.070 C 
HETATM    4  C4  UNL     1     -35.208  15.633  -5.321  1.00 20.00     0.042 C 
HETATM    5  C5  UNL     1     -35.049  13.305  -4.389  1.00 20.00     0.042 C 
HETATM    6  N7  UNL     1     -35.446  15.233  -2.928  1.00 20.00    -0.257 NA
HETATM    7  O8  UNL     1     -33.282  15.963  -2.770  1.00 20.00    -0.335 OA
ENDROOT
BRANCH   1   8
HETATM    8  C6  UNL     1     -34.765  16.644  -1.022  1.00 20.00     0.200 C 
HETATM    9 CL9  UNL     1     -33.383  17.721  -0.791  1.00 20.00    -0.122 Cl
ENDBRANCH   1   8
TORSDOF 1
ENDMDL
MODEL 3
REMARK VINA RESULT:      -3.6      1.589      1.991
REMARK  1 active torsions:
REMARK  status: ('A' for Active; 'I' for Inactive)
REMARK    1  A    between atoms: C1_1  and  C6_6 
ROOT
HETATM    1  C1  UNL     1     -34.433  15.526  -3.525  1.00 20.00     0.149 C 
HETATM    2  C2  UNL     1     -35.427  13.735  -4.300  1.00 20.00     0.209 C 
HETATM    3  C3  UNL     1     -35.550  14.893  -5.284  1.00 20.00     0.070 C 
HETATM    4  C4  UNL     1     -34.666  14.690  -6.518  1.00 20.00     0.042 C 
HETATM    5  C5  UNL     1     -36.996  15.146  -5.696  1.00 20.00     0.042 C 
HETATM    6  N7  UNL     1     -35.040  16.060  -4.537  1.00 20.00    -0.257 NA
HETATM    7  O8  UNL     1     -34.470  14.187  -3.350  1.00 20.00    -0.335 OA
ENDROOT
BRANCH   1   8
HETATM    8  C6  UNL     1     -33.676  16.271  -2.491  1.00 20.00     0.200 C 
HETATM    9 CL9  UNL     1     -34.704  16.379  -1.057  1.00 20.00    -0.122 Cl
ENDBRANCH   1   8
TORSDOF 1
ENDMDL
MODEL 4
REMARK VINA RESULT:      -3.6      2.601      3.723
REMARK  1 active torsions:
REMARK  status: ('A' for Active; 'I' for Inactive)
REMARK    1  A    between atoms: C1_1  and  C6_6 
ROOT
HETATM    1  C1  UNL     1     -33.997  15.037  -3.362  1.00 20.00     0.149 C 
HETATM    2  C2  UNL     1     -33.858  17.217  -3.203  1.00 20.00     0.209 C 
HETATM    3  C3  UNL     1     -34.965  16.676  -2.306  1.00 20.00     0.070 C 
HETATM    4  C4  UNL     1     -34.585  16.746  -0.824  1.00 20.00     0.042 C 
HETATM    5  C5  UNL     1     -36.297  17.377  -2.551  1.00 20.00     0.042 C 
HETATM    6  N7  UNL     1     -35.080  15.254  -2.687  1.00 20.00    -0.257 NA
HETATM    7  O8  UNL     1     -33.146  16.056  -3.613  1.00 20.00    -0.335 OA
ENDROOT
BRANCH   1   8
HETATM    8  C6  UNL     1     -33.584  13.726  -3.919  1.00 20.00     0.200 C 
HETATM    9 CL9  UNL     1     -34.880  13.172  -4.986  1.00 20.00    -0.122 Cl
ENDBRANCH   1   8
TORSDOF 1
ENDMDL
MODEL 5
REMARK VINA RESULT:      -3.5      3.162      4.253
REMARK  1 active torsions:
REMARK  status: ('A' for Active; 'I' for Inactive)
REMARK    1  A    between atoms: C1_1  and  C6_6 
ROOT
HETATM    1  C1  UNL     1     -34.816  14.692  -5.878  1.00 20.00     0.149 C 
HETATM    2  C2  UNL     1     -34.959  13.464  -4.070  1.00 20.00     0.209 C 
HETATM    3  C3  UNL     1     -35.394  14.897  -3.789  1.00 20.00     0.070 C 
HETATM    4  C4  UNL     1     -36.909  15.005  -3.591  1.00 20.00     0.042 C 
HETATM    5  C5  UNL     1     -34.654  15.500  -2.600  1.00 20.00     0.042 C 
HETATM    6  N7  UNL     1     -35.035  15.634  -5.017  1.00 20.00    -0.257 NA
HETATM    7  O8  UNL     1     -34.872  13.399  -5.488  1.00 20.00    -0.335 OA
ENDROOT
BRANCH   1   8
HETATM    8  C6  UNL     1     -34.487  14.900  -7.309  1.00 20.00     0.200 C 
HETATM    9 CL9  UNL     1     -34.732  16.614  -7.664  1.00 20.00    -0.122 Cl
ENDBRANCH   1   8
TORSDOF 1
ENDMDL
MODEL 6
REMARK VINA RESULT:      -3.5     13.006     13.855
REMARK  1 active torsions:
REMARK  status: ('A' for Active; 'I' for Inactive)
REMARK    1  A    between atoms: C1_1  and  C6_6 
ROOT
HETATM    1  C1  UNL     1     -42.228   4.332  -2.208  1.00 20.00     0.149 C 
HETATM    2  C2  UNL     1     -40.711   5.192  -0.884  1.00 20.00     0.209 C 
HETATM    3  C3  UNL     1     -42.032   5.941  -0.756  1.00 20.00     0.070 C 
HETATM    4  C4  UNL     1     -42.731   5.642   0.574  1.00 20.00     0.042 C 
HETATM    5  C5  UNL     1     -41.861   7.444  -0.944  1.00 20.00     0.042 C 
HETATM    6  N7  UNL     1     -42.865   5.399  -1.848  1.00 20.00    -0.257 NA
HETATM    7  O8  UNL     1     -41.042   4.030  -1.635  1.00 20.00    -0.335 OA
ENDROOT
BRANCH   1   8
HETATM    8  C6  UNL     1     -42.688   3.368  -3.238  1.00 20.00     0.200 C 
HETATM    9 CL9  UNL     1     -41.383   2.202  -3.490  1.00 20.00    -0.122 Cl
ENDBRANCH   1   8
TORSDOF 1
ENDMDL
MODEL 7
REMARK VINA RESULT:      -3.4      2.549      3.773
REMARK  1 active torsions:
REMARK  status: ('A' for Active; 'I' for Inactive)
REMARK    1  A    between atoms: C1_1  and  C6_6 
ROOT
HETATM    1  C1  UNL     1     -35.662  15.220  -3.419  1.00 20.00     0.149 C 
HETATM    2  C2  UNL     1     -36.247  17.128  -2.518  1.00 20.00     0.209 C 
HETATM    3  C3  UNL     1     -34.825  16.752  -2.119  1.00 20.00     0.070 C 
HETATM    4  C4  UNL     1     -33.784  17.633  -2.816  1.00 20.00     0.042 C 
HETATM    5  C5  UNL     1     -34.625  16.782  -0.607  1.00 20.00     0.042 C 
HETATM    6  N7  UNL     1     -34.664  15.369  -2.609  1.00 20.00    -0.257 NA
HETATM    7  O8  UNL     1     -36.570  16.212  -3.556  1.00 20.00    -0.335 OA
ENDROOT
BRANCH   1   8
HETATM    8  C6  UNL     1     -35.924  14.015  -4.243  1.00 20.00     0.200 C 
HETATM    9 CL9  UNL     1     -34.361  13.273  -4.607  1.00 20.00    -0.122 Cl
ENDBRANCH   1   8
TORSDOF 1
ENDMDL
MODEL 8
REMARK VINA RESULT:      -3.4     11.615     12.440
REMARK  1 active torsions:
REMARK  status: ('A' for Active; 'I' for Inactive)
REMARK    1  A    between atoms: C1_1  and  C6_6 
ROOT
HETATM    1  C1  UNL     1     -33.084   6.251   3.747  1.00 20.00     0.149 C 
HETATM    2  C2  UNL     1     -35.235   6.064   4.111  1.00 20.00     0.209 C 
HETATM    3  C3  UNL     1     -34.438   5.317   5.173  1.00 20.00     0.070 C 
HETATM    4  C4  UNL     1     -34.477   6.034   6.526  1.00 20.00     0.042 C 
HETATM    5  C5  UNL     1     -34.892   3.869   5.321  1.00 20.00     0.042 C 
HETATM    6  N7  UNL     1     -33.049   5.348   4.673  1.00 20.00    -0.257 NA
HETATM    7  O8  UNL     1     -34.259   6.835   3.421  1.00 20.00    -0.335 OA
ENDROOT
BRANCH   1   8
HETATM    8  C6  UNL     1     -31.914   6.726   2.969  1.00 20.00     0.200 C 
HETATM    9 CL9  UNL     1     -32.358   8.270   2.234  1.00 20.00    -0.122 Cl
ENDBRANCH   1   8
TORSDOF 1
ENDMDL
MODEL 9
REMARK VINA RESULT:      -3.4      3.320      4.195
REMARK  1 active torsions:
REMARK  status: ('A' for Active; 'I' for Inactive)
REMARK    1  A    between atoms: C1_1  and  C6_6 
ROOT
HETATM    1  C1  UNL     1     -35.034  15.737  -5.707  1.00 20.00     0.149 C 
HETATM    2  C2  UNL     1     -33.245  16.159  -4.517  1.00 20.00     0.209 C 
HETATM    3  C3  UNL     1     -34.203  15.251  -3.755  1.00 20.00     0.070 C 
HETATM    4  C4  UNL     1     -33.677  13.816  -3.663  1.00 20.00     0.042 C 
HETATM    5  C5  UNL     1     -34.526  15.793  -2.367  1.00 20.00     0.042 C 
HETATM    6  N7  UNL     1     -35.429  15.243  -4.578  1.00 20.00    -0.257 NA
HETATM    7  O8  UNL     1     -33.763  16.177  -5.841  1.00 20.00    -0.335 OA
ENDROOT
BRANCH   1   8
HETATM    8  C6  UNL     1     -35.876  15.880  -6.920  1.00 20.00     0.200 C 
HETATM    9 CL9  UNL     1     -35.615  14.445  -7.918  1.00 20.00    -0.122 Cl
ENDBRANCH   1   8
TORSDOF 1
ENDMDL
