MODEL 1
REMARK VINA RESULT:      -4.4      0.000      0.000
REMARK  1 active torsions:
REMARK  status: ('A' for Active; 'I' for Inactive)
REMARK    1  A    between atoms: C4_4  and  C6_6 
ROOT
HETATM    1  C1  UNL     1     -35.217   5.014   5.922  1.00 20.00     0.135 A 
HETATM    2  C2  UNL     1     -34.289   5.936   6.355  1.00 20.00     0.136 A 
HETATM    3  C3  UNL     1     -34.428   5.223   3.786  1.00 20.00     0.149 A 
HETATM    4  C4  UNL     1     -33.501   6.146   4.219  1.00 20.00     0.122 A 
HETATM    5  N7  UNL     1     -35.302   4.641   4.630  1.00 20.00    -0.269 NA
HETATM    6  N8  UNL     1     -33.414   6.519   5.512  1.00 20.00    -0.256 NA
ENDROOT
BRANCH   4   7
HETATM    7  C6  UNL     1     -32.550   6.770   3.258  1.00 20.00     0.285 C 
HETATM    8  C5  UNL     1     -31.468   7.582   3.967  1.00 20.00     0.097 C 
HETATM    9  F9  UNL     1     -33.162   7.615   2.366  1.00 20.00    -0.200 F 
HETATM   10  F10 UNL     1     -31.907   5.853   2.465  1.00 20.00    -0.200 F 
ENDBRANCH   4   7
TORSDOF 1
ENDMDL
MODEL 2
REMARK VINA RESULT:      -4.4      0.854      1.508
REMARK  1 active torsions:
REMARK  status: ('A' for Active; 'I' for Inactive)
REMARK    1  A    between atoms: C4_4  and  C6_6 
ROOT
HETATM    1  C1  UNL     1     -35.195   5.021   5.987  1.00 20.00     0.135 A 
HETATM    2  C2  UNL     1     -35.221   4.662   4.657  1.00 20.00     0.136 A 
HETATM    3  C3  UNL     1     -33.487   6.481   5.561  1.00 20.00     0.149 A 
HETATM    4  C4  UNL     1     -33.512   6.122   4.231  1.00 20.00     0.122 A 
HETATM    5  N7  UNL     1     -34.328   5.937   6.463  1.00 20.00    -0.269 NA
HETATM    6  N8  UNL     1     -34.380   5.206   3.755  1.00 20.00    -0.256 NA
ENDROOT
BRANCH   4   7
HETATM    7  C6  UNL     1     -32.568   6.744   3.263  1.00 20.00     0.285 C 
HETATM    8  C5  UNL     1     -31.489   7.568   3.962  1.00 20.00     0.097 C 
HETATM    9  F9  UNL     1     -33.187   7.578   2.365  1.00 20.00    -0.200 F 
HETATM   10  F10 UNL     1     -31.921   5.825   2.475  1.00 20.00    -0.200 F 
ENDBRANCH   4   7
TORSDOF 1
ENDMDL
MODEL 3
REMARK VINA RESULT:      -4.2     11.411     12.039
REMARK  1 active torsions:
REMARK  status: ('A' for Active; 'I' for Inactive)
REMARK    1  A    between atoms: C4_4  and  C6_6 
ROOT
HETATM    1  C1  UNL     1     -34.915  13.224  -4.556  1.00 20.00     0.135 A 
HETATM    2  C2  UNL     1     -36.001  14.018  -4.257  1.00 20.00     0.136 A 
HETATM    3  C3  UNL     1     -33.607  14.489  -3.172  1.00 20.00     0.149 A 
HETATM    4  C4  UNL     1     -34.693  15.283  -2.873  1.00 20.00     0.122 A 
HETATM    5  N7  UNL     1     -33.699  13.445  -4.019  1.00 20.00    -0.269 NA
HETATM    6  N8  UNL     1     -35.909  15.061  -3.409  1.00 20.00    -0.256 NA
ENDROOT
BRANCH   4   7
HETATM    7  C6  UNL     1     -34.554  16.429  -1.932  1.00 20.00     0.285 C 
HETATM    8  C5  UNL     1     -35.532  17.557  -2.254  1.00 20.00     0.097 C 
HETATM    9  F9  UNL     1     -33.296  16.980  -1.936  1.00 20.00    -0.200 F 
HETATM   10  F10 UNL     1     -34.764  16.079  -0.623  1.00 20.00    -0.200 F 
ENDBRANCH   4   7
TORSDOF 1
ENDMDL
MODEL 4
REMARK VINA RESULT:      -4.0     12.167     13.226
REMARK  1 active torsions:
REMARK  status: ('A' for Active; 'I' for Inactive)
REMARK    1  A    between atoms: C4_4  and  C6_6 
ROOT
HETATM    1  C1  UNL     1     -34.984  15.385  -7.532  1.00 20.00     0.135 A 
HETATM    2  C2  UNL     1     -34.224  16.311  -6.851  1.00 20.00     0.136 A 
HETATM    3  C3  UNL     1     -34.911  13.991  -5.722  1.00 20.00     0.149 A 
HETATM    4  C4  UNL     1     -34.150  14.916  -5.041  1.00 20.00     0.122 A 
HETATM    5  N7  UNL     1     -35.342  14.209  -6.980  1.00 20.00    -0.269 NA
HETATM    6  N8  UNL     1     -33.793  16.093  -5.593  1.00 20.00    -0.256 NA
ENDROOT
BRANCH   4   7
HETATM    7  C6  UNL     1     -33.690  14.640  -3.651  1.00 20.00     0.285 C 
HETATM    8  C5  UNL     1     -34.073  15.762  -2.688  1.00 20.00     0.097 C 
HETATM    9  F9  UNL     1     -32.330  14.479  -3.555  1.00 20.00    -0.200 F 
HETATM   10  F10 UNL     1     -34.204  13.477  -3.135  1.00 20.00    -0.200 F 
ENDBRANCH   4   7
TORSDOF 1
ENDMDL
MODEL 5
REMARK VINA RESULT:      -4.0     12.210     13.335
REMARK  1 active torsions:
REMARK  status: ('A' for Active; 'I' for Inactive)
REMARK    1  A    between atoms: C4_4  and  C6_6 
ROOT
HETATM    1  C1  UNL     1     -34.946  15.548  -7.521  1.00 20.00     0.135 A 
HETATM    2  C2  UNL     1     -35.256  14.338  -6.938  1.00 20.00     0.136 A 
HETATM    3  C3  UNL     1     -33.827  16.175  -5.628  1.00 20.00     0.149 A 
HETATM    4  C4  UNL     1     -34.137  14.965  -5.045  1.00 20.00     0.122 A 
HETATM    5  N7  UNL     1     -34.227  16.488  -6.877  1.00 20.00    -0.269 NA
HETATM    6  N8  UNL     1     -34.856  14.025  -5.690  1.00 20.00    -0.256 NA
ENDROOT
BRANCH   4   7
HETATM    7  C6  UNL     1     -33.679  14.654  -3.663  1.00 20.00     0.285 C 
HETATM    8  C5  UNL     1     -34.038  15.764  -2.677  1.00 20.00     0.097 C 
HETATM    9  F9  UNL     1     -32.322  14.465  -3.574  1.00 20.00    -0.200 F 
HETATM   10  F10 UNL     1     -34.214  13.492  -3.168  1.00 20.00    -0.200 F 
ENDBRANCH   4   7
TORSDOF 1
ENDMDL
MODEL 6
REMARK VINA RESULT:      -3.9     12.464     13.613
REMARK  1 active torsions:
REMARK  status: ('A' for Active; 'I' for Inactive)
REMARK    1  A    between atoms: C4_4  and  C6_6 
ROOT
HETATM    1  C1  UNL     1     -33.929  17.857  -6.290  1.00 20.00     0.135 A 
HETATM    2  C2  UNL     1     -33.508  17.892  -4.978  1.00 20.00     0.136 A 
HETATM    3  C3  UNL     1     -34.274  15.603  -6.119  1.00 20.00     0.149 A 
HETATM    4  C4  UNL     1     -33.853  15.638  -4.808  1.00 20.00     0.122 A 
HETATM    5  N7  UNL     1     -34.319  16.712  -6.884  1.00 20.00    -0.269 NA
HETATM    6  N8  UNL     1     -33.463  16.784  -4.213  1.00 20.00    -0.256 NA
ENDROOT
BRANCH   4   7
HETATM    7  C6  UNL     1     -33.815  14.392  -3.993  1.00 20.00     0.285 C 
HETATM    8  C5  UNL     1     -34.506  13.226  -4.696  1.00 20.00     0.097 C 
HETATM    9  F9  UNL     1     -34.417  14.532  -2.767  1.00 20.00    -0.200 F 
HETATM   10  F10 UNL     1     -32.540  13.981  -3.696  1.00 20.00    -0.200 F 
ENDBRANCH   4   7
TORSDOF 1
ENDMDL
MODEL 7
REMARK VINA RESULT:      -3.9      2.255      3.927
REMARK  1 active torsions:
REMARK  status: ('A' for Active; 'I' for Inactive)
REMARK    1  A    between atoms: C4_4  and  C6_6 
ROOT
HETATM    1  C1  UNL     1     -31.942   7.226   3.313  1.00 20.00     0.135 A 
HETATM    2  C2  UNL     1     -32.573   6.338   2.470  1.00 20.00     0.136 A 
HETATM    3  C3  UNL     1     -33.319   6.586   5.022  1.00 20.00     0.149 A 
HETATM    4  C4  UNL     1     -33.951   5.698   4.180  1.00 20.00     0.122 A 
HETATM    5  N7  UNL     1     -32.303   7.366   4.604  1.00 20.00    -0.269 NA
HETATM    6  N8  UNL     1     -33.589   5.557   2.889  1.00 20.00    -0.256 NA
ENDROOT
BRANCH   4   7
HETATM    7  C6  UNL     1     -35.071   4.852   4.677  1.00 20.00     0.285 C 
HETATM    8  C5  UNL     1     -35.164   4.861   6.201  1.00 20.00     0.097 C 
HETATM    9  F9  UNL     1     -34.966   3.539   4.292  1.00 20.00    -0.200 F 
HETATM   10  F10 UNL     1     -36.296   5.246   4.199  1.00 20.00    -0.200 F 
ENDBRANCH   4   7
TORSDOF 1
ENDMDL
MODEL 8
REMARK VINA RESULT:      -3.9     12.295     13.313
REMARK  1 active torsions:
REMARK  status: ('A' for Active; 'I' for Inactive)
REMARK    1  A    between atoms: C4_4  and  C6_6 
ROOT
HETATM    1  C1  UNL     1     -33.008  14.271  -3.550  1.00 20.00     0.135 A 
HETATM    2  C2  UNL     1     -33.112  15.512  -4.140  1.00 20.00     0.136 A 
HETATM    3  C3  UNL     1     -34.513  13.429  -5.051  1.00 20.00     0.149 A 
HETATM    4  C4  UNL     1     -34.618  14.670  -5.642  1.00 20.00     0.122 A 
HETATM    5  N7  UNL     1     -33.707  13.208  -3.994  1.00 20.00    -0.269 NA
HETATM    6  N8  UNL     1     -33.918  15.733  -5.197  1.00 20.00    -0.256 NA
ENDROOT
BRANCH   4   7
HETATM    7  C6  UNL     1     -35.519  14.878  -6.808  1.00 20.00     0.285 C 
HETATM    8  C5  UNL     1     -35.229  16.192  -7.531  1.00 20.00     0.097 C 
HETATM    9  F9  UNL     1     -36.849  14.898  -6.464  1.00 20.00    -0.200 F 
HETATM   10  F10 UNL     1     -35.429  13.879  -7.744  1.00 20.00    -0.200 F 
ENDBRANCH   4   7
TORSDOF 1
ENDMDL
MODEL 9
REMARK VINA RESULT:      -3.8     12.308     13.357
REMARK  1 active torsions:
REMARK  status: ('A' for Active; 'I' for Inactive)
REMARK    1  A    between atoms: C4_4  and  C6_6 
ROOT
HETATM    1  C1  UNL     1     -33.262  16.479  -5.170  1.00 20.00     0.135 A 
HETATM    2  C2  UNL     1     -33.293  15.463  -4.239  1.00 20.00     0.136 A 
HETATM    3  C3  UNL     1     -33.840  17.984  -3.549  1.00 20.00     0.149 A 
HETATM    4  C4  UNL     1     -33.872  16.969  -2.617  1.00 20.00     0.122 A 
HETATM    5  N7  UNL     1     -33.535  17.757  -4.841  1.00 20.00    -0.269 NA
HETATM    6  N8  UNL     1     -33.598  15.690  -2.946  1.00 20.00    -0.256 NA
ENDROOT
BRANCH   4   7
HETATM    7  C6  UNL     1     -34.214  17.257  -1.197  1.00 20.00     0.285 C 
HETATM    8  C5  UNL     1     -35.264  18.359  -1.072  1.00 20.00     0.097 C 
HETATM    9  F9  UNL     1     -33.131  17.652  -0.452  1.00 20.00    -0.200 F 
HETATM   10  F10 UNL     1     -34.701  16.163  -0.528  1.00 20.00    -0.200 F 
ENDBRANCH   4   7
TORSDOF 1
ENDMDL
