MODEL 1
REMARK VINA RESULT:      -5.2      0.000      0.000
REMARK  0 active torsions:
REMARK  status: ('A' for Active; 'I' for Inactive)
ROOT
HETATM    1  C1  UNL     1     -34.620  13.884  -4.259  1.00 20.00     0.097 C 
HETATM    2  C2  UNL     1     -34.392  18.561  -1.760  1.00 20.00     0.008 C 
HETATM    3  C3  UNL     1     -34.012  18.687  -3.041  1.00 20.00     0.029 C 
HETATM    4  C4  UNL     1     -34.939  16.192  -1.923  1.00 20.00    -0.004 C 
HETATM    5  C5  UNL     1     -33.291  15.802  -4.961  1.00 20.00     0.136 C 
HETATM    6  C6  UNL     1     -34.250  15.247  -4.210  1.00 20.00     0.053 C 
HETATM    7  C7  UNL     1     -34.708  17.272  -1.148  1.00 20.00    -0.065 C 
HETATM    8  C8  UNL     1     -33.956  17.420  -3.793  1.00 20.00     0.047 C 
HETATM    9  C9  UNL     1     -34.926  16.309  -3.413  1.00 20.00     0.106 C 
HETATM   10  C10 UNL     1     -34.772  17.229   0.347  1.00 20.00     0.048 C 
HETATM   11  N11 UNL     1     -34.925  12.765  -4.299  1.00 20.00    -0.192 NA
HETATM   12  N12 UNL     1     -33.105  17.141  -4.733  1.00 20.00    -0.263 NA
ENDROOT
TORSDOF 0
ENDMDL
MODEL 2
REMARK VINA RESULT:      -4.9      2.205      4.654
REMARK  0 active torsions:
REMARK  status: ('A' for Active; 'I' for Inactive)
ROOT
HETATM    1  C1  UNL     1     -34.600  15.763  -2.210  1.00 20.00     0.097 C 
HETATM    2  C2  UNL     1     -35.040  15.316  -7.481  1.00 20.00     0.008 C 
HETATM    3  C3  UNL     1     -35.106  14.111  -6.893  1.00 20.00     0.029 C 
HETATM    4  C4  UNL     1     -34.888  16.569  -5.396  1.00 20.00    -0.004 C 
HETATM    5  C5  UNL     1     -34.161  13.744  -3.502  1.00 20.00     0.136 C 
HETATM    6  C6  UNL     1     -34.650  14.984  -3.388  1.00 20.00     0.053 C 
HETATM    7  C7  UNL     1     -34.770  16.546  -6.740  1.00 20.00    -0.065 C 
HETATM    8  C8  UNL     1     -34.902  14.126  -5.433  1.00 20.00     0.047 C 
HETATM    9  C9  UNL     1     -35.346  15.355  -4.653  1.00 20.00     0.106 C 
HETATM   10  C10 UNL     1     -34.378  17.747  -7.543  1.00 20.00     0.048 C 
HETATM   11  N11 UNL     1     -34.559  16.402  -1.243  1.00 20.00    -0.192 NA
HETATM   12  N12 UNL     1     -34.320  13.191  -4.746  1.00 20.00    -0.263 NA
ENDROOT
TORSDOF 0
ENDMDL
MODEL 3
REMARK VINA RESULT:      -4.9      1.963      4.014
REMARK  0 active torsions:
REMARK  status: ('A' for Active; 'I' for Inactive)
ROOT
HETATM    1  C1  UNL     1     -34.778  17.383  -0.230  1.00 20.00     0.097 C 
HETATM    2  C2  UNL     1     -33.812  15.304  -5.018  1.00 20.00     0.008 C 
HETATM    3  C3  UNL     1     -33.339  16.558  -4.939  1.00 20.00     0.029 C 
HETATM    4  C4  UNL     1     -34.580  15.212  -2.707  1.00 20.00    -0.004 C 
HETATM    5  C5  UNL     1     -34.325  18.651  -2.261  1.00 20.00     0.136 C 
HETATM    6  C6  UNL     1     -34.350  17.505  -1.572  1.00 20.00     0.053 C 
HETATM    7  C7  UNL     1     -34.581  14.676  -3.945  1.00 20.00    -0.065 C 
HETATM    8  C8  UNL     1     -33.642  17.251  -3.673  1.00 20.00     0.047 C 
HETATM    9  C9  UNL     1     -33.754  16.420  -2.402  1.00 20.00     0.106 C 
HETATM   10  C10 UNL     1     -35.336  13.431  -4.293  1.00 20.00     0.048 C 
HETATM   11  N11 UNL     1     -35.129  17.282   0.871  1.00 20.00    -0.192 NA
HETATM   12  N12 UNL     1     -33.878  18.522  -3.550  1.00 20.00    -0.263 NA
ENDROOT
TORSDOF 0
ENDMDL
MODEL 4
REMARK VINA RESULT:      -4.9      1.631      1.652
REMARK  0 active torsions:
REMARK  status: ('A' for Active; 'I' for Inactive)
ROOT
HETATM    1  C1  UNL     1     -33.755  14.017  -3.750  1.00 20.00     0.097 C 
HETATM    2  C2  UNL     1     -36.039  18.165  -1.349  1.00 20.00     0.008 C 
HETATM    3  C3  UNL     1     -36.574  17.963  -2.564  1.00 20.00     0.029 C 
HETATM    4  C4  UNL     1     -34.550  16.237  -1.442  1.00 20.00    -0.004 C 
HETATM    5  C5  UNL     1     -34.965  15.813  -4.869  1.00 20.00     0.136 C 
HETATM    6  C6  UNL     1     -34.609  15.144  -3.766  1.00 20.00     0.053 C 
HETATM    7  C7  UNL     1     -34.906  17.392  -0.843  1.00 20.00    -0.065 C 
HETATM    8  C8  UNL     1     -35.939  16.886  -3.345  1.00 20.00     0.047 C 
HETATM    9  C9  UNL     1     -35.340  15.705  -2.595  1.00 20.00     0.106 C 
HETATM   10  C10 UNL     1     -34.194  17.941   0.354  1.00 20.00     0.048 C 
HETATM   11  N11 UNL     1     -33.056  13.092  -3.736  1.00 20.00    -0.192 NA
HETATM   12  N12 UNL     1     -35.795  16.878  -4.635  1.00 20.00    -0.263 NA
ENDROOT
TORSDOF 0
ENDMDL
MODEL 5
REMARK VINA RESULT:      -4.8      2.165      4.130
REMARK  0 active torsions:
REMARK  status: ('A' for Active; 'I' for Inactive)
ROOT
HETATM    1  C1  UNL     1     -34.433  17.683  -7.367  1.00 20.00     0.097 C 
HETATM    2  C2  UNL     1     -34.397  14.061  -3.486  1.00 20.00     0.008 C 
HETATM    3  C3  UNL     1     -34.495  13.471  -4.687  1.00 20.00     0.029 C 
HETATM    4  C4  UNL     1     -34.213  16.326  -4.367  1.00 20.00    -0.004 C 
HETATM    5  C5  UNL     1     -35.277  15.404  -7.547  1.00 20.00     0.136 C 
HETATM    6  C6  UNL     1     -34.584  16.354  -6.909  1.00 20.00     0.053 C 
HETATM    7  C7  UNL     1     -34.415  15.512  -3.310  1.00 20.00    -0.065 C 
HETATM    8  C8  UNL     1     -34.604  14.404  -5.824  1.00 20.00     0.047 C 
HETATM    9  C9  UNL     1     -33.916  15.758  -5.718  1.00 20.00     0.106 C 
HETATM   10  C10 UNL     1     -34.652  16.024  -1.923  1.00 20.00     0.048 C 
HETATM   11  N11 UNL     1     -34.308  18.773  -7.742  1.00 20.00    -0.192 NA
HETATM   12  N12 UNL     1     -35.289  14.193  -6.907  1.00 20.00    -0.263 NA
ENDROOT
TORSDOF 0
ENDMDL
MODEL 6
REMARK VINA RESULT:      -4.8      1.812      3.558
REMARK  0 active torsions:
REMARK  status: ('A' for Active; 'I' for Inactive)
ROOT
HETATM    1  C1  UNL     1     -34.564  13.671  -4.279  1.00 20.00     0.097 C 
HETATM    2  C2  UNL     1     -33.663  18.700  -5.721  1.00 20.00     0.008 C 
HETATM    3  C3  UNL     1     -33.441  18.533  -4.408  1.00 20.00     0.029 C 
HETATM    4  C4  UNL     1     -34.178  16.357  -6.155  1.00 20.00    -0.004 C 
HETATM    5  C5  UNL     1     -34.562  15.595  -2.784  1.00 20.00     0.136 C 
HETATM    6  C6  UNL     1     -34.296  15.022  -3.964  1.00 20.00     0.053 C 
HETATM    7  C7  UNL     1     -34.190  17.639  -6.578  1.00 20.00    -0.065 C 
HETATM    8  C8  UNL     1     -33.753  17.186  -3.896  1.00 20.00     0.047 C 
HETATM    9  C9  UNL     1     -33.580  15.998  -4.833  1.00 20.00     0.106 C 
HETATM   10  C10 UNL     1     -34.715  18.049  -7.918  1.00 20.00     0.048 C 
HETATM   11  N11 UNL     1     -34.783  12.561  -4.539  1.00 20.00    -0.192 NA
HETATM   12  N12 UNL     1     -34.221  16.921  -2.715  1.00 20.00    -0.263 NA
ENDROOT
TORSDOF 0
ENDMDL
MODEL 7
REMARK VINA RESULT:      -4.7      1.922      2.581
REMARK  0 active torsions:
REMARK  status: ('A' for Active; 'I' for Inactive)
ROOT
HETATM    1  C1  UNL     1     -37.838  14.468  -4.145  1.00 20.00     0.097 C 
HETATM    2  C2  UNL     1     -33.362  16.519  -2.162  1.00 20.00     0.008 C 
HETATM    3  C3  UNL     1     -33.105  15.782  -3.254  1.00 20.00     0.029 C 
HETATM    4  C4  UNL     1     -35.781  16.241  -2.271  1.00 20.00    -0.004 C 
HETATM    5  C5  UNL     1     -35.590  13.621  -4.550  1.00 20.00     0.136 C 
HETATM    6  C6  UNL     1     -36.428  14.564  -4.106  1.00 20.00     0.053 C 
HETATM    7  C7  UNL     1     -34.694  16.623  -1.569  1.00 20.00    -0.065 C 
HETATM    8  C8  UNL     1     -34.279  15.096  -3.823  1.00 20.00     0.047 C 
HETATM    9  C9  UNL     1     -35.644  15.756  -3.679  1.00 20.00     0.106 C 
HETATM   10  C10 UNL     1     -34.775  17.176  -0.180  1.00 20.00     0.048 C 
HETATM   11  N11 UNL     1     -38.995  14.391  -4.176  1.00 20.00    -0.192 NA
HETATM   12  N12 UNL     1     -34.264  13.934  -4.401  1.00 20.00    -0.263 NA
ENDROOT
TORSDOF 0
ENDMDL
MODEL 8
REMARK VINA RESULT:      -4.5      1.897      2.862
REMARK  0 active torsions:
REMARK  status: ('A' for Active; 'I' for Inactive)
ROOT
HETATM    1  C1  UNL     1     -35.217  14.441  -6.806  1.00 20.00     0.097 C 
HETATM    2  C2  UNL     1     -35.181  16.796  -2.048  1.00 20.00     0.008 C 
HETATM    3  C3  UNL     1     -34.308  15.778  -2.082  1.00 20.00     0.029 C 
HETATM    4  C4  UNL     1     -35.856  16.586  -4.381  1.00 20.00    -0.004 C 
HETATM    5  C5  UNL     1     -34.428  13.434  -4.732  1.00 20.00     0.136 C 
HETATM    6  C6  UNL     1     -34.819  14.492  -5.450  1.00 20.00     0.053 C 
HETATM    7  C7  UNL     1     -36.081  17.108  -3.157  1.00 20.00    -0.065 C 
HETATM    8  C8  UNL     1     -34.312  15.004  -3.337  1.00 20.00     0.047 C 
HETATM    9  C9  UNL     1     -34.657  15.727  -4.632  1.00 20.00     0.106 C 
HETATM   10  C10 UNL     1     -37.227  18.025  -2.862  1.00 20.00     0.048 C 
HETATM   11  N11 UNL     1     -35.543  14.400  -7.918  1.00 20.00    -0.192 NA
HETATM   12  N12 UNL     1     -34.097  13.728  -3.435  1.00 20.00    -0.263 NA
ENDROOT
TORSDOF 0
ENDMDL
MODEL 9
REMARK VINA RESULT:      -4.5      2.331      4.096
REMARK  0 active torsions:
REMARK  status: ('A' for Active; 'I' for Inactive)
ROOT
HETATM    1  C1  UNL     1     -34.641  16.650  -1.031  1.00 20.00     0.097 C 
HETATM    2  C2  UNL     1     -36.135  14.570  -5.680  1.00 20.00     0.008 C 
HETATM    3  C3  UNL     1     -34.812  14.792  -5.661  1.00 20.00     0.029 C 
HETATM    4  C4  UNL     1     -36.512  15.287  -3.381  1.00 20.00    -0.004 C 
HETATM    5  C5  UNL     1     -33.395  16.807  -3.119  1.00 20.00     0.136 C 
HETATM    6  C6  UNL     1     -34.372  16.284  -2.369  1.00 20.00     0.053 C 
HETATM    7  C7  UNL     1     -37.023  14.966  -4.589  1.00 20.00    -0.065 C 
HETATM    8  C8  UNL     1     -34.316  15.455  -4.441  1.00 20.00     0.047 C 
HETATM    9  C9  UNL     1     -35.042  15.191  -3.129  1.00 20.00     0.106 C 
HETATM   10  C10 UNL     1     -38.491  14.981  -4.881  1.00 20.00     0.048 C 
HETATM   11  N11 UNL     1     -34.862  16.950   0.068  1.00 20.00    -0.192 NA
HETATM   12  N12 UNL     1     -33.332  16.300  -4.391  1.00 20.00    -0.263 NA
ENDROOT
TORSDOF 0
ENDMDL
