MODEL 1
REMARK VINA RESULT:      -4.8      0.000      0.000
REMARK  3 active torsions:
REMARK  status: ('A' for Active; 'I' for Inactive)
REMARK    1  A    between atoms: C3_3  and  C7_7 
REMARK    2  A    between atoms: C7_7  and  C8_8 
REMARK    3  A    between atoms: C8_8  and  C9_9 
ROOT
HETATM    1  C1  UNL     1     -32.418   8.944   1.563  1.00 20.00     0.088 C 
HETATM    2  C2  UNL     1     -32.906   7.718   2.091  1.00 20.00     0.096 C 
HETATM    3  C3  UNL     1     -32.398   7.111   3.180  1.00 20.00    -0.074 C 
HETATM    4  C4  UNL     1     -31.242   7.732   3.921  1.00 20.00     0.044 C 
HETATM    5  N10 UNL     1     -32.024   9.944   1.126  1.00 20.00    -0.192 NA
ENDROOT
BRANCH   3   6
HETATM    6  C7  UNL     1     -32.893   5.791   3.735  1.00 20.00     0.034 C 
BRANCH   6   7
HETATM    7  C8  UNL     1     -34.424   5.742   3.831  1.00 20.00     0.008 C 
BRANCH   7   8
HETATM    8  C9  UNL     1     -34.936   5.393   5.241  1.00 20.00    -0.023 C 
HETATM    9  C5  UNL     1     -34.171   6.206   6.289  1.00 20.00     0.009 C 
HETATM   10  C6  UNL     1     -34.811   3.900   5.554  1.00 20.00     0.009 C 
ENDBRANCH   7   8
ENDBRANCH   6   7
ENDBRANCH   3   6
TORSDOF 3
ENDMDL
MODEL 2
REMARK VINA RESULT:      -4.7     10.602     11.484
REMARK  3 active torsions:
REMARK  status: ('A' for Active; 'I' for Inactive)
REMARK    1  A    between atoms: C3_3  and  C7_7 
REMARK    2  A    between atoms: C7_7  and  C8_8 
REMARK    3  A    between atoms: C8_8  and  C9_9 
ROOT
HETATM    1  C1  UNL     1     -34.620  13.598  -3.991  1.00 20.00     0.088 C 
HETATM    2  C2  UNL     1     -34.492  14.627  -3.019  1.00 20.00     0.096 C 
HETATM    3  C3  UNL     1     -33.846  15.788  -3.231  1.00 20.00    -0.074 C 
HETATM    4  C4  UNL     1     -33.202  16.062  -4.566  1.00 20.00     0.044 C 
HETATM    5  N10 UNL     1     -34.727  12.754  -4.780  1.00 20.00    -0.192 NA
ENDROOT
BRANCH   3   6
HETATM    6  C7  UNL     1     -33.681  16.880  -2.193  1.00 20.00     0.034 C 
BRANCH   6   7
HETATM    7  C8  UNL     1     -34.529  16.619  -0.941  1.00 20.00     0.008 C 
BRANCH   7   8
HETATM    8  C9  UNL     1     -34.615  17.834   0.001  1.00 20.00    -0.023 C 
HETATM    9  C5  UNL     1     -33.217  18.410   0.237  1.00 20.00     0.009 C 
HETATM   10  C6  UNL     1     -35.264  17.488   1.343  1.00 20.00     0.009 C 
ENDBRANCH   7   8
ENDBRANCH   6   7
ENDBRANCH   3   6
TORSDOF 3
ENDMDL
MODEL 3
REMARK VINA RESULT:      -4.5      2.709      5.216
REMARK  3 active torsions:
REMARK  status: ('A' for Active; 'I' for Inactive)
REMARK    1  A    between atoms: C3_3  and  C7_7 
REMARK    2  A    between atoms: C7_7  and  C8_8 
REMARK    3  A    between atoms: C8_8  and  C9_9 
ROOT
HETATM    1  C1  UNL     1     -34.506   5.332   5.604  1.00 20.00     0.088 C 
HETATM    2  C2  UNL     1     -33.631   6.358   5.156  1.00 20.00     0.096 C 
HETATM    3  C3  UNL     1     -33.224   6.498   3.881  1.00 20.00    -0.074 C 
HETATM    4  C4  UNL     1     -33.697   5.532   2.826  1.00 20.00     0.044 C 
HETATM    5  N10 UNL     1     -35.219   4.495   5.976  1.00 20.00    -0.192 NA
ENDROOT
BRANCH   3   6
HETATM    6  C7  UNL     1     -32.270   7.573   3.399  1.00 20.00     0.034 C 
BRANCH   6   7
HETATM    7  C8  UNL     1     -32.020   7.487   1.888  1.00 20.00     0.008 C 
BRANCH   7   8
HETATM    8  C9  UNL     1     -31.979   8.863   1.197  1.00 20.00    -0.023 C 
HETATM    9  C5  UNL     1     -32.715   9.897   2.053  1.00 20.00     0.009 C 
HETATM   10  C6  UNL     1     -32.587   8.829  -0.207  1.00 20.00     0.009 C 
ENDBRANCH   7   8
ENDBRANCH   6   7
ENDBRANCH   3   6
TORSDOF 3
ENDMDL
MODEL 4
REMARK VINA RESULT:      -4.3     10.973     12.102
REMARK  3 active torsions:
REMARK  status: ('A' for Active; 'I' for Inactive)
REMARK    1  A    between atoms: C3_3  and  C7_7 
REMARK    2  A    between atoms: C7_7  and  C8_8 
REMARK    3  A    between atoms: C8_8  and  C9_9 
ROOT
HETATM    1  C1  UNL     1     -34.054  16.822  -1.542  1.00 20.00     0.088 C 
HETATM    2  C2  UNL     1     -34.860  15.850  -2.195  1.00 20.00     0.096 C 
HETATM    3  C3  UNL     1     -34.415  15.032  -3.167  1.00 20.00    -0.074 C 
HETATM    4  C4  UNL     1     -32.982  15.111  -3.625  1.00 20.00     0.044 C 
HETATM    5  N10 UNL     1     -33.401  17.617  -1.006  1.00 20.00    -0.192 NA
ENDROOT
BRANCH   3   6
HETATM    6  C7  UNL     1     -35.274  14.012  -3.888  1.00 20.00     0.034 C 
BRANCH   6   7
HETATM    7  C8  UNL     1     -34.664  13.591  -5.231  1.00 20.00     0.008 C 
BRANCH   7   8
HETATM    8  C9  UNL     1     -35.318  14.285  -6.441  1.00 20.00    -0.023 C 
HETATM    9  C5  UNL     1     -34.297  15.188  -7.138  1.00 20.00     0.009 C 
HETATM   10  C6  UNL     1     -36.549  15.105  -6.049  1.00 20.00     0.009 C 
ENDBRANCH   7   8
ENDBRANCH   6   7
ENDBRANCH   3   6
TORSDOF 3
ENDMDL
MODEL 5
REMARK VINA RESULT:      -4.3     11.108     12.058
REMARK  3 active torsions:
REMARK  status: ('A' for Active; 'I' for Inactive)
REMARK    1  A    between atoms: C3_3  and  C7_7 
REMARK    2  A    between atoms: C7_7  and  C8_8 
REMARK    3  A    between atoms: C8_8  and  C9_9 
ROOT
HETATM    1  C1  UNL     1     -35.024  14.744  -7.038  1.00 20.00     0.088 C 
HETATM    2  C2  UNL     1     -34.189  15.154  -5.964  1.00 20.00     0.096 C 
HETATM    3  C3  UNL     1     -34.083  14.493  -4.796  1.00 20.00    -0.074 C 
HETATM    4  C4  UNL     1     -34.879  13.235  -4.565  1.00 20.00     0.044 C 
HETATM    5  N10 UNL     1     -35.706  14.415  -7.918  1.00 20.00    -0.192 NA
ENDROOT
BRANCH   3   6
HETATM    6  C7  UNL     1     -33.216  14.936  -3.635  1.00 20.00     0.034 C 
BRANCH   6   7
HETATM    7  C8  UNL     1     -33.682  16.273  -3.043  1.00 20.00     0.008 C 
BRANCH   7   8
HETATM    8  C9  UNL     1     -34.882  16.131  -2.088  1.00 20.00    -0.023 C 
HETATM    9  C5  UNL     1     -36.107  16.828  -2.685  1.00 20.00     0.009 C 
HETATM   10  C6  UNL     1     -34.591  16.699  -0.697  1.00 20.00     0.009 C 
ENDBRANCH   7   8
ENDBRANCH   6   7
ENDBRANCH   3   6
TORSDOF 3
ENDMDL
MODEL 6
REMARK VINA RESULT:      -4.3      0.957      1.164
REMARK  3 active torsions:
REMARK  status: ('A' for Active; 'I' for Inactive)
REMARK    1  A    between atoms: C3_3  and  C7_7 
REMARK    2  A    between atoms: C7_7  and  C8_8 
REMARK    3  A    between atoms: C8_8  and  C9_9 
ROOT
HETATM    1  C1  UNL     1     -31.818   8.501   1.319  1.00 20.00     0.088 C 
HETATM    2  C2  UNL     1     -32.422   8.193   2.568  1.00 20.00     0.096 C 
HETATM    3  C3  UNL     1     -32.611   6.942   3.027  1.00 20.00    -0.074 C 
HETATM    4  C4  UNL     1     -32.170   5.760   2.202  1.00 20.00     0.044 C 
HETATM    5  N10 UNL     1     -31.327   8.758   0.300  1.00 20.00    -0.192 NA
ENDROOT
BRANCH   3   6
HETATM    6  C7  UNL     1     -33.278   6.603   4.345  1.00 20.00     0.034 C 
BRANCH   6   7
HETATM    7  C8  UNL     1     -34.576   5.810   4.147  1.00 20.00     0.008 C 
BRANCH   7   8
HETATM    8  C9  UNL     1     -35.082   5.137   5.437  1.00 20.00    -0.023 C 
HETATM    9  C5  UNL     1     -34.477   5.834   6.659  1.00 20.00     0.009 C 
HETATM   10  C6  UNL     1     -34.757   3.642   5.482  1.00 20.00     0.009 C 
ENDBRANCH   7   8
ENDBRANCH   6   7
ENDBRANCH   3   6
TORSDOF 3
ENDMDL
MODEL 7
REMARK VINA RESULT:      -4.2     10.501     11.469
REMARK  3 active torsions:
REMARK  status: ('A' for Active; 'I' for Inactive)
REMARK    1  A    between atoms: C3_3  and  C7_7 
REMARK    2  A    between atoms: C7_7  and  C8_8 
REMARK    3  A    between atoms: C8_8  and  C9_9 
ROOT
HETATM    1  C1  UNL     1     -35.084  17.451   0.613  1.00 20.00     0.088 C 
HETATM    2  C2  UNL     1     -34.766  16.651  -0.517  1.00 20.00     0.096 C 
HETATM    3  C3  UNL     1     -34.003  17.068  -1.545  1.00 20.00    -0.074 C 
HETATM    4  C4  UNL     1     -33.428  18.461  -1.543  1.00 20.00     0.044 C 
HETATM    5  N10 UNL     1     -35.349  18.100   1.538  1.00 20.00    -0.192 NA
ENDROOT
BRANCH   3   6
HETATM    6  C7  UNL     1     -33.680  16.232  -2.767  1.00 20.00     0.034 C 
BRANCH   6   7
HETATM    7  C8  UNL     1     -34.831  15.292  -3.144  1.00 20.00     0.008 C 
BRANCH   7   8
HETATM    8  C9  UNL     1     -34.365  13.863  -3.485  1.00 20.00    -0.023 C 
HETATM    9  C5  UNL     1     -32.836  13.815  -3.545  1.00 20.00     0.009 C 
HETATM   10  C6  UNL     1     -34.950  13.358  -4.805  1.00 20.00     0.009 C 
ENDBRANCH   7   8
ENDBRANCH   6   7
ENDBRANCH   3   6
TORSDOF 3
ENDMDL
MODEL 8
REMARK VINA RESULT:      -4.2     10.709     12.193
REMARK  3 active torsions:
REMARK  status: ('A' for Active; 'I' for Inactive)
REMARK    1  A    between atoms: C3_3  and  C7_7 
REMARK    2  A    between atoms: C7_7  and  C8_8 
REMARK    3  A    between atoms: C8_8  and  C9_9 
ROOT
HETATM    1  C1  UNL     1     -37.179  14.950  -3.557  1.00 20.00     0.088 C 
HETATM    2  C2  UNL     1     -36.147  15.799  -3.073  1.00 20.00     0.096 C 
HETATM    3  C3  UNL     1     -34.851  15.444  -2.998  1.00 20.00    -0.074 C 
HETATM    4  C4  UNL     1     -34.416  14.072  -3.443  1.00 20.00     0.044 C 
HETATM    5  N10 UNL     1     -38.026  14.260  -3.949  1.00 20.00    -0.192 NA
ENDROOT
BRANCH   3   6
HETATM    6  C7  UNL     1     -33.748  16.333  -2.460  1.00 20.00     0.034 C 
BRANCH   6   7
HETATM    7  C8  UNL     1     -34.093  16.909  -1.080  1.00 20.00     0.008 C 
BRANCH   7   8
HETATM    8  C9  UNL     1     -33.763  18.408  -0.945  1.00 20.00    -0.023 C 
HETATM    9  C5  UNL     1     -33.483  19.006  -2.326  1.00 20.00     0.009 C 
HETATM   10  C6  UNL     1     -32.571  18.662  -0.020  1.00 20.00     0.009 C 
ENDBRANCH   7   8
ENDBRANCH   6   7
ENDBRANCH   3   6
TORSDOF 3
ENDMDL
MODEL 9
REMARK VINA RESULT:      -4.1     10.625     11.783
REMARK  3 active torsions:
REMARK  status: ('A' for Active; 'I' for Inactive)
REMARK    1  A    between atoms: C3_3  and  C7_7 
REMARK    2  A    between atoms: C7_7  and  C8_8 
REMARK    3  A    between atoms: C8_8  and  C9_9 
ROOT
HETATM    1  C1  UNL     1     -35.015  17.286  -0.717  1.00 20.00     0.088 C 
HETATM    2  C2  UNL     1     -34.440  16.237  -1.484  1.00 20.00     0.096 C 
HETATM    3  C3  UNL     1     -33.910  16.402  -2.711  1.00 20.00    -0.074 C 
HETATM    4  C4  UNL     1     -33.901  17.766  -3.352  1.00 20.00     0.044 C 
HETATM    5  N10 UNL     1     -35.486  18.139  -0.087  1.00 20.00    -0.192 NA
ENDROOT
BRANCH   3   6
HETATM    6  C7  UNL     1     -33.320  15.285  -3.547  1.00 20.00     0.034 C 
BRANCH   6   7
HETATM    7  C8  UNL     1     -34.128  13.987  -3.429  1.00 20.00     0.008 C 
BRANCH   7   8
HETATM    8  C9  UNL     1     -35.168  13.811  -4.553  1.00 20.00    -0.023 C 
HETATM    9  C5  UNL     1     -34.654  14.456  -5.842  1.00 20.00     0.009 C 
HETATM   10  C6  UNL     1     -36.529  14.405  -4.185  1.00 20.00     0.009 C 
ENDBRANCH   7   8
ENDBRANCH   6   7
ENDBRANCH   3   6
TORSDOF 3
ENDMDL
