MODEL 1
REMARK VINA RESULT:      -5.0      0.000      0.000
REMARK  4 active torsions:
REMARK  status: ('A' for Active; 'I' for Inactive)
REMARK    1  A    between atoms: C7_7  and  C9_9 
REMARK    2  A    between atoms: C9_9  and  C11_11 
REMARK    3  A    between atoms: C10_10  and  C12_12 
REMARK    4  A    between atoms: C11_11  and  C12_12 
ROOT
HETATM    1  C1  UNL     1     -35.159  13.383  -4.470  1.00 20.00     0.004 C 
HETATM    2  C2  UNL     1     -33.739  13.628  -3.972  1.00 20.00     0.008 C 
HETATM    3  C3  UNL     1     -35.991  14.403  -3.706  1.00 20.00     0.038 C 
HETATM    4  C4  UNL     1     -32.903  15.978  -4.548  1.00 20.00     0.034 C 
HETATM    5  C5  UNL     1     -33.931  16.297  -5.607  1.00 20.00     0.169 C 
HETATM    6  C6  UNL     1     -33.667  15.111  -3.571  1.00 20.00     0.022 C 
HETATM    7  C7  UNL     1     -35.100  15.643  -3.684  1.00 20.00     0.064 C 
HETATM    8  O13 UNL     1     -35.200  16.333  -4.946  1.00 20.00    -0.380 OA
ENDROOT
BRANCH   7   9
HETATM    9  C9  UNL     1     -35.484  16.623  -2.585  1.00 20.00     0.038 C 
BRANCH   9  10
HETATM   10  C11 UNL     1     -34.692  16.363  -1.304  1.00 20.00     0.003 C 
BRANCH  10  11
HETATM   11  C12 UNL     1     -33.706  17.498  -1.021  1.00 20.00    -0.000 C 
BRANCH  11  12
HETATM   12  C10 UNL     1     -33.994  18.163   0.325  1.00 20.00    -0.005 C 
HETATM   13  C8  UNL     1     -35.180  17.517   1.022  1.00 20.00     0.005 C 
ENDBRANCH  11  12
ENDBRANCH  10  11
ENDBRANCH   9  10
ENDBRANCH   7   9
TORSDOF 4
ENDMDL
MODEL 2
REMARK VINA RESULT:      -5.0      1.729      3.028
REMARK  4 active torsions:
REMARK  status: ('A' for Active; 'I' for Inactive)
REMARK    1  A    between atoms: C7_7  and  C9_9 
REMARK    2  A    between atoms: C9_9  and  C11_11 
REMARK    3  A    between atoms: C10_10  and  C12_12 
REMARK    4  A    between atoms: C11_11  and  C12_12 
ROOT
HETATM    1  C1  UNL     1     -35.552  14.652  -7.311  1.00 20.00     0.004 C 
HETATM    2  C2  UNL     1     -36.555  15.206  -6.306  1.00 20.00     0.008 C 
HETATM    3  C3  UNL     1     -34.227  15.259  -6.872  1.00 20.00     0.038 C 
HETATM    4  C4  UNL     1     -36.049  14.448  -3.914  1.00 20.00     0.034 C 
HETATM    5  C5  UNL     1     -35.128  13.303  -4.263  1.00 20.00     0.169 C 
HETATM    6  C6  UNL     1     -35.776  15.460  -5.006  1.00 20.00     0.022 C 
HETATM    7  C7  UNL     1     -34.302  15.209  -5.347  1.00 20.00     0.064 C 
HETATM    8  O13 UNL     1     -33.978  13.881  -4.891  1.00 20.00    -0.380 OA
ENDROOT
BRANCH   7   9
HETATM    9  C9  UNL     1     -33.339  16.180  -4.680  1.00 20.00     0.038 C 
BRANCH   9  10
HETATM   10  C11 UNL     1     -34.010  17.522  -4.391  1.00 20.00     0.003 C 
BRANCH  10  11
HETATM   11  C12 UNL     1     -33.852  17.917  -2.921  1.00 20.00    -0.000 C 
BRANCH  11  12
HETATM   12  C10 UNL     1     -33.668  16.688  -2.032  1.00 20.00    -0.005 C 
HETATM   13  C8  UNL     1     -34.729  16.623  -0.945  1.00 20.00     0.005 C 
ENDBRANCH  11  12
ENDBRANCH  10  11
ENDBRANCH   9  10
ENDBRANCH   7   9
TORSDOF 4
ENDMDL
MODEL 3
REMARK VINA RESULT:      -4.9      1.281      2.453
REMARK  4 active torsions:
REMARK  status: ('A' for Active; 'I' for Inactive)
REMARK    1  A    between atoms: C7_7  and  C9_9 
REMARK    2  A    between atoms: C9_9  and  C11_11 
REMARK    3  A    between atoms: C10_10  and  C12_12 
REMARK    4  A    between atoms: C11_11  and  C12_12 
ROOT
HETATM    1  C1  UNL     1     -34.087  15.451  -6.779  1.00 20.00     0.004 C 
HETATM    2  C2  UNL     1     -35.324  14.638  -6.417  1.00 20.00     0.008 C 
HETATM    3  C3  UNL     1     -34.018  16.511  -5.688  1.00 20.00     0.038 C 
HETATM    4  C4  UNL     1     -35.089  13.476  -4.148  1.00 20.00     0.034 C 
HETATM    5  C5  UNL     1     -33.589  13.598  -4.021  1.00 20.00     0.169 C 
HETATM    6  C6  UNL     1     -35.479  14.736  -4.891  1.00 20.00     0.022 C 
HETATM    7  C7  UNL     1     -34.426  15.749  -4.428  1.00 20.00     0.064 C 
HETATM    8  O13 UNL     1     -33.300  14.998  -3.932  1.00 20.00    -0.380 OA
ENDROOT
BRANCH   7   9
HETATM    9  C9  UNL     1     -34.900  16.670  -3.314  1.00 20.00     0.038 C 
BRANCH   9  10
HETATM   10  C11 UNL     1     -33.920  16.679  -2.141  1.00 20.00     0.003 C 
BRANCH  10  11
HETATM   11  C12 UNL     1     -34.656  16.609  -0.802  1.00 20.00    -0.000 C 
BRANCH  11  12
HETATM   12  C10 UNL     1     -34.243  17.756   0.120  1.00 20.00    -0.005 C 
HETATM   13  C8  UNL     1     -32.974  18.434  -0.370  1.00 20.00     0.005 C 
ENDBRANCH  11  12
ENDBRANCH  10  11
ENDBRANCH   9  10
ENDBRANCH   7   9
TORSDOF 4
ENDMDL
MODEL 4
REMARK VINA RESULT:      -4.8      1.727      2.832
REMARK  4 active torsions:
REMARK  status: ('A' for Active; 'I' for Inactive)
REMARK    1  A    between atoms: C7_7  and  C9_9 
REMARK    2  A    between atoms: C9_9  and  C11_11 
REMARK    3  A    between atoms: C10_10  and  C12_12 
REMARK    4  A    between atoms: C11_11  and  C12_12 
ROOT
HETATM    1  C1  UNL     1     -35.767  14.653  -6.635  1.00 20.00     0.004 C 
HETATM    2  C2  UNL     1     -36.086  16.086  -6.225  1.00 20.00     0.008 C 
HETATM    3  C3  UNL     1     -34.901  14.135  -5.495  1.00 20.00     0.038 C 
HETATM    4  C4  UNL     1     -37.429  16.196  -4.049  1.00 20.00     0.034 C 
HETATM    5  C5  UNL     1     -37.887  14.757  -4.029  1.00 20.00     0.169 C 
HETATM    6  C6  UNL     1     -36.060  16.117  -4.688  1.00 20.00     0.022 C 
HETATM    7  C7  UNL     1     -35.554  14.737  -4.252  1.00 20.00     0.064 C 
HETATM    8  O13 UNL     1     -36.709  13.956  -3.886  1.00 20.00    -0.380 OA
ENDROOT
BRANCH   7   9
HETATM    9  C9  UNL     1     -34.615  14.773  -3.055  1.00 20.00     0.038 C 
BRANCH   9  10
HETATM   10  C11 UNL     1     -33.599  15.908  -3.176  1.00 20.00     0.003 C 
BRANCH  10  11
HETATM   11  C12 UNL     1     -33.617  16.804  -1.936  1.00 20.00    -0.000 C 
BRANCH  11  12
HETATM   12  C10 UNL     1     -34.800  16.474  -1.028  1.00 20.00    -0.005 C 
HETATM   13  C8  UNL     1     -34.855  17.402   0.175  1.00 20.00     0.005 C 
ENDBRANCH  11  12
ENDBRANCH  10  11
ENDBRANCH   9  10
ENDBRANCH   7   9
TORSDOF 4
ENDMDL
MODEL 5
REMARK VINA RESULT:      -4.8     11.092     12.333
REMARK  4 active torsions:
REMARK  status: ('A' for Active; 'I' for Inactive)
REMARK    1  A    between atoms: C7_7  and  C9_9 
REMARK    2  A    between atoms: C9_9  and  C11_11 
REMARK    3  A    between atoms: C10_10  and  C12_12 
REMARK    4  A    between atoms: C11_11  and  C12_12 
ROOT
HETATM    1  C1  UNL     1     -34.386   6.407   6.750  1.00 20.00     0.004 C 
HETATM    2  C2  UNL     1     -34.423   4.902   6.508  1.00 20.00     0.008 C 
HETATM    3  C3  UNL     1     -33.359   6.910   5.745  1.00 20.00     0.038 C 
HETATM    4  C4  UNL     1     -35.222   4.321   4.146  1.00 20.00     0.034 C 
HETATM    5  C5  UNL     1     -35.840   5.659   3.815  1.00 20.00     0.169 C 
HETATM    6  C6  UNL     1     -34.051   4.689   5.031  1.00 20.00     0.022 C 
HETATM    7  C7  UNL     1     -33.637   6.067   4.502  1.00 20.00     0.064 C 
HETATM    8  O13 UNL     1     -34.770   6.609   3.793  1.00 20.00    -0.380 OA
ENDROOT
BRANCH   7   9
HETATM    9  C9  UNL     1     -32.458   6.032   3.541  1.00 20.00     0.038 C 
BRANCH   9  10
HETATM   10  C11 UNL     1     -31.814   7.411   3.397  1.00 20.00     0.003 C 
BRANCH  10  11
HETATM   11  C12 UNL     1     -31.831   7.883   1.942  1.00 20.00    -0.000 C 
BRANCH  11  12
HETATM   12  C10 UNL     1     -32.462   9.269   1.814  1.00 20.00    -0.005 C 
HETATM   13  C8  UNL     1     -32.528   9.718   0.363  1.00 20.00     0.005 C 
ENDBRANCH  11  12
ENDBRANCH  10  11
ENDBRANCH   9  10
ENDBRANCH   7   9
TORSDOF 4
ENDMDL
MODEL 6
REMARK VINA RESULT:      -4.7      1.336      1.996
REMARK  4 active torsions:
REMARK  status: ('A' for Active; 'I' for Inactive)
REMARK    1  A    between atoms: C7_7  and  C9_9 
REMARK    2  A    between atoms: C9_9  and  C11_11 
REMARK    3  A    between atoms: C10_10  and  C12_12 
REMARK    4  A    between atoms: C11_11  and  C12_12 
ROOT
HETATM    1  C1  UNL     1     -34.546  13.197  -4.899  1.00 20.00     0.004 C 
HETATM    2  C2  UNL     1     -34.663  14.314  -5.930  1.00 20.00     0.008 C 
HETATM    3  C3  UNL     1     -34.063  13.912  -3.644  1.00 20.00     0.038 C 
HETATM    4  C4  UNL     1     -36.397  16.074  -5.258  1.00 20.00     0.034 C 
HETATM    5  C5  UNL     1     -37.117  15.251  -4.217  1.00 20.00     0.169 C 
HETATM    6  C6  UNL     1     -34.963  15.602  -5.146  1.00 20.00     0.022 C 
HETATM    7  C7  UNL     1     -34.839  15.227  -3.664  1.00 20.00     0.064 C 
HETATM    8  O13 UNL     1     -36.174  15.007  -3.166  1.00 20.00    -0.380 OA
ENDROOT
BRANCH   7   9
HETATM    9  C9  UNL     1     -34.191  16.304  -2.806  1.00 20.00     0.038 C 
BRANCH   9  10
HETATM   10  C11 UNL     1     -34.704  16.254  -1.367  1.00 20.00     0.003 C 
BRANCH  10  11
HETATM   11  C12 UNL     1     -34.105  17.381  -0.524  1.00 20.00    -0.000 C 
BRANCH  11  12
HETATM   12  C10 UNL     1     -35.042  17.784   0.614  1.00 20.00    -0.005 C 
HETATM   13  C8  UNL     1     -34.270  18.328   1.805  1.00 20.00     0.005 C 
ENDBRANCH  11  12
ENDBRANCH  10  11
ENDBRANCH   9  10
ENDBRANCH   7   9
TORSDOF 4
ENDMDL
MODEL 7
REMARK VINA RESULT:      -4.7      1.300      2.372
REMARK  4 active torsions:
REMARK  status: ('A' for Active; 'I' for Inactive)
REMARK    1  A    between atoms: C7_7  and  C9_9 
REMARK    2  A    between atoms: C9_9  and  C11_11 
REMARK    3  A    between atoms: C10_10  and  C12_12 
REMARK    4  A    between atoms: C11_11  and  C12_12 
ROOT
HETATM    1  C1  UNL     1     -37.240  15.782  -5.093  1.00 20.00     0.004 C 
HETATM    2  C2  UNL     1     -37.061  14.836  -3.912  1.00 20.00     0.008 C 
HETATM    3  C3  UNL     1     -35.994  16.655  -5.051  1.00 20.00     0.038 C 
HETATM    4  C4  UNL     1     -34.996  13.345  -4.172  1.00 20.00     0.034 C 
HETATM    5  C5  UNL     1     -34.792  13.551  -5.654  1.00 20.00     0.169 C 
HETATM    6  C6  UNL     1     -35.545  14.676  -3.708  1.00 20.00     0.022 C 
HETATM    7  C7  UNL     1     -34.887  15.675  -4.668  1.00 20.00     0.064 C 
HETATM    8  O13 UNL     1     -34.472  14.935  -5.834  1.00 20.00    -0.380 OA
ENDROOT
BRANCH   7   9
HETATM    9  C9  UNL     1     -33.661  16.369  -4.094  1.00 20.00     0.038 C 
BRANCH   9  10
HETATM   10  C11 UNL     1     -34.050  17.429  -3.064  1.00 20.00     0.003 C 
BRANCH  10  11
HETATM   11  C12 UNL     1     -33.602  17.029  -1.658  1.00 20.00    -0.000 C 
BRANCH  11  12
HETATM   12  C10 UNL     1     -34.793  16.638  -0.784  1.00 20.00    -0.005 C 
HETATM   13  C8  UNL     1     -34.833  17.453   0.499  1.00 20.00     0.005 C 
ENDBRANCH  11  12
ENDBRANCH  10  11
ENDBRANCH   9  10
ENDBRANCH   7   9
TORSDOF 4
ENDMDL
MODEL 8
REMARK VINA RESULT:      -4.7      1.117      2.110
REMARK  4 active torsions:
REMARK  status: ('A' for Active; 'I' for Inactive)
REMARK    1  A    between atoms: C7_7  and  C9_9 
REMARK    2  A    between atoms: C9_9  and  C11_11 
REMARK    3  A    between atoms: C10_10  and  C12_12 
REMARK    4  A    between atoms: C11_11  and  C12_12 
ROOT
HETATM    1  C1  UNL     1     -37.019  16.290  -4.668  1.00 20.00     0.004 C 
HETATM    2  C2  UNL     1     -37.167  14.894  -4.075  1.00 20.00     0.008 C 
HETATM    3  C3  UNL     1     -35.813  16.867  -3.940  1.00 20.00     0.038 C 
HETATM    4  C4  UNL     1     -35.130  13.419  -4.551  1.00 20.00     0.034 C 
HETATM    5  C5  UNL     1     -34.544  14.249  -5.669  1.00 20.00     0.169 C 
HETATM    6  C6  UNL     1     -35.760  14.452  -3.642  1.00 20.00     0.022 C 
HETATM    7  C7  UNL     1     -34.859  15.678  -3.837  1.00 20.00     0.064 C 
HETATM    8  O13 UNL     1     -34.167  15.504  -5.090  1.00 20.00    -0.380 OA
ENDROOT
BRANCH   7   9
HETATM    9  C9  UNL     1     -33.814  15.857  -2.747  1.00 20.00     0.038 C 
BRANCH   9  10
HETATM   10  C11 UNL     1     -34.410  16.516  -1.504  1.00 20.00     0.003 C 
BRANCH  10  11
HETATM   11  C12 UNL     1     -33.550  17.689  -1.030  1.00 20.00    -0.000 C 
BRANCH  11  12
HETATM   12  C10 UNL     1     -33.936  18.128   0.382  1.00 20.00    -0.005 C 
HETATM   13  C8  UNL     1     -35.224  17.460   0.839  1.00 20.00     0.005 C 
ENDBRANCH  11  12
ENDBRANCH  10  11
ENDBRANCH   9  10
ENDBRANCH   7   9
TORSDOF 4
ENDMDL
MODEL 9
REMARK VINA RESULT:      -4.6      1.447      4.601
REMARK  4 active torsions:
REMARK  status: ('A' for Active; 'I' for Inactive)
REMARK    1  A    between atoms: C7_7  and  C9_9 
REMARK    2  A    between atoms: C9_9  and  C11_11 
REMARK    3  A    between atoms: C10_10  and  C12_12 
REMARK    4  A    between atoms: C11_11  and  C12_12 
ROOT
HETATM    1  C1  UNL     1     -34.260  17.811  -1.222  1.00 20.00     0.004 C 
HETATM    2  C2  UNL     1     -35.307  18.463  -2.118  1.00 20.00     0.008 C 
HETATM    3  C3  UNL     1     -34.468  16.320  -1.448  1.00 20.00     0.038 C 
HETATM    4  C4  UNL     1     -34.925  17.939  -4.594  1.00 20.00     0.034 C 
HETATM    5  C5  UNL     1     -33.493  17.472  -4.476  1.00 20.00     0.169 C 
HETATM    6  C6  UNL     1     -35.545  17.494  -3.287  1.00 20.00     0.022 C 
HETATM    7  C7  UNL     1     -34.755  16.225  -2.945  1.00 20.00     0.064 C 
HETATM    8  O13 UNL     1     -33.516  16.283  -3.680  1.00 20.00    -0.380 OA
ENDROOT
BRANCH   7   9
HETATM    9  C9  UNL     1     -35.465  14.934  -3.325  1.00 20.00     0.038 C 
BRANCH   9  10
HETATM   10  C11 UNL     1     -34.466  13.828  -3.665  1.00 20.00     0.003 C 
BRANCH  10  11
HETATM   11  C12 UNL     1     -34.686  13.297  -5.084  1.00 20.00    -0.000 C 
BRANCH  11  12
HETATM   12  C10 UNL     1     -35.406  14.325  -5.956  1.00 20.00    -0.005 C 
HETATM   13  C8  UNL     1     -34.473  14.923  -6.997  1.00 20.00     0.005 C 
ENDBRANCH  11  12
ENDBRANCH  10  11
ENDBRANCH   9  10
ENDBRANCH   7   9
TORSDOF 4
ENDMDL
