MODEL 1
REMARK VINA RESULT:      -4.8      0.000      0.000
REMARK  3 active torsions:
REMARK  status: ('A' for Active; 'I' for Inactive)
REMARK    1  A    between atoms: C6_6  and  C8_8 
REMARK    2  A    between atoms: C7_7  and  O11_11 
REMARK    3  A    between atoms: C9_9  and  C10_10 
ROOT
HETATM    1  C1  UNL     1     -34.783   3.930   5.750  1.00 20.00    -0.023 C 
HETATM    2  C2  UNL     1     -34.407   4.835   6.681  1.00 20.00     0.001 C 
HETATM    3  C6  UNL     1     -35.194   4.689   4.543  1.00 20.00     0.019 C 
HETATM    4  C7  UNL     1     -34.355   6.248   6.097  1.00 20.00     0.145 C 
HETATM    5  C10 UNL     1     -34.161   5.818   4.662  1.00 20.00     0.030 C 
ENDROOT
BRANCH   4   6
HETATM    6  O11 UNL     1     -33.229   6.952   6.580  1.00 20.00    -0.391 OA
HETATM    7  H25 UNL     1     -32.452   6.384   6.442  1.00 20.00     0.210 HD
ENDBRANCH   4   6
BRANCH   5   8
HETATM    8  C9  UNL     1     -34.317   6.560   3.323  1.00 20.00    -0.007 C 
HETATM    9  C4  UNL     1     -33.235   7.673   3.369  1.00 20.00     0.005 C 
HETATM   10  C3  UNL     1     -31.921   6.850   3.466  1.00 20.00     0.005 C 
HETATM   11  C8  UNL     1     -32.376   5.403   3.179  1.00 20.00    -0.006 C 
HETATM   12  C5  UNL     1     -33.620   5.658   2.285  1.00 20.00     0.010 C 
ENDBRANCH   5   8
TORSDOF 3
ENDMDL
MODEL 2
REMARK VINA RESULT:      -4.7     11.922     13.766
REMARK  3 active torsions:
REMARK  status: ('A' for Active; 'I' for Inactive)
REMARK    1  A    between atoms: C6_6  and  C8_8 
REMARK    2  A    between atoms: C7_7  and  O11_11 
REMARK    3  A    between atoms: C9_9  and  C10_10 
ROOT
HETATM    1  C1  UNL     1     -33.665  15.766  -3.269  1.00 20.00    -0.023 C 
HETATM    2  C2  UNL     1     -33.984  14.469  -3.060  1.00 20.00     0.001 C 
HETATM    3  C6  UNL     1     -33.325  15.906  -4.707  1.00 20.00     0.019 C 
HETATM    4  C7  UNL     1     -34.068  13.695  -4.378  1.00 20.00     0.145 C 
HETATM    5  C10 UNL     1     -34.348  14.897  -5.249  1.00 20.00     0.030 C 
ENDROOT
BRANCH   4   6
HETATM    6  O11 UNL     1     -35.162  12.801  -4.368  1.00 20.00    -0.391 OA
HETATM    7  H25 UNL     1     -35.867  13.213  -3.838  1.00 20.00     0.210 HD
ENDBRANCH   4   6
BRANCH   5   8
HETATM    8  C9  UNL     1     -34.271  15.121  -6.769  1.00 20.00    -0.007 C 
HETATM    9  C4  UNL     1     -35.478  14.329  -7.339  1.00 20.00     0.005 C 
HETATM   10  C3  UNL     1     -36.685  15.044  -6.673  1.00 20.00     0.005 C 
HETATM   11  C8  UNL     1     -36.059  16.309  -6.048  1.00 20.00    -0.006 C 
HETATM   12  C5  UNL     1     -34.846  16.534  -6.992  1.00 20.00     0.010 C 
ENDBRANCH   5   8
TORSDOF 3
ENDMDL
MODEL 3
REMARK VINA RESULT:      -4.6     11.589     13.208
REMARK  3 active torsions:
REMARK  status: ('A' for Active; 'I' for Inactive)
REMARK    1  A    between atoms: C6_6  and  C8_8 
REMARK    2  A    between atoms: C7_7  and  O11_11 
REMARK    3  A    between atoms: C9_9  and  C10_10 
ROOT
HETATM    1  C1  UNL     1     -32.888  15.004  -3.663  1.00 20.00    -0.023 C 
HETATM    2  C2  UNL     1     -33.259  13.706  -3.740  1.00 20.00     0.001 C 
HETATM    3  C6  UNL     1     -33.670  15.743  -4.686  1.00 20.00     0.019 C 
HETATM    4  C7  UNL     1     -34.450  13.520  -4.682  1.00 20.00     0.145 C 
HETATM    5  C10 UNL     1     -34.968  14.934  -4.562  1.00 20.00     0.030 C 
ENDROOT
BRANCH   4   6
HETATM    6  O11 UNL     1     -35.370  12.587  -4.153  1.00 20.00    -0.391 OA
HETATM    7  H25 UNL     1     -35.653  12.921  -3.284  1.00 20.00     0.210 HD
ENDBRANCH   4   6
BRANCH   5   8
HETATM    8  C9  UNL     1     -35.959  15.754  -5.405  1.00 20.00    -0.007 C 
HETATM    9  C4  UNL     1     -37.320  15.031  -5.216  1.00 20.00     0.005 C 
HETATM   10  C3  UNL     1     -37.556  15.167  -3.688  1.00 20.00     0.005 C 
HETATM   11  C8  UNL     1     -36.476  16.175  -3.241  1.00 20.00    -0.006 C 
HETATM   12  C5  UNL     1     -36.281  16.993  -4.546  1.00 20.00     0.010 C 
ENDBRANCH   5   8
TORSDOF 3
ENDMDL
MODEL 4
REMARK VINA RESULT:      -4.5     11.731     12.854
REMARK  3 active torsions:
REMARK  status: ('A' for Active; 'I' for Inactive)
REMARK    1  A    between atoms: C6_6  and  C8_8 
REMARK    2  A    between atoms: C7_7  and  O11_11 
REMARK    3  A    between atoms: C9_9  and  C10_10 
ROOT
HETATM    1  C1  UNL     1     -35.544  13.903  -5.003  1.00 20.00    -0.023 C 
HETATM    2  C2  UNL     1     -34.240  13.565  -4.889  1.00 20.00     0.001 C 
HETATM    3  C6  UNL     1     -35.970  14.452  -3.691  1.00 20.00     0.019 C 
HETATM    4  C7  UNL     1     -33.653  14.043  -3.559  1.00 20.00     0.145 C 
HETATM    5  C10 UNL     1     -34.652  15.155  -3.337  1.00 20.00     0.030 C 
ENDROOT
BRANCH   4   6
HETATM    6  O11 UNL     1     -32.347  14.552  -3.737  1.00 20.00    -0.391 OA
HETATM    7  H25 UNL     1     -31.761  14.062  -3.135  1.00 20.00     0.210 HD
ENDBRANCH   4   6
BRANCH   5   8
HETATM    8  C9  UNL     1     -35.032  15.979  -2.095  1.00 20.00    -0.007 C 
HETATM    9  C4  UNL     1     -33.798  16.886  -1.838  1.00 20.00     0.005 C 
HETATM   10  C3  UNL     1     -33.734  17.730  -3.140  1.00 20.00     0.005 C 
HETATM   11  C8  UNL     1     -35.073  17.419  -3.842  1.00 20.00    -0.006 C 
HETATM   12  C5  UNL     1     -35.973  17.081  -2.622  1.00 20.00     0.010 C 
ENDBRANCH   5   8
TORSDOF 3
ENDMDL
MODEL 5
REMARK VINA RESULT:      -4.5     12.131     13.778
REMARK  3 active torsions:
REMARK  status: ('A' for Active; 'I' for Inactive)
REMARK    1  A    between atoms: C6_6  and  C8_8 
REMARK    2  A    between atoms: C7_7  and  O11_11 
REMARK    3  A    between atoms: C9_9  and  C10_10 
ROOT
HETATM    1  C1  UNL     1     -34.475  13.257  -3.858  1.00 20.00    -0.023 C 
HETATM    2  C2  UNL     1     -33.350  14.003  -3.779  1.00 20.00     0.001 C 
HETATM    3  C6  UNL     1     -35.594  14.185  -4.156  1.00 20.00     0.019 C 
HETATM    4  C7  UNL     1     -33.607  15.449  -4.211  1.00 20.00     0.145 C 
HETATM    5  C10 UNL     1     -34.815  15.145  -5.065  1.00 20.00     0.030 C 
ENDROOT
BRANCH   4   6
HETATM    6  O11 UNL     1     -32.535  15.940  -4.990  1.00 20.00    -0.391 OA
HETATM    7  H25 UNL     1     -32.623  15.553  -5.878  1.00 20.00     0.210 HD
ENDBRANCH   4   6
BRANCH   5   8
HETATM    8  C9  UNL     1     -35.926  16.035  -5.649  1.00 20.00    -0.007 C 
HETATM    9  C4  UNL     1     -35.198  16.938  -6.680  1.00 20.00     0.005 C 
HETATM   10  C3  UNL     1     -34.647  15.900  -7.695  1.00 20.00     0.005 C 
HETATM   11  C8  UNL     1     -35.352  14.588  -7.292  1.00 20.00    -0.006 C 
HETATM   12  C5  UNL     1     -36.661  15.138  -6.664  1.00 20.00     0.010 C 
ENDBRANCH   5   8
TORSDOF 3
ENDMDL
MODEL 6
REMARK VINA RESULT:      -4.4     12.094     13.181
REMARK  3 active torsions:
REMARK  status: ('A' for Active; 'I' for Inactive)
REMARK    1  A    between atoms: C6_6  and  C8_8 
REMARK    2  A    between atoms: C7_7  and  O11_11 
REMARK    3  A    between atoms: C9_9  and  C10_10 
ROOT
HETATM    1  C1  UNL     1     -34.564  16.332  -1.696  1.00 20.00    -0.023 C 
HETATM    2  C2  UNL     1     -33.419  16.581  -2.370  1.00 20.00     0.001 C 
HETATM    3  C6  UNL     1     -35.677  16.429  -2.673  1.00 20.00     0.019 C 
HETATM    4  C7  UNL     1     -33.666  16.669  -3.878  1.00 20.00     0.145 C 
HETATM    5  C10 UNL     1     -34.930  15.841  -3.879  1.00 20.00     0.030 C 
ENDROOT
BRANCH   4   6
HETATM    6  O11 UNL     1     -32.631  16.030  -4.597  1.00 20.00    -0.391 OA
HETATM    7  H25 UNL     1     -33.013  15.716  -5.435  1.00 20.00     0.210 HD
ENDBRANCH   4   6
BRANCH   5   8
HETATM    8  C9  UNL     1     -36.052  15.657  -4.915  1.00 20.00    -0.007 C 
HETATM    9  C4  UNL     1     -35.353  14.988  -6.129  1.00 20.00     0.005 C 
HETATM   10  C3  UNL     1     -34.852  13.650  -5.523  1.00 20.00     0.005 C 
HETATM   11  C8  UNL     1     -35.556  13.585  -4.151  1.00 20.00    -0.006 C 
HETATM   12  C5  UNL     1     -36.835  14.418  -4.437  1.00 20.00     0.010 C 
ENDBRANCH   5   8
TORSDOF 3
ENDMDL
MODEL 7
REMARK VINA RESULT:      -4.4     11.742     13.519
REMARK  3 active torsions:
REMARK  status: ('A' for Active; 'I' for Inactive)
REMARK    1  A    between atoms: C6_6  and  C8_8 
REMARK    2  A    between atoms: C7_7  and  O11_11 
REMARK    3  A    between atoms: C9_9  and  C10_10 
ROOT
HETATM    1  C1  UNL     1     -34.933  13.448  -4.224  1.00 20.00    -0.023 C 
HETATM    2  C2  UNL     1     -33.594  13.449  -4.040  1.00 20.00     0.001 C 
HETATM    3  C6  UNL     1     -35.453  14.717  -3.656  1.00 20.00     0.019 C 
HETATM    4  C7  UNL     1     -33.103  14.799  -3.514  1.00 20.00     0.145 C 
HETATM    5  C10 UNL     1     -34.264  15.607  -4.045  1.00 20.00     0.030 C 
ENDROOT
BRANCH   4   6
HETATM    6  O11 UNL     1     -31.890  15.172  -4.134  1.00 20.00    -0.391 OA
HETATM    7  H25 UNL     1     -31.944  16.124  -4.327  1.00 20.00     0.210 HD
ENDBRANCH   4   6
BRANCH   5   8
HETATM    8  C9  UNL     1     -34.781  17.020  -3.726  1.00 20.00    -0.007 C 
HETATM    9  C4  UNL     1     -33.665  17.967  -4.244  1.00 20.00     0.005 C 
HETATM   10  C3  UNL     1     -33.643  17.650  -5.764  1.00 20.00     0.005 C 
HETATM   11  C8  UNL     1     -34.912  16.796  -5.975  1.00 20.00    -0.006 C 
HETATM   12  C5  UNL     1     -35.815  17.323  -4.828  1.00 20.00     0.010 C 
ENDBRANCH   5   8
TORSDOF 3
ENDMDL
MODEL 8
REMARK VINA RESULT:      -4.3     11.946     13.336
REMARK  3 active torsions:
REMARK  status: ('A' for Active; 'I' for Inactive)
REMARK    1  A    between atoms: C6_6  and  C8_8 
REMARK    2  A    between atoms: C7_7  and  O11_11 
REMARK    3  A    between atoms: C9_9  and  C10_10 
ROOT
HETATM    1  C1  UNL     1     -34.995  13.290  -4.463  1.00 20.00    -0.023 C 
HETATM    2  C2  UNL     1     -34.920  14.011  -5.605  1.00 20.00     0.001 C 
HETATM    3  C6  UNL     1     -34.091  13.935  -3.479  1.00 20.00     0.019 C 
HETATM    4  C7  UNL     1     -34.113  15.295  -5.402  1.00 20.00     0.145 C 
HETATM    5  C10 UNL     1     -34.336  15.387  -3.910  1.00 20.00     0.030 C 
ENDROOT
BRANCH   4   6
HETATM    6  O11 UNL     1     -34.713  16.380  -6.080  1.00 20.00    -0.391 OA
HETATM    7  H25 UNL     1     -34.213  17.180  -5.845  1.00 20.00     0.210 HD
ENDBRANCH   4   6
BRANCH   5   8
HETATM    8  C9  UNL     1     -33.636  16.192  -2.802  1.00 20.00    -0.007 C 
HETATM    9  C4  UNL     1     -33.824  17.675  -3.222  1.00 20.00     0.005 C 
HETATM   10  C3  UNL     1     -35.369  17.827  -3.209  1.00 20.00     0.005 C 
HETATM   11  C8  UNL     1     -35.857  16.534  -2.521  1.00 20.00    -0.006 C 
HETATM   12  C5  UNL     1     -34.633  16.198  -1.626  1.00 20.00     0.010 C 
ENDBRANCH   5   8
TORSDOF 3
ENDMDL
MODEL 9
REMARK VINA RESULT:      -4.3     12.088     14.116
REMARK  3 active torsions:
REMARK  status: ('A' for Active; 'I' for Inactive)
REMARK    1  A    between atoms: C6_6  and  C8_8 
REMARK    2  A    between atoms: C7_7  and  O11_11 
REMARK    3  A    between atoms: C9_9  and  C10_10 
ROOT
HETATM    1  C1  UNL     1     -34.646  18.032  -5.741  1.00 20.00    -0.023 C 
HETATM    2  C2  UNL     1     -34.401  17.208  -6.785  1.00 20.00     0.001 C 
HETATM    3  C6  UNL     1     -35.498  17.283  -4.783  1.00 20.00     0.019 C 
HETATM    4  C7  UNL     1     -34.907  15.790  -6.507  1.00 20.00     0.145 C 
HETATM    5  C10 UNL     1     -34.868  15.901  -5.001  1.00 20.00     0.030 C 
ENDROOT
BRANCH   4   6
HETATM    6  O11 UNL     1     -33.988  14.826  -6.978  1.00 20.00    -0.391 OA
HETATM    7  H25 UNL     1     -33.683  15.120  -7.853  1.00 20.00     0.210 HD
ENDBRANCH   4   6
BRANCH   5   8
HETATM    8  C9  UNL     1     -35.501  15.060  -3.879  1.00 20.00    -0.007 C 
HETATM    9  C4  UNL     1     -34.838  13.663  -4.020  1.00 20.00     0.005 C 
HETATM   10  C3  UNL     1     -33.339  13.984  -3.775  1.00 20.00     0.005 C 
HETATM   11  C8  UNL     1     -33.359  15.436  -3.250  1.00 20.00    -0.006 C 
HETATM   12  C5  UNL     1     -34.765  15.493  -2.595  1.00 20.00     0.010 C 
ENDBRANCH   5   8
TORSDOF 3
ENDMDL
