MODEL 1
REMARK VINA RESULT:      -4.0      0.000      0.000
REMARK  2 active torsions:
REMARK  status: ('A' for Active; 'I' for Inactive)
REMARK    1  A    between atoms: C1_1  and  C4_4 
REMARK    2  A    between atoms: C2_2  and  C3_3 
ROOT
HETATM    1  C1  UNL     1     -33.141   6.481   4.321  1.00 20.00     0.015 C 
HETATM    2  C3  UNL     1     -34.105   5.847   5.003  1.00 20.00     0.069 C 
HETATM    3 CL6  UNL     1     -34.437   6.093   6.671  1.00 20.00    -0.081 Cl
ENDROOT
BRANCH   2   4
HETATM    4  C2  UNL     1     -34.954   4.870   4.280  1.00 20.00     0.282 C 
HETATM    5  O5  UNL     1     -35.237   3.762   4.722  1.00 20.00    -0.301 OA
ENDBRANCH   2   4
BRANCH   1   6
HETATM    6  C4  UNL     1     -32.809   6.316   2.871  1.00 20.00     0.143 C 
HETATM    7 CL7  UNL     1     -32.098   7.818   2.242  1.00 20.00    -0.126 Cl
ENDBRANCH   1   6
TORSDOF 2
ENDMDL
MODEL 2
REMARK VINA RESULT:      -4.0      1.818      2.003
REMARK  2 active torsions:
REMARK  status: ('A' for Active; 'I' for Inactive)
REMARK    1  A    between atoms: C1_1  and  C4_4 
REMARK    2  A    between atoms: C2_2  and  C3_3 
ROOT
HETATM    1  C1  UNL     1     -33.299   6.138   3.321  1.00 20.00     0.015 C 
HETATM    2  C3  UNL     1     -34.118   5.908   4.356  1.00 20.00     0.069 C 
HETATM    3 CL6  UNL     1     -35.542   4.951   4.274  1.00 20.00    -0.081 Cl
ENDROOT
BRANCH   2   4
HETATM    4  C2  UNL     1     -33.779   6.506   5.669  1.00 20.00     0.282 C 
HETATM    5  O5  UNL     1     -34.375   6.242   6.707  1.00 20.00    -0.301 OA
ENDBRANCH   2   4
BRANCH   1   6
HETATM    6  C4  UNL     1     -32.043   6.953   3.332  1.00 20.00     0.143 C 
HETATM    7 CL7  UNL     1     -32.167   8.266   2.141  1.00 20.00    -0.126 Cl
ENDBRANCH   1   6
TORSDOF 2
ENDMDL
MODEL 3
REMARK VINA RESULT:      -3.4      1.545      3.373
REMARK  2 active torsions:
REMARK  status: ('A' for Active; 'I' for Inactive)
REMARK    1  A    between atoms: C1_1  and  C4_4 
REMARK    2  A    between atoms: C2_2  and  C3_3 
ROOT
HETATM    1  C1  UNL     1     -33.635   6.344   5.408  1.00 20.00     0.015 C 
HETATM    2  C3  UNL     1     -33.604   6.242   4.072  1.00 20.00     0.069 C 
HETATM    3 CL6  UNL     1     -32.442   7.010   3.066  1.00 20.00    -0.081 Cl
ENDROOT
BRANCH   2   4
HETATM    4  C2  UNL     1     -34.631   5.406   3.405  1.00 20.00     0.282 C 
HETATM    5  O5  UNL     1     -35.816   5.713   3.342  1.00 20.00    -0.301 OA
ENDBRANCH   2   4
BRANCH   1   6
HETATM    6  C4  UNL     1     -34.614   5.695   6.337  1.00 20.00     0.143 C 
HETATM    7 CL7  UNL     1     -34.576   3.932   6.113  1.00 20.00    -0.126 Cl
ENDBRANCH   1   6
TORSDOF 2
ENDMDL
MODEL 4
REMARK VINA RESULT:      -3.4      1.702      2.955
REMARK  2 active torsions:
REMARK  status: ('A' for Active; 'I' for Inactive)
REMARK    1  A    between atoms: C1_1  and  C4_4 
REMARK    2  A    between atoms: C2_2  and  C3_3 
ROOT
HETATM    1  C1  UNL     1     -33.803   6.339   4.985  1.00 20.00     0.015 C 
HETATM    2  C3  UNL     1     -34.352   5.490   4.104  1.00 20.00     0.069 C 
HETATM    3 CL6  UNL     1     -33.945   5.424   2.436  1.00 20.00    -0.081 Cl
ENDROOT
BRANCH   2   4
HETATM    4  C2  UNL     1     -35.373   4.533   4.591  1.00 20.00     0.282 C 
HETATM    5  O5  UNL     1     -35.098   3.445   5.087  1.00 20.00    -0.301 OA
ENDBRANCH   2   4
BRANCH   1   6
HETATM    6  C4  UNL     1     -34.108   6.438   6.447  1.00 20.00     0.143 C 
HETATM    7 CL7  UNL     1     -33.116   7.716   7.183  1.00 20.00    -0.126 Cl
ENDBRANCH   1   6
TORSDOF 2
ENDMDL
MODEL 5
REMARK VINA RESULT:      -3.4     11.923     12.253
REMARK  2 active torsions:
REMARK  status: ('A' for Active; 'I' for Inactive)
REMARK    1  A    between atoms: C1_1  and  C4_4 
REMARK    2  A    between atoms: C2_2  and  C3_3 
ROOT
HETATM    1  C1  UNL     1     -34.850  15.308  -2.916  1.00 20.00     0.015 C 
HETATM    2  C3  UNL     1     -35.549  14.527  -3.751  1.00 20.00     0.069 C 
HETATM    3 CL6  UNL     1     -34.927  13.121  -4.518  1.00 20.00    -0.081 Cl
ENDROOT
BRANCH   2   4
HETATM    4  C2  UNL     1     -36.960  14.884  -4.034  1.00 20.00     0.282 C 
HETATM    5  O5  UNL     1     -37.915  14.210  -3.666  1.00 20.00    -0.301 OA
ENDBRANCH   2   4
BRANCH   1   6
HETATM    6  C4  UNL     1     -35.337  16.536  -2.214  1.00 20.00     0.143 C 
HETATM    7 CL7  UNL     1     -34.606  16.635  -0.597  1.00 20.00    -0.126 Cl
ENDBRANCH   1   6
TORSDOF 2
ENDMDL
MODEL 6
REMARK VINA RESULT:      -3.4     12.203     12.643
REMARK  2 active torsions:
REMARK  status: ('A' for Active; 'I' for Inactive)
REMARK    1  A    between atoms: C1_1  and  C4_4 
REMARK    2  A    between atoms: C2_2  and  C3_3 
ROOT
HETATM    1  C1  UNL     1     -34.981  14.128  -3.713  1.00 20.00     0.015 C 
HETATM    2  C3  UNL     1     -34.220  15.101  -3.193  1.00 20.00     0.069 C 
HETATM    3 CL6  UNL     1     -34.635  16.021  -1.803  1.00 20.00    -0.081 Cl
ENDROOT
BRANCH   2   4
HETATM    4  C2  UNL     1     -32.926  15.408  -3.847  1.00 20.00     0.282 C 
HETATM    5  O5  UNL     1     -32.787  16.284  -4.694  1.00 20.00    -0.301 OA
ENDBRANCH   2   4
BRANCH   1   6
HETATM    6  C4  UNL     1     -34.671  13.288  -4.913  1.00 20.00     0.143 C 
HETATM    7 CL7  UNL     1     -35.185  14.135  -6.389  1.00 20.00    -0.126 Cl
ENDBRANCH   1   6
TORSDOF 2
ENDMDL
MODEL 7
REMARK VINA RESULT:      -3.4     11.744     12.806
REMARK  2 active torsions:
REMARK  status: ('A' for Active; 'I' for Inactive)
REMARK    1  A    between atoms: C1_1  and  C4_4 
REMARK    2  A    between atoms: C2_2  and  C3_3 
ROOT
HETATM    1  C1  UNL     1     -33.979  15.752  -4.752  1.00 20.00     0.015 C 
HETATM    2  C3  UNL     1     -34.354  14.637  -5.393  1.00 20.00     0.069 C 
HETATM    3 CL6  UNL     1     -35.002  14.601  -6.984  1.00 20.00    -0.081 Cl
ENDROOT
BRANCH   2   4
HETATM    4  C2  UNL     1     -34.197  13.337  -4.697  1.00 20.00     0.282 C 
HETATM    5  O5  UNL     1     -35.142  12.656  -4.314  1.00 20.00    -0.301 OA
ENDBRANCH   2   4
BRANCH   1   6
HETATM    6  C4  UNL     1     -33.402  15.846  -3.374  1.00 20.00     0.143 C 
HETATM    7 CL7  UNL     1     -34.710  15.834  -2.172  1.00 20.00    -0.126 Cl
ENDBRANCH   1   6
TORSDOF 2
ENDMDL
MODEL 8
REMARK VINA RESULT:      -3.4      1.993      3.605
REMARK  2 active torsions:
REMARK  status: ('A' for Active; 'I' for Inactive)
REMARK    1  A    between atoms: C1_1  and  C4_4 
REMARK    2  A    between atoms: C2_2  and  C3_3 
ROOT
HETATM    1  C1  UNL     1     -34.194   5.499   3.661  1.00 20.00     0.015 C 
HETATM    2  C3  UNL     1     -33.397   6.451   4.167  1.00 20.00     0.069 C 
HETATM    3 CL6  UNL     1     -31.978   7.041   3.398  1.00 20.00    -0.081 Cl
ENDROOT
BRANCH   2   4
HETATM    4  C2  UNL     1     -33.758   7.051   5.474  1.00 20.00     0.282 C 
HETATM    5  O5  UNL     1     -33.342   6.631   6.548  1.00 20.00    -0.301 OA
ENDBRANCH   2   4
BRANCH   1   6
HETATM    6  C4  UNL     1     -35.443   4.952   4.277  1.00 20.00     0.143 C 
HETATM    7 CL7  UNL     1     -35.025   3.814   5.575  1.00 20.00    -0.126 Cl
ENDBRANCH   1   6
TORSDOF 2
ENDMDL
MODEL 9
REMARK VINA RESULT:      -3.3     12.239     12.602
REMARK  2 active torsions:
REMARK  status: ('A' for Active; 'I' for Inactive)
REMARK    1  A    between atoms: C1_1  and  C4_4 
REMARK    2  A    between atoms: C2_2  and  C3_3 
ROOT
HETATM    1  C1  UNL     1     -34.757  15.673  -2.240  1.00 20.00     0.015 C 
HETATM    2  C3  UNL     1     -34.254  14.970  -3.264  1.00 20.00     0.069 C 
HETATM    3 CL6  UNL     1     -35.046  13.640  -4.011  1.00 20.00    -0.081 Cl
ENDROOT
BRANCH   2   4
HETATM    4  C2  UNL     1     -32.931  15.361  -3.806  1.00 20.00     0.282 C 
HETATM    5  O5  UNL     1     -32.784  16.181  -4.705  1.00 20.00    -0.301 OA
ENDBRANCH   2   4
BRANCH   1   6
HETATM    6  C4  UNL     1     -34.121  16.842  -1.555  1.00 20.00     0.143 C 
HETATM    7 CL7  UNL     1     -34.842  17.062   0.055  1.00 20.00    -0.126 Cl
ENDBRANCH   1   6
TORSDOF 2
ENDMDL
