MODEL 1
REMARK VINA RESULT:      -4.7      0.000      0.000
REMARK  2 active torsions:
REMARK  status: ('A' for Active; 'I' for Inactive)
REMARK    1  A    between atoms: C1_1  and  C5_5 
REMARK    2  A    between atoms: C1_1  and  C6_6 
ROOT
HETATM    1  C2  UNL     1     -34.650   5.390   6.561  1.00 20.00     0.029 C 
HETATM    2  C3  UNL     1     -33.821   6.260   5.650  1.00 20.00     0.042 C 
HETATM    3  C4  UNL     1     -34.948   4.204   5.674  1.00 20.00     0.168 C 
HETATM    4  C5  UNL     1     -34.461   6.013   4.296  1.00 20.00     0.192 C 
HETATM    5  O8  UNL     1     -35.080   4.722   4.344  1.00 20.00    -0.378 OA
ENDROOT
BRANCH   4   6
HETATM    6  C1  UNL     1     -33.464   5.957   3.187  1.00 20.00     0.169 C 
HETATM    7  O7  UNL     1     -33.681   5.278   2.184  1.00 20.00    -0.294 OA
BRANCH   6   8
HETATM    8  C6  UNL     1     -32.209   6.773   3.391  1.00 20.00     0.195 C 
HETATM    9 CL9  UNL     1     -32.051   8.005   2.131  1.00 20.00    -0.122 Cl
ENDBRANCH   6   8
ENDBRANCH   4   6
TORSDOF 2
ENDMDL
MODEL 2
REMARK VINA RESULT:      -4.0     11.803     12.620
REMARK  2 active torsions:
REMARK  status: ('A' for Active; 'I' for Inactive)
REMARK    1  A    between atoms: C1_1  and  C5_5 
REMARK    2  A    between atoms: C1_1  and  C6_6 
ROOT
HETATM    1  C2  UNL     1     -33.789  16.791  -2.685  1.00 20.00     0.029 C 
HETATM    2  C3  UNL     1     -34.732  15.637  -2.456  1.00 20.00     0.042 C 
HETATM    3  C4  UNL     1     -33.476  16.651  -4.157  1.00 20.00     0.168 C 
HETATM    4  C5  UNL     1     -34.170  14.572  -3.380  1.00 20.00     0.192 C 
HETATM    5  O8  UNL     1     -33.467  15.244  -4.431  1.00 20.00    -0.378 OA
ENDROOT
BRANCH   4   6
HETATM    6  C1  UNL     1     -35.233  13.760  -4.041  1.00 20.00     0.169 C 
HETATM    7  O7  UNL     1     -34.977  12.648  -4.501  1.00 20.00    -0.294 OA
BRANCH   6   8
HETATM    8  C6  UNL     1     -36.603  14.395  -4.100  1.00 20.00     0.195 C 
HETATM    9 CL9  UNL     1     -36.768  15.395  -5.550  1.00 20.00    -0.122 Cl
ENDBRANCH   6   8
ENDBRANCH   4   6
TORSDOF 2
ENDMDL
MODEL 3
REMARK VINA RESULT:      -3.9     11.719     12.446
REMARK  2 active torsions:
REMARK  status: ('A' for Active; 'I' for Inactive)
REMARK    1  A    between atoms: C1_1  and  C5_5 
REMARK    2  A    between atoms: C1_1  and  C6_6 
ROOT
HETATM    1  C2  UNL     1     -34.468  16.313  -2.244  1.00 20.00     0.029 C 
HETATM    2  C3  UNL     1     -35.410  15.296  -2.839  1.00 20.00     0.042 C 
HETATM    3  C4  UNL     1     -33.301  16.256  -3.202  1.00 20.00     0.168 C 
HETATM    4  C5  UNL     1     -34.455  14.244  -3.371  1.00 20.00     0.192 C 
HETATM    5  O8  UNL     1     -33.205  14.893  -3.634  1.00 20.00    -0.378 OA
ENDROOT
BRANCH   4   6
HETATM    6  C1  UNL     1     -34.903  13.660  -4.669  1.00 20.00     0.169 C 
HETATM    7  O7  UNL     1     -34.780  12.456  -4.890  1.00 20.00    -0.294 OA
BRANCH   6   8
HETATM    8  C6  UNL     1     -35.498  14.636  -5.658  1.00 20.00     0.195 C 
HETATM    9 CL9  UNL     1     -34.365  14.959  -6.978  1.00 20.00    -0.122 Cl
ENDBRANCH   6   8
ENDBRANCH   4   6
TORSDOF 2
ENDMDL
MODEL 4
REMARK VINA RESULT:      -3.9     12.014     12.811
REMARK  2 active torsions:
REMARK  status: ('A' for Active; 'I' for Inactive)
REMARK    1  A    between atoms: C1_1  and  C5_5 
REMARK    2  A    between atoms: C1_1  and  C6_6 
ROOT
HETATM    1  C2  UNL     1     -34.649  13.054  -4.768  1.00 20.00     0.029 C 
HETATM    2  C3  UNL     1     -33.818  13.873  -3.812  1.00 20.00     0.042 C 
HETATM    3  C4  UNL     1     -35.106  14.099  -5.759  1.00 20.00     0.168 C 
HETATM    4  C5  UNL     1     -34.571  15.190  -3.776  1.00 20.00     0.192 C 
HETATM    5  O8  UNL     1     -35.289  15.307  -5.010  1.00 20.00    -0.378 OA
ENDROOT
BRANCH   4   6
HETATM    6  C1  UNL     1     -33.664  16.373  -3.708  1.00 20.00     0.169 C 
HETATM    7  O7  UNL     1     -32.881  16.617  -4.625  1.00 20.00    -0.294 OA
BRANCH   6   8
HETATM    8  C6  UNL     1     -33.780  17.218  -2.460  1.00 20.00     0.195 C 
HETATM    9 CL9  UNL     1     -34.656  16.347  -1.193  1.00 20.00    -0.122 Cl
ENDBRANCH   6   8
ENDBRANCH   4   6
TORSDOF 2
ENDMDL
MODEL 5
REMARK VINA RESULT:      -3.8     11.544     12.451
REMARK  2 active torsions:
REMARK  status: ('A' for Active; 'I' for Inactive)
REMARK    1  A    between atoms: C1_1  and  C5_5 
REMARK    2  A    between atoms: C1_1  and  C6_6 
ROOT
HETATM    1  C2  UNL     1     -36.433  15.104  -5.891  1.00 20.00     0.029 C 
HETATM    2  C3  UNL     1     -34.930  14.997  -5.821  1.00 20.00     0.042 C 
HETATM    3  C4  UNL     1     -36.840  14.706  -4.491  1.00 20.00     0.168 C 
HETATM    4  C5  UNL     1     -34.734  13.808  -4.898  1.00 20.00     0.192 C 
HETATM    5  O8  UNL     1     -35.897  13.713  -4.068  1.00 20.00    -0.378 OA
ENDROOT
BRANCH   4   6
HETATM    6  C1  UNL     1     -33.575  13.978  -3.975  1.00 20.00     0.169 C 
HETATM    7  O7  UNL     1     -32.949  13.000  -3.566  1.00 20.00    -0.294 OA
BRANCH   6   8
HETATM    8  C6  UNL     1     -33.243  15.402  -3.592  1.00 20.00     0.195 C 
HETATM    9 CL9  UNL     1     -34.179  15.904  -2.176  1.00 20.00    -0.122 Cl
ENDBRANCH   6   8
ENDBRANCH   4   6
TORSDOF 2
ENDMDL
MODEL 6
REMARK VINA RESULT:      -3.8     12.061     13.426
REMARK  2 active torsions:
REMARK  status: ('A' for Active; 'I' for Inactive)
REMARK    1  A    between atoms: C1_1  and  C5_5 
REMARK    2  A    between atoms: C1_1  and  C6_6 
ROOT
HETATM    1  C2  UNL     1     -34.974  16.588  -6.846  1.00 20.00     0.029 C 
HETATM    2  C3  UNL     1     -34.007  15.568  -6.299  1.00 20.00     0.042 C 
HETATM    3  C4  UNL     1     -36.206  16.329  -6.011  1.00 20.00     0.168 C 
HETATM    4  C5  UNL     1     -34.917  14.394  -5.989  1.00 20.00     0.192 C 
HETATM    5  O8  UNL     1     -36.230  14.918  -5.760  1.00 20.00    -0.378 OA
ENDROOT
BRANCH   4   6
HETATM    6  C1  UNL     1     -34.531  13.677  -4.738  1.00 20.00     0.169 C 
HETATM    7  O7  UNL     1     -34.999  12.569  -4.481  1.00 20.00    -0.294 OA
BRANCH   6   8
HETATM    8  C6  UNL     1     -33.553  14.401  -3.842  1.00 20.00     0.195 C 
HETATM    9 CL9  UNL     1     -34.408  15.418  -2.674  1.00 20.00    -0.122 Cl
ENDBRANCH   6   8
ENDBRANCH   4   6
TORSDOF 2
ENDMDL
MODEL 7
REMARK VINA RESULT:      -3.7     11.575     12.504
REMARK  2 active torsions:
REMARK  status: ('A' for Active; 'I' for Inactive)
REMARK    1  A    between atoms: C1_1  and  C5_5 
REMARK    2  A    between atoms: C1_1  and  C6_6 
ROOT
HETATM    1  C2  UNL     1     -37.702  15.920  -4.901  1.00 20.00     0.029 C 
HETATM    2  C3  UNL     1     -36.198  15.847  -4.980  1.00 20.00     0.042 C 
HETATM    3  C4  UNL     1     -37.995  15.038  -3.710  1.00 20.00     0.168 C 
HETATM    4  C5  UNL     1     -35.920  14.416  -4.557  1.00 20.00     0.192 C 
HETATM    5  O8  UNL     1     -37.014  13.993  -3.735  1.00 20.00    -0.378 OA
ENDROOT
BRANCH   4   6
HETATM    6  C1  UNL     1     -34.694  14.289  -3.717  1.00 20.00     0.169 C 
HETATM    7  O7  UNL     1     -34.228  13.182  -3.451  1.00 20.00    -0.294 OA
BRANCH   6   8
HETATM    8  C6  UNL     1     -34.091  15.589  -3.233  1.00 20.00     0.195 C 
HETATM    9 CL9  UNL     1     -34.745  16.031  -1.650  1.00 20.00    -0.122 Cl
ENDBRANCH   6   8
ENDBRANCH   4   6
TORSDOF 2
ENDMDL
MODEL 8
REMARK VINA RESULT:      -3.7     11.872     12.476
REMARK  2 active torsions:
REMARK  status: ('A' for Active; 'I' for Inactive)
REMARK    1  A    between atoms: C1_1  and  C5_5 
REMARK    2  A    between atoms: C1_1  and  C6_6 
ROOT
HETATM    1  C2  UNL     1     -33.738  17.013  -2.330  1.00 20.00     0.029 C 
HETATM    2  C3  UNL     1     -33.370  16.121  -3.489  1.00 20.00     0.042 C 
HETATM    3  C4  UNL     1     -34.792  16.191  -1.626  1.00 20.00     0.168 C 
HETATM    4  C5  UNL     1     -34.700  15.480  -3.838  1.00 20.00     0.192 C 
HETATM    5  O8  UNL     1     -35.506  15.492  -2.654  1.00 20.00    -0.378 OA
ENDROOT
BRANCH   4   6
HETATM    6  C1  UNL     1     -34.565  14.049  -4.237  1.00 20.00     0.169 C 
HETATM    7  O7  UNL     1     -34.130  13.216  -3.443  1.00 20.00    -0.294 OA
BRANCH   6   8
HETATM    8  C6  UNL     1     -34.990  13.718  -5.649  1.00 20.00     0.195 C 
HETATM    9 CL9  UNL     1     -34.351  14.909  -6.791  1.00 20.00    -0.122 Cl
ENDBRANCH   6   8
ENDBRANCH   4   6
TORSDOF 2
ENDMDL
MODEL 9
REMARK VINA RESULT:      -3.6      1.936      2.595
REMARK  2 active torsions:
REMARK  status: ('A' for Active; 'I' for Inactive)
REMARK    1  A    between atoms: C1_1  and  C5_5 
REMARK    2  A    between atoms: C1_1  and  C6_6 
ROOT
HETATM    1  C2  UNL     1     -34.798   5.306   3.726  1.00 20.00     0.029 C 
HETATM    2  C3  UNL     1     -33.801   5.848   2.733  1.00 20.00     0.042 C 
HETATM    3  C4  UNL     1     -34.513   6.149   4.947  1.00 20.00     0.168 C 
HETATM    4  C5  UNL     1     -32.607   6.166   3.615  1.00 20.00     0.192 C 
HETATM    5  O8  UNL     1     -33.102   6.401   4.938  1.00 20.00    -0.378 OA
ENDROOT
BRANCH   4   6
HETATM    6  C1  UNL     1     -31.902   7.415   3.204  1.00 20.00     0.169 C 
HETATM    7  O7  UNL     1     -31.150   7.995   3.986  1.00 20.00    -0.294 OA
BRANCH   6   8
HETATM    8  C6  UNL     1     -32.180   7.894   1.798  1.00 20.00     0.195 C 
HETATM    9 CL9  UNL     1     -32.484   9.637   1.779  1.00 20.00    -0.122 Cl
ENDBRANCH   6   8
ENDBRANCH   4   6
TORSDOF 2
ENDMDL
