MODEL 1
REMARK VINA RESULT:      -5.0      0.000      0.000
REMARK  0 active torsions:
REMARK  status: ('A' for Active; 'I' for Inactive)
ROOT
HETATM    1  C1  UNL     1     -35.309   4.620   5.628  1.00 20.00     0.002 C 
HETATM    2  C2  UNL     1     -35.196   4.709   4.293  1.00 20.00     0.030 C 
HETATM    3  C3  UNL     1     -34.431   5.338   6.538  1.00 20.00    -0.001 C 
HETATM    4  C4  UNL     1     -33.666   6.357   6.109  1.00 20.00     0.006 C 
HETATM    5  C5  UNL     1     -32.422   6.463   2.975  1.00 20.00     0.228 C 
HETATM    6  C6  UNL     1     -34.131   5.614   3.837  1.00 20.00     0.064 C 
HETATM    7  C7  UNL     1     -33.745   6.796   4.684  1.00 20.00     0.184 C 
HETATM    8  N8  UNL     1     -32.470   7.181   4.059  1.00 20.00    -0.268 NA
HETATM    9  N9  UNL     1     -33.400   5.516   2.783  1.00 20.00    -0.244 NA
ENDROOT
TORSDOF 0
ENDMDL
MODEL 2
REMARK VINA RESULT:      -4.5      1.747      3.559
REMARK  0 active torsions:
REMARK  status: ('A' for Active; 'I' for Inactive)
ROOT
HETATM    1  C1  UNL     1     -32.605   6.992   3.720  1.00 20.00     0.002 C 
HETATM    2  C2  UNL     1     -33.143   6.993   4.951  1.00 20.00     0.030 C 
HETATM    3  C3  UNL     1     -32.914   5.971   2.733  1.00 20.00    -0.001 C 
HETATM    4  C4  UNL     1     -33.973   5.156   2.880  1.00 20.00     0.006 C 
HETATM    5  C5  UNL     1     -35.084   4.199   5.918  1.00 20.00     0.228 C 
HETATM    6  C6  UNL     1     -34.088   5.894   5.198  1.00 20.00     0.064 C 
HETATM    7  C7  UNL     1     -34.881   5.323   4.053  1.00 20.00     0.184 C 
HETATM    8  N8  UNL     1     -35.384   4.080   4.658  1.00 20.00    -0.268 NA
HETATM    9  N9  UNL     1     -34.319   5.275   6.302  1.00 20.00    -0.244 NA
ENDROOT
TORSDOF 0
ENDMDL
MODEL 3
REMARK VINA RESULT:      -4.2      9.503     10.682
REMARK  0 active torsions:
REMARK  status: ('A' for Active; 'I' for Inactive)
ROOT
HETATM    1  C1  UNL     1     -41.161   7.087  -0.904  1.00 20.00     0.002 C 
HETATM    2  C2  UNL     1     -41.730   7.048  -2.121  1.00 20.00     0.030 C 
HETATM    3  C3  UNL     1     -41.032   5.909  -0.063  1.00 20.00    -0.001 C 
HETATM    4  C4  UNL     1     -41.188   4.672  -0.567  1.00 20.00     0.006 C 
HETATM    5  C5  UNL     1     -43.288   4.037  -3.129  1.00 20.00     0.228 C 
HETATM    6  C6  UNL     1     -42.178   5.710  -2.534  1.00 20.00     0.064 C 
HETATM    7  C7  UNL     1     -41.456   4.492  -2.024  1.00 20.00     0.184 C 
HETATM    8  N8  UNL     1     -42.417   3.434  -2.374  1.00 20.00    -0.268 NA
HETATM    9  N9  UNL     1     -43.186   5.401  -3.271  1.00 20.00    -0.244 NA
ENDROOT
TORSDOF 0
ENDMDL
MODEL 4
REMARK VINA RESULT:      -4.2     11.911     13.125
REMARK  0 active torsions:
REMARK  status: ('A' for Active; 'I' for Inactive)
ROOT
HETATM    1  C1  UNL     1     -33.668  17.390  -4.255  1.00 20.00     0.002 C 
HETATM    2  C2  UNL     1     -33.611  16.565  -5.313  1.00 20.00     0.030 C 
HETATM    3  C3  UNL     1     -34.034  16.933  -2.925  1.00 20.00    -0.001 C 
HETATM    4  C4  UNL     1     -34.037  15.625  -2.614  1.00 20.00     0.006 C 
HETATM    5  C5  UNL     1     -34.758  13.246  -4.894  1.00 20.00     0.228 C 
HETATM    6  C6  UNL     1     -33.922  15.162  -5.002  1.00 20.00     0.064 C 
HETATM    7  C7  UNL     1     -33.615  14.618  -3.632  1.00 20.00     0.184 C 
HETATM    8  N8  UNL     1     -34.385  13.364  -3.654  1.00 20.00    -0.268 NA
HETATM    9  N9  UNL     1     -34.496  14.288  -5.751  1.00 20.00    -0.244 NA
ENDROOT
TORSDOF 0
ENDMDL
MODEL 5
REMARK VINA RESULT:      -4.1     12.134     13.789
REMARK  0 active torsions:
REMARK  status: ('A' for Active; 'I' for Inactive)
ROOT
HETATM    1  C1  UNL     1     -34.277  16.391  -6.843  1.00 20.00     0.002 C 
HETATM    2  C2  UNL     1     -33.905  16.425  -5.553  1.00 20.00     0.030 C 
HETATM    3  C3  UNL     1     -34.762  15.180  -7.485  1.00 20.00    -0.001 C 
HETATM    4  C4  UNL     1     -35.155  14.117  -6.762  1.00 20.00     0.006 C 
HETATM    5  C5  UNL     1     -33.760  13.366  -3.784  1.00 20.00     0.228 C 
HETATM    6  C6  UNL     1     -34.060  15.145  -4.846  1.00 20.00     0.064 C 
HETATM    7  C7  UNL     1     -35.138  14.186  -5.271  1.00 20.00     0.184 C 
HETATM    8  N8  UNL     1     -34.709  12.962  -4.576  1.00 20.00    -0.268 NA
HETATM    9  N9  UNL     1     -33.339  14.670  -3.893  1.00 20.00    -0.244 NA
ENDROOT
TORSDOF 0
ENDMDL
MODEL 6
REMARK VINA RESULT:      -4.1     11.834     13.335
REMARK  0 active torsions:
REMARK  status: ('A' for Active; 'I' for Inactive)
ROOT
HETATM    1  C1  UNL     1     -34.433  13.410  -4.817  1.00 20.00     0.002 C 
HETATM    2  C2  UNL     1     -33.987  13.845  -3.627  1.00 20.00     0.030 C 
HETATM    3  C3  UNL     1     -34.690  14.307  -5.932  1.00 20.00    -0.001 C 
HETATM    4  C4  UNL     1     -34.211  15.564  -5.940  1.00 20.00     0.006 C 
HETATM    5  C5  UNL     1     -33.796  17.337  -3.100  1.00 20.00     0.228 C 
HETATM    6  C6  UNL     1     -33.756  15.296  -3.562  1.00 20.00     0.064 C 
HETATM    7  C7  UNL     1     -33.363  16.043  -4.809  1.00 20.00     0.184 C 
HETATM    8  N8  UNL     1     -33.588  17.433  -4.381  1.00 20.00    -0.268 NA
HETATM    9  N9  UNL     1     -33.894  16.080  -2.553  1.00 20.00    -0.244 NA
ENDROOT
TORSDOF 0
ENDMDL
MODEL 7
REMARK VINA RESULT:      -4.1     11.825     12.789
REMARK  0 active torsions:
REMARK  status: ('A' for Active; 'I' for Inactive)
ROOT
HETATM    1  C1  UNL     1     -33.135  15.070  -3.719  1.00 20.00     0.002 C 
HETATM    2  C2  UNL     1     -34.018  16.081  -3.680  1.00 20.00     0.030 C 
HETATM    3  C3  UNL     1     -33.543  13.677  -3.790  1.00 20.00    -0.001 C 
HETATM    4  C4  UNL     1     -34.799  13.335  -4.129  1.00 20.00     0.006 C 
HETATM    5  C5  UNL     1     -37.449  15.278  -3.369  1.00 20.00     0.228 C 
HETATM    6  C6  UNL     1     -35.425  15.657  -3.747  1.00 20.00     0.064 C 
HETATM    7  C7  UNL     1     -35.787  14.395  -4.484  1.00 20.00     0.184 C 
HETATM    8  N8  UNL     1     -37.161  14.179  -4.003  1.00 20.00    -0.268 NA
HETATM    9  N9  UNL     1     -36.449  16.206  -3.196  1.00 20.00    -0.244 NA
ENDROOT
TORSDOF 0
ENDMDL
MODEL 8
REMARK VINA RESULT:      -4.0     12.282     13.603
REMARK  0 active torsions:
REMARK  status: ('A' for Active; 'I' for Inactive)
ROOT
HETATM    1  C1  UNL     1     -33.582  13.708  -3.725  1.00 20.00     0.002 C 
HETATM    2  C2  UNL     1     -34.476  13.415  -4.683  1.00 20.00     0.030 C 
HETATM    3  C3  UNL     1     -32.834  14.955  -3.707  1.00 20.00    -0.001 C 
HETATM    4  C4  UNL     1     -33.210  16.003  -4.460  1.00 20.00     0.006 C 
HETATM    5  C5  UNL     1     -34.726  15.607  -7.447  1.00 20.00     0.228 C 
HETATM    6  C6  UNL     1     -34.651  14.473  -5.689  1.00 20.00     0.064 C 
HETATM    7  C7  UNL     1     -34.440  15.912  -5.301  1.00 20.00     0.184 C 
HETATM    8  N8  UNL     1     -34.362  16.548  -6.625  1.00 20.00    -0.268 NA
HETATM    9  N9  UNL     1     -34.926  14.346  -6.939  1.00 20.00    -0.244 NA
ENDROOT
TORSDOF 0
ENDMDL
MODEL 9
REMARK VINA RESULT:      -4.0     11.835     13.076
REMARK  0 active torsions:
REMARK  status: ('A' for Active; 'I' for Inactive)
ROOT
HETATM    1  C1  UNL     1     -33.939  16.897  -2.771  1.00 20.00     0.002 C 
HETATM    2  C2  UNL     1     -34.371  15.680  -2.403  1.00 20.00     0.030 C 
HETATM    3  C3  UNL     1     -33.647  17.238  -4.154  1.00 20.00    -0.001 C 
HETATM    4  C4  UNL     1     -34.080  16.469  -5.168  1.00 20.00     0.006 C 
HETATM    5  C5  UNL     1     -34.437  13.129  -4.852  1.00 20.00     0.228 C 
HETATM    6  C6  UNL     1     -34.551  14.740  -3.519  1.00 20.00     0.064 C 
HETATM    7  C7  UNL     1     -34.913  15.263  -4.882  1.00 20.00     0.184 C 
HETATM    8  N8  UNL     1     -34.640  14.081  -5.715  1.00 20.00    -0.268 NA
HETATM    9  N9  UNL     1     -34.386  13.464  -3.519  1.00 20.00    -0.244 NA
ENDROOT
TORSDOF 0
ENDMDL
