MODEL 1
REMARK VINA RESULT:      -3.9      0.000      0.000
REMARK  1 active torsions:
REMARK  status: ('A' for Active; 'I' for Inactive)
REMARK    1  A    between atoms: C7_7  and  N8_8 
ROOT
HETATM    1  C1  UNL     1     -34.939  17.283   0.360  1.00 20.00     0.013 C 
HETATM    2  C2  UNL     1     -34.474  17.114  -0.733  1.00 20.00    -0.087 C 
HETATM    3  C7  UNL     1     -33.903  16.914  -2.067  1.00 20.00     0.364 C 
ENDROOT
BRANCH   3   4
HETATM    4  N8  UNL     1     -34.298  15.600  -2.611  1.00 20.00     0.100 N 
HETATM    5  C3  UNL     1     -35.548  15.756  -3.368  1.00 20.00     0.283 C 
HETATM    6  C5  UNL     1     -36.104  14.421  -3.856  1.00 20.00     0.104 C 
HETATM    7  S9  UNL     1     -34.960  13.598  -4.998  1.00 20.00    -0.166 SA
HETATM    8  C6  UNL     1     -33.478  13.671  -3.955  1.00 20.00     0.104 C 
HETATM    9  C4  UNL     1     -33.209  15.088  -3.456  1.00 20.00     0.283 C 
ENDBRANCH   3   4
TORSDOF 1
ENDMDL
MODEL 2
REMARK VINA RESULT:      -3.8     10.854     11.506
REMARK  1 active torsions:
REMARK  status: ('A' for Active; 'I' for Inactive)
REMARK    1  A    between atoms: C7_7  and  N8_8 
ROOT
HETATM    1  C1  UNL     1     -32.514   9.402   1.663  1.00 20.00     0.013 C 
HETATM    2  C2  UNL     1     -32.401   8.318   2.165  1.00 20.00    -0.087 C 
HETATM    3  C7  UNL     1     -32.257   6.993   2.774  1.00 20.00     0.364 C 
ENDROOT
BRANCH   3   4
HETATM    4  N8  UNL     1     -33.403   6.699   3.656  1.00 20.00     0.100 N 
HETATM    5  C3  UNL     1     -34.051   5.462   3.197  1.00 20.00     0.283 C 
HETATM    6  C5  UNL     1     -35.329   5.152   3.972  1.00 20.00     0.104 C 
HETATM    7  S9  UNL     1     -34.993   4.883   5.734  1.00 20.00    -0.166 SA
HETATM    8  C6  UNL     1     -34.058   6.406   6.041  1.00 20.00     0.104 C 
HETATM    9  C4  UNL     1     -32.919   6.580   5.040  1.00 20.00     0.283 C 
ENDBRANCH   3   4
TORSDOF 1
ENDMDL
MODEL 3
REMARK VINA RESULT:      -3.7      1.503      1.615
REMARK  1 active torsions:
REMARK  status: ('A' for Active; 'I' for Inactive)
REMARK    1  A    between atoms: C7_7  and  N8_8 
ROOT
HETATM    1  C1  UNL     1     -34.747  16.875  -0.600  1.00 20.00     0.013 C 
HETATM    2  C2  UNL     1     -34.184  16.526  -1.601  1.00 20.00    -0.087 C 
HETATM    3  C7  UNL     1     -33.490  16.102  -2.820  1.00 20.00     0.364 C 
ENDROOT
BRANCH   3   4
HETATM    4  N8  UNL     1     -34.437  15.486  -3.770  1.00 20.00     0.100 N 
HETATM    5  C3  UNL     1     -34.644  16.407  -4.897  1.00 20.00     0.283 C 
HETATM    6  C5  UNL     1     -35.714  15.909  -5.866  1.00 20.00     0.104 C 
HETATM    7  S9  UNL     1     -35.245  14.330  -6.625  1.00 20.00    -0.166 SA
HETATM    8  C6  UNL     1     -34.870  13.425  -5.099  1.00 20.00     0.104 C 
HETATM    9  C4  UNL     1     -33.893  14.194  -4.213  1.00 20.00     0.283 C 
ENDBRANCH   3   4
TORSDOF 1
ENDMDL
MODEL 4
REMARK VINA RESULT:      -3.5      2.311      4.066
REMARK  1 active torsions:
REMARK  status: ('A' for Active; 'I' for Inactive)
REMARK    1  A    between atoms: C7_7  and  N8_8 
ROOT
HETATM    1  C1  UNL     1     -35.172  13.237  -4.346  1.00 20.00     0.013 C 
HETATM    2  C2  UNL     1     -34.140  13.767  -4.040  1.00 20.00    -0.087 C 
HETATM    3  C7  UNL     1     -32.877  14.407  -3.666  1.00 20.00     0.364 C 
ENDROOT
BRANCH   3   4
HETATM    4  N8  UNL     1     -33.026  15.875  -3.639  1.00 20.00     0.100 N 
HETATM    5  C3  UNL     1     -33.447  16.333  -4.971  1.00 20.00     0.283 C 
HETATM    6  C5  UNL     1     -33.498  17.856  -5.074  1.00 20.00     0.104 C 
HETATM    7  S9  UNL     1     -34.711  18.563  -3.925  1.00 20.00    -0.166 SA
HETATM    8  C6  UNL     1     -34.126  17.745  -2.416  1.00 20.00     0.104 C 
HETATM    9  C4  UNL     1     -34.006  16.235  -2.604  1.00 20.00     0.283 C 
ENDBRANCH   3   4
TORSDOF 1
ENDMDL
MODEL 5
REMARK VINA RESULT:      -3.4      0.837      1.881
REMARK  1 active torsions:
REMARK  status: ('A' for Active; 'I' for Inactive)
REMARK    1  A    between atoms: C7_7  and  N8_8 
ROOT
HETATM    1  C1  UNL     1     -34.698  16.967  -0.306  1.00 20.00     0.013 C 
HETATM    2  C2  UNL     1     -34.333  17.224  -1.420  1.00 20.00    -0.087 C 
HETATM    3  C7  UNL     1     -33.886  17.543  -2.778  1.00 20.00     0.364 C 
ENDROOT
BRANCH   3   4
HETATM    4  N8  UNL     1     -34.148  16.413  -3.691  1.00 20.00     0.100 N 
HETATM    5  C3  UNL     1     -33.482  15.213  -3.164  1.00 20.00     0.283 C 
HETATM    6  C5  UNL     1     -33.588  14.023  -4.115  1.00 20.00     0.104 C 
HETATM    7  S9  UNL     1     -35.314  13.530  -4.378  1.00 20.00    -0.166 SA
HETATM    8  C6  UNL     1     -35.967  15.158  -4.838  1.00 20.00     0.104 C 
HETATM    9  C4  UNL     1     -35.601  16.223  -3.808  1.00 20.00     0.283 C 
ENDBRANCH   3   4
TORSDOF 1
ENDMDL
MODEL 6
REMARK VINA RESULT:      -3.3     10.734     11.975
REMARK  1 active torsions:
REMARK  status: ('A' for Active; 'I' for Inactive)
REMARK    1  A    between atoms: C7_7  and  N8_8 
ROOT
HETATM    1  C1  UNL     1     -41.883   9.298  -5.252  1.00 20.00     0.013 C 
HETATM    2  C2  UNL     1     -42.443   8.478  -4.577  1.00 20.00    -0.087 C 
HETATM    3  C7  UNL     1     -43.133   7.480  -3.756  1.00 20.00     0.364 C 
ENDROOT
BRANCH   3   4
HETATM    4  N8  UNL     1     -42.174   6.767  -2.890  1.00 20.00     0.100 N 
HETATM    5  C3  UNL     1     -42.069   7.482  -1.610  1.00 20.00     0.283 C 
HETATM    6  C5  UNL     1     -40.997   6.889  -0.698  1.00 20.00     0.104 C 
HETATM    7  S9  UNL     1     -41.376   5.173  -0.251  1.00 20.00    -0.166 SA
HETATM    8  C6  UNL     1     -41.637   4.534  -1.928  1.00 20.00     0.104 C 
HETATM    9  C4  UNL     1     -42.638   5.384  -2.705  1.00 20.00     0.283 C 
ENDBRANCH   3   4
TORSDOF 1
ENDMDL
MODEL 7
REMARK VINA RESULT:      -3.3      2.072      2.841
REMARK  1 active torsions:
REMARK  status: ('A' for Active; 'I' for Inactive)
REMARK    1  A    between atoms: C7_7  and  N8_8 
ROOT
HETATM    1  C1  UNL     1     -34.705  16.749  -1.222  1.00 20.00     0.013 C 
HETATM    2  C2  UNL     1     -34.573  15.885  -2.045  1.00 20.00    -0.087 C 
HETATM    3  C7  UNL     1     -34.409  14.826  -3.044  1.00 20.00     0.364 C 
ENDROOT
BRANCH   3   4
HETATM    4  N8  UNL     1     -34.781  15.314  -4.386  1.00 20.00     0.100 N 
HETATM    5  C3  UNL     1     -34.422  14.292  -5.379  1.00 20.00     0.283 C 
HETATM    6  C5  UNL     1     -34.650  14.768  -6.812  1.00 20.00     0.104 C 
HETATM    7  S9  UNL     1     -36.398  15.137  -7.124  1.00 20.00    -0.166 SA
HETATM    8  C6  UNL     1     -36.670  16.246  -5.714  1.00 20.00     0.104 C 
HETATM    9  C4  UNL     1     -36.221  15.609  -4.402  1.00 20.00     0.283 C 
ENDBRANCH   3   4
TORSDOF 1
ENDMDL
MODEL 8
REMARK VINA RESULT:      -3.3      3.339      4.769
REMARK  1 active torsions:
REMARK  status: ('A' for Active; 'I' for Inactive)
REMARK    1  A    between atoms: C7_7  and  N8_8 
ROOT
HETATM    1  C1  UNL     1     -37.767  15.489  -6.837  1.00 20.00     0.013 C 
HETATM    2  C2  UNL     1     -36.697  15.047  -7.151  1.00 20.00    -0.087 C 
HETATM    3  C7  UNL     1     -35.392  14.506  -7.542  1.00 20.00     0.364 C 
ENDROOT
BRANCH   3   4
HETATM    4  N8  UNL     1     -34.422  14.639  -6.438  1.00 20.00     0.100 N 
HETATM    5  C3  UNL     1     -34.313  16.059  -6.071  1.00 20.00     0.283 C 
HETATM    6  C5  UNL     1     -33.231  16.308  -5.024  1.00 20.00     0.104 C 
HETATM    7  S9  UNL     1     -33.592  15.444  -3.470  1.00 20.00    -0.166 SA
HETATM    8  C6  UNL     1     -33.861  13.791  -4.165  1.00 20.00     0.104 C 
HETATM    9  C4  UNL     1     -34.874  13.817  -5.306  1.00 20.00     0.283 C 
ENDBRANCH   3   4
TORSDOF 1
ENDMDL
MODEL 9
REMARK VINA RESULT:      -3.3      2.763      4.608
REMARK  1 active torsions:
REMARK  status: ('A' for Active; 'I' for Inactive)
REMARK    1  A    between atoms: C7_7  and  N8_8 
ROOT
HETATM    1  C1  UNL     1     -35.218  14.710  -7.810  1.00 20.00     0.013 C 
HETATM    2  C2  UNL     1     -34.843  14.514  -6.686  1.00 20.00    -0.087 C 
HETATM    3  C7  UNL     1     -34.385  14.268  -5.317  1.00 20.00     0.364 C 
ENDROOT
BRANCH   3   4
HETATM    4  N8  UNL     1     -34.626  15.451  -4.468  1.00 20.00     0.100 N 
HETATM    5  C3  UNL     1     -34.625  15.032  -3.059  1.00 20.00     0.283 C 
HETATM    6  C5  UNL     1     -34.999  16.170  -2.113  1.00 20.00     0.104 C 
HETATM    7  S9  UNL     1     -33.805  17.533  -2.201  1.00 20.00    -0.166 SA
HETATM    8  C6  UNL     1     -33.829  17.764  -4.000  1.00 20.00     0.104 C 
HETATM    9  C4  UNL     1     -33.583  16.451  -4.740  1.00 20.00     0.283 C 
ENDBRANCH   3   4
TORSDOF 1
ENDMDL
