MODEL 1
REMARK VINA RESULT:      -4.0      0.000      0.000
REMARK  2 active torsions:
REMARK  status: ('A' for Active; 'I' for Inactive)
REMARK    1  A    between atoms: C5_5  and  C6_6 
REMARK    2  A    between atoms: C6_6  and  N7_7 
ROOT
HETATM    1  C1  UNL     1     -32.051   8.419   1.991  1.00 20.00     0.012 C 
HETATM    2  C2  UNL     1     -32.272   7.407   2.598  1.00 20.00    -0.116 C 
HETATM    3  C5  UNL     1     -32.537   6.165   3.342  1.00 20.00     0.123 C 
ENDROOT
BRANCH   3   4
HETATM    4  C6  UNL     1     -33.955   6.128   3.902  1.00 20.00     0.283 C 
BRANCH   4   5
HETATM    5  N7  UNL     1     -33.990   5.431   5.187  1.00 20.00     0.080 N 
HETATM    6  C3  UNL     1     -35.089   4.466   5.215  1.00 20.00     0.309 C 
HETATM    7  C4  UNL     1     -34.123   6.388   6.285  1.00 20.00     0.309 C 
ENDBRANCH   4   5
ENDBRANCH   3   4
TORSDOF 2
ENDMDL
MODEL 2
REMARK VINA RESULT:      -3.5      1.427      4.094
REMARK  2 active torsions:
REMARK  status: ('A' for Active; 'I' for Inactive)
REMARK    1  A    between atoms: C5_5  and  C6_6 
REMARK    2  A    between atoms: C6_6  and  N7_7 
ROOT
HETATM    1  C1  UNL     1     -35.131   4.270   6.004  1.00 20.00     0.012 C 
HETATM    2  C2  UNL     1     -34.853   4.838   4.984  1.00 20.00    -0.116 C 
HETATM    3  C5  UNL     1     -34.516   5.532   3.731  1.00 20.00     0.123 C 
ENDROOT
BRANCH   3   4
HETATM    4  C6  UNL     1     -33.813   6.861   3.986  1.00 20.00     0.283 C 
BRANCH   4   5
HETATM    5  N7  UNL     1     -32.437   6.826   3.492  1.00 20.00     0.080 N 
HETATM    6  C3  UNL     1     -32.225   7.878   2.498  1.00 20.00     0.309 C 
HETATM    7  C4  UNL     1     -32.132   5.515   2.920  1.00 20.00     0.309 C 
ENDBRANCH   4   5
ENDBRANCH   3   4
TORSDOF 2
ENDMDL
MODEL 3
REMARK VINA RESULT:      -3.5     11.112     11.661
REMARK  2 active torsions:
REMARK  status: ('A' for Active; 'I' for Inactive)
REMARK    1  A    between atoms: C5_5  and  C6_6 
REMARK    2  A    between atoms: C6_6  and  N7_7 
ROOT
HETATM    1  C1  UNL     1     -34.810  17.094  -0.070  1.00 20.00     0.012 C 
HETATM    2  C2  UNL     1     -34.461  16.684  -1.142  1.00 20.00    -0.116 C 
HETATM    3  C5  UNL     1     -34.029  16.183  -2.457  1.00 20.00     0.123 C 
ENDROOT
BRANCH   3   4
HETATM    4  C6  UNL     1     -35.040  15.211  -3.057  1.00 20.00     0.283 C 
BRANCH   4   5
HETATM    5  N7  UNL     1     -34.398  13.947  -3.416  1.00 20.00     0.080 N 
HETATM    6  C3  UNL     1     -32.972  14.153  -3.671  1.00 20.00     0.309 C 
HETATM    7  C4  UNL     1     -35.046  13.358  -4.587  1.00 20.00     0.309 C 
ENDBRANCH   4   5
ENDBRANCH   3   4
TORSDOF 2
ENDMDL
MODEL 4
REMARK VINA RESULT:      -3.3     11.297     11.910
REMARK  2 active torsions:
REMARK  status: ('A' for Active; 'I' for Inactive)
REMARK    1  A    between atoms: C5_5  and  C6_6 
REMARK    2  A    between atoms: C6_6  and  N7_7 
ROOT
HETATM    1  C1  UNL     1     -34.707  16.719  -0.684  1.00 20.00     0.012 C 
HETATM    2  C2  UNL     1     -34.234  16.390  -1.737  1.00 20.00    -0.116 C 
HETATM    3  C5  UNL     1     -33.650  15.985  -3.026  1.00 20.00     0.123 C 
ENDROOT
BRANCH   3   4
HETATM    4  C6  UNL     1     -34.722  15.661  -4.061  1.00 20.00     0.283 C 
BRANCH   4   5
HETATM    5  N7  UNL     1     -35.468  14.462  -3.680  1.00 20.00     0.080 N 
HETATM    6  C3  UNL     1     -34.985  13.301  -4.428  1.00 20.00     0.309 C 
HETATM    7  C4  UNL     1     -36.900  14.656  -3.908  1.00 20.00     0.309 C 
ENDBRANCH   4   5
ENDBRANCH   3   4
TORSDOF 2
ENDMDL
MODEL 5
REMARK VINA RESULT:      -3.3     11.136     11.702
REMARK  2 active torsions:
REMARK  status: ('A' for Active; 'I' for Inactive)
REMARK    1  A    between atoms: C5_5  and  C6_6 
REMARK    2  A    between atoms: C6_6  and  N7_7 
ROOT
HETATM    1  C1  UNL     1     -34.809  17.075  -0.049  1.00 20.00     0.012 C 
HETATM    2  C2  UNL     1     -34.444  16.700  -1.129  1.00 20.00    -0.116 C 
HETATM    3  C5  UNL     1     -33.991  16.243  -2.453  1.00 20.00     0.123 C 
ENDROOT
BRANCH   3   4
HETATM    4  C6  UNL     1     -34.989  15.287  -3.098  1.00 20.00     0.283 C 
BRANCH   4   5
HETATM    5  N7  UNL     1     -34.332  14.445  -4.097  1.00 20.00     0.080 N 
HETATM    6  C3  UNL     1     -35.181  13.303  -4.439  1.00 20.00     0.309 C 
HETATM    7  C4  UNL     1     -33.033  13.987  -3.607  1.00 20.00     0.309 C 
ENDBRANCH   4   5
ENDBRANCH   3   4
TORSDOF 2
ENDMDL
MODEL 6
REMARK VINA RESULT:      -3.3     11.476     12.181
REMARK  2 active torsions:
REMARK  status: ('A' for Active; 'I' for Inactive)
REMARK    1  A    between atoms: C5_5  and  C6_6 
REMARK    2  A    between atoms: C6_6  and  N7_7 
ROOT
HETATM    1  C1  UNL     1     -34.784  17.008  -0.220  1.00 20.00     0.012 C 
HETATM    2  C2  UNL     1     -34.363  16.646  -1.284  1.00 20.00    -0.116 C 
HETATM    3  C5  UNL     1     -33.843  16.206  -2.588  1.00 20.00     0.123 C 
ENDROOT
BRANCH   3   4
HETATM    4  C6  UNL     1     -34.658  15.054  -3.168  1.00 20.00     0.283 C 
BRANCH   4   5
HETATM    5  N7  UNL     1     -34.026  14.524  -4.375  1.00 20.00     0.080 N 
HETATM    6  C3  UNL     1     -34.133  15.486  -5.472  1.00 20.00     0.309 C 
HETATM    7  C4  UNL     1     -34.633  13.249  -4.754  1.00 20.00     0.309 C 
ENDBRANCH   4   5
ENDBRANCH   3   4
TORSDOF 2
ENDMDL
MODEL 7
REMARK VINA RESULT:      -3.3     11.909     12.879
REMARK  2 active torsions:
REMARK  status: ('A' for Active; 'I' for Inactive)
REMARK    1  A    between atoms: C5_5  and  C6_6 
REMARK    2  A    between atoms: C6_6  and  N7_7 
ROOT
HETATM    1  C1  UNL     1     -34.670  16.926  -0.458  1.00 20.00     0.012 C 
HETATM    2  C2  UNL     1     -34.629  16.292  -1.476  1.00 20.00    -0.116 C 
HETATM    3  C5  UNL     1     -34.584  15.515  -2.725  1.00 20.00     0.123 C 
ENDROOT
BRANCH   3   4
HETATM    4  C6  UNL     1     -33.223  15.610  -3.407  1.00 20.00     0.283 C 
BRANCH   4   5
HETATM    5  N7  UNL     1     -33.370  15.983  -4.813  1.00 20.00     0.080 N 
HETATM    6  C3  UNL     1     -33.481  17.436  -4.947  1.00 20.00     0.309 C 
HETATM    7  C4  UNL     1     -34.538  15.325  -5.399  1.00 20.00     0.309 C 
ENDBRANCH   4   5
ENDBRANCH   3   4
TORSDOF 2
ENDMDL
MODEL 8
REMARK VINA RESULT:      -3.2      1.964      3.575
REMARK  2 active torsions:
REMARK  status: ('A' for Active; 'I' for Inactive)
REMARK    1  A    between atoms: C5_5  and  C6_6 
REMARK    2  A    between atoms: C6_6  and  N7_7 
ROOT
HETATM    1  C1  UNL     1     -33.642   7.084   6.646  1.00 20.00     0.012 C 
HETATM    2  C2  UNL     1     -34.232   6.057   6.454  1.00 20.00    -0.116 C 
HETATM    3  C5  UNL     1     -34.958   4.798   6.223  1.00 20.00     0.123 C 
ENDROOT
BRANCH   3   4
HETATM    4  C6  UNL     1     -34.963   4.404   4.749  1.00 20.00     0.283 C 
BRANCH   4   5
HETATM    5  N7  UNL     1     -34.874   5.587   3.894  1.00 20.00     0.080 N 
HETATM    6  C3  UNL     1     -36.176   5.883   3.295  1.00 20.00     0.309 C 
HETATM    7  C4  UNL     1     -33.866   5.391   2.853  1.00 20.00     0.309 C 
ENDBRANCH   4   5
ENDBRANCH   3   4
TORSDOF 2
ENDMDL
MODEL 9
REMARK VINA RESULT:      -3.1      9.551     10.369
REMARK  2 active torsions:
REMARK  status: ('A' for Active; 'I' for Inactive)
REMARK    1  A    between atoms: C5_5  and  C6_6 
REMARK    2  A    between atoms: C6_6  and  N7_7 
ROOT
HETATM    1  C1  UNL     1     -41.672   2.022  -3.369  1.00 20.00     0.012 C 
HETATM    2  C2  UNL     1     -41.752   3.089  -2.823  1.00 20.00    -0.116 C 
HETATM    3  C5  UNL     1     -41.854   4.397  -2.157  1.00 20.00     0.123 C 
ENDROOT
BRANCH   3   4
HETATM    4  C6  UNL     1     -40.772   4.583  -1.098  1.00 20.00     0.283 C 
BRANCH   4   5
HETATM    5  N7  UNL     1     -41.095   5.703  -0.214  1.00 20.00     0.080 N 
HETATM    6  C3  UNL     1     -42.380   5.476   0.448  1.00 20.00     0.309 C 
HETATM    7  C4  UNL     1     -41.122   6.957  -0.966  1.00 20.00     0.309 C 
ENDBRANCH   4   5
ENDBRANCH   3   4
TORSDOF 2
ENDMDL
