MODEL 1
REMARK VINA RESULT:      -4.8      0.000      0.000
REMARK  1 active torsions:
REMARK  status: ('A' for Active; 'I' for Inactive)
REMARK    1  A    between atoms: C3_3  and  C7_7 
ROOT
HETATM    1  C1  UNL     1     -34.044  16.386  -5.409  1.00 20.00    -0.025 C 
HETATM    2  C2  UNL     1     -35.329  16.097  -5.152  1.00 20.00    -0.024 C 
HETATM    3  C4  UNL     1     -33.237  14.787  -3.755  1.00 20.00     0.021 C 
HETATM    4  C5  UNL     1     -33.302  16.302  -4.090  1.00 20.00     0.017 C 
HETATM    5  C6  UNL     1     -35.434  15.810  -3.662  1.00 20.00     0.027 C 
HETATM    6  C7  UNL     1     -34.722  14.451  -3.416  1.00 20.00     0.056 C 
HETATM    7  C8  UNL     1     -34.396  16.835  -3.124  1.00 20.00    -0.033 C 
HETATM    8  C9  UNL     1     -34.783  18.317  -3.344  1.00 20.00     0.016 C 
HETATM    9  C10 UNL     1     -34.056  16.701  -1.627  1.00 20.00     0.016 C 
ENDROOT
BRANCH   6  10
HETATM   10  C3  UNL     1     -35.270  13.328  -4.245  1.00 20.00     0.236 C 
HETATM   11  O11 UNL     1     -34.566  12.553  -4.884  1.00 20.00    -0.306 OA
ENDBRANCH   6  10
TORSDOF 1
ENDMDL
MODEL 2
REMARK VINA RESULT:      -4.5      2.172      3.602
REMARK  1 active torsions:
REMARK  status: ('A' for Active; 'I' for Inactive)
REMARK    1  A    between atoms: C3_3  and  C7_7 
ROOT
HETATM    1  C1  UNL     1     -33.366  16.048  -4.602  1.00 20.00    -0.025 C 
HETATM    2  C2  UNL     1     -33.120  15.263  -3.542  1.00 20.00    -0.024 C 
HETATM    3  C4  UNL     1     -35.357  17.007  -3.572  1.00 20.00     0.021 C 
HETATM    4  C5  UNL     1     -34.873  16.123  -4.753  1.00 20.00     0.017 C 
HETATM    5  C6  UNL     1     -34.467  14.829  -2.984  1.00 20.00     0.027 C 
HETATM    6  C7  UNL     1     -35.111  16.087  -2.337  1.00 20.00     0.056 C 
HETATM    7  C8  UNL     1     -35.267  14.687  -4.310  1.00 20.00    -0.033 C 
HETATM    8  C9  UNL     1     -34.762  13.564  -5.247  1.00 20.00     0.016 C 
HETATM    9  C10 UNL     1     -36.781  14.456  -4.143  1.00 20.00     0.016 C 
ENDROOT
BRANCH   6  10
HETATM   10  C3  UNL     1     -34.251  16.731  -1.291  1.00 20.00     0.236 C 
HETATM   11  O11 UNL     1     -34.608  16.896  -0.130  1.00 20.00    -0.306 OA
ENDBRANCH   6  10
TORSDOF 1
ENDMDL
MODEL 3
REMARK VINA RESULT:      -4.5      1.108      2.290
REMARK  1 active torsions:
REMARK  status: ('A' for Active; 'I' for Inactive)
REMARK    1  A    between atoms: C3_3  and  C7_7 
ROOT
HETATM    1  C1  UNL     1     -35.587  16.170  -2.742  1.00 20.00    -0.025 C 
HETATM    2  C2  UNL     1     -34.367  15.687  -2.459  1.00 20.00    -0.024 C 
HETATM    3  C4  UNL     1     -35.468  15.423  -5.060  1.00 20.00     0.021 C 
HETATM    4  C5  UNL     1     -35.534  16.690  -4.165  1.00 20.00     0.017 C 
HETATM    5  C6  UNL     1     -33.511  15.878  -3.701  1.00 20.00     0.027 C 
HETATM    6  C7  UNL     1     -34.037  14.876  -4.766  1.00 20.00     0.056 C 
HETATM    7  C8  UNL     1     -34.080  17.234  -4.207  1.00 20.00    -0.033 C 
HETATM    8  C9  UNL     1     -33.814  18.433  -3.265  1.00 20.00     0.016 C 
HETATM    9  C10 UNL     1     -33.594  17.671  -5.602  1.00 20.00     0.016 C 
ENDROOT
BRANCH   6  10
HETATM   10  C3  UNL     1     -34.041  13.451  -4.300  1.00 20.00     0.236 C 
HETATM   11  O11 UNL     1     -35.023  12.720  -4.366  1.00 20.00    -0.306 OA
ENDBRANCH   6  10
TORSDOF 1
ENDMDL
MODEL 4
REMARK VINA RESULT:      -4.5      1.550      2.609
REMARK  1 active torsions:
REMARK  status: ('A' for Active; 'I' for Inactive)
REMARK    1  A    between atoms: C3_3  and  C7_7 
ROOT
HETATM    1  C1  UNL     1     -32.926  14.632  -3.792  1.00 20.00    -0.025 C 
HETATM    2  C2  UNL     1     -33.015  15.830  -4.392  1.00 20.00    -0.024 C 
HETATM    3  C4  UNL     1     -34.937  13.804  -4.893  1.00 20.00     0.021 C 
HETATM    4  C5  UNL     1     -34.343  14.176  -3.507  1.00 20.00     0.017 C 
HETATM    5  C6  UNL     1     -34.495  16.159  -4.515  1.00 20.00     0.027 C 
HETATM    6  C7  UNL     1     -35.081  15.195  -5.584  1.00 20.00     0.056 C 
HETATM    7  C8  UNL     1     -35.013  15.540  -3.185  1.00 20.00    -0.033 C 
HETATM    8  C9  UNL     1     -34.484  16.231  -1.907  1.00 20.00     0.016 C 
HETATM    9  C10 UNL     1     -36.546  15.487  -3.039  1.00 20.00     0.016 C 
ENDROOT
BRANCH   6  10
HETATM   10  C3  UNL     1     -34.378  15.266  -6.906  1.00 20.00     0.236 C 
HETATM   11  O11 UNL     1     -34.782  14.704  -7.918  1.00 20.00    -0.306 OA
ENDBRANCH   6  10
TORSDOF 1
ENDMDL
MODEL 5
REMARK VINA RESULT:      -4.5      1.995      3.417
REMARK  1 active torsions:
REMARK  status: ('A' for Active; 'I' for Inactive)
REMARK    1  A    between atoms: C3_3  and  C7_7 
ROOT
HETATM    1  C1  UNL     1     -35.208  13.378  -4.167  1.00 20.00    -0.025 C 
HETATM    2  C2  UNL     1     -36.210  14.266  -4.077  1.00 20.00    -0.024 C 
HETATM    3  C4  UNL     1     -33.525  15.050  -3.604  1.00 20.00     0.021 C 
HETATM    4  C5  UNL     1     -34.016  14.116  -4.744  1.00 20.00     0.017 C 
HETATM    5  C6  UNL     1     -35.675  15.596  -4.584  1.00 20.00     0.027 C 
HETATM    6  C7  UNL     1     -34.666  16.109  -3.519  1.00 20.00     0.056 C 
HETATM    7  C8  UNL     1     -34.738  15.088  -5.717  1.00 20.00    -0.033 C 
HETATM    8  C9  UNL     1     -35.468  14.398  -6.893  1.00 20.00     0.016 C 
HETATM    9  C10 UNL     1     -33.830  16.161  -6.349  1.00 20.00     0.016 C 
ENDROOT
BRANCH   6  10
HETATM   10  C3  UNL     1     -35.253  16.227  -2.144  1.00 20.00     0.236 C 
HETATM   11  O11 UNL     1     -34.578  16.251  -1.121  1.00 20.00    -0.306 OA
ENDBRANCH   6  10
TORSDOF 1
ENDMDL
MODEL 6
REMARK VINA RESULT:      -4.4      2.026      3.428
REMARK  1 active torsions:
REMARK  status: ('A' for Active; 'I' for Inactive)
REMARK    1  A    between atoms: C3_3  and  C7_7 
ROOT
HETATM    1  C1  UNL     1     -35.534  17.008  -4.990  1.00 20.00    -0.025 C 
HETATM    2  C2  UNL     1     -34.233  17.071  -4.667  1.00 20.00    -0.024 C 
HETATM    3  C4  UNL     1     -36.010  15.392  -3.228  1.00 20.00     0.021 C 
HETATM    4  C5  UNL     1     -35.973  15.574  -4.770  1.00 20.00     0.017 C 
HETATM    5  C6  UNL     1     -33.816  15.679  -4.220  1.00 20.00     0.027 C 
HETATM    6  C7  UNL     1     -34.498  15.425  -2.847  1.00 20.00     0.056 C 
HETATM    7  C8  UNL     1     -34.680  14.822  -5.188  1.00 20.00    -0.033 C 
HETATM    8  C9  UNL     1     -34.305  14.967  -6.682  1.00 20.00     0.016 C 
HETATM    9  C10 UNL     1     -34.690  13.309  -4.895  1.00 20.00     0.016 C 
ENDROOT
BRANCH   6  10
HETATM   10  C3  UNL     1     -34.178  16.466  -1.816  1.00 20.00     0.236 C 
HETATM   11  O11 UNL     1     -34.629  16.449  -0.676  1.00 20.00    -0.306 OA
ENDBRANCH   6  10
TORSDOF 1
ENDMDL
MODEL 7
REMARK VINA RESULT:      -4.4      1.978      2.515
REMARK  1 active torsions:
REMARK  status: ('A' for Active; 'I' for Inactive)
REMARK    1  A    between atoms: C3_3  and  C7_7 
ROOT
HETATM    1  C1  UNL     1     -35.000  14.613  -6.416  1.00 20.00    -0.025 C 
HETATM    2  C2  UNL     1     -35.787  15.677  -6.188  1.00 20.00    -0.024 C 
HETATM    3  C4  UNL     1     -35.489  13.641  -4.234  1.00 20.00     0.021 C 
HETATM    4  C5  UNL     1     -34.351  14.255  -5.094  1.00 20.00     0.017 C 
HETATM    5  C6  UNL     1     -35.666  16.013  -4.710  1.00 20.00     0.027 C 
HETATM    6  C7  UNL     1     -36.389  14.879  -3.932  1.00 20.00     0.056 C 
HETATM    7  C8  UNL     1     -34.166  15.672  -4.484  1.00 20.00    -0.033 C 
HETATM    8  C9  UNL     1     -33.178  16.580  -5.254  1.00 20.00     0.016 C 
HETATM    9  C10 UNL     1     -33.703  15.686  -3.015  1.00 20.00     0.016 C 
ENDROOT
BRANCH   6  10
HETATM   10  C3  UNL     1     -37.816  14.680  -4.348  1.00 20.00     0.236 C 
HETATM   11  O11 UNL     1     -38.697  14.304  -3.583  1.00 20.00    -0.306 OA
ENDBRANCH   6  10
TORSDOF 1
ENDMDL
MODEL 8
REMARK VINA RESULT:      -4.4      1.869      2.964
REMARK  1 active torsions:
REMARK  status: ('A' for Active; 'I' for Inactive)
REMARK    1  A    between atoms: C3_3  and  C7_7 
ROOT
HETATM    1  C1  UNL     1     -34.746  13.511  -5.305  1.00 20.00    -0.025 C 
HETATM    2  C2  UNL     1     -34.518  14.675  -5.934  1.00 20.00    -0.024 C 
HETATM    3  C4  UNL     1     -36.595  14.440  -4.015  1.00 20.00     0.021 C 
HETATM    4  C5  UNL     1     -35.163  13.851  -3.888  1.00 20.00     0.017 C 
HETATM    5  C6  UNL     1     -34.798  15.785  -4.933  1.00 20.00     0.027 C 
HETATM    6  C7  UNL     1     -36.335  15.812  -4.710  1.00 20.00     0.056 C 
HETATM    7  C8  UNL     1     -34.282  15.104  -3.633  1.00 20.00    -0.033 C 
HETATM    8  C9  UNL     1     -32.760  14.828  -3.614  1.00 20.00     0.016 C 
HETATM    9  C10 UNL     1     -34.596  15.859  -2.328  1.00 20.00     0.016 C 
ENDROOT
BRANCH   6  10
HETATM   10  C3  UNL     1     -37.123  15.984  -5.975  1.00 20.00     0.236 C 
HETATM   11  O11 UNL     1     -37.991  15.200  -6.342  1.00 20.00    -0.306 OA
ENDBRANCH   6  10
TORSDOF 1
ENDMDL
MODEL 9
REMARK VINA RESULT:      -4.3      2.050      3.556
REMARK  1 active torsions:
REMARK  status: ('A' for Active; 'I' for Inactive)
REMARK    1  A    between atoms: C3_3  and  C7_7 
ROOT
HETATM    1  C1  UNL     1     -36.130  15.872  -3.291  1.00 20.00    -0.025 C 
HETATM    2  C2  UNL     1     -35.814  16.115  -4.573  1.00 20.00    -0.024 C 
HETATM    3  C4  UNL     1     -33.895  16.454  -2.510  1.00 20.00     0.021 C 
HETATM    4  C5  UNL     1     -34.898  15.275  -2.639  1.00 20.00     0.017 C 
HETATM    5  C6  UNL     1     -34.366  15.691  -4.764  1.00 20.00     0.027 C 
HETATM    6  C7  UNL     1     -33.492  16.719  -3.993  1.00 20.00     0.056 C 
HETATM    7  C8  UNL     1     -34.329  14.451  -3.826  1.00 20.00    -0.033 C 
HETATM    8  C9  UNL     1     -35.227  13.276  -4.282  1.00 20.00     0.016 C 
HETATM    9  C10 UNL     1     -32.931  13.851  -3.584  1.00 20.00     0.016 C 
ENDROOT
BRANCH   6  10
HETATM   10  C3  UNL     1     -33.721  18.139  -4.416  1.00 20.00     0.236 C 
HETATM   11  O11 UNL     1     -33.392  18.580  -5.512  1.00 20.00    -0.306 OA
ENDBRANCH   6  10
TORSDOF 1
ENDMDL
