MODEL 1
REMARK VINA RESULT:      -4.7      0.000      0.000
REMARK  1 active torsions:
REMARK  status: ('A' for Active; 'I' for Inactive)
REMARK    1  A    between atoms: C6_6  and  N12_12 
ROOT
HETATM    1  C1  UNL     1     -33.534  17.895  -4.762  1.00 20.00     0.026 A 
HETATM    2  C2  UNL     1     -33.735  16.581  -5.132  1.00 20.00     0.097 A 
HETATM    3  C3  UNL     1     -33.779  17.981  -3.370  1.00 20.00    -0.034 A 
HETATM    4  C4  UNL     1     -34.116  16.714  -2.938  1.00 20.00     0.022 A 
HETATM    5  C7  UNL     1     -33.697  19.146  -2.447  1.00 20.00     0.040 C 
HETATM    6  C8  UNL     1     -34.480  16.326  -1.551  1.00 20.00     0.058 C 
HETATM    7  C9  UNL     1     -34.406  18.846  -1.111  1.00 20.00     0.005 C 
HETATM    8  C10 UNL     1     -34.065  17.442  -0.573  1.00 20.00     0.006 C 
HETATM    9  N12 UNL     1     -34.089  15.870  -4.012  1.00 20.00    -0.330 N 
ENDROOT
BRANCH   9  10
HETATM   10  C6  UNL     1     -34.363  14.514  -3.998  1.00 20.00     0.003 C 
HETATM   11  C5  UNL     1     -33.441  13.552  -3.793  1.00 20.00     0.038 C 
HETATM   12  C11 UNL     1     -35.788  14.052  -4.228  1.00 20.00     0.068 C 
ENDBRANCH   9  10
TORSDOF 1
ENDMDL
MODEL 2
REMARK VINA RESULT:      -4.5     11.161     13.081
REMARK  1 active torsions:
REMARK  status: ('A' for Active; 'I' for Inactive)
REMARK    1  A    between atoms: C6_6  and  N12_12 
ROOT
HETATM    1  C1  UNL     1     -34.399   4.938   2.601  1.00 20.00     0.026 A 
HETATM    2  C2  UNL     1     -33.470   5.835   2.117  1.00 20.00     0.097 A 
HETATM    3  C3  UNL     1     -34.484   5.136   4.001  1.00 20.00    -0.034 A 
HETATM    4  C4  UNL     1     -33.605   6.152   4.321  1.00 20.00     0.022 A 
HETATM    5  C7  UNL     1     -35.332   4.461   5.021  1.00 20.00     0.040 C 
HETATM    6  C8  UNL     1     -33.338   6.688   5.681  1.00 20.00     0.058 C 
HETATM    7  C9  UNL     1     -34.817   4.744   6.447  1.00 20.00     0.005 C 
HETATM    8  C10 UNL     1     -34.446   6.227   6.647  1.00 20.00     0.006 C 
HETATM    9  N12 UNL     1     -32.992   6.570   3.174  1.00 20.00    -0.330 N 
ENDROOT
BRANCH   9  10
HETATM   10  C6  UNL     1     -32.046   7.574   3.067  1.00 20.00     0.003 C 
HETATM   11  C5  UNL     1     -31.044   7.774   3.947  1.00 20.00     0.038 C 
HETATM   12  C11 UNL     1     -32.118   8.526   1.891  1.00 20.00     0.068 C 
ENDBRANCH   9  10
TORSDOF 1
ENDMDL
MODEL 3
REMARK VINA RESULT:      -4.5      1.392      4.403
REMARK  1 active torsions:
REMARK  status: ('A' for Active; 'I' for Inactive)
REMARK    1  A    between atoms: C6_6  and  N12_12 
ROOT
HETATM    1  C1  UNL     1     -36.836  15.937  -3.336  1.00 20.00     0.026 A 
HETATM    2  C2  UNL     1     -36.304  17.079  -2.774  1.00 20.00     0.097 A 
HETATM    3  C3  UNL     1     -35.753  15.083  -3.655  1.00 20.00    -0.034 A 
HETATM    4  C4  UNL     1     -34.597  15.733  -3.272  1.00 20.00     0.022 A 
HETATM    5  C7  UNL     1     -35.743  13.723  -4.262  1.00 20.00     0.040 C 
HETATM    6  C8  UNL     1     -33.209  15.227  -3.433  1.00 20.00     0.058 C 
HETATM    7  C9  UNL     1     -34.332  13.348  -4.759  1.00 20.00     0.005 C 
HETATM    8  C10 UNL     1     -33.238  13.717  -3.737  1.00 20.00     0.006 C 
HETATM    9  N12 UNL     1     -34.938  16.944  -2.739  1.00 20.00    -0.330 N 
ENDROOT
BRANCH   9  10
HETATM   10  C6  UNL     1     -34.069  17.894  -2.234  1.00 20.00     0.003 C 
HETATM   11  C5  UNL     1     -33.616  18.958  -2.928  1.00 20.00     0.038 C 
HETATM   12  C11 UNL     1     -33.577  17.753  -0.808  1.00 20.00     0.068 C 
ENDBRANCH   9  10
TORSDOF 1
ENDMDL
MODEL 4
REMARK VINA RESULT:      -4.3      1.904      3.153
REMARK  1 active torsions:
REMARK  status: ('A' for Active; 'I' for Inactive)
REMARK    1  A    between atoms: C6_6  and  N12_12 
ROOT
HETATM    1  C1  UNL     1     -34.409  13.807  -3.522  1.00 20.00     0.026 A 
HETATM    2  C2  UNL     1     -34.816  13.566  -4.818  1.00 20.00     0.097 A 
HETATM    3  C3  UNL     1     -34.486  15.206  -3.312  1.00 20.00    -0.034 A 
HETATM    4  C4  UNL     1     -34.942  15.768  -4.488  1.00 20.00     0.022 A 
HETATM    5  C7  UNL     1     -34.185  16.017  -2.101  1.00 20.00     0.040 C 
HETATM    6  C8  UNL     1     -35.156  17.216  -4.745  1.00 20.00     0.058 C 
HETATM    7  C9  UNL     1     -34.055  17.512  -2.453  1.00 20.00     0.005 C 
HETATM    8  C10 UNL     1     -35.170  17.984  -3.409  1.00 20.00     0.006 C 
HETATM    9  N12 UNL     1     -35.138  14.768  -5.397  1.00 20.00    -0.330 N 
ENDROOT
BRANCH   9  10
HETATM   10  C6  UNL     1     -35.594  14.916  -6.696  1.00 20.00     0.003 C 
HETATM   11  C5  UNL     1     -34.804  14.893  -7.788  1.00 20.00     0.038 C 
HETATM   12  C11 UNL     1     -37.077  15.118  -6.933  1.00 20.00     0.068 C 
ENDBRANCH   9  10
TORSDOF 1
ENDMDL
MODEL 5
REMARK VINA RESULT:      -4.3      1.270      3.981
REMARK  1 active torsions:
REMARK  status: ('A' for Active; 'I' for Inactive)
REMARK    1  A    between atoms: C6_6  and  N12_12 
ROOT
HETATM    1  C1  UNL     1     -33.610  17.263  -5.654  1.00 20.00     0.026 A 
HETATM    2  C2  UNL     1     -33.639  18.029  -4.508  1.00 20.00     0.097 A 
HETATM    3  C3  UNL     1     -34.206  16.016  -5.341  1.00 20.00    -0.034 A 
HETATM    4  C4  UNL     1     -34.580  16.069  -4.013  1.00 20.00     0.022 A 
HETATM    5  C7  UNL     1     -34.454  14.824  -6.196  1.00 20.00     0.040 C 
HETATM    6  C8  UNL     1     -35.225  14.977  -3.238  1.00 20.00     0.058 C 
HETATM    7  C9  UNL     1     -34.780  13.585  -5.339  1.00 20.00     0.005 C 
HETATM    8  C10 UNL     1     -35.771  13.908  -4.203  1.00 20.00     0.006 C 
HETATM    9  N12 UNL     1     -34.232  17.292  -3.513  1.00 20.00    -0.330 N 
ENDROOT
BRANCH   9  10
HETATM   10  C6  UNL     1     -34.439  17.741  -2.221  1.00 20.00     0.003 C 
HETATM   11  C5  UNL     1     -33.621  17.476  -1.182  1.00 20.00     0.038 C 
HETATM   12  C11 UNL     1     -35.659  18.589  -1.927  1.00 20.00     0.068 C 
ENDBRANCH   9  10
TORSDOF 1
ENDMDL
MODEL 6
REMARK VINA RESULT:      -4.2      2.245      4.568
REMARK  1 active torsions:
REMARK  status: ('A' for Active; 'I' for Inactive)
REMARK    1  A    between atoms: C6_6  and  N12_12 
ROOT
HETATM    1  C1  UNL     1     -34.402  15.993  -1.999  1.00 20.00     0.026 A 
HETATM    2  C2  UNL     1     -35.435  16.907  -2.024  1.00 20.00     0.097 A 
HETATM    3  C3  UNL     1     -34.537  15.175  -3.148  1.00 20.00    -0.034 A 
HETATM    4  C4  UNL     1     -35.647  15.623  -3.836  1.00 20.00     0.022 A 
HETATM    5  C7  UNL     1     -33.698  14.045  -3.632  1.00 20.00     0.040 C 
HETATM    6  C8  UNL     1     -36.192  15.051  -5.095  1.00 20.00     0.058 C 
HETATM    7  C9  UNL     1     -34.436  13.228  -4.711  1.00 20.00     0.005 C 
HETATM    8  C10 UNL     1     -35.140  14.131  -5.744  1.00 20.00     0.006 C 
HETATM    9  N12 UNL     1     -36.188  16.672  -3.148  1.00 20.00    -0.330 N 
ENDROOT
BRANCH   9  10
HETATM   10  C6  UNL     1     -37.307  17.402  -3.508  1.00 20.00     0.003 C 
HETATM   11  C5  UNL     1     -38.561  17.124  -3.099  1.00 20.00     0.038 C 
HETATM   12  C11 UNL     1     -37.139  18.598  -4.422  1.00 20.00     0.068 C 
ENDBRANCH   9  10
TORSDOF 1
ENDMDL
MODEL 7
REMARK VINA RESULT:      -4.2      1.473      4.433
REMARK  1 active torsions:
REMARK  status: ('A' for Active; 'I' for Inactive)
REMARK    1  A    between atoms: C6_6  and  N12_12 
ROOT
HETATM    1  C1  UNL     1     -33.668  16.229  -2.470  1.00 20.00     0.026 A 
HETATM    2  C2  UNL     1     -33.797  17.493  -3.009  1.00 20.00     0.097 A 
HETATM    3  C3  UNL     1     -34.113  15.308  -3.451  1.00 20.00    -0.034 A 
HETATM    4  C4  UNL     1     -34.493  16.044  -4.555  1.00 20.00     0.022 A 
HETATM    5  C7  UNL     1     -34.179  13.822  -3.418  1.00 20.00     0.040 C 
HETATM    6  C8  UNL     1     -35.049  15.504  -5.823  1.00 20.00     0.058 C 
HETATM    7  C9  UNL     1     -35.070  13.281  -4.554  1.00 20.00     0.005 C 
HETATM    8  C10 UNL     1     -34.792  13.986  -5.897  1.00 20.00     0.006 C 
HETATM    9  N12 UNL     1     -34.301  17.369  -4.279  1.00 20.00    -0.330 N 
ENDROOT
BRANCH   9  10
HETATM   10  C6  UNL     1     -34.557  18.431  -5.129  1.00 20.00     0.003 C 
HETATM   11  C5  UNL     1     -33.668  18.937  -6.006  1.00 20.00     0.038 C 
HETATM   12  C11 UNL     1     -35.923  19.086  -5.090  1.00 20.00     0.068 C 
ENDBRANCH   9  10
TORSDOF 1
ENDMDL
MODEL 8
REMARK VINA RESULT:      -4.2      1.830      2.385
REMARK  1 active torsions:
REMARK  status: ('A' for Active; 'I' for Inactive)
REMARK    1  A    between atoms: C6_6  and  N12_12 
ROOT
HETATM    1  C1  UNL     1     -37.379  16.778  -3.682  1.00 20.00     0.026 A 
HETATM    2  C2  UNL     1     -36.998  15.879  -4.657  1.00 20.00     0.097 A 
HETATM    3  C3  UNL     1     -36.291  16.911  -2.785  1.00 20.00    -0.034 A 
HETATM    4  C4  UNL     1     -35.281  16.090  -3.248  1.00 20.00     0.022 A 
HETATM    5  C7  UNL     1     -36.141  17.754  -1.568  1.00 20.00     0.040 C 
HETATM    6  C8  UNL     1     -33.953  15.886  -2.613  1.00 20.00     0.058 C 
HETATM    7  C9  UNL     1     -34.942  17.293  -0.717  1.00 20.00     0.005 C 
HETATM    8  C10 UNL     1     -33.697  16.998  -1.578  1.00 20.00     0.006 C 
HETATM    9  N12 UNL     1     -35.718  15.466  -4.382  1.00 20.00    -0.330 N 
ENDROOT
BRANCH   9  10
HETATM   10  C6  UNL     1     -35.002  14.565  -5.152  1.00 20.00     0.003 C 
HETATM   11  C5  UNL     1     -34.802  13.273  -4.824  1.00 20.00     0.038 C 
HETATM   12  C11 UNL     1     -34.393  15.038  -6.456  1.00 20.00     0.068 C 
ENDBRANCH   9  10
TORSDOF 1
ENDMDL
MODEL 9
REMARK VINA RESULT:      -4.2      1.691      4.399
REMARK  1 active torsions:
REMARK  status: ('A' for Active; 'I' for Inactive)
REMARK    1  A    between atoms: C6_6  and  N12_12 
ROOT
HETATM    1  C1  UNL     1     -34.431  13.785  -4.782  1.00 20.00     0.026 A 
HETATM    2  C2  UNL     1     -34.548  14.309  -3.512  1.00 20.00     0.097 A 
HETATM    3  C3  UNL     1     -34.513  14.868  -5.692  1.00 20.00    -0.034 A 
HETATM    4  C4  UNL     1     -34.674  16.016  -4.942  1.00 20.00     0.022 A 
HETATM    5  C7  UNL     1     -34.431  14.888  -7.178  1.00 20.00     0.040 C 
HETATM    6  C8  UNL     1     -34.830  17.397  -5.469  1.00 20.00     0.058 C 
HETATM    7  C9  UNL     1     -34.943  16.228  -7.744  1.00 20.00     0.005 C 
HETATM    8  C10 UNL     1     -34.408  17.437  -6.951  1.00 20.00     0.006 C 
HETATM    9  N12 UNL     1     -34.697  15.670  -3.620  1.00 20.00    -0.330 N 
ENDROOT
BRANCH   9  10
HETATM   10  C6  UNL     1     -34.837  16.532  -2.547  1.00 20.00     0.003 C 
HETATM   11  C5  UNL     1     -33.857  16.820  -1.668  1.00 20.00     0.038 C 
HETATM   12  C11 UNL     1     -36.174  17.210  -2.322  1.00 20.00     0.068 C 
ENDBRANCH   9  10
TORSDOF 1
ENDMDL
