MODEL 1
REMARK VINA RESULT:      -4.7      0.000      0.000
REMARK  0 active torsions:
REMARK  status: ('A' for Active; 'I' for Inactive)
ROOT
HETATM    1  C1  UNL     1     -33.553  17.128  -4.544  1.00 20.00     0.011 A 
HETATM    2  C2  UNL     1     -33.738  15.854  -5.081  1.00 20.00     0.024 A 
HETATM    3  C3  UNL     1     -34.461  15.044  -2.923  1.00 20.00     0.031 A 
HETATM    4  C4  UNL     1     -33.827  17.372  -3.193  1.00 20.00    -0.028 A 
HETATM    5  C5  UNL     1     -34.267  16.317  -2.373  1.00 20.00    -0.046 A 
HETATM    6  C6  UNL     1     -34.194  14.815  -4.272  1.00 20.00     0.034 A 
HETATM    7  C7  UNL     1     -34.588  16.580  -0.925  1.00 20.00     0.065 C 
HETATM    8  C8  UNL     1     -33.597  18.742  -2.609  1.00 20.00     0.206 C 
HETATM    9  C9  UNL     1     -33.917  17.859  -0.439  1.00 20.00     0.172 C 
HETATM   10  O10 UNL     1     -34.230  18.923  -1.337  1.00 20.00    -0.386 OA
HETATM   11 CL11 UNL     1     -34.429  13.246  -4.939  1.00 20.00    -0.084 Cl
ENDROOT
TORSDOF 0
ENDMDL
MODEL 2
REMARK VINA RESULT:      -4.6      3.103      4.370
REMARK  0 active torsions:
REMARK  status: ('A' for Active; 'I' for Inactive)
ROOT
HETATM    1  C1  UNL     1     -33.700  16.448  -2.388  1.00 20.00     0.011 A 
HETATM    2  C2  UNL     1     -34.675  17.363  -1.993  1.00 20.00     0.024 A 
HETATM    3  C3  UNL     1     -36.375  16.022  -3.065  1.00 20.00     0.031 A 
HETATM    4  C4  UNL     1     -34.056  15.308  -3.119  1.00 20.00    -0.028 A 
HETATM    5  C5  UNL     1     -35.401  15.104  -3.476  1.00 20.00    -0.046 A 
HETATM    6  C6  UNL     1     -36.011  17.149  -2.329  1.00 20.00     0.034 A 
HETATM    7  C7  UNL     1     -35.792  13.867  -4.240  1.00 20.00     0.065 C 
HETATM    8  C8  UNL     1     -32.995  14.337  -3.572  1.00 20.00     0.206 C 
HETATM    9  C9  UNL     1     -34.588  13.254  -4.943  1.00 20.00     0.172 C 
HETATM   10  O10 UNL     1     -33.532  13.080  -3.998  1.00 20.00    -0.386 OA
HETATM   11 CL11 UNL     1     -37.213  18.275  -1.833  1.00 20.00    -0.084 Cl
ENDROOT
TORSDOF 0
ENDMDL
MODEL 3
REMARK VINA RESULT:      -4.5      2.907      4.318
REMARK  0 active torsions:
REMARK  status: ('A' for Active; 'I' for Inactive)
ROOT
HETATM    1  C1  UNL     1     -33.765  17.464  -4.467  1.00 20.00     0.011 A 
HETATM    2  C2  UNL     1     -33.892  17.541  -3.081  1.00 20.00     0.024 A 
HETATM    3  C3  UNL     1     -34.822  15.312  -3.036  1.00 20.00     0.031 A 
HETATM    4  C4  UNL     1     -34.158  16.306  -5.149  1.00 20.00    -0.028 A 
HETATM    5  C5  UNL     1     -34.707  15.230  -4.429  1.00 20.00    -0.046 A 
HETATM    6  C6  UNL     1     -34.418  16.466  -2.366  1.00 20.00     0.034 A 
HETATM    7  C7  UNL     1     -35.108  13.972  -5.155  1.00 20.00     0.065 C 
HETATM    8  C8  UNL     1     -34.048  16.237  -6.650  1.00 20.00     0.206 C 
HETATM    9  C9  UNL     1     -35.313  14.239  -6.641  1.00 20.00     0.172 C 
HETATM   10  O10 UNL     1     -34.160  14.903  -7.160  1.00 20.00    -0.386 OA
HETATM   11 CL11 UNL     1     -34.567  16.562  -0.655  1.00 20.00    -0.084 Cl
ENDROOT
TORSDOF 0
ENDMDL
MODEL 4
REMARK VINA RESULT:      -4.5      3.524      4.547
REMARK  0 active torsions:
REMARK  status: ('A' for Active; 'I' for Inactive)
ROOT
HETATM    1  C1  UNL     1     -35.104  14.769  -7.200  1.00 20.00     0.011 A 
HETATM    2  C2  UNL     1     -35.029  16.031  -7.788  1.00 20.00     0.024 A 
HETATM    3  C3  UNL     1     -33.876  16.875  -5.840  1.00 20.00     0.031 A 
HETATM    4  C4  UNL     1     -34.560  14.548  -5.929  1.00 20.00    -0.028 A 
HETATM    5  C5  UNL     1     -33.957  15.614  -5.237  1.00 20.00    -0.046 A 
HETATM    6  C6  UNL     1     -34.413  17.082  -7.111  1.00 20.00     0.034 A 
HETATM    7  C7  UNL     1     -33.347  15.376  -3.881  1.00 20.00     0.065 C 
HETATM    8  C8  UNL     1     -34.670  13.191  -5.283  1.00 20.00     0.206 C 
HETATM    9  C9  UNL     1     -33.909  14.112  -3.243  1.00 20.00     0.172 C 
HETATM   10  O10 UNL     1     -33.790  13.029  -4.165  1.00 20.00    -0.386 OA
HETATM   11 CL11 UNL     1     -34.315  18.636  -7.842  1.00 20.00    -0.084 Cl
ENDROOT
TORSDOF 0
ENDMDL
MODEL 5
REMARK VINA RESULT:      -4.5      2.758      4.035
REMARK  0 active torsions:
REMARK  status: ('A' for Active; 'I' for Inactive)
ROOT
HETATM    1  C1  UNL     1     -33.689  18.624  -2.457  1.00 20.00     0.011 A 
HETATM    2  C2  UNL     1     -34.029  18.706  -1.108  1.00 20.00     0.024 A 
HETATM    3  C3  UNL     1     -34.630  16.367  -1.111  1.00 20.00     0.031 A 
HETATM    4  C4  UNL     1     -33.811  17.410  -3.144  1.00 20.00    -0.028 A 
HETATM    5  C5  UNL     1     -34.302  16.278  -2.469  1.00 20.00    -0.046 A 
HETATM    6  C6  UNL     1     -34.496  17.579  -0.435  1.00 20.00     0.034 A 
HETATM    7  C7  UNL     1     -34.410  14.963  -3.196  1.00 20.00     0.065 C 
HETATM    8  C8  UNL     1     -33.472  17.332  -4.610  1.00 20.00     0.206 C 
HETATM    9  C9  UNL     1     -34.429  15.171  -4.705  1.00 20.00     0.172 C 
HETATM   10  O10 UNL     1     -33.319  15.987  -5.079  1.00 20.00    -0.386 OA
HETATM   11 CL11 UNL     1     -34.908  17.681   1.233  1.00 20.00    -0.084 Cl
ENDROOT
TORSDOF 0
ENDMDL
MODEL 6
REMARK VINA RESULT:      -4.4      3.258      4.522
REMARK  0 active torsions:
REMARK  status: ('A' for Active; 'I' for Inactive)
ROOT
HETATM    1  C1  UNL     1     -33.336  15.555  -4.334  1.00 20.00     0.011 A 
HETATM    2  C2  UNL     1     -33.399  15.932  -2.993  1.00 20.00     0.024 A 
HETATM    3  C3  UNL     1     -35.809  15.792  -3.062  1.00 20.00     0.031 A 
HETATM    4  C4  UNL     1     -34.510  15.287  -5.048  1.00 20.00    -0.028 A 
HETATM    5  C5  UNL     1     -35.756  15.424  -4.412  1.00 20.00    -0.046 A 
HETATM    6  C6  UNL     1     -34.633  16.047  -2.357  1.00 20.00     0.034 A 
HETATM    7  C7  UNL     1     -37.020  15.111  -5.168  1.00 20.00     0.065 C 
HETATM    8  C8  UNL     1     -34.439  14.910  -6.506  1.00 20.00     0.206 C 
HETATM    9  C9  UNL     1     -36.785  15.162  -6.673  1.00 20.00     0.172 C 
HETATM   10  O10 UNL     1     -35.660  14.345  -6.998  1.00 20.00    -0.386 OA
HETATM   11 CL11 UNL     1     -34.708  16.505  -0.700  1.00 20.00    -0.084 Cl
ENDROOT
TORSDOF 0
ENDMDL
MODEL 7
REMARK VINA RESULT:      -4.4      3.080      4.851
REMARK  0 active torsions:
REMARK  status: ('A' for Active; 'I' for Inactive)
ROOT
HETATM    1  C1  UNL     1     -34.365  15.082  -3.082  1.00 20.00     0.011 A 
HETATM    2  C2  UNL     1     -34.015  16.238  -2.386  1.00 20.00     0.024 A 
HETATM    3  C3  UNL     1     -33.927  17.468  -4.463  1.00 20.00     0.031 A 
HETATM    4  C4  UNL     1     -34.506  15.111  -4.475  1.00 20.00    -0.028 A 
HETATM    5  C5  UNL     1     -34.267  16.309  -5.171  1.00 20.00    -0.046 A 
HETATM    6  C6  UNL     1     -33.799  17.430  -3.074  1.00 20.00     0.034 A 
HETATM    7  C7  UNL     1     -34.443  16.353  -6.666  1.00 20.00     0.065 C 
HETATM    8  C8  UNL     1     -34.854  13.852  -5.227  1.00 20.00     0.206 C 
HETATM    9  C9  UNL     1     -34.380  14.953  -7.265  1.00 20.00     0.172 C 
HETATM   10  O10 UNL     1     -35.290  14.104  -6.568  1.00 20.00    -0.386 OA
HETATM   11 CL11 UNL     1     -33.375  18.857  -2.212  1.00 20.00    -0.084 Cl
ENDROOT
TORSDOF 0
ENDMDL
MODEL 8
REMARK VINA RESULT:      -4.4      3.226      4.476
REMARK  0 active torsions:
REMARK  status: ('A' for Active; 'I' for Inactive)
ROOT
HETATM    1  C1  UNL     1     -36.482  16.764  -3.552  1.00 20.00     0.011 A 
HETATM    2  C2  UNL     1     -36.105  17.373  -2.356  1.00 20.00     0.024 A 
HETATM    3  C3  UNL     1     -34.317  15.769  -2.097  1.00 20.00     0.031 A 
HETATM    4  C4  UNL     1     -35.775  15.656  -4.034  1.00 20.00    -0.028 A 
HETATM    5  C5  UNL     1     -34.696  15.145  -3.292  1.00 20.00    -0.046 A 
HETATM    6  C6  UNL     1     -35.022  16.879  -1.631  1.00 20.00     0.034 A 
HETATM    7  C7  UNL     1     -33.915  13.970  -3.819  1.00 20.00     0.065 C 
HETATM    8  C8  UNL     1     -36.204  14.981  -5.312  1.00 20.00     0.206 C 
HETATM    9  C9  UNL     1     -34.723  13.196  -4.853  1.00 20.00     0.172 C 
HETATM   10  O10 UNL     1     -35.206  14.103  -5.844  1.00 20.00    -0.386 OA
HETATM   11 CL11 UNL     1     -34.554  17.637  -0.159  1.00 20.00    -0.084 Cl
ENDROOT
TORSDOF 0
ENDMDL
MODEL 9
REMARK VINA RESULT:      -4.3     12.734     13.893
REMARK  0 active torsions:
REMARK  status: ('A' for Active; 'I' for Inactive)
ROOT
HETATM    1  C1  UNL     1     -40.982   4.227  -1.608  1.00 20.00     0.011 A 
HETATM    2  C2  UNL     1     -41.574   3.302  -2.466  1.00 20.00     0.024 A 
HETATM    3  C3  UNL     1     -43.206   4.953  -3.132  1.00 20.00     0.031 A 
HETATM    4  C4  UNL     1     -41.494   5.527  -1.510  1.00 20.00    -0.028 A 
HETATM    5  C5  UNL     1     -42.625   5.886  -2.265  1.00 20.00    -0.046 A 
HETATM    6  C6  UNL     1     -42.682   3.664  -3.229  1.00 20.00     0.034 A 
HETATM    7  C7  UNL     1     -43.164   7.290  -2.182  1.00 20.00     0.065 C 
HETATM    8  C8  UNL     1     -40.871   6.516  -0.559  1.00 20.00     0.206 C 
HETATM    9  C9  UNL     1     -42.692   7.984  -0.911  1.00 20.00     0.172 C 
HETATM   10  O10 UNL     1     -41.272   7.867  -0.813  1.00 20.00    -0.386 OA
HETATM   11 CL11 UNL     1     -43.405   2.522  -4.293  1.00 20.00    -0.084 Cl
ENDROOT
TORSDOF 0
ENDMDL
