MODEL 1
REMARK VINA RESULT:      -4.6      0.000      0.000
REMARK  1 active torsions:
REMARK  status: ('A' for Active; 'I' for Inactive)
REMARK    1  A    between atoms: C4_4  and  C10_10 
ROOT
HETATM    1  C1  UNL     1     -35.798  15.008  -3.984  1.00 20.00     0.092 C 
HETATM    2  C2  UNL     1     -33.429  16.070  -3.009  1.00 20.00     0.029 C 
HETATM    3  C3  UNL     1     -33.297  14.755  -3.761  1.00 20.00     0.016 C 
HETATM    4  C4  UNL     1     -34.678  16.013  -2.135  1.00 20.00     0.110 C 
HETATM    5  C5  UNL     1     -34.525  14.512  -4.648  1.00 20.00    -0.014 C 
HETATM    6  C6  UNL     1     -34.391  15.266  -5.981  1.00 20.00     0.020 C 
HETATM    7  C7  UNL     1     -34.678  13.013  -4.932  1.00 20.00     0.020 C 
HETATM    8  N11 UNL     1     -35.886  15.694  -2.898  1.00 20.00    -0.299 NA
ENDROOT
BRANCH   4   9
HETATM    9  C10 UNL     1     -34.907  17.348  -1.434  1.00 20.00     0.002 C 
HETATM   10  C8  UNL     1     -34.860  17.174   0.083  1.00 20.00     0.011 C 
HETATM   11  C9  UNL     1     -33.874  18.378  -1.886  1.00 20.00     0.011 C 
ENDBRANCH   4   9
TORSDOF 1
ENDMDL
MODEL 2
REMARK VINA RESULT:      -4.5      1.174      2.151
REMARK  1 active torsions:
REMARK  status: ('A' for Active; 'I' for Inactive)
REMARK    1  A    between atoms: C4_4  and  C10_10 
ROOT
HETATM    1  C1  UNL     1     -33.475  15.661  -4.621  1.00 20.00     0.092 C 
HETATM    2  C2  UNL     1     -35.321  15.592  -2.553  1.00 20.00     0.029 C 
HETATM    3  C3  UNL     1     -35.839  15.141  -3.909  1.00 20.00     0.016 C 
HETATM    4  C4  UNL     1     -34.413  16.802  -2.751  1.00 20.00     0.110 C 
HETATM    5  C5  UNL     1     -34.677  14.757  -4.834  1.00 20.00    -0.014 C 
HETATM    6  C6  UNL     1     -34.213  13.319  -4.555  1.00 20.00     0.020 C 
HETATM    7  C7  UNL     1     -35.115  14.868  -6.299  1.00 20.00     0.020 C 
HETATM    8  N11 UNL     1     -33.326  16.543  -3.696  1.00 20.00    -0.299 NA
ENDROOT
BRANCH   4   9
HETATM    9  C10 UNL     1     -33.789  17.232  -1.427  1.00 20.00     0.002 C 
HETATM   10  C8  UNL     1     -33.380  18.703  -1.477  1.00 20.00     0.011 C 
HETATM   11  C9  UNL     1     -34.757  16.986  -0.271  1.00 20.00     0.011 C 
ENDBRANCH   4   9
TORSDOF 1
ENDMDL
MODEL 3
REMARK VINA RESULT:      -4.4      1.348      4.333
REMARK  1 active torsions:
REMARK  status: ('A' for Active; 'I' for Inactive)
REMARK    1  A    between atoms: C4_4  and  C10_10 
ROOT
HETATM    1  C1  UNL     1     -33.660  17.677  -3.572  1.00 20.00     0.092 C 
HETATM    2  C2  UNL     1     -34.809  15.366  -2.558  1.00 20.00     0.029 C 
HETATM    3  C3  UNL     1     -34.455  16.427  -1.529  1.00 20.00     0.016 C 
HETATM    4  C4  UNL     1     -33.692  15.294  -3.595  1.00 20.00     0.110 C 
HETATM    5  C5  UNL     1     -34.294  17.799  -2.197  1.00 20.00    -0.014 C 
HETATM    6  C6  UNL     1     -35.662  18.472  -2.392  1.00 20.00     0.020 C 
HETATM    7  C7  UNL     1     -33.408  18.703  -1.332  1.00 20.00     0.020 C 
HETATM    8  N11 UNL     1     -33.415  16.590  -4.216  1.00 20.00    -0.299 NA
ENDROOT
BRANCH   4   9
HETATM    9  C10 UNL     1     -34.049  14.310  -4.705  1.00 20.00     0.002 C 
HETATM   10  C8  UNL     1     -35.163  13.368  -4.252  1.00 20.00     0.011 C 
HETATM   11  C9  UNL     1     -34.462  15.055  -5.972  1.00 20.00     0.011 C 
ENDBRANCH   4   9
TORSDOF 1
ENDMDL
MODEL 4
REMARK VINA RESULT:      -4.3      1.016      1.572
REMARK  1 active torsions:
REMARK  status: ('A' for Active; 'I' for Inactive)
REMARK    1  A    between atoms: C4_4  and  C10_10 
ROOT
HETATM    1  C1  UNL     1     -35.551  16.520  -4.507  1.00 20.00     0.092 C 
HETATM    2  C2  UNL     1     -33.326  15.415  -3.276  1.00 20.00     0.029 C 
HETATM    3  C3  UNL     1     -33.942  14.580  -4.387  1.00 20.00     0.016 C 
HETATM    4  C4  UNL     1     -34.446  16.039  -2.450  1.00 20.00     0.110 C 
HETATM    5  C5  UNL     1     -34.818  15.450  -5.297  1.00 20.00    -0.014 C 
HETATM    6  C6  UNL     1     -33.960  16.176  -6.345  1.00 20.00     0.020 C 
HETATM    7  C7  UNL     1     -35.856  14.579  -6.014  1.00 20.00     0.020 C 
HETATM    8  N11 UNL     1     -35.382  16.815  -3.265  1.00 20.00    -0.299 NA
ENDROOT
BRANCH   4   9
HETATM    9  C10 UNL     1     -33.877  16.966  -1.381  1.00 20.00     0.002 C 
HETATM   10  C8  UNL     1     -33.627  18.360  -1.955  1.00 20.00     0.011 C 
HETATM   11  C9  UNL     1     -34.817  17.044  -0.180  1.00 20.00     0.011 C 
ENDBRANCH   4   9
TORSDOF 1
ENDMDL
MODEL 5
REMARK VINA RESULT:      -4.3      1.137      1.684
REMARK  1 active torsions:
REMARK  status: ('A' for Active; 'I' for Inactive)
REMARK    1  A    between atoms: C4_4  and  C10_10 
ROOT
HETATM    1  C1  UNL     1     -35.508  15.029  -3.864  1.00 20.00     0.092 C 
HETATM    2  C2  UNL     1     -33.555  16.983  -4.104  1.00 20.00     0.029 C 
HETATM    3  C3  UNL     1     -33.701  16.052  -5.297  1.00 20.00     0.016 C 
HETATM    4  C4  UNL     1     -33.690  16.166  -2.823  1.00 20.00     0.110 C 
HETATM    5  C5  UNL     1     -35.069  15.357  -5.280  1.00 20.00    -0.014 C 
HETATM    6  C6  UNL     1     -36.148  16.269  -5.885  1.00 20.00     0.020 C 
HETATM    7  C7  UNL     1     -35.005  14.053  -6.084  1.00 20.00     0.020 C 
HETATM    8  N11 UNL     1     -34.936  15.399  -2.772  1.00 20.00    -0.299 NA
ENDROOT
BRANCH   4   9
HETATM    9  C10 UNL     1     -33.649  17.074  -1.598  1.00 20.00     0.002 C 
HETATM   10  C8  UNL     1     -33.736  18.542  -2.012  1.00 20.00     0.011 C 
HETATM   11  C9  UNL     1     -34.778  16.724  -0.631  1.00 20.00     0.011 C 
ENDBRANCH   4   9
TORSDOF 1
ENDMDL
MODEL 6
REMARK VINA RESULT:      -4.3      1.606      2.354
REMARK  1 active torsions:
REMARK  status: ('A' for Active; 'I' for Inactive)
REMARK    1  A    between atoms: C4_4  and  C10_10 
ROOT
HETATM    1  C1  UNL     1     -33.592  17.401  -3.643  1.00 20.00     0.092 C 
HETATM    2  C2  UNL     1     -34.714  16.276  -1.371  1.00 20.00     0.029 C 
HETATM    3  C3  UNL     1     -35.076  15.600  -2.684  1.00 20.00     0.016 C 
HETATM    4  C4  UNL     1     -34.718  17.787  -1.578  1.00 20.00     0.110 C 
HETATM    5  C5  UNL     1     -34.064  15.964  -3.778  1.00 20.00    -0.014 C 
HETATM    6  C6  UNL     1     -32.818  15.071  -3.685  1.00 20.00     0.020 C 
HETATM    7  C7  UNL     1     -34.704  15.791  -5.161  1.00 20.00     0.020 C 
HETATM    8  N11 UNL     1     -33.841  18.208  -2.672  1.00 20.00    -0.299 NA
ENDROOT
BRANCH   4   9
HETATM    9  C10 UNL     1     -34.264  18.506  -0.312  1.00 20.00     0.002 C 
HETATM   10  C8  UNL     1     -34.834  17.822   0.930  1.00 20.00     0.011 C 
HETATM   11  C9  UNL     1     -32.740  18.559  -0.240  1.00 20.00     0.011 C 
ENDBRANCH   4   9
TORSDOF 1
ENDMDL
MODEL 7
REMARK VINA RESULT:      -4.1      1.813      4.519
REMARK  1 active torsions:
REMARK  status: ('A' for Active; 'I' for Inactive)
REMARK    1  A    between atoms: C4_4  and  C10_10 
ROOT
HETATM    1  C1  UNL     1     -35.451  15.119  -3.887  1.00 20.00     0.092 C 
HETATM    2  C2  UNL     1     -34.078  15.912  -6.163  1.00 20.00     0.029 C 
HETATM    3  C3  UNL     1     -33.435  16.300  -4.841  1.00 20.00     0.016 C 
HETATM    4  C4  UNL     1     -35.587  16.108  -6.052  1.00 20.00     0.110 C 
HETATM    5  C5  UNL     1     -33.977  15.431  -3.698  1.00 20.00    -0.014 C 
HETATM    6  C6  UNL     1     -33.237  14.085  -3.641  1.00 20.00     0.020 C 
HETATM    7  C7  UNL     1     -33.802  16.158  -2.359  1.00 20.00     0.020 C 
HETATM    8  N11 UNL     1     -36.169  15.380  -4.923  1.00 20.00    -0.299 NA
ENDROOT
BRANCH   4   9
HETATM    9  C10 UNL     1     -36.287  15.639  -7.323  1.00 20.00     0.002 C 
HETATM   10  C8  UNL     1     -35.571  14.426  -7.916  1.00 20.00     0.011 C 
HETATM   11  C9  UNL     1     -37.751  15.308  -7.040  1.00 20.00     0.011 C 
ENDBRANCH   4   9
TORSDOF 1
ENDMDL
MODEL 8
REMARK VINA RESULT:      -4.1      0.553      1.134
REMARK  1 active torsions:
REMARK  status: ('A' for Active; 'I' for Inactive)
REMARK    1  A    between atoms: C4_4  and  C10_10 
ROOT
HETATM    1  C1  UNL     1     -35.705  15.332  -3.778  1.00 20.00     0.092 C 
HETATM    2  C2  UNL     1     -33.136  15.964  -2.949  1.00 20.00     0.029 C 
HETATM    3  C3  UNL     1     -33.272  14.667  -3.730  1.00 20.00     0.016 C 
HETATM    4  C4  UNL     1     -34.318  16.090  -1.994  1.00 20.00     0.110 C 
HETATM    5  C5  UNL     1     -34.578  14.653  -4.535  1.00 20.00    -0.014 C 
HETATM    6  C6  UNL     1     -34.407  15.410  -5.861  1.00 20.00     0.020 C 
HETATM    7  C7  UNL     1     -34.994  13.207  -4.832  1.00 20.00     0.020 C 
HETATM    8  N11 UNL     1     -35.609  15.994  -2.678  1.00 20.00    -0.299 NA
ENDROOT
BRANCH   4   9
HETATM    9  C10 UNL     1     -34.277  17.425  -1.258  1.00 20.00     0.002 C 
HETATM   10  C8  UNL     1     -33.647  18.505  -2.136  1.00 20.00     0.011 C 
HETATM   11  C9  UNL     1     -35.681  17.842  -0.822  1.00 20.00     0.011 C 
ENDBRANCH   4   9
TORSDOF 1
ENDMDL
MODEL 9
REMARK VINA RESULT:      -4.1      1.217      4.455
REMARK  1 active torsions:
REMARK  status: ('A' for Active; 'I' for Inactive)
REMARK    1  A    between atoms: C4_4  and  C10_10 
ROOT
HETATM    1  C1  UNL     1     -36.173  16.685  -2.887  1.00 20.00     0.092 C 
HETATM    2  C2  UNL     1     -33.736  16.047  -4.046  1.00 20.00     0.029 C 
HETATM    3  C3  UNL     1     -33.755  17.324  -3.221  1.00 20.00     0.016 C 
HETATM    4  C4  UNL     1     -35.029  15.961  -4.849  1.00 20.00     0.110 C 
HETATM    5  C5  UNL     1     -34.950  17.331  -2.259  1.00 20.00    -0.014 C 
HETATM    6  C6  UNL     1     -34.627  16.537  -0.985  1.00 20.00     0.020 C 
HETATM    7  C7  UNL     1     -35.305  18.773  -1.876  1.00 20.00     0.020 C 
HETATM    8  N11 UNL     1     -36.223  16.053  -4.007  1.00 20.00    -0.299 NA
ENDROOT
BRANCH   4   9
HETATM    9  C10 UNL     1     -35.100  14.646  -5.618  1.00 20.00     0.002 C 
HETATM   10  C8  UNL     1     -34.508  14.808  -7.018  1.00 20.00     0.011 C 
HETATM   11  C9  UNL     1     -34.376  13.537  -4.857  1.00 20.00     0.011 C 
ENDBRANCH   4   9
TORSDOF 1
ENDMDL
