MODEL 1
REMARK VINA RESULT:      -3.9      0.000      0.000
REMARK  0 active torsions:
REMARK  status: ('A' for Active; 'I' for Inactive)
ROOT
HETATM    1  C1  UNL     1     -34.370  16.469  -2.123  1.00 20.00     0.131 C 
HETATM    2  C2  UNL     1     -33.293  16.030  -4.567  1.00 20.00     0.059 C 
HETATM    3  C3  UNL     1     -33.620  17.459  -4.181  1.00 20.00     0.179 C 
HETATM    4  C4  UNL     1     -34.375  15.080  -4.044  1.00 20.00     0.051 C 
HETATM    5  C5  UNL     1     -34.592  16.766  -0.674  1.00 20.00     0.099 C 
HETATM    6  C6  UNL     1     -35.712  15.257  -4.776  1.00 20.00     0.040 C 
HETATM    7  C7  UNL     1     -33.904  13.628  -4.209  1.00 20.00     0.040 C 
HETATM    8  N8  UNL     1     -34.601  15.303  -2.612  1.00 20.00    -0.261 NA
HETATM    9  O9  UNL     1     -33.902  17.563  -2.778  1.00 20.00    -0.338 OA
ENDROOT
TORSDOF 0
ENDMDL
MODEL 2
REMARK VINA RESULT:      -3.9      2.244      3.745
REMARK  0 active torsions:
REMARK  status: ('A' for Active; 'I' for Inactive)
ROOT
HETATM    1  C1  UNL     1     -34.547  15.347  -5.867  1.00 20.00     0.131 C 
HETATM    2  C2  UNL     1     -34.194  13.905  -3.603  1.00 20.00     0.059 C 
HETATM    3  C3  UNL     1     -34.751  13.192  -4.819  1.00 20.00     0.179 C 
HETATM    4  C4  UNL     1     -34.774  15.319  -3.507  1.00 20.00     0.051 C 
HETATM    5  C5  UNL     1     -34.386  16.009  -7.198  1.00 20.00     0.099 C 
HETATM    6  C6  UNL     1     -36.268  15.316  -3.157  1.00 20.00     0.040 C 
HETATM    7  C7  UNL     1     -34.012  16.113  -2.437  1.00 20.00     0.040 C 
HETATM    8  N8  UNL     1     -34.602  16.029  -4.779  1.00 20.00    -0.261 NA
HETATM    9  O9  UNL     1     -34.607  13.996  -6.000  1.00 20.00    -0.338 OA
ENDROOT
TORSDOF 0
ENDMDL
MODEL 3
REMARK VINA RESULT:      -3.8      1.280      2.677
REMARK  0 active torsions:
REMARK  status: ('A' for Active; 'I' for Inactive)
ROOT
HETATM    1  C1  UNL     1     -33.846  16.844  -4.636  1.00 20.00     0.131 C 
HETATM    2  C2  UNL     1     -34.814  15.445  -2.531  1.00 20.00     0.059 C 
HETATM    3  C3  UNL     1     -33.802  16.537  -2.252  1.00 20.00     0.179 C 
HETATM    4  C4  UNL     1     -34.449  14.701  -3.819  1.00 20.00     0.051 C 
HETATM    5  C5  UNL     1     -33.603  17.859  -5.707  1.00 20.00     0.099 C 
HETATM    6  C6  UNL     1     -33.177  13.857  -3.667  1.00 20.00     0.040 C 
HETATM    7  C7  UNL     1     -35.611  13.785  -4.228  1.00 20.00     0.040 C 
HETATM    8  N8  UNL     1     -34.241  15.653  -4.916  1.00 20.00    -0.261 NA
HETATM    9  O9  UNL     1     -33.608  17.368  -3.406  1.00 20.00    -0.338 OA
ENDROOT
TORSDOF 0
ENDMDL
MODEL 4
REMARK VINA RESULT:      -3.8     12.061     13.200
REMARK  0 active torsions:
REMARK  status: ('A' for Active; 'I' for Inactive)
ROOT
HETATM    1  C1  UNL     1     -41.551   4.477  -1.965  1.00 20.00     0.131 C 
HETATM    2  C2  UNL     1     -40.926   6.923  -0.988  1.00 20.00     0.059 C 
HETATM    3  C3  UNL     1     -40.491   5.709  -0.193  1.00 20.00     0.179 C 
HETATM    4  C4  UNL     1     -42.314   6.691  -1.593  1.00 20.00     0.051 C 
HETATM    5  C5  UNL     1     -41.540   3.154  -2.663  1.00 20.00     0.099 C 
HETATM    6  C6  UNL     1     -43.417   6.657  -0.527  1.00 20.00     0.040 C 
HETATM    7  C7  UNL     1     -42.626   7.806  -2.600  1.00 20.00     0.040 C 
HETATM    8  N8  UNL     1     -42.345   5.421  -2.326  1.00 20.00    -0.261 NA
HETATM    9  O9  UNL     1     -40.630   4.508  -0.967  1.00 20.00    -0.338 OA
ENDROOT
TORSDOF 0
ENDMDL
MODEL 5
REMARK VINA RESULT:      -3.7      1.703      2.548
REMARK  0 active torsions:
REMARK  status: ('A' for Active; 'I' for Inactive)
ROOT
HETATM    1  C1  UNL     1     -34.680  15.784  -3.140  1.00 20.00     0.131 C 
HETATM    2  C2  UNL     1     -36.371  15.025  -5.114  1.00 20.00     0.059 C 
HETATM    3  C3  UNL     1     -36.848  14.895  -3.681  1.00 20.00     0.179 C 
HETATM    4  C4  UNL     1     -34.889  14.653  -5.214  1.00 20.00     0.051 C 
HETATM    5  C5  UNL     1     -33.937  16.541  -2.086  1.00 20.00     0.099 C 
HETATM    6  C6  UNL     1     -34.645  13.155  -4.983  1.00 20.00     0.040 C 
HETATM    7  C7  UNL     1     -34.357  15.038  -6.601  1.00 20.00     0.040 C 
HETATM    8  N8  UNL     1     -34.106  15.403  -4.225  1.00 20.00    -0.261 NA
HETATM    9  O9  UNL     1     -35.977  15.597  -2.781  1.00 20.00    -0.338 OA
ENDROOT
TORSDOF 0
ENDMDL
MODEL 6
REMARK VINA RESULT:      -3.7      1.653      2.485
REMARK  0 active torsions:
REMARK  status: ('A' for Active; 'I' for Inactive)
ROOT
HETATM    1  C1  UNL     1     -34.653  15.733  -2.695  1.00 20.00     0.131 C 
HETATM    2  C2  UNL     1     -35.494  13.646  -4.200  1.00 20.00     0.059 C 
HETATM    3  C3  UNL     1     -34.007  13.936  -4.156  1.00 20.00     0.179 C 
HETATM    4  C4  UNL     1     -36.287  14.955  -4.226  1.00 20.00     0.051 C 
HETATM    5  C5  UNL     1     -34.146  16.609  -1.594  1.00 20.00     0.099 C 
HETATM    6  C6  UNL     1     -36.121  15.714  -5.550  1.00 20.00     0.040 C 
HETATM    7  C7  UNL     1     -37.776  14.655  -4.006  1.00 20.00     0.040 C 
HETATM    8  N8  UNL     1     -35.856  15.836  -3.135  1.00 20.00    -0.261 NA
HETATM    9  O9  UNL     1     -33.693  14.865  -3.107  1.00 20.00    -0.338 OA
ENDROOT
TORSDOF 0
ENDMDL
MODEL 7
REMARK VINA RESULT:      -3.7     11.953     13.099
REMARK  0 active torsions:
REMARK  status: ('A' for Active; 'I' for Inactive)
ROOT
HETATM    1  C1  UNL     1     -42.528   7.052  -3.173  1.00 20.00     0.131 C 
HETATM    2  C2  UNL     1     -42.072   4.653  -2.005  1.00 20.00     0.059 C 
HETATM    3  C3  UNL     1     -43.233   4.762  -2.973  1.00 20.00     0.179 C 
HETATM    4  C4  UNL     1     -41.962   5.928  -1.164  1.00 20.00     0.051 C 
HETATM    5  C5  UNL     1     -42.556   8.227  -4.099  1.00 20.00     0.099 C 
HETATM    6  C6  UNL     1     -43.126   6.077  -0.174  1.00 20.00     0.040 C 
HETATM    7  C7  UNL     1     -40.641   5.915  -0.384  1.00 20.00     0.040 C 
HETATM    8  N8  UNL     1     -41.943   7.112  -2.030  1.00 20.00    -0.261 NA
HETATM    9  O9  UNL     1     -43.169   5.987  -3.719  1.00 20.00    -0.338 OA
ENDROOT
TORSDOF 0
ENDMDL
MODEL 8
REMARK VINA RESULT:      -3.7      2.194      3.447
REMARK  0 active torsions:
REMARK  status: ('A' for Active; 'I' for Inactive)
ROOT
HETATM    1  C1  UNL     1     -36.799  14.948  -3.893  1.00 20.00     0.131 C 
HETATM    2  C2  UNL     1     -34.356  14.452  -4.949  1.00 20.00     0.059 C 
HETATM    3  C3  UNL     1     -35.065  13.317  -4.238  1.00 20.00     0.179 C 
HETATM    4  C4  UNL     1     -34.599  15.773  -4.213  1.00 20.00     0.051 C 
HETATM    5  C5  UNL     1     -38.269  15.085  -3.655  1.00 20.00     0.099 C 
HETATM    6  C6  UNL     1     -33.891  15.823  -2.853  1.00 20.00     0.040 C 
HETATM    7  C7  UNL     1     -34.103  16.939  -5.078  1.00 20.00     0.040 C 
HETATM    8  N8  UNL     1     -36.035  15.976  -3.991  1.00 20.00    -0.261 NA
HETATM    9  O9  UNL     1     -36.443  13.641  -3.996  1.00 20.00    -0.338 OA
ENDROOT
TORSDOF 0
ENDMDL
MODEL 9
REMARK VINA RESULT:      -3.6      1.827      3.398
REMARK  0 active torsions:
REMARK  status: ('A' for Active; 'I' for Inactive)
ROOT
HETATM    1  C1  UNL     1     -36.278  15.035  -3.745  1.00 20.00     0.131 C 
HETATM    2  C2  UNL     1     -33.611  15.490  -3.648  1.00 20.00     0.059 C 
HETATM    3  C3  UNL     1     -34.095  14.064  -3.476  1.00 20.00     0.179 C 
HETATM    4  C4  UNL     1     -34.562  16.460  -2.942  1.00 20.00     0.051 C 
HETATM    5  C5  UNL     1     -37.675  14.715  -4.175  1.00 20.00     0.099 C 
HETATM    6  C6  UNL     1     -34.496  16.335  -1.413  1.00 20.00     0.040 C 
HETATM    7  C7  UNL     1     -34.214  17.900  -3.341  1.00 20.00     0.040 C 
HETATM    8  N8  UNL     1     -35.946  16.216  -3.362  1.00 20.00    -0.261 NA
HETATM    9  O9  UNL     1     -35.478  13.941  -3.838  1.00 20.00    -0.338 OA
ENDROOT
TORSDOF 0
ENDMDL
