MODEL 1
REMARK VINA RESULT:      -4.7      0.000      0.000
REMARK  1 active torsions:
REMARK  status: ('A' for Active; 'I' for Inactive)
REMARK    1  A    between atoms: C2_2  and  C3_3 
ROOT
HETATM    1  C1  UNL     1     -33.412  15.228  -3.675  1.00 20.00    -0.010 A 
HETATM    2  C2  UNL     1     -34.602  14.687  -3.973  1.00 20.00    -0.016 A 
HETATM    3  C4  UNL     1     -35.665  15.208  -3.048  1.00 20.00     0.048 A 
HETATM    4  C5  UNL     1     -33.462  16.147  -2.525  1.00 20.00     0.022 A 
HETATM    5  C6  UNL     1     -34.929  16.145  -2.105  1.00 20.00     0.007 A 
HETATM    6  C7  UNL     1     -34.253  17.439  -2.528  1.00 20.00    -0.036 A 
HETATM    7  C9  UNL     1     -33.937  18.429  -1.432  1.00 20.00     0.016 C 
HETATM    8  C10 UNL     1     -34.628  18.105  -3.829  1.00 20.00     0.016 C 
ENDROOT
BRANCH   2   9
HETATM    9  C3  UNL     1     -34.833  13.747  -5.052  1.00 20.00     0.151 C 
HETATM   10  C8  UNL     1     -35.052  14.288  -6.450  1.00 20.00     0.096 C 
HETATM   11  O11 UNL     1     -34.861  12.523  -4.846  1.00 20.00    -0.293 OA
ENDBRANCH   2   9
TORSDOF 1
ENDMDL
MODEL 2
REMARK VINA RESULT:      -4.6      2.463      3.174
REMARK  1 active torsions:
REMARK  status: ('A' for Active; 'I' for Inactive)
REMARK    1  A    between atoms: C2_2  and  C3_3 
ROOT
HETATM    1  C1  UNL     1     -33.898  16.244  -2.354  1.00 20.00    -0.010 A 
HETATM    2  C2  UNL     1     -34.090  17.209  -3.266  1.00 20.00    -0.016 A 
HETATM    3  C4  UNL     1     -35.045  18.245  -2.745  1.00 20.00     0.048 A 
HETATM    4  C5  UNL     1     -34.685  16.443  -1.123  1.00 20.00     0.022 A 
HETATM    5  C6  UNL     1     -35.438  17.748  -1.364  1.00 20.00     0.007 A 
HETATM    6  C7  UNL     1     -34.483  17.618  -0.189  1.00 20.00    -0.036 A 
HETATM    7  C9  UNL     1     -35.105  17.507   1.183  1.00 20.00     0.016 C 
HETATM    8  C10 UNL     1     -33.177  18.375  -0.181  1.00 20.00     0.016 C 
ENDROOT
BRANCH   2   9
HETATM    9  C3  UNL     1     -33.446  17.255  -4.564  1.00 20.00     0.151 C 
HETATM   10  C8  UNL     1     -33.617  18.498  -5.413  1.00 20.00     0.096 C 
HETATM   11  O11 UNL     1     -32.773  16.301  -4.983  1.00 20.00    -0.293 OA
ENDBRANCH   2   9
TORSDOF 1
ENDMDL
MODEL 3
REMARK VINA RESULT:      -4.5      1.445      2.207
REMARK  1 active torsions:
REMARK  status: ('A' for Active; 'I' for Inactive)
REMARK    1  A    between atoms: C2_2  and  C3_3 
ROOT
HETATM    1  C1  UNL     1     -35.883  16.673  -3.260  1.00 20.00    -0.010 A 
HETATM    2  C2  UNL     1     -35.280  15.491  -3.452  1.00 20.00    -0.016 A 
HETATM    3  C4  UNL     1     -33.817  15.585  -3.125  1.00 20.00     0.048 A 
HETATM    4  C5  UNL     1     -34.959  17.732  -2.817  1.00 20.00     0.022 A 
HETATM    5  C6  UNL     1     -33.605  17.035  -2.723  1.00 20.00     0.007 A 
HETATM    6  C7  UNL     1     -34.218  17.689  -1.496  1.00 20.00    -0.036 A 
HETATM    7  C9  UNL     1     -33.590  18.981  -1.031  1.00 20.00     0.016 C 
HETATM    8  C10 UNL     1     -34.731  16.843  -0.357  1.00 20.00     0.016 C 
ENDROOT
BRANCH   2   9
HETATM    9  C3  UNL     1     -35.953  14.284  -3.891  1.00 20.00     0.151 C 
HETATM   10  C8  UNL     1     -35.123  13.172  -4.499  1.00 20.00     0.096 C 
HETATM   11  O11 UNL     1     -37.183  14.157  -3.783  1.00 20.00    -0.293 OA
ENDBRANCH   2   9
TORSDOF 1
ENDMDL
MODEL 4
REMARK VINA RESULT:      -4.5      2.440      4.652
REMARK  1 active torsions:
REMARK  status: ('A' for Active; 'I' for Inactive)
REMARK    1  A    between atoms: C2_2  and  C3_3 
ROOT
HETATM    1  C1  UNL     1     -33.855  17.090  -3.736  1.00 20.00    -0.010 A 
HETATM    2  C2  UNL     1     -33.990  17.189  -2.406  1.00 20.00    -0.016 A 
HETATM    3  C4  UNL     1     -34.764  16.020  -1.866  1.00 20.00     0.048 A 
HETATM    4  C5  UNL     1     -34.517  15.901  -4.301  1.00 20.00     0.022 A 
HETATM    5  C6  UNL     1     -35.115  15.191  -3.090  1.00 20.00     0.007 A 
HETATM    6  C7  UNL     1     -34.100  14.483  -3.972  1.00 20.00    -0.036 A 
HETATM    7  C9  UNL     1     -34.628  13.394  -4.875  1.00 20.00     0.016 C 
HETATM    8  C10 UNL     1     -32.712  14.193  -3.455  1.00 20.00     0.016 C 
ENDROOT
BRANCH   2   9
HETATM    9  C3  UNL     1     -33.442  18.262  -1.599  1.00 20.00     0.151 C 
HETATM   10  C8  UNL     1     -33.517  18.145  -0.090  1.00 20.00     0.096 C 
HETATM   11  O11 UNL     1     -32.928  19.262  -2.122  1.00 20.00    -0.293 OA
ENDBRANCH   2   9
TORSDOF 1
ENDMDL
MODEL 5
REMARK VINA RESULT:      -4.5      2.345      4.432
REMARK  1 active torsions:
REMARK  status: ('A' for Active; 'I' for Inactive)
REMARK    1  A    between atoms: C2_2  and  C3_3 
ROOT
HETATM    1  C1  UNL     1     -35.501  15.788  -2.824  1.00 20.00    -0.010 A 
HETATM    2  C2  UNL     1     -34.295  16.192  -2.400  1.00 20.00    -0.016 A 
HETATM    3  C4  UNL     1     -33.206  15.498  -3.168  1.00 20.00     0.048 A 
HETATM    4  C5  UNL     1     -35.433  14.770  -3.887  1.00 20.00     0.022 A 
HETATM    5  C6  UNL     1     -33.939  14.572  -4.124  1.00 20.00     0.007 A 
HETATM    6  C7  UNL     1     -34.840  15.037  -5.255  1.00 20.00    -0.036 A 
HETATM    7  C9  UNL     1     -35.150  14.027  -6.335  1.00 20.00     0.016 C 
HETATM    8  C10 UNL     1     -34.735  16.447  -5.783  1.00 20.00     0.016 C 
ENDROOT
BRANCH   2   9
HETATM    9  C3  UNL     1     -34.073  17.179  -1.361  1.00 20.00     0.151 C 
HETATM   10  C8  UNL     1     -34.807  17.022  -0.044  1.00 20.00     0.096 C 
HETATM   11  O11 UNL     1     -33.307  18.138  -1.537  1.00 20.00    -0.293 OA
ENDBRANCH   2   9
TORSDOF 1
ENDMDL
MODEL 6
REMARK VINA RESULT:      -4.5      2.190      4.324
REMARK  1 active torsions:
REMARK  status: ('A' for Active; 'I' for Inactive)
REMARK    1  A    between atoms: C2_2  and  C3_3 
ROOT
HETATM    1  C1  UNL     1     -33.897  15.275  -2.979  1.00 20.00    -0.010 A 
HETATM    2  C2  UNL     1     -33.861  16.566  -2.615  1.00 20.00    -0.016 A 
HETATM    3  C4  UNL     1     -33.632  17.444  -3.812  1.00 20.00     0.048 A 
HETATM    4  C5  UNL     1     -33.677  15.070  -4.421  1.00 20.00     0.022 A 
HETATM    5  C6  UNL     1     -33.504  16.480  -4.980  1.00 20.00     0.007 A 
HETATM    6  C7  UNL     1     -34.622  15.585  -5.487  1.00 20.00    -0.036 A 
HETATM    7  C9  UNL     1     -34.456  15.011  -6.874  1.00 20.00     0.016 C 
HETATM    8  C10 UNL     1     -36.060  15.897  -5.150  1.00 20.00     0.016 C 
ENDROOT
BRANCH   2   9
HETATM    9  C3  UNL     1     -34.041  17.046  -1.259  1.00 20.00     0.151 C 
HETATM   10  C8  UNL     1     -33.239  18.248  -0.804  1.00 20.00     0.096 C 
HETATM   11  O11 UNL     1     -34.827  16.488  -0.478  1.00 20.00    -0.293 OA
ENDBRANCH   2   9
TORSDOF 1
ENDMDL
MODEL 7
REMARK VINA RESULT:      -4.4      2.325      3.076
REMARK  1 active torsions:
REMARK  status: ('A' for Active; 'I' for Inactive)
REMARK    1  A    between atoms: C2_2  and  C3_3 
ROOT
HETATM    1  C1  UNL     1     -35.807  13.739  -4.313  1.00 20.00    -0.010 A 
HETATM    2  C2  UNL     1     -36.670  14.701  -3.954  1.00 20.00    -0.016 A 
HETATM    3  C4  UNL     1     -36.007  15.691  -3.040  1.00 20.00     0.048 A 
HETATM    4  C5  UNL     1     -34.475  13.895  -3.701  1.00 20.00     0.022 A 
HETATM    5  C6  UNL     1     -34.590  15.168  -2.868  1.00 20.00     0.007 A 
HETATM    6  C7  UNL     1     -33.564  15.072  -3.984  1.00 20.00    -0.036 A 
HETATM    7  C9  UNL     1     -32.120  14.925  -3.568  1.00 20.00     0.016 C 
HETATM    8  C10 UNL     1     -33.731  15.885  -5.245  1.00 20.00     0.016 C 
ENDROOT
BRANCH   2   9
HETATM    9  C3  UNL     1     -38.046  14.784  -4.405  1.00 20.00     0.151 C 
HETATM   10  C8  UNL     1     -38.344  15.534  -5.687  1.00 20.00     0.096 C 
HETATM   11  O11 UNL     1     -38.967  14.263  -3.758  1.00 20.00    -0.293 OA
ENDBRANCH   2   9
TORSDOF 1
ENDMDL
MODEL 8
REMARK VINA RESULT:      -4.3      1.570      1.891
REMARK  1 active torsions:
REMARK  status: ('A' for Active; 'I' for Inactive)
REMARK    1  A    between atoms: C2_2  and  C3_3 
ROOT
HETATM    1  C1  UNL     1     -33.803  16.312  -4.784  1.00 20.00    -0.010 A 
HETATM    2  C2  UNL     1     -34.564  15.348  -5.324  1.00 20.00    -0.016 A 
HETATM    3  C4  UNL     1     -35.110  14.446  -4.254  1.00 20.00     0.048 A 
HETATM    4  C5  UNL     1     -33.686  16.208  -3.319  1.00 20.00     0.022 A 
HETATM    5  C6  UNL     1     -34.536  14.994  -2.958  1.00 20.00     0.007 A 
HETATM    6  C7  UNL     1     -34.863  16.360  -2.379  1.00 20.00    -0.036 A 
HETATM    7  C9  UNL     1     -34.541  16.574  -0.919  1.00 20.00     0.016 C 
HETATM    8  C10 UNL     1     -36.105  17.097  -2.819  1.00 20.00     0.016 C 
ENDROOT
BRANCH   2   9
HETATM    9  C3  UNL     1     -34.840  15.212  -6.741  1.00 20.00     0.151 C 
HETATM   10  C8  UNL     1     -34.695  16.431  -7.628  1.00 20.00     0.096 C 
HETATM   11  O11 UNL     1     -35.195  14.126  -7.225  1.00 20.00    -0.293 OA
ENDBRANCH   2   9
TORSDOF 1
ENDMDL
MODEL 9
REMARK VINA RESULT:      -4.3     11.519     12.363
REMARK  1 active torsions:
REMARK  status: ('A' for Active; 'I' for Inactive)
REMARK    1  A    between atoms: C2_2  and  C3_3 
ROOT
HETATM    1  C1  UNL     1     -32.429   5.783   3.624  1.00 20.00    -0.010 A 
HETATM    2  C2  UNL     1     -32.843   6.960   3.132  1.00 20.00    -0.016 A 
HETATM    3  C4  UNL     1     -34.337   7.079   3.233  1.00 20.00     0.048 A 
HETATM    4  C5  UNL     1     -33.534   4.929   4.095  1.00 20.00     0.022 A 
HETATM    5  C6  UNL     1     -34.787   5.763   3.848  1.00 20.00     0.007 A 
HETATM    6  C7  UNL     1     -34.437   5.302   5.252  1.00 20.00    -0.036 A 
HETATM    7  C9  UNL     1     -35.284   4.195   5.834  1.00 20.00     0.016 C 
HETATM    8  C10 UNL     1     -33.980   6.298   6.290  1.00 20.00     0.016 C 
ENDROOT
BRANCH   2   9
HETATM    9  C3  UNL     1     -31.966   7.984   2.597  1.00 20.00     0.151 C 
HETATM   10  C8  UNL     1     -32.280   8.567   1.235  1.00 20.00     0.096 C 
HETATM   11  O11 UNL     1     -30.974   8.376   3.230  1.00 20.00    -0.293 OA
ENDBRANCH   2   9
TORSDOF 1
ENDMDL
