MODEL 1
REMARK VINA RESULT:      -4.1      0.000      0.000
REMARK  1 active torsions:
REMARK  status: ('A' for Active; 'I' for Inactive)
REMARK    1  A    between atoms: C1_1  and  C4_4 
ROOT
HETATM    1  C1  UNL     1     -33.517   6.405   3.834  1.00 20.00    -0.049 C 
HETATM    2  C2  UNL     1     -32.793   7.006   3.088  1.00 20.00     0.008 C 
HETATM    3 CL8  UNL     1     -31.734   7.884   1.999  1.00 20.00    -0.023 Cl
ENDROOT
BRANCH   1   4
HETATM    4  C4  UNL     1     -34.381   5.689   4.723  1.00 20.00     0.147 A 
HETATM    5  C3  UNL     1     -34.414   6.029   6.200  1.00 20.00     0.166 A 
HETATM    6  C5  UNL     1     -33.587   7.104   6.812  1.00 20.00     0.044 C 
HETATM    7  O7  UNL     1     -33.664   4.915   5.702  1.00 20.00    -0.356 OA
HETATM    8  C6  UNL     1     -35.536   4.958   4.118  1.00 20.00     0.063 C 
ENDBRANCH   1   4
TORSDOF 1
ENDMDL
MODEL 2
REMARK VINA RESULT:      -3.7     11.564     12.791
REMARK  1 active torsions:
REMARK  status: ('A' for Active; 'I' for Inactive)
REMARK    1  A    between atoms: C1_1  and  C4_4 
ROOT
HETATM    1  C1  UNL     1     -34.032  16.432  -2.479  1.00 20.00    -0.049 C 
HETATM    2  C2  UNL     1     -34.384  16.691  -1.361  1.00 20.00     0.008 C 
HETATM    3 CL8  UNL     1     -34.899  17.069   0.273  1.00 20.00    -0.023 Cl
ENDROOT
BRANCH   1   4
HETATM    4  C4  UNL     1     -33.611  16.124  -3.813  1.00 20.00     0.147 A 
HETATM    5  C3  UNL     1     -33.811  14.733  -4.379  1.00 20.00     0.166 A 
HETATM    6  C5  UNL     1     -34.449  13.623  -3.619  1.00 20.00     0.044 C 
HETATM    7  O7  UNL     1     -32.547  15.158  -3.858  1.00 20.00    -0.356 OA
HETATM    8  C6  UNL     1     -33.412  17.271  -4.752  1.00 20.00     0.063 C 
ENDBRANCH   1   4
TORSDOF 1
ENDMDL
MODEL 3
REMARK VINA RESULT:      -3.7     11.923     13.015
REMARK  1 active torsions:
REMARK  status: ('A' for Active; 'I' for Inactive)
REMARK    1  A    between atoms: C1_1  and  C4_4 
ROOT
HETATM    1  C1  UNL     1     -34.262  15.816  -2.616  1.00 20.00    -0.049 C 
HETATM    2  C2  UNL     1     -34.503  16.321  -1.553  1.00 20.00     0.008 C 
HETATM    3 CL8  UNL     1     -34.857  17.058  -0.002  1.00 20.00    -0.023 Cl
ENDROOT
BRANCH   1   4
HETATM    4  C4  UNL     1     -33.973  15.213  -3.882  1.00 20.00     0.147 A 
HETATM    5  C3  UNL     1     -33.592  16.072  -5.072  1.00 20.00     0.166 A 
HETATM    6  C5  UNL     1     -33.483  17.555  -5.010  1.00 20.00     0.044 C 
HETATM    7  O7  UNL     1     -34.922  15.568  -4.903  1.00 20.00    -0.356 OA
HETATM    8  C6  UNL     1     -33.612  13.762  -3.885  1.00 20.00     0.063 C 
ENDBRANCH   1   4
TORSDOF 1
ENDMDL
MODEL 4
REMARK VINA RESULT:      -3.6     11.873     12.341
REMARK  1 active torsions:
REMARK  status: ('A' for Active; 'I' for Inactive)
REMARK    1  A    between atoms: C1_1  and  C4_4 
ROOT
HETATM    1  C1  UNL     1     -34.506  15.958  -2.156  1.00 20.00    -0.049 C 
HETATM    2  C2  UNL     1     -34.696  16.486  -1.095  1.00 20.00     0.008 C 
HETATM    3 CL8  UNL     1     -34.973  17.258   0.455  1.00 20.00    -0.023 Cl
ENDROOT
BRANCH   1   4
HETATM    4  C4  UNL     1     -34.279  15.327  -3.422  1.00 20.00     0.147 A 
HETATM    5  C3  UNL     1     -35.434  14.730  -4.200  1.00 20.00     0.166 A 
HETATM    6  C5  UNL     1     -36.845  14.765  -3.728  1.00 20.00     0.044 C 
HETATM    7  O7  UNL     1     -34.563  13.917  -3.406  1.00 20.00    -0.356 OA
HETATM    8  C6  UNL     1     -33.014  15.669  -4.143  1.00 20.00     0.063 C 
ENDBRANCH   1   4
TORSDOF 1
ENDMDL
MODEL 5
REMARK VINA RESULT:      -3.6     11.768     12.562
REMARK  1 active torsions:
REMARK  status: ('A' for Active; 'I' for Inactive)
REMARK    1  A    between atoms: C1_1  and  C4_4 
ROOT
HETATM    1  C1  UNL     1     -35.244  15.303  -2.908  1.00 20.00    -0.049 C 
HETATM    2  C2  UNL     1     -34.817  16.009  -2.036  1.00 20.00     0.008 C 
HETATM    3 CL8  UNL     1     -34.194  17.040  -0.761  1.00 20.00    -0.023 Cl
ENDROOT
BRANCH   1   4
HETATM    4  C4  UNL     1     -35.753  14.462  -3.949  1.00 20.00     0.147 A 
HETATM    5  C3  UNL     1     -36.835  14.966  -4.883  1.00 20.00     0.166 A 
HETATM    6  C5  UNL     1     -37.420  16.332  -4.797  1.00 20.00     0.044 C 
HETATM    7  O7  UNL     1     -37.139  14.120  -3.768  1.00 20.00    -0.356 OA
HETATM    8  C6  UNL     1     -34.907  13.304  -4.373  1.00 20.00     0.063 C 
ENDBRANCH   1   4
TORSDOF 1
ENDMDL
MODEL 6
REMARK VINA RESULT:      -3.5     11.773     12.274
REMARK  1 active torsions:
REMARK  status: ('A' for Active; 'I' for Inactive)
REMARK    1  A    between atoms: C1_1  and  C4_4 
ROOT
HETATM    1  C1  UNL     1     -35.178  15.723  -2.501  1.00 20.00    -0.049 C 
HETATM    2  C2  UNL     1     -34.765  16.389  -1.591  1.00 20.00     0.008 C 
HETATM    3 CL8  UNL     1     -34.163  17.362  -0.261  1.00 20.00    -0.023 Cl
ENDROOT
BRANCH   1   4
HETATM    4  C4  UNL     1     -35.669  14.929  -3.587  1.00 20.00     0.147 A 
HETATM    5  C3  UNL     1     -34.786  13.877  -4.229  1.00 20.00     0.166 A 
HETATM    6  C5  UNL     1     -33.395  13.593  -3.784  1.00 20.00     0.044 C 
HETATM    7  O7  UNL     1     -34.968  15.169  -4.820  1.00 20.00    -0.356 OA
HETATM    8  C6  UNL     1     -37.152  14.838  -3.755  1.00 20.00     0.063 C 
ENDBRANCH   1   4
TORSDOF 1
ENDMDL
MODEL 7
REMARK VINA RESULT:      -3.5      2.492      3.345
REMARK  1 active torsions:
REMARK  status: ('A' for Active; 'I' for Inactive)
REMARK    1  A    between atoms: C1_1  and  C4_4 
ROOT
HETATM    1  C1  UNL     1     -34.187   6.083   5.691  1.00 20.00    -0.049 C 
HETATM    2  C2  UNL     1     -33.877   6.885   6.529  1.00 20.00     0.008 C 
HETATM    3 CL8  UNL     1     -33.423   8.055   7.754  1.00 20.00    -0.023 Cl
ENDROOT
BRANCH   1   4
HETATM    4  C4  UNL     1     -34.556   5.128   4.690  1.00 20.00     0.147 A 
HETATM    5  C3  UNL     1     -33.985   5.224   3.290  1.00 20.00     0.166 A 
HETATM    6  C5  UNL     1     -33.021   6.276   2.869  1.00 20.00     0.044 C 
HETATM    7  O7  UNL     1     -35.295   5.711   3.602  1.00 20.00    -0.356 OA
HETATM    8  C6  UNL     1     -35.120   3.825   5.160  1.00 20.00     0.063 C 
ENDBRANCH   1   4
TORSDOF 1
ENDMDL
MODEL 8
REMARK VINA RESULT:      -3.4     11.842     12.957
REMARK  1 active torsions:
REMARK  status: ('A' for Active; 'I' for Inactive)
REMARK    1  A    between atoms: C1_1  and  C4_4 
ROOT
HETATM    1  C1  UNL     1     -36.464  14.450  -4.096  1.00 20.00    -0.049 C 
HETATM    2  C2  UNL     1     -37.605  14.732  -3.853  1.00 20.00     0.008 C 
HETATM    3 CL8  UNL     1     -39.273  15.143  -3.497  1.00 20.00    -0.023 Cl
ENDROOT
BRANCH   1   4
HETATM    4  C4  UNL     1     -35.102  14.115  -4.387  1.00 20.00     0.147 A 
HETATM    5  C3  UNL     1     -34.613  14.070  -5.820  1.00 20.00     0.166 A 
HETATM    6  C5  UNL     1     -35.479  14.371  -6.992  1.00 20.00     0.044 C 
HETATM    7  O7  UNL     1     -34.970  12.879  -5.110  1.00 20.00    -0.356 OA
HETATM    8  C6  UNL     1     -34.107  14.266  -3.281  1.00 20.00     0.063 C 
ENDBRANCH   1   4
TORSDOF 1
ENDMDL
MODEL 9
REMARK VINA RESULT:      -3.3     12.092     12.437
REMARK  1 active torsions:
REMARK  status: ('A' for Active; 'I' for Inactive)
REMARK    1  A    between atoms: C1_1  and  C4_4 
ROOT
HETATM    1  C1  UNL     1     -35.935  14.812  -3.637  1.00 20.00    -0.049 C 
HETATM    2  C2  UNL     1     -37.118  14.725  -3.822  1.00 20.00     0.008 C 
HETATM    3 CL8  UNL     1     -38.846  14.597  -4.092  1.00 20.00    -0.023 Cl
ENDROOT
BRANCH   1   4
HETATM    4  C4  UNL     1     -34.523  14.916  -3.418  1.00 20.00     0.147 A 
HETATM    5  C3  UNL     1     -33.979  15.848  -2.354  1.00 20.00     0.166 A 
HETATM    6  C5  UNL     1     -34.843  16.687  -1.480  1.00 20.00     0.044 C 
HETATM    7  O7  UNL     1     -34.000  16.218  -3.738  1.00 20.00    -0.356 OA
HETATM    8  C6  UNL     1     -33.667  13.794  -3.911  1.00 20.00     0.063 C 
ENDBRANCH   1   4
TORSDOF 1
ENDMDL
