MODEL 1
REMARK VINA RESULT:      -5.0      0.000      0.000
REMARK  3 active torsions:
REMARK  status: ('A' for Active; 'I' for Inactive)
REMARK    1  A    between atoms: C1_1  and  C10_10 
REMARK    2  A    between atoms: C7_7  and  C8_8 
REMARK    3  A    between atoms: C9_9  and  C10_10 
ROOT
HETATM    1  C2  UNL     1     -34.912  16.240  -7.292  1.00 20.00     0.006 C 
HETATM    2  C3  UNL     1     -33.586  17.300  -5.468  1.00 20.00     0.006 C 
HETATM    3  C4  UNL     1     -34.611  14.844  -6.699  1.00 20.00     0.019 C 
HETATM    4  C5  UNL     1     -33.290  15.910  -4.873  1.00 20.00     0.019 C 
HETATM    5  C7  UNL     1     -34.963  17.296  -6.162  1.00 20.00    -0.010 C 
HETATM    6  C10 UNL     1     -34.464  14.945  -5.158  1.00 20.00     0.040 C 
ENDROOT
BRANCH   6   7
HETATM    7  C1  UNL     1     -34.156  13.604  -4.565  1.00 20.00     0.228 C 
HETATM    8  O11 UNL     1     -34.807  12.605  -4.857  1.00 20.00    -0.279 OA
HETATM    9 CL12 UNL     1     -32.813  13.667  -3.464  1.00 20.00    -0.043 Cl
ENDBRANCH   6   7
BRANCH   6  10
HETATM   10  C9  UNL     1     -35.778  15.504  -4.625  1.00 20.00     0.007 A 
HETATM   11  C6  UNL     1     -36.820  14.716  -3.871  1.00 20.00     0.011 A 
HETATM   12  C8  UNL     1     -35.789  15.518  -3.116  1.00 20.00    -0.005 A 
ENDBRANCH   6  10
TORSDOF 3
ENDMDL
MODEL 2
REMARK VINA RESULT:      -4.7      1.761      2.235
REMARK  3 active torsions:
REMARK  status: ('A' for Active; 'I' for Inactive)
REMARK    1  A    between atoms: C1_1  and  C10_10 
REMARK    2  A    between atoms: C7_7  and  C8_8 
REMARK    3  A    between atoms: C9_9  and  C10_10 
ROOT
HETATM    1  C2  UNL     1     -33.606  17.382  -4.743  1.00 20.00     0.006 C 
HETATM    2  C3  UNL     1     -33.706  16.147  -2.582  1.00 20.00     0.006 C 
HETATM    3  C4  UNL     1     -33.821  16.057  -5.510  1.00 20.00     0.019 C 
HETATM    4  C5  UNL     1     -33.926  14.826  -3.345  1.00 20.00     0.019 C 
HETATM    5  C7  UNL     1     -34.317  17.322  -3.370  1.00 20.00    -0.010 C 
HETATM    6  C10 UNL     1     -34.689  15.092  -4.663  1.00 20.00     0.040 C 
ENDROOT
BRANCH   6   7
HETATM    7  C1  UNL     1     -34.897  13.793  -5.383  1.00 20.00     0.228 C 
HETATM    8  O11 UNL     1     -34.850  12.716  -4.795  1.00 20.00    -0.279 OA
HETATM    9 CL12 UNL     1     -35.196  14.026  -7.078  1.00 20.00    -0.043 Cl
ENDBRANCH   6   7
BRANCH   6  10
HETATM   10  C9  UNL     1     -36.012  15.803  -4.400  1.00 20.00     0.007 A 
HETATM   11  C6  UNL     1     -37.327  15.474  -5.062  1.00 20.00     0.011 A 
HETATM   12  C8  UNL     1     -36.994  14.885  -3.713  1.00 20.00    -0.005 A 
ENDBRANCH   6  10
TORSDOF 3
ENDMDL
MODEL 3
REMARK VINA RESULT:      -4.7      1.163      3.089
REMARK  3 active torsions:
REMARK  status: ('A' for Active; 'I' for Inactive)
REMARK    1  A    between atoms: C1_1  and  C10_10 
REMARK    2  A    between atoms: C7_7  and  C8_8 
REMARK    3  A    between atoms: C9_9  and  C10_10 
ROOT
HETATM    1  C2  UNL     1     -35.679  16.961  -2.622  1.00 20.00     0.006 C 
HETATM    2  C3  UNL     1     -37.632  15.834  -3.680  1.00 20.00     0.006 C 
HETATM    3  C4  UNL     1     -34.857  15.657  -2.748  1.00 20.00     0.019 C 
HETATM    4  C5  UNL     1     -36.813  14.534  -3.811  1.00 20.00     0.019 C 
HETATM    5  C7  UNL     1     -36.701  17.058  -3.780  1.00 20.00    -0.010 C 
HETATM    6  C10 UNL     1     -35.315  14.864  -4.000  1.00 20.00     0.040 C 
ENDROOT
BRANCH   6   7
HETATM    7  C1  UNL     1     -34.541  13.587  -4.131  1.00 20.00     0.228 C 
HETATM    8  O11 UNL     1     -35.055  12.566  -4.579  1.00 20.00    -0.279 OA
HETATM    9 CL12 UNL     1     -32.900  13.757  -3.586  1.00 20.00    -0.043 Cl
ENDBRANCH   6   7
BRANCH   6  10
HETATM   10  C9  UNL     1     -35.098  15.776  -5.203  1.00 20.00     0.007 A 
HETATM   11  C6  UNL     1     -34.047  15.582  -6.267  1.00 20.00     0.011 A 
HETATM   12  C8  UNL     1     -35.448  15.068  -6.489  1.00 20.00    -0.005 A 
ENDBRANCH   6  10
TORSDOF 3
ENDMDL
MODEL 4
REMARK VINA RESULT:      -4.5      1.689      2.835
REMARK  3 active torsions:
REMARK  status: ('A' for Active; 'I' for Inactive)
REMARK    1  A    between atoms: C1_1  and  C10_10 
REMARK    2  A    between atoms: C7_7  and  C8_8 
REMARK    3  A    between atoms: C9_9  and  C10_10 
ROOT
HETATM    1  C2  UNL     1     -34.284  16.976  -6.452  1.00 20.00     0.006 C 
HETATM    2  C3  UNL     1     -35.889  15.291  -7.341  1.00 20.00     0.006 C 
HETATM    3  C4  UNL     1     -34.929  16.853  -5.053  1.00 20.00     0.019 C 
HETATM    4  C5  UNL     1     -36.530  15.162  -5.945  1.00 20.00     0.019 C 
HETATM    5  C7  UNL     1     -34.391  15.629  -7.206  1.00 20.00    -0.010 C 
HETATM    6  C10 UNL     1     -35.472  15.415  -4.847  1.00 20.00     0.040 C 
ENDROOT
BRANCH   6   7
HETATM    7  C1  UNL     1     -36.117  15.279  -3.500  1.00 20.00     0.228 C 
HETATM    8  O11 UNL     1     -37.174  14.672  -3.351  1.00 20.00    -0.279 OA
HETATM    9 CL12 UNL     1     -35.199  16.064  -2.252  1.00 20.00    -0.043 Cl
ENDBRANCH   6   7
BRANCH   6  10
HETATM   10  C9  UNL     1     -34.285  14.470  -4.996  1.00 20.00     0.007 A 
HETATM   11  C6  UNL     1     -33.625  13.712  -3.872  1.00 20.00     0.011 A 
HETATM   12  C8  UNL     1     -34.688  13.044  -4.709  1.00 20.00    -0.005 A 
ENDBRANCH   6  10
TORSDOF 3
ENDMDL
MODEL 5
REMARK VINA RESULT:      -4.5      3.078      4.179
REMARK  3 active torsions:
REMARK  status: ('A' for Active; 'I' for Inactive)
REMARK    1  A    between atoms: C1_1  and  C10_10 
REMARK    2  A    between atoms: C7_7  and  C8_8 
REMARK    3  A    between atoms: C9_9  and  C10_10 
ROOT
HETATM    1  C2  UNL     1     -33.029  15.931  -4.611  1.00 20.00     0.006 C 
HETATM    2  C3  UNL     1     -34.503  14.196  -3.600  1.00 20.00     0.006 C 
HETATM    3  C4  UNL     1     -34.123  16.998  -4.374  1.00 20.00     0.019 C 
HETATM    4  C5  UNL     1     -35.593  15.259  -3.359  1.00 20.00     0.019 C 
HETATM    5  C7  UNL     1     -33.106  14.842  -3.515  1.00 20.00    -0.010 C 
HETATM    6  C10 UNL     1     -34.945  16.640  -3.109  1.00 20.00     0.040 C 
ENDROOT
BRANCH   6   7
HETATM    7  C1  UNL     1     -36.023  17.655  -2.871  1.00 20.00     0.228 C 
HETATM    8  O11 UNL     1     -37.124  17.334  -2.433  1.00 20.00    -0.279 OA
HETATM    9 CL12 UNL     1     -35.511  19.263  -3.284  1.00 20.00    -0.043 Cl
ENDBRANCH   6   7
BRANCH   6  10
HETATM   10  C9  UNL     1     -33.962  16.586  -1.945  1.00 20.00     0.007 A 
HETATM   11  C6  UNL     1     -33.666  17.722  -0.998  1.00 20.00     0.011 A 
HETATM   12  C8  UNL     1     -34.682  16.672  -0.622  1.00 20.00    -0.005 A 
ENDBRANCH   6  10
TORSDOF 3
ENDMDL
MODEL 6
REMARK VINA RESULT:      -4.4      2.335      3.389
REMARK  3 active torsions:
REMARK  status: ('A' for Active; 'I' for Inactive)
REMARK    1  A    between atoms: C1_1  and  C10_10 
REMARK    2  A    between atoms: C7_7  and  C8_8 
REMARK    3  A    between atoms: C9_9  and  C10_10 
ROOT
HETATM    1  C2  UNL     1     -33.585  13.798  -3.868  1.00 20.00     0.006 C 
HETATM    2  C3  UNL     1     -33.597  16.028  -2.756  1.00 20.00     0.006 C 
HETATM    3  C4  UNL     1     -35.123  13.721  -3.730  1.00 20.00     0.019 C 
HETATM    4  C5  UNL     1     -35.131  15.955  -2.622  1.00 20.00     0.019 C 
HETATM    5  C7  UNL     1     -33.139  15.272  -4.019  1.00 20.00    -0.010 C 
HETATM    6  C10 UNL     1     -35.731  15.146  -3.795  1.00 20.00     0.040 C 
ENDROOT
BRANCH   6   7
HETATM    7  C1  UNL     1     -37.222  15.095  -3.647  1.00 20.00     0.228 C 
HETATM    8  O11 UNL     1     -37.862  14.085  -3.927  1.00 20.00    -0.279 OA
HETATM    9 CL12 UNL     1     -37.873  16.592  -3.054  1.00 20.00    -0.043 Cl
ENDBRANCH   6   7
BRANCH   6  10
HETATM   10  C9  UNL     1     -35.323  15.739  -5.139  1.00 20.00     0.007 A 
HETATM   11  C6  UNL     1     -36.224  15.882  -6.341  1.00 20.00     0.011 A 
HETATM   12  C8  UNL     1     -36.036  17.044  -5.396  1.00 20.00    -0.005 A 
ENDBRANCH   6  10
TORSDOF 3
ENDMDL
MODEL 7
REMARK VINA RESULT:      -4.4      2.259      3.426
REMARK  3 active torsions:
REMARK  status: ('A' for Active; 'I' for Inactive)
REMARK    1  A    between atoms: C1_1  and  C10_10 
REMARK    2  A    between atoms: C7_7  and  C8_8 
REMARK    3  A    between atoms: C9_9  and  C10_10 
ROOT
HETATM    1  C2  UNL     1     -34.075  16.275  -2.375  1.00 20.00     0.006 C 
HETATM    2  C3  UNL     1     -34.171  17.484  -4.551  1.00 20.00     0.006 C 
HETATM    3  C4  UNL     1     -35.492  15.709  -2.627  1.00 20.00     0.019 C 
HETATM    4  C5  UNL     1     -35.581  16.918  -4.806  1.00 20.00     0.019 C 
HETATM    5  C7  UNL     1     -33.341  16.485  -3.721  1.00 20.00    -0.010 C 
HETATM    6  C10 UNL     1     -35.724  15.525  -4.150  1.00 20.00     0.040 C 
ENDROOT
BRANCH   6   7
HETATM    7  C1  UNL     1     -37.099  14.992  -4.416  1.00 20.00     0.228 C 
HETATM    8  O11 UNL     1     -37.603  14.127  -3.707  1.00 20.00    -0.279 OA
HETATM    9 CL12 UNL     1     -37.834  15.740  -5.802  1.00 20.00    -0.043 Cl
ENDBRANCH   6   7
BRANCH   6  10
HETATM   10  C9  UNL     1     -34.647  14.568  -4.647  1.00 20.00     0.007 A 
HETATM   11  C6  UNL     1     -34.845  13.098  -4.923  1.00 20.00     0.011 A 
HETATM   12  C8  UNL     1     -34.946  14.096  -6.050  1.00 20.00    -0.005 A 
ENDBRANCH   6  10
TORSDOF 3
ENDMDL
MODEL 8
REMARK VINA RESULT:      -4.4      2.294      3.409
REMARK  3 active torsions:
REMARK  status: ('A' for Active; 'I' for Inactive)
REMARK    1  A    between atoms: C1_1  and  C10_10 
REMARK    2  A    between atoms: C7_7  and  C8_8 
REMARK    3  A    between atoms: C9_9  and  C10_10 
ROOT
HETATM    1  C2  UNL     1     -36.075  16.900  -2.240  1.00 20.00     0.006 C 
HETATM    2  C3  UNL     1     -33.585  16.963  -2.268  1.00 20.00     0.006 C 
HETATM    3  C4  UNL     1     -36.089  16.738  -3.777  1.00 20.00     0.019 C 
HETATM    4  C5  UNL     1     -33.596  16.797  -3.800  1.00 20.00     0.019 C 
HETATM    5  C7  UNL     1     -34.802  16.248  -1.649  1.00 20.00    -0.010 C 
HETATM    6  C10 UNL     1     -34.825  15.967  -4.238  1.00 20.00     0.040 C 
ENDROOT
BRANCH   6   7
HETATM    7  C1  UNL     1     -34.811  15.813  -5.729  1.00 20.00     0.228 C 
HETATM    8  O11 UNL     1     -33.768  15.877  -6.373  1.00 20.00    -0.279 OA
HETATM    9 CL12 UNL     1     -36.401  15.546  -6.375  1.00 20.00    -0.043 Cl
ENDBRANCH   6   7
BRANCH   6  10
HETATM   10  C9  UNL     1     -34.854  14.613  -3.537  1.00 20.00     0.007 A 
HETATM   11  C6  UNL     1     -35.063  13.282  -4.216  1.00 20.00     0.011 A 
HETATM   12  C8  UNL     1     -33.665  13.772  -3.932  1.00 20.00    -0.005 A 
ENDBRANCH   6  10
TORSDOF 3
ENDMDL
MODEL 9
REMARK VINA RESULT:      -4.3      2.259      3.018
REMARK  3 active torsions:
REMARK  status: ('A' for Active; 'I' for Inactive)
REMARK    1  A    between atoms: C1_1  and  C10_10 
REMARK    2  A    between atoms: C7_7  and  C8_8 
REMARK    3  A    between atoms: C9_9  and  C10_10 
ROOT
HETATM    1  C2  UNL     1     -34.454  13.386  -4.812  1.00 20.00     0.006 C 
HETATM    2  C3  UNL     1     -34.140  15.159  -6.533  1.00 20.00     0.006 C 
HETATM    3  C4  UNL     1     -34.079  14.396  -3.703  1.00 20.00     0.019 C 
HETATM    4  C5  UNL     1     -33.770  16.169  -5.429  1.00 20.00     0.019 C 
HETATM    5  C7  UNL     1     -35.140  14.121  -5.988  1.00 20.00    -0.010 C 
HETATM    6  C10 UNL     1     -34.516  15.824  -4.119  1.00 20.00     0.040 C 
ENDROOT
BRANCH   6   7
HETATM    7  C1  UNL     1     -34.146  16.822  -3.064  1.00 20.00     0.228 C 
HETATM    8  O11 UNL     1     -33.675  17.918  -3.351  1.00 20.00    -0.279 OA
HETATM    9 CL12 UNL     1     -34.465  16.229  -1.462  1.00 20.00    -0.043 Cl
ENDBRANCH   6   7
BRANCH   6  10
HETATM   10  C9  UNL     1     -36.024  15.777  -4.340  1.00 20.00     0.007 A 
HETATM   11  C6  UNL     1     -37.058  16.417  -3.447  1.00 20.00     0.011 A 
HETATM   12  C8  UNL     1     -36.567  17.145  -4.674  1.00 20.00    -0.005 A 
ENDBRANCH   6  10
TORSDOF 3
ENDMDL
