MODEL 1
REMARK VINA RESULT:      -5.3      0.000      0.000
REMARK  5 active torsions:
REMARK  status: ('A' for Active; 'I' for Inactive)
REMARK    1  A    between atoms: C1_1  and  C5_5 
REMARK    2  A    between atoms: C2_2  and  C7_7 
REMARK    3  A    between atoms: C5_5  and  O10_10 
REMARK    4  A    between atoms: C7_7  and  C9_9 
REMARK    5  A    between atoms: C8_8  and  C9_9 
ROOT
HETATM    1  C1  UNL     1     -33.773   5.836   4.205  1.00 20.00    -0.068 C 
HETATM    2  C2  UNL     1     -32.882   6.400   3.632  1.00 20.00    -0.103 C 
ENDROOT
BRANCH   1   3
HETATM    3  C5  UNL     1     -34.857   5.148   4.904  1.00 20.00     0.121 A 
HETATM    4  C3  UNL     1     -34.525   3.968   5.746  1.00 20.00     0.055 A 
HETATM    5  C4  UNL     1     -34.937   5.264   6.384  1.00 20.00     0.055 A 
BRANCH   3   6
HETATM    6  O10 UNL     1     -36.063   5.135   4.149  1.00 20.00    -0.378 OA
HETATM    7  H24 UNL     1     -36.381   6.051   4.116  1.00 20.00     0.211 HD
ENDBRANCH   3   6
ENDBRANCH   1   3
BRANCH   2   8
HETATM    8  C7  UNL     1     -31.792   7.094   2.931  1.00 20.00     0.094 C 
BRANCH   8   9
HETATM    9  C9  UNL     1     -32.273   8.419   2.341  1.00 20.00     0.012 C 
BRANCH   9  10
HETATM   10  C8  UNL     1     -31.664   8.666   0.961  1.00 20.00    -0.004 C 
HETATM   11  C6  UNL     1     -32.713   9.132  -0.037  1.00 20.00     0.005 C 
ENDBRANCH   9  10
ENDBRANCH   8   9
ENDBRANCH   2   8
TORSDOF 5
ENDMDL
MODEL 2
REMARK VINA RESULT:      -4.7      2.044      5.435
REMARK  5 active torsions:
REMARK  status: ('A' for Active; 'I' for Inactive)
REMARK    1  A    between atoms: C1_1  and  C5_5 
REMARK    2  A    between atoms: C2_2  and  C7_7 
REMARK    3  A    between atoms: C5_5  and  O10_10 
REMARK    4  A    between atoms: C7_7  and  C9_9 
REMARK    5  A    between atoms: C8_8  and  C9_9 
ROOT
HETATM    1  C1  UNL     1     -33.199   6.939   3.069  1.00 20.00    -0.068 C 
HETATM    2  C2  UNL     1     -34.089   6.190   3.366  1.00 20.00    -0.103 C 
ENDROOT
BRANCH   1   3
HETATM    3  C5  UNL     1     -32.115   7.850   2.705  1.00 20.00     0.121 A 
HETATM    4  C3  UNL     1     -31.800   8.043   1.265  1.00 20.00     0.055 A 
HETATM    5  C4  UNL     1     -32.459   9.140   2.052  1.00 20.00     0.055 A 
BRANCH   3   6
HETATM    6  O10 UNL     1     -31.046   7.818   3.644  1.00 20.00    -0.378 OA
HETATM    7  H24 UNL     1     -30.857   8.738   3.882  1.00 20.00     0.211 HD
ENDBRANCH   3   6
ENDBRANCH   1   3
BRANCH   2   8
HETATM    8  C7  UNL     1     -35.180   5.275   3.730  1.00 20.00     0.094 C 
BRANCH   8   9
HETATM    9  C9  UNL     1     -34.730   4.280   4.800  1.00 20.00     0.012 C 
BRANCH   9  10
HETATM   10  C8  UNL     1     -35.082   4.775   6.202  1.00 20.00    -0.004 C 
HETATM   11  C6  UNL     1     -34.300   6.029   6.564  1.00 20.00     0.005 C 
ENDBRANCH   9  10
ENDBRANCH   8   9
ENDBRANCH   2   8
TORSDOF 5
ENDMDL
MODEL 3
REMARK VINA RESULT:      -4.6      2.200      5.780
REMARK  5 active torsions:
REMARK  status: ('A' for Active; 'I' for Inactive)
REMARK    1  A    between atoms: C1_1  and  C5_5 
REMARK    2  A    between atoms: C2_2  and  C7_7 
REMARK    3  A    between atoms: C5_5  and  O10_10 
REMARK    4  A    between atoms: C7_7  and  C9_9 
REMARK    5  A    between atoms: C8_8  and  C9_9 
ROOT
HETATM    1  C1  UNL     1     -32.609   7.901   2.295  1.00 20.00    -0.068 C 
HETATM    2  C2  UNL     1     -32.860   6.985   3.030  1.00 20.00    -0.103 C 
ENDROOT
BRANCH   1   3
HETATM    3  C5  UNL     1     -32.302   9.014   1.398  1.00 20.00     0.121 A 
HETATM    4  C3  UNL     1     -31.174   8.866   0.440  1.00 20.00     0.055 A 
HETATM    5  C4  UNL     1     -32.593   8.862  -0.051  1.00 20.00     0.055 A 
BRANCH   3   6
HETATM    6  O10 UNL     1     -32.518  10.278   2.015  1.00 20.00    -0.378 OA
HETATM    7  H24 UNL     1     -32.485  10.130   2.973  1.00 20.00     0.211 HD
ENDBRANCH   3   6
ENDBRANCH   1   3
BRANCH   2   8
HETATM    8  C7  UNL     1     -33.171   5.866   3.931  1.00 20.00     0.094 C 
BRANCH   8   9
HETATM    9  C9  UNL     1     -34.642   5.463   3.820  1.00 20.00     0.012 C 
BRANCH   9  10
HETATM   10  C8  UNL     1     -35.109   4.719   5.071  1.00 20.00    -0.004 C 
HETATM   11  C6  UNL     1     -34.619   5.399   6.341  1.00 20.00     0.005 C 
ENDBRANCH   9  10
ENDBRANCH   8   9
ENDBRANCH   2   8
TORSDOF 5
ENDMDL
MODEL 4
REMARK VINA RESULT:      -4.5     10.946     12.145
REMARK  5 active torsions:
REMARK  status: ('A' for Active; 'I' for Inactive)
REMARK    1  A    between atoms: C1_1  and  C5_5 
REMARK    2  A    between atoms: C2_2  and  C7_7 
REMARK    3  A    between atoms: C5_5  and  O10_10 
REMARK    4  A    between atoms: C7_7  and  C9_9 
REMARK    5  A    between atoms: C8_8  and  C9_9 
ROOT
HETATM    1  C1  UNL     1     -33.975  15.757  -2.686  1.00 20.00    -0.068 C 
HETATM    2  C2  UNL     1     -34.335  16.316  -1.686  1.00 20.00    -0.103 C 
ENDROOT
BRANCH   1   3
HETATM    3  C5  UNL     1     -33.537  15.076  -3.903  1.00 20.00     0.121 A 
HETATM    4  C3  UNL     1     -33.477  13.590  -3.905  1.00 20.00     0.055 A 
HETATM    5  C4  UNL     1     -34.537  14.308  -4.689  1.00 20.00     0.055 A 
BRANCH   3   6
HETATM    6  O10 UNL     1     -32.530  15.805  -4.596  1.00 20.00    -0.378 OA
HETATM    7  H24 UNL     1     -31.744  15.237  -4.624  1.00 20.00     0.211 HD
ENDBRANCH   3   6
ENDBRANCH   1   3
BRANCH   2   8
HETATM    8  C7  UNL     1     -34.778  17.000  -0.463  1.00 20.00     0.094 C 
BRANCH   8   9
HETATM    9  C9  UNL     1     -34.192  18.410  -0.379  1.00 20.00     0.012 C 
BRANCH   9  10
HETATM   10  C8  UNL     1     -33.253  18.550   0.819  1.00 20.00    -0.004 C 
HETATM   11  C6  UNL     1     -31.867  19.008   0.390  1.00 20.00     0.005 C 
ENDBRANCH   9  10
ENDBRANCH   8   9
ENDBRANCH   2   8
TORSDOF 5
ENDMDL
MODEL 5
REMARK VINA RESULT:      -4.5     10.971     11.798
REMARK  5 active torsions:
REMARK  status: ('A' for Active; 'I' for Inactive)
REMARK    1  A    between atoms: C1_1  and  C5_5 
REMARK    2  A    between atoms: C2_2  and  C7_7 
REMARK    3  A    between atoms: C5_5  and  O10_10 
REMARK    4  A    between atoms: C7_7  and  C9_9 
REMARK    5  A    between atoms: C8_8  and  C9_9 
ROOT
HETATM    1  C1  UNL     1     -34.260  14.987  -2.980  1.00 20.00    -0.068 C 
HETATM    2  C2  UNL     1     -34.430  15.802  -2.115  1.00 20.00    -0.103 C 
ENDROOT
BRANCH   1   3
HETATM    3  C5  UNL     1     -34.055  13.994  -4.033  1.00 20.00     0.121 A 
HETATM    4  C3  UNL     1     -35.243  13.308  -4.606  1.00 20.00     0.055 A 
HETATM    5  C4  UNL     1     -34.487  14.323  -5.416  1.00 20.00     0.055 A 
BRANCH   3   6
HETATM    6  O10 UNL     1     -32.857  13.249  -3.845  1.00 20.00    -0.378 OA
HETATM    7  H24 UNL     1     -32.227  13.841  -3.405  1.00 20.00     0.211 HD
ENDBRANCH   3   6
ENDBRANCH   1   3
BRANCH   2   8
HETATM    8  C7  UNL     1     -34.638  16.802  -1.057  1.00 20.00     0.094 C 
BRANCH   8   9
HETATM    9  C9  UNL     1     -33.540  17.865  -1.083  1.00 20.00     0.012 C 
BRANCH   9  10
HETATM   10  C8  UNL     1     -33.304  18.454   0.308  1.00 20.00    -0.004 C 
HETATM   11  C6  UNL     1     -31.878  18.958   0.466  1.00 20.00     0.005 C 
ENDBRANCH   9  10
ENDBRANCH   8   9
ENDBRANCH   2   8
TORSDOF 5
ENDMDL
MODEL 6
REMARK VINA RESULT:      -4.2     10.925     11.823
REMARK  5 active torsions:
REMARK  status: ('A' for Active; 'I' for Inactive)
REMARK    1  A    between atoms: C1_1  and  C5_5 
REMARK    2  A    between atoms: C2_2  and  C7_7 
REMARK    3  A    between atoms: C5_5  and  O10_10 
REMARK    4  A    between atoms: C7_7  and  C9_9 
REMARK    5  A    between atoms: C8_8  and  C9_9 
ROOT
HETATM    1  C1  UNL     1     -35.029  15.188  -3.116  1.00 20.00    -0.068 C 
HETATM    2  C2  UNL     1     -34.547  15.956  -2.328  1.00 20.00    -0.103 C 
ENDROOT
BRANCH   1   3
HETATM    3  C5  UNL     1     -35.617  14.253  -4.074  1.00 20.00     0.121 A 
HETATM    4  C3  UNL     1     -35.120  14.263  -5.475  1.00 20.00     0.055 A 
HETATM    5  C4  UNL     1     -34.789  13.119  -4.560  1.00 20.00     0.055 A 
BRANCH   3   6
HETATM    6  O10 UNL     1     -37.004  14.042  -3.838  1.00 20.00    -0.378 OA
HETATM    7  H24 UNL     1     -37.482  14.668  -4.403  1.00 20.00     0.211 HD
ENDBRANCH   3   6
ENDBRANCH   1   3
BRANCH   2   8
HETATM    8  C7  UNL     1     -33.957  16.898  -1.366  1.00 20.00     0.094 C 
BRANCH   8   9
HETATM    9  C9  UNL     1     -34.843  17.050  -0.131  1.00 20.00     0.012 C 
BRANCH   9  10
HETATM   10  C8  UNL     1     -34.735  18.454   0.461  1.00 20.00    -0.004 C 
HETATM   11  C6  UNL     1     -33.549  18.571   1.407  1.00 20.00     0.005 C 
ENDBRANCH   9  10
ENDBRANCH   8   9
ENDBRANCH   2   8
TORSDOF 5
ENDMDL
MODEL 7
REMARK VINA RESULT:      -4.1     11.001     11.939
REMARK  5 active torsions:
REMARK  status: ('A' for Active; 'I' for Inactive)
REMARK    1  A    between atoms: C1_1  and  C5_5 
REMARK    2  A    between atoms: C2_2  and  C7_7 
REMARK    3  A    between atoms: C5_5  and  O10_10 
REMARK    4  A    between atoms: C7_7  and  C9_9 
REMARK    5  A    between atoms: C8_8  and  C9_9 
ROOT
HETATM    1  C1  UNL     1     -34.329  15.837  -2.528  1.00 20.00    -0.068 C 
HETATM    2  C2  UNL     1     -34.053  14.850  -3.152  1.00 20.00    -0.103 C 
ENDROOT
BRANCH   1   3
HETATM    3  C5  UNL     1     -34.667  17.041  -1.769  1.00 20.00     0.121 A 
HETATM    4  C3  UNL     1     -34.750  16.948  -0.288  1.00 20.00     0.055 A 
HETATM    5  C4  UNL     1     -33.611  17.678  -0.940  1.00 20.00     0.055 A 
BRANCH   3   6
HETATM    6  O10 UNL     1     -35.594  17.870  -2.459  1.00 20.00    -0.378 OA
HETATM    7  H24 UNL     1     -35.090  18.352  -3.133  1.00 20.00     0.211 HD
ENDBRANCH   3   6
ENDBRANCH   1   3
BRANCH   2   8
HETATM    8  C7  UNL     1     -33.716  13.639  -3.914  1.00 20.00     0.094 C 
BRANCH   8   9
HETATM    9  C9  UNL     1     -34.785  13.334  -4.964  1.00 20.00     0.012 C 
BRANCH   9  10
HETATM   10  C8  UNL     1     -34.771  14.369  -6.088  1.00 20.00    -0.004 C 
HETATM   11  C6  UNL     1     -36.148  14.978  -6.303  1.00 20.00     0.005 C 
ENDBRANCH   9  10
ENDBRANCH   8   9
ENDBRANCH   2   8
TORSDOF 5
ENDMDL
MODEL 8
REMARK VINA RESULT:      -4.0     10.344     11.369
REMARK  5 active torsions:
REMARK  status: ('A' for Active; 'I' for Inactive)
REMARK    1  A    between atoms: C1_1  and  C5_5 
REMARK    2  A    between atoms: C2_2  and  C7_7 
REMARK    3  A    between atoms: C5_5  and  O10_10 
REMARK    4  A    between atoms: C7_7  and  C9_9 
REMARK    5  A    between atoms: C8_8  and  C9_9 
ROOT
HETATM    1  C1  UNL     1     -41.812   4.841  -2.079  1.00 20.00    -0.068 C 
HETATM    2  C2  UNL     1     -42.123   3.828  -2.643  1.00 20.00    -0.103 C 
ENDROOT
BRANCH   1   3
HETATM    3  C5  UNL     1     -41.434   6.075  -1.393  1.00 20.00     0.121 A 
HETATM    4  C3  UNL     1     -42.178   6.466  -0.166  1.00 20.00     0.055 A 
HETATM    5  C4  UNL     1     -40.761   5.978  -0.071  1.00 20.00     0.055 A 
BRANCH   3   6
HETATM    6  O10 UNL     1     -41.024   7.092  -2.300  1.00 20.00    -0.378 OA
HETATM    7  H24 UNL     1     -40.172   7.425  -1.979  1.00 20.00     0.211 HD
ENDBRANCH   3   6
ENDBRANCH   1   3
BRANCH   2   8
HETATM    8  C7  UNL     1     -42.506   2.586  -3.331  1.00 20.00     0.094 C 
BRANCH   8   9
HETATM    9  C9  UNL     1     -41.273   1.826  -3.818  1.00 20.00     0.012 C 
BRANCH   9  10
HETATM   10  C8  UNL     1     -41.593   0.353  -4.070  1.00 20.00    -0.004 C 
HETATM   11  C6  UNL     1     -42.760  -0.119  -3.216  1.00 20.00     0.005 C 
ENDBRANCH   9  10
ENDBRANCH   8   9
ENDBRANCH   2   8
TORSDOF 5
ENDMDL
MODEL 9
REMARK VINA RESULT:      -4.0     10.711     11.908
REMARK  5 active torsions:
REMARK  status: ('A' for Active; 'I' for Inactive)
REMARK    1  A    between atoms: C1_1  and  C5_5 
REMARK    2  A    between atoms: C2_2  and  C7_7 
REMARK    3  A    between atoms: C5_5  and  O10_10 
REMARK    4  A    between atoms: C7_7  and  C9_9 
REMARK    5  A    between atoms: C8_8  and  C9_9 
ROOT
HETATM    1  C1  UNL     1     -34.031  16.708  -1.612  1.00 20.00    -0.068 C 
HETATM    2  C2  UNL     1     -33.787  15.987  -2.540  1.00 20.00    -0.103 C 
ENDROOT
BRANCH   1   3
HETATM    3  C5  UNL     1     -34.327  17.588  -0.483  1.00 20.00     0.121 A 
HETATM    4  C3  UNL     1     -33.234  18.433   0.068  1.00 20.00     0.055 A 
HETATM    5  C4  UNL     1     -34.356  19.056  -0.712  1.00 20.00     0.055 A 
BRANCH   3   6
HETATM    6  O10 UNL     1     -35.270  17.013   0.415  1.00 20.00    -0.378 OA
HETATM    7  H24 UNL     1     -35.978  17.665   0.530  1.00 20.00     0.211 HD
ENDBRANCH   3   6
ENDBRANCH   1   3
BRANCH   2   8
HETATM    8  C7  UNL     1     -33.490  15.103  -3.677  1.00 20.00     0.094 C 
BRANCH   8   9
HETATM    9  C9  UNL     1     -34.297  13.808  -3.592  1.00 20.00     0.012 C 
BRANCH   9  10
HETATM   10  C8  UNL     1     -34.591  13.244  -4.982  1.00 20.00    -0.004 C 
HETATM   11  C6  UNL     1     -34.940  14.348  -5.969  1.00 20.00     0.005 C 
ENDBRANCH   9  10
ENDBRANCH   8   9
ENDBRANCH   2   8
TORSDOF 5
ENDMDL
