MODEL 1
REMARK VINA RESULT:      -5.3      0.000      0.000
REMARK  2 active torsions:
REMARK  status: ('A' for Active; 'I' for Inactive)
REMARK    1  A    between atoms: C1_1  and  C5_5 
REMARK    2  A    between atoms: C1_1  and  O10_10 
ROOT
HETATM    1  C2  UNL     1     -35.553   5.299   4.111  1.00 20.00     0.015 C 
HETATM    2  C3  UNL     1     -35.175   4.183   5.098  1.00 20.00     0.006 C 
HETATM    3  C4  UNL     1     -34.505   6.139   6.721  1.00 20.00     0.011 A 
HETATM    4  C5  UNL     1     -34.339   6.248   4.096  1.00 20.00     0.090 C 
HETATM    5  C6  UNL     1     -34.217   4.818   6.061  1.00 20.00    -0.009 A 
HETATM    6  C7  UNL     1     -33.699   6.075   5.448  1.00 20.00     0.004 A 
ENDROOT
BRANCH   4   7
HETATM    7  C1  UNL     1     -33.404   5.888   2.983  1.00 20.00     0.263 C 
HETATM    8  O9  UNL     1     -33.690   5.130   2.065  1.00 20.00    -0.265 OA
BRANCH   7   9
HETATM    9  O10 UNL     1     -32.214   6.529   3.161  1.00 20.00    -0.326 OA
HETATM   10  C8  UNL     1     -32.082   7.782   2.484  1.00 20.00     0.213 C 
ENDBRANCH   7   9
ENDBRANCH   4   7
TORSDOF 2
ENDMDL
MODEL 2
REMARK VINA RESULT:      -4.5     11.452     12.538
REMARK  2 active torsions:
REMARK  status: ('A' for Active; 'I' for Inactive)
REMARK    1  A    between atoms: C1_1  and  C5_5 
REMARK    2  A    between atoms: C1_1  and  O10_10 
ROOT
HETATM    1  C2  UNL     1     -32.988  14.844  -3.755  1.00 20.00     0.015 C 
HETATM    2  C3  UNL     1     -33.266  16.313  -4.114  1.00 20.00     0.006 C 
HETATM    3  C4  UNL     1     -34.298  16.485  -1.702  1.00 20.00     0.011 A 
HETATM    4  C5  UNL     1     -34.319  14.312  -3.190  1.00 20.00     0.090 C 
HETATM    5  C6  UNL     1     -34.360  16.745  -3.184  1.00 20.00    -0.009 A 
HETATM    6  C7  UNL     1     -35.010  15.525  -2.623  1.00 20.00     0.004 A 
ENDROOT
BRANCH   4   7
HETATM    7  C1  UNL     1     -35.126  13.661  -4.270  1.00 20.00     0.263 C 
HETATM    8  O9  UNL     1     -34.821  12.607  -4.813  1.00 20.00    -0.265 OA
BRANCH   7   9
HETATM    9  O10 UNL     1     -36.227  14.420  -4.539  1.00 20.00    -0.326 OA
HETATM   10  C8  UNL     1     -36.329  14.901  -5.883  1.00 20.00     0.213 C 
ENDBRANCH   7   9
ENDBRANCH   4   7
TORSDOF 2
ENDMDL
MODEL 3
REMARK VINA RESULT:      -4.2     11.956     13.037
REMARK  2 active torsions:
REMARK  status: ('A' for Active; 'I' for Inactive)
REMARK    1  A    between atoms: C1_1  and  C5_5 
REMARK    2  A    between atoms: C1_1  and  O10_10 
ROOT
HETATM    1  C2  UNL     1     -35.175  16.095  -2.988  1.00 20.00     0.015 C 
HETATM    2  C3  UNL     1     -33.679  15.818  -2.767  1.00 20.00     0.006 C 
HETATM    3  C4  UNL     1     -33.372  16.699  -5.225  1.00 20.00     0.011 A 
HETATM    4  C5  UNL     1     -35.508  15.438  -4.341  1.00 20.00     0.090 C 
HETATM    5  C6  UNL     1     -33.096  15.690  -4.142  1.00 20.00    -0.009 A 
HETATM    6  C7  UNL     1     -34.210  15.451  -5.105  1.00 20.00     0.004 A 
ENDROOT
BRANCH   4   7
HETATM    7  C1  UNL     1     -36.025  14.047  -4.138  1.00 20.00     0.263 C 
HETATM    8  O9  UNL     1     -35.369  13.035  -4.344  1.00 20.00    -0.265 OA
BRANCH   7   9
HETATM    9  O10 UNL     1     -37.315  14.100  -3.698  1.00 20.00    -0.326 OA
HETATM   10  C8  UNL     1     -38.216  14.846  -4.522  1.00 20.00     0.213 C 
ENDBRANCH   7   9
ENDBRANCH   4   7
TORSDOF 2
ENDMDL
MODEL 4
REMARK VINA RESULT:      -4.1     11.679     12.594
REMARK  2 active torsions:
REMARK  status: ('A' for Active; 'I' for Inactive)
REMARK    1  A    between atoms: C1_1  and  C5_5 
REMARK    2  A    between atoms: C1_1  and  O10_10 
ROOT
HETATM    1  C2  UNL     1     -35.286  15.654  -2.280  1.00 20.00     0.015 C 
HETATM    2  C3  UNL     1     -34.559  16.483  -1.208  1.00 20.00     0.006 C 
HETATM    3  C4  UNL     1     -34.359  18.324  -3.074  1.00 20.00     0.011 A 
HETATM    4  C5  UNL     1     -34.383  15.731  -3.525  1.00 20.00     0.090 C 
HETATM    5  C6  UNL     1     -33.757  17.495  -1.971  1.00 20.00    -0.009 A 
HETATM    6  C7  UNL     1     -33.641  17.034  -3.385  1.00 20.00     0.004 A 
ENDROOT
BRANCH   4   7
HETATM    7  C1  UNL     1     -33.451  14.558  -3.572  1.00 20.00     0.263 C 
HETATM    8  O9  UNL     1     -32.231  14.651  -3.546  1.00 20.00    -0.265 OA
BRANCH   7   9
HETATM    9  O10 UNL     1     -34.174  13.404  -3.647  1.00 20.00    -0.326 OA
HETATM   10  C8  UNL     1     -34.743  13.117  -4.929  1.00 20.00     0.213 C 
ENDBRANCH   7   9
ENDBRANCH   4   7
TORSDOF 2
ENDMDL
MODEL 5
REMARK VINA RESULT:      -4.1     12.040     12.965
REMARK  2 active torsions:
REMARK  status: ('A' for Active; 'I' for Inactive)
REMARK    1  A    between atoms: C1_1  and  C5_5 
REMARK    2  A    between atoms: C1_1  and  O10_10 
ROOT
HETATM    1  C2  UNL     1     -35.012  14.231  -5.318  1.00 20.00     0.015 C 
HETATM    2  C3  UNL     1     -34.172  15.471  -5.665  1.00 20.00     0.006 C 
HETATM    3  C4  UNL     1     -32.665  14.755  -3.633  1.00 20.00     0.011 A 
HETATM    4  C5  UNL     1     -35.257  14.326  -3.801  1.00 20.00     0.090 C 
HETATM    5  C6  UNL     1     -33.420  15.800  -4.410  1.00 20.00    -0.009 A 
HETATM    6  C7  UNL     1     -34.085  15.108  -3.268  1.00 20.00     0.004 A 
ENDROOT
BRANCH   4   7
HETATM    7  C1  UNL     1     -36.561  15.009  -3.521  1.00 20.00     0.263 C 
HETATM    8  O9  UNL     1     -36.659  16.168  -3.143  1.00 20.00    -0.265 OA
BRANCH   7   9
HETATM    9  O10 UNL     1     -37.588  14.142  -3.751  1.00 20.00    -0.326 OA
HETATM   10  C8  UNL     1     -38.824  14.745  -4.147  1.00 20.00     0.213 C 
ENDBRANCH   7   9
ENDBRANCH   4   7
TORSDOF 2
ENDMDL
MODEL 6
REMARK VINA RESULT:      -4.1     11.883     12.832
REMARK  2 active torsions:
REMARK  status: ('A' for Active; 'I' for Inactive)
REMARK    1  A    between atoms: C1_1  and  C5_5 
REMARK    2  A    between atoms: C1_1  and  O10_10 
ROOT
HETATM    1  C2  UNL     1     -34.019  14.083  -3.614  1.00 20.00     0.015 C 
HETATM    2  C3  UNL     1     -33.077  15.298  -3.602  1.00 20.00     0.006 C 
HETATM    3  C4  UNL     1     -34.558  16.156  -1.607  1.00 20.00     0.011 A 
HETATM    4  C5  UNL     1     -35.440  14.678  -3.599  1.00 20.00     0.090 C 
HETATM    5  C6  UNL     1     -33.847  16.385  -2.914  1.00 20.00    -0.009 A 
HETATM    6  C7  UNL     1     -35.291  16.013  -2.917  1.00 20.00     0.004 A 
ENDROOT
BRANCH   4   7
HETATM    7  C1  UNL     1     -35.967  14.817  -4.994  1.00 20.00     0.263 C 
HETATM    8  O9  UNL     1     -36.891  15.555  -5.307  1.00 20.00    -0.265 OA
BRANCH   7   9
HETATM    9  O10 UNL     1     -35.263  14.002  -5.831  1.00 20.00    -0.326 OA
HETATM   10  C8  UNL     1     -35.286  14.372  -7.213  1.00 20.00     0.213 C 
ENDBRANCH   7   9
ENDBRANCH   4   7
TORSDOF 2
ENDMDL
MODEL 7
REMARK VINA RESULT:      -4.0     11.656     12.624
REMARK  2 active torsions:
REMARK  status: ('A' for Active; 'I' for Inactive)
REMARK    1  A    between atoms: C1_1  and  C5_5 
REMARK    2  A    between atoms: C1_1  and  O10_10 
ROOT
HETATM    1  C2  UNL     1     -33.702  16.726  -3.630  1.00 20.00     0.015 C 
HETATM    2  C3  UNL     1     -34.643  17.890  -3.281  1.00 20.00     0.006 C 
HETATM    3  C4  UNL     1     -33.857  17.500  -0.802  1.00 20.00     0.011 A 
HETATM    4  C5  UNL     1     -34.054  15.612  -2.626  1.00 20.00     0.090 C 
HETATM    5  C6  UNL     1     -34.943  17.728  -1.820  1.00 20.00    -0.009 A 
HETATM    6  C7  UNL     1     -34.591  16.335  -1.419  1.00 20.00     0.004 A 
ENDROOT
BRANCH   4   7
HETATM    7  C1  UNL     1     -35.065  14.675  -3.214  1.00 20.00     0.263 C 
HETATM    8  O9  UNL     1     -36.252  14.941  -3.341  1.00 20.00    -0.265 OA
BRANCH   7   9
HETATM    9  O10 UNL     1     -34.454  13.509  -3.570  1.00 20.00    -0.326 OA
HETATM   10  C8  UNL     1     -34.544  13.166  -4.956  1.00 20.00     0.213 C 
ENDBRANCH   7   9
ENDBRANCH   4   7
TORSDOF 2
ENDMDL
MODEL 8
REMARK VINA RESULT:      -4.0     11.656     12.799
REMARK  2 active torsions:
REMARK  status: ('A' for Active; 'I' for Inactive)
REMARK    1  A    between atoms: C1_1  and  C5_5 
REMARK    2  A    between atoms: C1_1  and  O10_10 
ROOT
HETATM    1  C2  UNL     1     -33.072  15.095  -3.726  1.00 20.00     0.015 C 
HETATM    2  C3  UNL     1     -33.542  13.633  -3.811  1.00 20.00     0.006 C 
HETATM    3  C4  UNL     1     -34.620  14.337  -6.103  1.00 20.00     0.011 A 
HETATM    4  C5  UNL     1     -34.326  15.936  -4.033  1.00 20.00     0.090 C 
HETATM    5  C6  UNL     1     -34.697  13.646  -4.767  1.00 20.00    -0.009 A 
HETATM    6  C7  UNL     1     -35.182  15.050  -4.899  1.00 20.00     0.004 A 
ENDROOT
BRANCH   4   7
HETATM    7  C1  UNL     1     -35.023  16.323  -2.764  1.00 20.00     0.263 C 
HETATM    8  O9  UNL     1     -36.221  16.556  -2.685  1.00 20.00    -0.265 OA
BRANCH   7   9
HETATM    9  O10 UNL     1     -34.119  16.370  -1.744  1.00 20.00    -0.326 OA
HETATM   10  C8  UNL     1     -34.625  16.858  -0.497  1.00 20.00     0.213 C 
ENDBRANCH   7   9
ENDBRANCH   4   7
TORSDOF 2
ENDMDL
MODEL 9
REMARK VINA RESULT:      -3.8     12.080     13.557
REMARK  2 active torsions:
REMARK  status: ('A' for Active; 'I' for Inactive)
REMARK    1  A    between atoms: C1_1  and  C5_5 
REMARK    2  A    between atoms: C1_1  and  O10_10 
ROOT
HETATM    1  C2  UNL     1     -34.010  16.017  -6.121  1.00 20.00     0.015 C 
HETATM    2  C3  UNL     1     -34.245  15.084  -7.320  1.00 20.00     0.006 C 
HETATM    3  C4  UNL     1     -36.778  15.172  -6.619  1.00 20.00     0.011 A 
HETATM    4  C5  UNL     1     -34.753  15.354  -4.946  1.00 20.00     0.090 C 
HETATM    5  C6  UNL     1     -35.552  14.405  -7.039  1.00 20.00    -0.009 A 
HETATM    6  C7  UNL     1     -35.861  14.562  -5.588  1.00 20.00     0.004 A 
ENDROOT
BRANCH   4   7
HETATM    7  C1  UNL     1     -33.822  14.481  -4.161  1.00 20.00     0.263 C 
HETATM    8  O9  UNL     1     -33.784  13.262  -4.255  1.00 20.00    -0.265 OA
BRANCH   7   9
HETATM    9  O10 UNL     1     -33.048  15.256  -3.348  1.00 20.00    -0.326 OA
HETATM   10  C8  UNL     1     -33.759  16.178  -2.517  1.00 20.00     0.213 C 
ENDBRANCH   7   9
ENDBRANCH   4   7
TORSDOF 2
ENDMDL
