MODEL 1
REMARK VINA RESULT:      -5.1      0.000      0.000
REMARK  2 active torsions:
REMARK  status: ('A' for Active; 'I' for Inactive)
REMARK    1  A    between atoms: C1_1  and  C5_5 
REMARK    2  A    between atoms: C6_6  and  C9_9 
ROOT
HETATM    1  C2  UNL     1     -35.353   5.357   3.745  1.00 20.00     0.012 C 
HETATM    2  C3  UNL     1     -34.154   5.636   2.849  1.00 20.00     0.006 C 
HETATM    3  C4  UNL     1     -33.608   6.535   5.004  1.00 20.00     0.016 C 
HETATM    4  C5  UNL     1     -34.867   5.672   5.162  1.00 20.00     0.047 C 
HETATM    5  C6  UNL     1     -33.515   6.853   3.509  1.00 20.00    -0.010 C 
ENDROOT
BRANCH   5   6
HETATM    6  C9  UNL     1     -32.093   7.110   3.038  1.00 20.00    -0.019 C 
HETATM    7  C7  UNL     1     -32.077   8.084   1.858  1.00 20.00     0.010 C 
HETATM    8  C8  UNL     1     -31.230   7.648   4.181  1.00 20.00     0.010 C 
ENDBRANCH   5   6
BRANCH   4   9
HETATM    9  C1  UNL     1     -34.541   4.412   5.901  1.00 20.00     0.235 C 
HETATM   10  O10 UNL     1     -34.857   3.295   5.504  1.00 20.00    -0.306 OA
ENDBRANCH   4   9
TORSDOF 2
ENDMDL
MODEL 2
REMARK VINA RESULT:      -4.9      2.503      4.268
REMARK  2 active torsions:
REMARK  status: ('A' for Active; 'I' for Inactive)
REMARK    1  A    between atoms: C1_1  and  C5_5 
REMARK    2  A    between atoms: C6_6  and  C9_9 
ROOT
HETATM    1  C2  UNL     1     -33.088   5.772   2.097  1.00 20.00     0.012 C 
HETATM    2  C3  UNL     1     -34.286   5.548   3.009  1.00 20.00     0.006 C 
HETATM    3  C4  UNL     1     -32.632   6.669   4.335  1.00 20.00     0.016 C 
HETATM    4  C5  UNL     1     -32.180   6.733   2.870  1.00 20.00     0.047 C 
HETATM    5  C6  UNL     1     -33.657   5.532   4.398  1.00 20.00    -0.010 C 
ENDROOT
BRANCH   5   6
HETATM    6  C9  UNL     1     -34.672   5.701   5.515  1.00 20.00    -0.019 C 
HETATM    7  C7  UNL     1     -35.076   4.344   6.094  1.00 20.00     0.010 C 
HETATM    8  C8  UNL     1     -34.121   6.606   6.619  1.00 20.00     0.010 C 
ENDBRANCH   5   6
BRANCH   4   9
HETATM    9  C1  UNL     1     -32.321   8.128   2.345  1.00 20.00     0.235 C 
HETATM   10  O10 UNL     1     -31.834   8.503   1.284  1.00 20.00    -0.306 OA
ENDBRANCH   4   9
TORSDOF 2
ENDMDL
MODEL 3
REMARK VINA RESULT:      -4.5     11.335     12.425
REMARK  2 active torsions:
REMARK  status: ('A' for Active; 'I' for Inactive)
REMARK    1  A    between atoms: C1_1  and  C5_5 
REMARK    2  A    between atoms: C6_6  and  C9_9 
ROOT
HETATM    1  C2  UNL     1     -34.092  15.366  -5.102  1.00 20.00     0.012 C 
HETATM    2  C3  UNL     1     -33.242  16.024  -4.025  1.00 20.00     0.006 C 
HETATM    3  C4  UNL     1     -35.380  15.600  -3.027  1.00 20.00     0.016 C 
HETATM    4  C5  UNL     1     -35.329  14.848  -4.363  1.00 20.00     0.047 C 
HETATM    5  C6  UNL     1     -34.284  16.665  -3.114  1.00 20.00    -0.010 C 
ENDROOT
BRANCH   5   6
HETATM    6  C9  UNL     1     -33.728  17.067  -1.759  1.00 20.00    -0.019 C 
HETATM    7  C7  UNL     1     -33.443  18.569  -1.709  1.00 20.00     0.010 C 
HETATM    8  C8  UNL     1     -34.690  16.672  -0.637  1.00 20.00     0.010 C 
ENDBRANCH   5   6
BRANCH   4   9
HETATM    9  C1  UNL     1     -35.222  13.374  -4.124  1.00 20.00     0.235 C 
HETATM   10  O10 UNL     1     -34.669  12.602  -4.901  1.00 20.00    -0.306 OA
ENDBRANCH   4   9
TORSDOF 2
ENDMDL
MODEL 4
REMARK VINA RESULT:      -4.4     12.019     12.660
REMARK  2 active torsions:
REMARK  status: ('A' for Active; 'I' for Inactive)
REMARK    1  A    between atoms: C1_1  and  C5_5 
REMARK    2  A    between atoms: C6_6  and  C9_9 
ROOT
HETATM    1  C2  UNL     1     -36.075  14.060  -4.248  1.00 20.00     0.012 C 
HETATM    2  C3  UNL     1     -35.901  15.266  -3.336  1.00 20.00     0.006 C 
HETATM    3  C4  UNL     1     -33.705  14.677  -4.098  1.00 20.00     0.016 C 
HETATM    4  C5  UNL     1     -34.719  13.892  -4.940  1.00 20.00     0.047 C 
HETATM    5  C6  UNL     1     -34.466  15.114  -2.843  1.00 20.00    -0.010 C 
ENDROOT
BRANCH   5   6
HETATM    6  C9  UNL     1     -33.911  16.382  -2.217  1.00 20.00    -0.019 C 
HETATM    7  C7  UNL     1     -34.086  17.576  -3.157  1.00 20.00     0.010 C 
HETATM    8  C8  UNL     1     -34.583  16.663  -0.871  1.00 20.00     0.010 C 
ENDBRANCH   5   6
BRANCH   4   9
HETATM    9  C1  UNL     1     -34.767  14.437  -6.333  1.00 20.00     0.235 C 
HETATM   10  O10 UNL     1     -34.074  15.373  -6.717  1.00 20.00    -0.306 OA
ENDBRANCH   4   9
TORSDOF 2
ENDMDL
MODEL 5
REMARK VINA RESULT:      -4.3      2.480      4.326
REMARK  2 active torsions:
REMARK  status: ('A' for Active; 'I' for Inactive)
REMARK    1  A    between atoms: C1_1  and  C5_5 
REMARK    2  A    between atoms: C6_6  and  C9_9 
ROOT
HETATM    1  C2  UNL     1     -32.221   5.901   2.324  1.00 20.00     0.012 C 
HETATM    2  C3  UNL     1     -33.563   5.378   2.816  1.00 20.00     0.006 C 
HETATM    3  C4  UNL     1     -32.894   7.078   4.369  1.00 20.00     0.016 C 
HETATM    4  C5  UNL     1     -31.965   7.164   3.151  1.00 20.00     0.047 C 
HETATM    5  C6  UNL     1     -33.519   5.681   4.310  1.00 20.00    -0.010 C 
ENDROOT
BRANCH   5   6
HETATM    6  C9  UNL     1     -34.881   5.604   4.977  1.00 20.00    -0.019 C 
HETATM    7  C7  UNL     1     -35.991   5.457   3.934  1.00 20.00     0.010 C 
HETATM    8  C8  UNL     1     -34.935   4.446   5.975  1.00 20.00     0.010 C 
ENDBRANCH   5   6
BRANCH   4   9
HETATM    9  C1  UNL     1     -32.273   8.390   2.350  1.00 20.00     0.235 C 
HETATM   10  O10 UNL     1     -31.819   8.597   1.229  1.00 20.00    -0.306 OA
ENDBRANCH   4   9
TORSDOF 2
ENDMDL
MODEL 6
REMARK VINA RESULT:      -4.1     12.153     12.994
REMARK  2 active torsions:
REMARK  status: ('A' for Active; 'I' for Inactive)
REMARK    1  A    between atoms: C1_1  and  C5_5 
REMARK    2  A    between atoms: C6_6  and  C9_9 
ROOT
HETATM    1  C2  UNL     1     -35.975  16.349  -3.956  1.00 20.00     0.012 C 
HETATM    2  C3  UNL     1     -35.632  17.250  -2.778  1.00 20.00     0.006 C 
HETATM    3  C4  UNL     1     -34.022  15.474  -2.757  1.00 20.00     0.016 C 
HETATM    4  C5  UNL     1     -34.776  15.406  -4.091  1.00 20.00     0.047 C 
HETATM    5  C6  UNL     1     -34.911  16.303  -1.825  1.00 20.00    -0.010 C 
ENDROOT
BRANCH   5   6
HETATM    6  C9  UNL     1     -34.132  17.026  -0.739  1.00 20.00    -0.019 C 
HETATM    7  C7  UNL     1     -33.492  18.304  -1.286  1.00 20.00     0.010 C 
HETATM    8  C8  UNL     1     -35.034  17.352   0.453  1.00 20.00     0.010 C 
ENDBRANCH   5   6
BRANCH   4   9
HETATM    9  C1  UNL     1     -33.886  15.842  -5.212  1.00 20.00     0.235 C 
HETATM   10  O10 UNL     1     -32.841  16.463  -5.043  1.00 20.00    -0.306 OA
ENDBRANCH   4   9
TORSDOF 2
ENDMDL
MODEL 7
REMARK VINA RESULT:      -4.1     11.788     12.858
REMARK  2 active torsions:
REMARK  status: ('A' for Active; 'I' for Inactive)
REMARK    1  A    between atoms: C1_1  and  C5_5 
REMARK    2  A    between atoms: C6_6  and  C9_9 
ROOT
HETATM    1  C2  UNL     1     -33.928  17.616  -3.280  1.00 20.00     0.012 C 
HETATM    2  C3  UNL     1     -34.659  17.029  -4.479  1.00 20.00     0.006 C 
HETATM    3  C4  UNL     1     -33.956  15.167  -3.141  1.00 20.00     0.016 C 
HETATM    4  C5  UNL     1     -33.753  16.442  -2.313  1.00 20.00     0.047 C 
HETATM    5  C6  UNL     1     -34.052  15.635  -4.597  1.00 20.00    -0.010 C 
ENDROOT
BRANCH   5   6
HETATM    6  C9  UNL     1     -34.866  14.700  -5.475  1.00 20.00    -0.019 C 
HETATM    7  C7  UNL     1     -34.475  14.855  -6.946  1.00 20.00     0.010 C 
HETATM    8  C8  UNL     1     -34.693  13.246  -5.030  1.00 20.00     0.010 C 
ENDBRANCH   5   6
BRANCH   4   9
HETATM    9  C1  UNL     1     -34.764  16.510  -1.211  1.00 20.00     0.235 C 
HETATM   10  O10 UNL     1     -34.523  16.972  -0.100  1.00 20.00    -0.306 OA
ENDBRANCH   4   9
TORSDOF 2
ENDMDL
MODEL 8
REMARK VINA RESULT:      -4.0     11.851     13.160
REMARK  2 active torsions:
REMARK  status: ('A' for Active; 'I' for Inactive)
REMARK    1  A    between atoms: C1_1  and  C5_5 
REMARK    2  A    between atoms: C6_6  and  C9_9 
ROOT
HETATM    1  C2  UNL     1     -33.211  16.132  -4.093  1.00 20.00     0.012 C 
HETATM    2  C3  UNL     1     -33.947  16.092  -5.425  1.00 20.00     0.006 C 
HETATM    3  C4  UNL     1     -34.943  14.394  -4.056  1.00 20.00     0.016 C 
HETATM    4  C5  UNL     1     -34.047  15.256  -3.157  1.00 20.00     0.047 C 
HETATM    5  C6  UNL     1     -34.462  14.658  -5.486  1.00 20.00    -0.010 C 
ENDROOT
BRANCH   5   6
HETATM    6  C9  UNL     1     -35.546  14.455  -6.530  1.00 20.00    -0.019 C 
HETATM    7  C7  UNL     1     -36.808  15.240  -6.166  1.00 20.00     0.010 C 
HETATM    8  C8  UNL     1     -35.049  14.865  -7.918  1.00 20.00     0.010 C 
ENDBRANCH   5   6
BRANCH   4   9
HETATM    9  C1  UNL     1     -34.885  16.103  -2.251  1.00 20.00     0.235 C 
HETATM   10  O10 UNL     1     -34.674  16.221  -1.048  1.00 20.00    -0.306 OA
ENDBRANCH   4   9
TORSDOF 2
ENDMDL
MODEL 9
REMARK VINA RESULT:      -4.0     11.316     12.904
REMARK  2 active torsions:
REMARK  status: ('A' for Active; 'I' for Inactive)
REMARK    1  A    between atoms: C1_1  and  C5_5 
REMARK    2  A    between atoms: C6_6  and  C9_9 
ROOT
HETATM    1  C2  UNL     1     -36.367  14.925  -6.490  1.00 20.00     0.012 C 
HETATM    2  C3  UNL     1     -35.055  14.426  -5.902  1.00 20.00     0.006 C 
HETATM    3  C4  UNL     1     -35.886  16.084  -4.382  1.00 20.00     0.016 C 
HETATM    4  C5  UNL     1     -37.009  15.752  -5.373  1.00 20.00     0.047 C 
HETATM    5  C6  UNL     1     -34.595  15.605  -5.051  1.00 20.00    -0.010 C 
ENDROOT
BRANCH   5   6
HETATM    6  C9  UNL     1     -33.505  15.237  -4.059  1.00 20.00    -0.019 C 
HETATM    7  C7  UNL     1     -33.701  15.978  -2.734  1.00 20.00     0.010 C 
HETATM    8  C8  UNL     1     -33.472  13.726  -3.822  1.00 20.00     0.010 C 
ENDBRANCH   5   6
BRANCH   4   9
HETATM    9  C1  UNL     1     -38.087  14.969  -4.690  1.00 20.00     0.235 C 
HETATM   10  O10 UNL     1     -37.880  14.216  -3.743  1.00 20.00    -0.306 OA
ENDBRANCH   4   9
TORSDOF 2
ENDMDL
