MODEL 1
REMARK VINA RESULT:      -4.0      0.000      0.000
REMARK  0 active torsions:
REMARK  status: ('A' for Active; 'I' for Inactive)
ROOT
HETATM    1  C1  UNL     1     -33.823   6.224   4.661  1.00 20.00     0.169 C 
HETATM    2  C2  UNL     1     -33.790   5.273   2.751  1.00 20.00     0.062 C 
HETATM    3  C3  UNL     1     -32.735   6.042   3.588  1.00 20.00     0.058 C 
HETATM    4  C4  UNL     1     -34.792   5.238   3.942  1.00 20.00     0.174 C 
HETATM    5  C5  UNL     1     -32.198   7.319   2.974  1.00 20.00     0.018 C 
HETATM    6  O6  UNL     1     -33.888   6.880   5.680  1.00 20.00    -0.294 OA
HETATM    7 CL7  UNL     1     -34.916   3.685   4.836  1.00 20.00    -0.093 Cl
HETATM    8 CL8  UNL     1     -36.397   5.977   3.640  1.00 20.00    -0.093 Cl
ENDROOT
TORSDOF 0
ENDMDL
MODEL 2
REMARK VINA RESULT:      -4.0     11.903     12.704
REMARK  0 active torsions:
REMARK  status: ('A' for Active; 'I' for Inactive)
ROOT
HETATM    1  C1  UNL     1     -34.702  13.910  -4.726  1.00 20.00     0.169 C 
HETATM    2  C2  UNL     1     -34.168  15.933  -5.150  1.00 20.00     0.062 C 
HETATM    3  C3  UNL     1     -35.122  14.909  -5.819  1.00 20.00     0.058 C 
HETATM    4  C4  UNL     1     -33.954  15.010  -3.914  1.00 20.00     0.174 C 
HETATM    5  C5  UNL     1     -34.780  14.510  -7.240  1.00 20.00     0.018 C 
HETATM    6  O6  UNL     1     -34.895  12.724  -4.563  1.00 20.00    -0.294 OA
HETATM    7 CL7  UNL     1     -34.860  15.446  -2.426  1.00 20.00    -0.093 Cl
HETATM    8 CL8  UNL     1     -32.258  14.546  -3.564  1.00 20.00    -0.093 Cl
ENDROOT
TORSDOF 0
ENDMDL
MODEL 3
REMARK VINA RESULT:      -3.8     11.598     12.324
REMARK  0 active torsions:
REMARK  status: ('A' for Active; 'I' for Inactive)
ROOT
HETATM    1  C1  UNL     1     -33.531  14.840  -3.488  1.00 20.00     0.169 C 
HETATM    2  C2  UNL     1     -35.648  15.088  -3.594  1.00 20.00     0.062 C 
HETATM    3  C3  UNL     1     -34.701  13.866  -3.715  1.00 20.00     0.058 C 
HETATM    4  C4  UNL     1     -34.489  16.009  -3.111  1.00 20.00     0.174 C 
HETATM    5  C5  UNL     1     -34.708  13.146  -5.048  1.00 20.00     0.018 C 
HETATM    6  O6  UNL     1     -32.325  14.727  -3.565  1.00 20.00    -0.294 OA
HETATM    7 CL7  UNL     1     -34.426  16.356  -1.350  1.00 20.00    -0.093 Cl
HETATM    8 CL8  UNL     1     -34.183  17.471  -4.101  1.00 20.00    -0.093 Cl
ENDROOT
TORSDOF 0
ENDMDL
MODEL 4
REMARK VINA RESULT:      -3.8     12.012     12.755
REMARK  0 active torsions:
REMARK  status: ('A' for Active; 'I' for Inactive)
ROOT
HETATM    1  C1  UNL     1     -35.269  13.941  -4.262  1.00 20.00     0.169 C 
HETATM    2  C2  UNL     1     -35.583  16.051  -4.330  1.00 20.00     0.062 C 
HETATM    3  C3  UNL     1     -36.277  14.883  -3.580  1.00 20.00     0.058 C 
HETATM    4  C4  UNL     1     -34.420  15.130  -4.802  1.00 20.00     0.174 C 
HETATM    5  C5  UNL     1     -37.734  14.644  -3.921  1.00 20.00     0.018 C 
HETATM    6  O6  UNL     1     -35.174  12.734  -4.335  1.00 20.00    -0.294 OA
HETATM    7 CL7  UNL     1     -32.870  15.280  -3.907  1.00 20.00    -0.093 Cl
HETATM    8 CL8  UNL     1     -34.171  15.025  -6.574  1.00 20.00    -0.093 Cl
ENDROOT
TORSDOF 0
ENDMDL
MODEL 5
REMARK VINA RESULT:      -3.8      2.069      3.211
REMARK  0 active torsions:
REMARK  status: ('A' for Active; 'I' for Inactive)
ROOT
HETATM    1  C1  UNL     1     -33.963   6.233   5.350  1.00 20.00     0.169 C 
HETATM    2  C2  UNL     1     -34.686   5.223   3.615  1.00 20.00     0.062 C 
HETATM    3  C3  UNL     1     -35.099   5.223   5.110  1.00 20.00     0.058 C 
HETATM    4  C4  UNL     1     -33.722   6.428   3.824  1.00 20.00     0.174 C 
HETATM    5  C5  UNL     1     -34.968   3.901   5.838  1.00 20.00     0.018 C 
HETATM    6  O6  UNL     1     -33.462   6.701   6.351  1.00 20.00    -0.294 OA
HETATM    7 CL7  UNL     1     -34.316   8.031   3.273  1.00 20.00    -0.093 Cl
HETATM    8 CL8  UNL     1     -32.009   6.150   3.375  1.00 20.00    -0.093 Cl
ENDROOT
TORSDOF 0
ENDMDL
MODEL 6
REMARK VINA RESULT:      -3.8     11.924     12.599
REMARK  0 active torsions:
REMARK  status: ('A' for Active; 'I' for Inactive)
ROOT
HETATM    1  C1  UNL     1     -33.338  15.234  -3.723  1.00 20.00     0.169 C 
HETATM    2  C2  UNL     1     -35.328  15.998  -3.838  1.00 20.00     0.062 C 
HETATM    3  C3  UNL     1     -34.020  16.497  -3.169  1.00 20.00     0.058 C 
HETATM    4  C4  UNL     1     -34.571  14.872  -4.603  1.00 20.00     0.174 C 
HETATM    5  C5  UNL     1     -34.049  16.619  -1.659  1.00 20.00     0.018 C 
HETATM    6  O6  UNL     1     -32.250  14.728  -3.544  1.00 20.00    -0.294 OA
HETATM    7 CL7  UNL     1     -34.238  15.173  -6.342  1.00 20.00    -0.093 Cl
HETATM    8 CL8  UNL     1     -35.141  13.199  -4.302  1.00 20.00    -0.093 Cl
ENDROOT
TORSDOF 0
ENDMDL
MODEL 7
REMARK VINA RESULT:      -3.6     12.359     13.301
REMARK  0 active torsions:
REMARK  status: ('A' for Active; 'I' for Inactive)
ROOT
HETATM    1  C1  UNL     1     -33.694  15.855  -5.236  1.00 20.00     0.169 C 
HETATM    2  C2  UNL     1     -35.113  14.330  -5.702  1.00 20.00     0.062 C 
HETATM    3  C3  UNL     1     -34.227  15.273  -6.557  1.00 20.00     0.058 C 
HETATM    4  C4  UNL     1     -34.381  14.741  -4.390  1.00 20.00     0.174 C 
HETATM    5  C5  UNL     1     -34.964  16.247  -7.454  1.00 20.00     0.018 C 
HETATM    6  O6  UNL     1     -32.996  16.811  -4.968  1.00 20.00    -0.294 OA
HETATM    7 CL7  UNL     1     -33.173  13.576  -3.750  1.00 20.00    -0.093 Cl
HETATM    8 CL8  UNL     1     -35.415  15.425  -3.096  1.00 20.00    -0.093 Cl
ENDROOT
TORSDOF 0
ENDMDL
MODEL 8
REMARK VINA RESULT:      -3.6     11.796     12.449
REMARK  0 active torsions:
REMARK  status: ('A' for Active; 'I' for Inactive)
ROOT
HETATM    1  C1  UNL     1     -35.458  15.283  -3.343  1.00 20.00     0.169 C 
HETATM    2  C2  UNL     1     -33.339  15.517  -3.438  1.00 20.00     0.062 C 
HETATM    3  C3  UNL     1     -34.378  15.581  -2.288  1.00 20.00     0.058 C 
HETATM    4  C4  UNL     1     -34.397  14.964  -4.437  1.00 20.00     0.174 C 
HETATM    5  C5  UNL     1     -34.503  16.913  -1.576  1.00 20.00     0.018 C 
HETATM    6  O6  UNL     1     -36.671  15.288  -3.318  1.00 20.00    -0.294 OA
HETATM    7 CL7  UNL     1     -34.328  13.202  -4.780  1.00 20.00    -0.093 Cl
HETATM    8 CL8  UNL     1     -34.654  15.933  -5.923  1.00 20.00    -0.093 Cl
ENDROOT
TORSDOF 0
ENDMDL
MODEL 9
REMARK VINA RESULT:      -3.6     12.266     12.925
REMARK  0 active torsions:
REMARK  status: ('A' for Active; 'I' for Inactive)
ROOT
HETATM    1  C1  UNL     1     -34.879  13.899  -4.841  1.00 20.00     0.169 C 
HETATM    2  C2  UNL     1     -34.688  15.956  -5.376  1.00 20.00     0.062 C 
HETATM    3  C3  UNL     1     -33.788  14.957  -4.601  1.00 20.00     0.058 C 
HETATM    4  C4  UNL     1     -35.652  14.821  -5.830  1.00 20.00     0.174 C 
HETATM    5  C5  UNL     1     -33.509  15.298  -3.152  1.00 20.00     0.018 C 
HETATM    6  O6  UNL     1     -35.055  12.774  -4.421  1.00 20.00    -0.294 OA
HETATM    7 CL7  UNL     1     -35.471  14.251  -7.523  1.00 20.00    -0.093 Cl
HETATM    8 CL8  UNL     1     -37.371  15.016  -5.361  1.00 20.00    -0.093 Cl
ENDROOT
TORSDOF 0
ENDMDL
