MODEL 1
REMARK VINA RESULT:      -5.3      0.000      0.000
REMARK  2 active torsions:
REMARK  status: ('A' for Active; 'I' for Inactive)
REMARK    1  A    between atoms: C1_1  and  C8_8 
REMARK    2  A    between atoms: C2_2  and  C9_9 
ROOT
HETATM    1  C3  UNL     1     -34.498   5.742   5.867  1.00 20.00     0.142 C 
HETATM    2  C4  UNL     1     -34.757   4.225   5.825  1.00 20.00     0.081 C 
HETATM    3  C5  UNL     1     -34.665   4.330   4.284  1.00 20.00     0.032 C 
HETATM    4  C8  UNL     1     -34.768   5.882   4.350  1.00 20.00     0.135 C 
HETATM    5  O10 UNL     1     -34.199   6.517   6.751  1.00 20.00    -0.297 OA
ENDROOT
BRANCH   4   6
HETATM    6  C1  UNL     1     -33.738   6.606   3.647  1.00 20.00    -0.094 C 
HETATM    7  C2  UNL     1     -32.880   7.210   3.061  1.00 20.00    -0.101 C 
BRANCH   7   8
HETATM    8  C9  UNL     1     -31.837   7.945   2.349  1.00 20.00     0.065 A 
HETATM    9  C6  UNL     1     -32.185   9.282   1.788  1.00 20.00     0.018 A 
HETATM   10  C7  UNL     1     -31.982   8.109   0.874  1.00 20.00     0.018 A 
ENDBRANCH   7   8
ENDBRANCH   4   6
TORSDOF 2
ENDMDL
MODEL 2
REMARK VINA RESULT:      -5.1      1.501      1.900
REMARK  2 active torsions:
REMARK  status: ('A' for Active; 'I' for Inactive)
REMARK    1  A    between atoms: C1_1  and  C8_8 
REMARK    2  A    between atoms: C2_2  and  C9_9 
ROOT
HETATM    1  C3  UNL     1     -34.670   5.628   4.168  1.00 20.00     0.142 C 
HETATM    2  C4  UNL     1     -34.808   5.800   5.692  1.00 20.00     0.081 C 
HETATM    3  C5  UNL     1     -33.367   6.362   5.681  1.00 20.00     0.032 C 
HETATM    4  C8  UNL     1     -33.140   5.845   4.230  1.00 20.00     0.135 C 
HETATM    5  O10 UNL     1     -35.461   5.408   3.275  1.00 20.00    -0.297 OA
ENDROOT
BRANCH   4   6
HETATM    6  C1  UNL     1     -32.659   6.823   3.286  1.00 20.00    -0.094 C 
HETATM    7  C2  UNL     1     -32.257   7.638   2.501  1.00 20.00    -0.101 C 
BRANCH   7   8
HETATM    8  C9  UNL     1     -31.769   8.628   1.544  1.00 20.00     0.065 A 
HETATM    9  C6  UNL     1     -32.470   9.943   1.482  1.00 20.00     0.018 A 
HETATM   10  C7  UNL     1     -32.631   8.949   0.370  1.00 20.00     0.018 A 
ENDBRANCH   7   8
ENDBRANCH   4   6
TORSDOF 2
ENDMDL
MODEL 3
REMARK VINA RESULT:      -4.8     11.018     11.731
REMARK  2 active torsions:
REMARK  status: ('A' for Active; 'I' for Inactive)
REMARK    1  A    between atoms: C1_1  and  C8_8 
REMARK    2  A    between atoms: C2_2  and  C9_9 
ROOT
HETATM    1  C3  UNL     1     -35.838  14.140  -3.996  1.00 20.00     0.142 C 
HETATM    2  C4  UNL     1     -34.834  13.089  -4.504  1.00 20.00     0.081 C 
HETATM    3  C5  UNL     1     -33.714  14.017  -3.978  1.00 20.00     0.032 C 
HETATM    4  C8  UNL     1     -34.720  15.193  -3.812  1.00 20.00     0.135 C 
HETATM    5  O10 UNL     1     -37.037  14.134  -3.815  1.00 20.00    -0.297 OA
ENDROOT
BRANCH   4   6
HETATM    6  C1  UNL     1     -34.734  15.826  -2.517  1.00 20.00    -0.094 C 
HETATM    7  C2  UNL     1     -34.745  16.353  -1.438  1.00 20.00    -0.101 C 
BRANCH   7   8
HETATM    8  C9  UNL     1     -34.759  16.994  -0.124  1.00 20.00     0.065 A 
HETATM    9  C6  UNL     1     -35.252  18.399  -0.039  1.00 20.00     0.018 A 
HETATM   10  C7  UNL     1     -33.791  18.100   0.123  1.00 20.00     0.018 A 
ENDBRANCH   7   8
ENDBRANCH   4   6
TORSDOF 2
ENDMDL
MODEL 4
REMARK VINA RESULT:      -4.7     11.075     11.894
REMARK  2 active torsions:
REMARK  status: ('A' for Active; 'I' for Inactive)
REMARK    1  A    between atoms: C1_1  and  C8_8 
REMARK    2  A    between atoms: C2_2  and  C9_9 
ROOT
HETATM    1  C3  UNL     1     -34.239  13.710  -4.270  1.00 20.00     0.142 C 
HETATM    2  C4  UNL     1     -34.705  14.048  -5.698  1.00 20.00     0.081 C 
HETATM    3  C5  UNL     1     -35.605  15.135  -5.064  1.00 20.00     0.032 C 
HETATM    4  C8  UNL     1     -35.390  14.533  -3.645  1.00 20.00     0.135 C 
HETATM    5  O10 UNL     1     -33.325  13.052  -3.821  1.00 20.00    -0.297 OA
ENDROOT
BRANCH   4   6
HETATM    6  C1  UNL     1     -34.949  15.461  -2.633  1.00 20.00    -0.094 C 
HETATM    7  C2  UNL     1     -34.580  16.234  -1.791  1.00 20.00    -0.101 C 
BRANCH   7   8
HETATM    8  C9  UNL     1     -34.133  17.175  -0.766  1.00 20.00     0.065 A 
HETATM    9  C6  UNL     1     -34.992  17.354   0.440  1.00 20.00     0.018 A 
HETATM   10  C7  UNL     1     -34.906  18.438  -0.593  1.00 20.00     0.018 A 
ENDBRANCH   7   8
ENDBRANCH   4   6
TORSDOF 2
ENDMDL
MODEL 5
REMARK VINA RESULT:      -4.6     11.455     12.244
REMARK  2 active torsions:
REMARK  status: ('A' for Active; 'I' for Inactive)
REMARK    1  A    between atoms: C1_1  and  C8_8 
REMARK    2  A    between atoms: C2_2  and  C9_9 
ROOT
HETATM    1  C3  UNL     1     -33.588  15.489  -4.503  1.00 20.00     0.142 C 
HETATM    2  C4  UNL     1     -34.540  14.531  -5.243  1.00 20.00     0.081 C 
HETATM    3  C5  UNL     1     -35.185  14.234  -3.869  1.00 20.00     0.032 C 
HETATM    4  C8  UNL     1     -33.998  14.914  -3.126  1.00 20.00     0.135 C 
HETATM    5  O10 UNL     1     -32.819  16.353  -4.867  1.00 20.00    -0.297 OA
ENDROOT
BRANCH   4   6
HETATM    6  C1  UNL     1     -34.360  15.926  -2.166  1.00 20.00    -0.094 C 
HETATM    7  C2  UNL     1     -34.661  16.770  -1.365  1.00 20.00    -0.101 C 
BRANCH   7   8
HETATM    8  C9  UNL     1     -35.028  17.797  -0.392  1.00 20.00     0.065 A 
HETATM    9  C6  UNL     1     -33.999  18.211   0.605  1.00 20.00     0.018 A 
HETATM   10  C7  UNL     1     -35.176  17.385   1.034  1.00 20.00     0.018 A 
ENDBRANCH   7   8
ENDBRANCH   4   6
TORSDOF 2
ENDMDL
MODEL 6
REMARK VINA RESULT:      -4.4     11.573     12.380
REMARK  2 active torsions:
REMARK  status: ('A' for Active; 'I' for Inactive)
REMARK    1  A    between atoms: C1_1  and  C8_8 
REMARK    2  A    between atoms: C2_2  and  C9_9 
ROOT
HETATM    1  C3  UNL     1     -32.355  18.949   0.636  1.00 20.00     0.142 C 
HETATM    2  C4  UNL     1     -32.598  18.879   2.155  1.00 20.00     0.081 C 
HETATM    3  C5  UNL     1     -33.970  18.244   1.827  1.00 20.00     0.032 C 
HETATM    4  C8  UNL     1     -33.843  18.658   0.332  1.00 20.00     0.135 C 
HETATM    5  O10 UNL     1     -31.374  19.154  -0.047  1.00 20.00    -0.297 OA
ENDROOT
BRANCH   4   6
HETATM    6  C1  UNL     1     -34.038  17.600  -0.628  1.00 20.00    -0.094 C 
HETATM    7  C2  UNL     1     -34.202  16.719  -1.427  1.00 20.00    -0.101 C 
BRANCH   7   8
HETATM    8  C9  UNL     1     -34.400  15.647  -2.401  1.00 20.00     0.065 A 
HETATM    9  C6  UNL     1     -33.366  15.468  -3.461  1.00 20.00     0.018 A 
HETATM   10  C7  UNL     1     -34.713  16.031  -3.807  1.00 20.00     0.018 A 
ENDBRANCH   7   8
ENDBRANCH   4   6
TORSDOF 2
ENDMDL
MODEL 7
REMARK VINA RESULT:      -4.4     10.949     11.996
REMARK  2 active torsions:
REMARK  status: ('A' for Active; 'I' for Inactive)
REMARK    1  A    between atoms: C1_1  and  C8_8 
REMARK    2  A    between atoms: C2_2  and  C9_9 
ROOT
HETATM    1  C3  UNL     1     -35.744  18.155  -0.483  1.00 20.00     0.142 C 
HETATM    2  C4  UNL     1     -34.749  19.133   0.170  1.00 20.00     0.081 C 
HETATM    3  C5  UNL     1     -33.666  18.049  -0.041  1.00 20.00     0.032 C 
HETATM    4  C8  UNL     1     -34.750  16.977  -0.354  1.00 20.00     0.135 C 
HETATM    5  O10 UNL     1     -36.868  18.274  -0.923  1.00 20.00    -0.297 OA
ENDROOT
BRANCH   4   6
HETATM    6  C1  UNL     1     -34.567  16.243  -1.581  1.00 20.00    -0.094 C 
HETATM    7  C2  UNL     1     -34.415  15.631  -2.604  1.00 20.00    -0.101 C 
BRANCH   7   8
HETATM    8  C9  UNL     1     -34.229  14.888  -3.848  1.00 20.00     0.065 A 
HETATM    9  C6  UNL     1     -34.840  13.531  -3.948  1.00 20.00     0.018 A 
HETATM   10  C7  UNL     1     -33.353  13.681  -3.816  1.00 20.00     0.018 A 
ENDBRANCH   7   8
ENDBRANCH   4   6
TORSDOF 2
ENDMDL
MODEL 8
REMARK VINA RESULT:      -4.3     10.448     11.602
REMARK  2 active torsions:
REMARK  status: ('A' for Active; 'I' for Inactive)
REMARK    1  A    between atoms: C1_1  and  C8_8 
REMARK    2  A    between atoms: C2_2  and  C9_9 
ROOT
HETATM    1  C3  UNL     1     -42.035   6.182  -2.213  1.00 20.00     0.142 C 
HETATM    2  C4  UNL     1     -41.052   6.803  -1.203  1.00 20.00     0.081 C 
HETATM    3  C5  UNL     1     -40.772   5.364  -0.709  1.00 20.00     0.032 C 
HETATM    4  C8  UNL     1     -42.014   4.823  -1.476  1.00 20.00     0.135 C 
HETATM    5  O10 UNL     1     -42.601   6.605  -3.198  1.00 20.00    -0.297 OA
ENDROOT
BRANCH   4   6
HETATM    6  C1  UNL     1     -41.770   3.700  -2.347  1.00 20.00    -0.094 C 
HETATM    7  C2  UNL     1     -41.567   2.766  -3.073  1.00 20.00    -0.101 C 
BRANCH   7   8
HETATM    8  C9  UNL     1     -41.318   1.628  -3.956  1.00 20.00     0.065 A 
HETATM    9  C6  UNL     1     -42.425   1.187  -4.853  1.00 20.00     0.018 A 
HETATM   10  C7  UNL     1     -42.035   0.352  -3.669  1.00 20.00     0.018 A 
ENDBRANCH   7   8
ENDBRANCH   4   6
TORSDOF 2
ENDMDL
MODEL 9
REMARK VINA RESULT:      -4.3      1.593      4.945
REMARK  2 active torsions:
REMARK  status: ('A' for Active; 'I' for Inactive)
REMARK    1  A    between atoms: C1_1  and  C8_8 
REMARK    2  A    between atoms: C2_2  and  C9_9 
ROOT
HETATM    1  C3  UNL     1     -31.473   7.871   3.308  1.00 20.00     0.142 C 
HETATM    2  C4  UNL     1     -31.669   8.851   2.137  1.00 20.00     0.081 C 
HETATM    3  C5  UNL     1     -32.746   7.877   1.604  1.00 20.00     0.032 C 
HETATM    4  C8  UNL     1     -32.271   6.763   2.582  1.00 20.00     0.135 C 
HETATM    5  O10 UNL     1     -30.909   7.947   4.379  1.00 20.00    -0.297 OA
ENDROOT
BRANCH   4   6
HETATM    6  C1  UNL     1     -33.301   6.168   3.397  1.00 20.00    -0.094 C 
HETATM    7  C2  UNL     1     -34.158   5.671   4.076  1.00 20.00    -0.101 C 
BRANCH   7   8
HETATM    8  C9  UNL     1     -35.201   5.067   4.903  1.00 20.00     0.065 A 
HETATM    9  C6  UNL     1     -35.027   5.106   6.383  1.00 20.00     0.018 A 
HETATM   10  C7  UNL     1     -34.870   3.813   5.638  1.00 20.00     0.018 A 
ENDBRANCH   7   8
ENDBRANCH   4   6
TORSDOF 2
ENDMDL
