MODEL 1
REMARK VINA RESULT:      -4.9      0.000      0.000
REMARK  1 active torsions:
REMARK  status: ('A' for Active; 'I' for Inactive)
REMARK    1  A    between atoms: C9_9  and  O10_10 
ROOT
HETATM    1  C1  UNL     1     -33.636  18.228  -5.832  1.00 20.00     0.012 C 
HETATM    2  C2  UNL     1     -33.498  17.162  -5.298  1.00 20.00    -0.112 C 
HETATM    3  C3  UNL     1     -36.007  15.241  -3.517  1.00 20.00     0.007 C 
HETATM    4  C4  UNL     1     -35.772  15.228  -5.034  1.00 20.00     0.009 C 
HETATM    5  C5  UNL     1     -33.623  15.893  -3.131  1.00 20.00     0.024 C 
HETATM    6  C6  UNL     1     -33.328  15.861  -4.647  1.00 20.00     0.071 C 
HETATM    7  C7  UNL     1     -34.656  14.761  -2.956  1.00 20.00     0.016 C 
HETATM    8  C8  UNL     1     -34.300  14.769  -5.154  1.00 20.00     0.030 C 
HETATM    9  C9  UNL     1     -34.192  13.752  -4.010  1.00 20.00     0.127 C 
ENDROOT
BRANCH   9  10
HETATM   10  O10 UNL     1     -35.064  12.650  -4.141  1.00 20.00    -0.395 OA
HETATM   11  H22 UNL     1     -35.905  12.987  -4.497  1.00 20.00     0.210 HD
ENDBRANCH   9  10
TORSDOF 1
ENDMDL
MODEL 2
REMARK VINA RESULT:      -4.8      1.357      2.697
REMARK  1 active torsions:
REMARK  status: ('A' for Active; 'I' for Inactive)
REMARK    1  A    between atoms: C9_9  and  O10_10 
ROOT
HETATM    1  C1  UNL     1     -33.756  17.368  -1.317  1.00 20.00     0.012 C 
HETATM    2  C2  UNL     1     -34.378  16.497  -1.860  1.00 20.00    -0.112 C 
HETATM    3  C3  UNL     1     -34.108  15.413  -5.311  1.00 20.00     0.007 C 
HETATM    4  C4  UNL     1     -33.231  14.936  -4.146  1.00 20.00     0.009 C 
HETATM    5  C5  UNL     1     -35.970  15.934  -3.724  1.00 20.00     0.024 C 
HETATM    6  C6  UNL     1     -35.138  15.434  -2.523  1.00 20.00     0.071 C 
HETATM    7  C7  UNL     1     -35.524  15.000  -4.867  1.00 20.00     0.016 C 
HETATM    8  C8  UNL     1     -34.258  14.332  -3.161  1.00 20.00     0.030 C 
HETATM    9  C9  UNL     1     -35.273  13.689  -4.116  1.00 20.00     0.127 C 
ENDROOT
BRANCH   9  10
HETATM   10  O10 UNL     1     -34.724  12.679  -4.935  1.00 20.00    -0.395 OA
HETATM   11  H22 UNL     1     -34.733  13.012  -5.850  1.00 20.00     0.210 HD
ENDBRANCH   9  10
TORSDOF 1
ENDMDL
MODEL 3
REMARK VINA RESULT:      -4.7      1.765      2.582
REMARK  1 active torsions:
REMARK  status: ('A' for Active; 'I' for Inactive)
REMARK    1  A    between atoms: C9_9  and  O10_10 
ROOT
HETATM    1  C1  UNL     1     -34.517  16.503  -1.159  1.00 20.00     0.012 C 
HETATM    2  C2  UNL     1     -34.205  16.160  -2.266  1.00 20.00    -0.112 C 
HETATM    3  C3  UNL     1     -35.527  13.370  -4.170  1.00 20.00     0.007 C 
HETATM    4  C4  UNL     1     -36.140  14.775  -4.087  1.00 20.00     0.009 C 
HETATM    5  C5  UNL     1     -33.260  14.306  -3.678  1.00 20.00     0.024 C 
HETATM    6  C6  UNL     1     -33.824  15.743  -3.618  1.00 20.00     0.071 C 
HETATM    7  C7  UNL     1     -34.131  13.638  -4.762  1.00 20.00     0.016 C 
HETATM    8  C8  UNL     1     -35.005  15.681  -4.616  1.00 20.00     0.030 C 
HETATM    9  C9  UNL     1     -34.388  14.808  -5.717  1.00 20.00     0.127 C 
ENDROOT
BRANCH   9  10
HETATM   10  O10 UNL     1     -35.285  14.483  -6.757  1.00 20.00    -0.395 OA
HETATM   11  H22 UNL     1     -34.784  14.513  -7.591  1.00 20.00     0.210 HD
ENDBRANCH   9  10
TORSDOF 1
ENDMDL
MODEL 4
REMARK VINA RESULT:      -4.6      0.985      1.077
REMARK  1 active torsions:
REMARK  status: ('A' for Active; 'I' for Inactive)
REMARK    1  A    between atoms: C9_9  and  O10_10 
ROOT
HETATM    1  C1  UNL     1     -34.742  17.697  -7.022  1.00 20.00     0.012 C 
HETATM    2  C2  UNL     1     -34.397  16.680  -6.487  1.00 20.00    -0.112 C 
HETATM    3  C3  UNL     1     -35.735  15.217  -3.450  1.00 20.00     0.007 C 
HETATM    4  C4  UNL     1     -36.301  15.031  -4.864  1.00 20.00     0.009 C 
HETATM    5  C5  UNL     1     -33.460  15.649  -4.394  1.00 20.00     0.024 C 
HETATM    6  C6  UNL     1     -33.974  15.438  -5.834  1.00 20.00     0.071 C 
HETATM    7  C7  UNL     1     -34.307  14.654  -3.574  1.00 20.00     0.016 C 
HETATM    8  C8  UNL     1     -35.113  14.409  -5.636  1.00 20.00     0.030 C 
HETATM    9  C9  UNL     1     -34.483  13.504  -4.570  1.00 20.00     0.127 C 
ENDROOT
BRANCH   9  10
HETATM   10  O10 UNL     1     -35.346  12.492  -4.097  1.00 20.00    -0.395 OA
HETATM   11  H22 UNL     1     -35.216  12.427  -3.135  1.00 20.00     0.210 HD
ENDBRANCH   9  10
TORSDOF 1
ENDMDL
MODEL 5
REMARK VINA RESULT:      -4.6      1.723      3.043
REMARK  1 active torsions:
REMARK  status: ('A' for Active; 'I' for Inactive)
REMARK    1  A    between atoms: C9_9  and  O10_10 
ROOT
HETATM    1  C1  UNL     1     -34.421  17.017  -0.659  1.00 20.00     0.012 C 
HETATM    2  C2  UNL     1     -34.467  16.263  -1.592  1.00 20.00    -0.112 C 
HETATM    3  C3  UNL     1     -35.310  17.053  -5.031  1.00 20.00     0.007 C 
HETATM    4  C4  UNL     1     -33.922  17.188  -4.390  1.00 20.00     0.009 C 
HETATM    5  C5  UNL     1     -35.917  15.267  -3.388  1.00 20.00     0.024 C 
HETATM    6  C6  UNL     1     -34.522  15.342  -2.731  1.00 20.00     0.071 C 
HETATM    7  C7  UNL     1     -35.616  15.552  -4.874  1.00 20.00     0.016 C 
HETATM    8  C8  UNL     1     -33.615  15.748  -3.916  1.00 20.00     0.030 C 
HETATM    9  C9  UNL     1     -34.237  14.907  -5.039  1.00 20.00     0.127 C 
ENDROOT
BRANCH   9  10
HETATM   10  O10 UNL     1     -33.667  15.139  -6.309  1.00 20.00    -0.395 OA
HETATM   11  H22 UNL     1     -33.674  16.101  -6.457  1.00 20.00     0.210 HD
ENDBRANCH   9  10
TORSDOF 1
ENDMDL
MODEL 6
REMARK VINA RESULT:      -4.5      1.767      3.189
REMARK  1 active torsions:
REMARK  status: ('A' for Active; 'I' for Inactive)
REMARK    1  A    between atoms: C9_9  and  O10_10 
ROOT
HETATM    1  C1  UNL     1     -38.220  14.784  -3.862  1.00 20.00     0.012 C 
HETATM    2  C2  UNL     1     -37.167  15.357  -3.806  1.00 20.00    -0.112 C 
HETATM    3  C3  UNL     1     -33.854  13.883  -3.697  1.00 20.00     0.007 C 
HETATM    4  C4  UNL     1     -34.669  14.174  -4.964  1.00 20.00     0.009 C 
HETATM    5  C5  UNL     1     -35.060  15.704  -2.478  1.00 20.00     0.024 C 
HETATM    6  C6  UNL     1     -35.881  16.057  -3.737  1.00 20.00     0.071 C 
HETATM    7  C7  UNL     1     -33.698  15.277  -3.062  1.00 20.00     0.016 C 
HETATM    8  C8  UNL     1     -34.906  15.700  -4.884  1.00 20.00     0.030 C 
HETATM    9  C9  UNL     1     -33.583  16.194  -4.283  1.00 20.00     0.127 C 
ENDROOT
BRANCH   9  10
HETATM   10  O10 UNL     1     -32.453  15.911  -5.081  1.00 20.00    -0.395 OA
HETATM   11  H22 UNL     1     -31.667  16.017  -4.517  1.00 20.00     0.210 HD
ENDBRANCH   9  10
TORSDOF 1
ENDMDL
MODEL 7
REMARK VINA RESULT:      -4.5      1.782      2.859
REMARK  1 active torsions:
REMARK  status: ('A' for Active; 'I' for Inactive)
REMARK    1  A    between atoms: C9_9  and  O10_10 
ROOT
HETATM    1  C1  UNL     1     -34.756  14.895  -7.824  1.00 20.00     0.012 C 
HETATM    2  C2  UNL     1     -35.048  14.760  -6.668  1.00 20.00    -0.112 C 
HETATM    3  C3  UNL     1     -32.821  14.825  -3.805  1.00 20.00     0.007 C 
HETATM    4  C4  UNL     1     -33.453  16.048  -4.482  1.00 20.00     0.009 C 
HETATM    5  C5  UNL     1     -34.713  13.388  -4.587  1.00 20.00     0.024 C 
HETATM    6  C6  UNL     1     -35.405  14.595  -5.256  1.00 20.00     0.071 C 
HETATM    7  C7  UNL     1     -34.047  14.015  -3.345  1.00 20.00     0.016 C 
HETATM    8  C8  UNL     1     -34.969  15.774  -4.353  1.00 20.00     0.030 C 
HETATM    9  C9  UNL     1     -35.053  15.108  -2.973  1.00 20.00     0.127 C 
ENDROOT
BRANCH   9  10
HETATM   10  O10 UNL     1     -34.609  15.929  -1.915  1.00 20.00    -0.395 OA
HETATM   11  H22 UNL     1     -34.115  16.669  -2.310  1.00 20.00     0.210 HD
ENDBRANCH   9  10
TORSDOF 1
ENDMDL
MODEL 8
REMARK VINA RESULT:      -4.4      1.934      3.395
REMARK  1 active torsions:
REMARK  status: ('A' for Active; 'I' for Inactive)
REMARK    1  A    between atoms: C9_9  and  O10_10 
ROOT
HETATM    1  C1  UNL     1     -38.451  15.037  -3.948  1.00 20.00     0.012 C 
HETATM    2  C2  UNL     1     -37.271  14.913  -3.767  1.00 20.00    -0.112 C 
HETATM    3  C3  UNL     1     -34.669  14.634  -6.279  1.00 20.00     0.007 C 
HETATM    4  C4  UNL     1     -35.262  15.942  -5.739  1.00 20.00     0.009 C 
HETATM    5  C5  UNL     1     -35.252  13.463  -4.147  1.00 20.00     0.024 C 
HETATM    6  C6  UNL     1     -35.831  14.763  -3.546  1.00 20.00     0.071 C 
HETATM    7  C7  UNL     1     -34.085  13.973  -5.017  1.00 20.00     0.016 C 
HETATM    8  C8  UNL     1     -34.970  15.856  -4.223  1.00 20.00     0.030 C 
HETATM    9  C9  UNL     1     -33.595  15.175  -4.203  1.00 20.00     0.127 C 
ENDROOT
BRANCH   9  10
HETATM   10  O10 UNL     1     -32.585  15.910  -4.859  1.00 20.00    -0.395 OA
HETATM   11  H22 UNL     1     -31.865  15.289  -5.070  1.00 20.00     0.210 HD
ENDBRANCH   9  10
TORSDOF 1
ENDMDL
MODEL 9
REMARK VINA RESULT:      -4.3      1.482      2.567
REMARK  1 active torsions:
REMARK  status: ('A' for Active; 'I' for Inactive)
REMARK    1  A    between atoms: C9_9  and  O10_10 
ROOT
HETATM    1  C1  UNL     1     -36.603  17.877  -3.785  1.00 20.00     0.012 C 
HETATM    2  C2  UNL     1     -36.193  16.781  -3.517  1.00 20.00    -0.112 C 
HETATM    3  C3  UNL     1     -34.701  14.369  -5.779  1.00 20.00     0.007 C 
HETATM    4  C4  UNL     1     -33.965  15.514  -5.069  1.00 20.00     0.009 C 
HETATM    5  C5  UNL     1     -36.416  14.315  -3.959  1.00 20.00     0.024 C 
HETATM    6  C6  UNL     1     -35.693  15.443  -3.191  1.00 20.00     0.071 C 
HETATM    7  C7  UNL     1     -35.252  13.537  -4.606  1.00 20.00     0.016 C 
HETATM    8  C8  UNL     1     -34.211  15.212  -3.573  1.00 20.00     0.030 C 
HETATM    9  C9  UNL     1     -34.156  13.679  -3.546  1.00 20.00     0.127 C 
ENDROOT
BRANCH   9  10
HETATM   10  O10 UNL     1     -32.917  13.145  -3.959  1.00 20.00    -0.395 OA
HETATM   11  H22 UNL     1     -32.406  12.944  -3.155  1.00 20.00     0.210 HD
ENDBRANCH   9  10
TORSDOF 1
ENDMDL
