MODEL 1
REMARK VINA RESULT:      -4.4      0.000      0.000
REMARK  1 active torsions:
REMARK  status: ('A' for Active; 'I' for Inactive)
REMARK    1  A    between atoms: C6_6  and  N10_10 
ROOT
HETATM    1  C1  UNL     1     -35.734  13.613  -4.314  1.00 20.00    -0.017 A 
HETATM    2  C2  UNL     1     -36.432  14.584  -3.809  1.00 20.00     0.079 A 
HETATM    3  C3  UNL     1     -35.695  15.576  -3.055  1.00 20.00     0.047 A 
HETATM    4  C4  UNL     1     -33.407  14.544  -3.350  1.00 20.00     0.057 A 
HETATM    5  C5  UNL     1     -33.642  13.438  -4.094  1.00 20.00     0.129 A 
HETATM    6  C6  UNL     1     -34.357  15.549  -2.856  1.00 20.00     0.135 A 
HETATM    7  N9  UNL     1     -34.828  12.928  -4.602  1.00 20.00    -0.218 NA
ENDROOT
BRANCH   6   8
HETATM    8  N10 UNL     1     -33.832  16.623  -2.082  1.00 20.00    -0.049 N 
HETATM    9  C7  UNL     1     -33.877  17.894  -2.877  1.00 20.00     0.276 C 
HETATM   10  C8  UNL     1     -34.564  16.718  -0.778  1.00 20.00     0.276 C 
HETATM   11  H21 UNL     1     -32.844  16.427  -1.868  1.00 20.00     0.285 HD
ENDBRANCH   6   8
TORSDOF 1
ENDMDL
MODEL 2
REMARK VINA RESULT:      -4.3      1.927      2.236
REMARK  1 active torsions:
REMARK  status: ('A' for Active; 'I' for Inactive)
REMARK    1  A    between atoms: C6_6  and  N10_10 
ROOT
HETATM    1  C1  UNL     1     -34.793  13.468  -5.521  1.00 20.00    -0.017 A 
HETATM    2  C2  UNL     1     -34.794  14.415  -6.408  1.00 20.00     0.079 A 
HETATM    3  C3  UNL     1     -34.258  15.691  -5.982  1.00 20.00     0.047 A 
HETATM    4  C4  UNL     1     -33.680  15.003  -3.620  1.00 20.00     0.057 A 
HETATM    5  C5  UNL     1     -34.060  13.705  -3.557  1.00 20.00     0.129 A 
HETATM    6  C6  UNL     1     -33.770  15.942  -4.746  1.00 20.00     0.135 A 
HETATM    7  N9  UNL     1     -34.640  12.888  -4.515  1.00 20.00    -0.218 NA
ENDROOT
BRANCH   6   8
HETATM    8  N10 UNL     1     -33.293  17.267  -4.535  1.00 20.00    -0.049 N 
HETATM    9  C7  UNL     1     -33.668  18.136  -5.698  1.00 20.00     0.276 C 
HETATM   10  C8  UNL     1     -33.798  17.789  -3.224  1.00 20.00     0.276 C 
HETATM   11  H21 UNL     1     -32.265  17.246  -4.484  1.00 20.00     0.285 HD
ENDBRANCH   6   8
TORSDOF 1
ENDMDL
MODEL 3
REMARK VINA RESULT:      -4.3      0.630      2.168
REMARK  1 active torsions:
REMARK  status: ('A' for Active; 'I' for Inactive)
REMARK    1  A    between atoms: C6_6  and  N10_10 
ROOT
HETATM    1  C1  UNL     1     -33.883  13.414  -4.217  1.00 20.00    -0.017 A 
HETATM    2  C2  UNL     1     -32.977  14.189  -3.703  1.00 20.00     0.079 A 
HETATM    3  C3  UNL     1     -33.459  15.384  -3.042  1.00 20.00     0.047 A 
HETATM    4  C4  UNL     1     -35.922  14.979  -3.439  1.00 20.00     0.057 A 
HETATM    5  C5  UNL     1     -35.953  13.810  -4.121  1.00 20.00     0.129 A 
HETATM    6  C6  UNL     1     -34.763  15.726  -2.932  1.00 20.00     0.135 A 
HETATM    7  N9  UNL     1     -34.922  12.983  -4.542  1.00 20.00    -0.218 NA
ENDROOT
BRANCH   6   8
HETATM    8  N10 UNL     1     -35.019  16.946  -2.243  1.00 20.00    -0.049 N 
HETATM    9  C7  UNL     1     -34.665  16.797  -0.793  1.00 20.00     0.276 C 
HETATM   10  C8  UNL     1     -34.294  18.073  -2.913  1.00 20.00     0.276 C 
HETATM   11  H21 UNL     1     -36.027  17.152  -2.295  1.00 20.00     0.285 HD
ENDBRANCH   6   8
TORSDOF 1
ENDMDL
MODEL 4
REMARK VINA RESULT:      -4.2      2.239      2.917
REMARK  1 active torsions:
REMARK  status: ('A' for Active; 'I' for Inactive)
REMARK    1  A    between atoms: C6_6  and  N10_10 
ROOT
HETATM    1  C1  UNL     1     -33.916  13.312  -4.135  1.00 20.00    -0.017 A 
HETATM    2  C2  UNL     1     -33.098  14.122  -3.538  1.00 20.00     0.079 A 
HETATM    3  C3  UNL     1     -33.020  15.464  -4.076  1.00 20.00     0.047 A 
HETATM    4  C4  UNL     1     -34.707  15.146  -5.930  1.00 20.00     0.057 A 
HETATM    5  C5  UNL     1     -35.100  13.858  -5.795  1.00 20.00     0.129 A 
HETATM    6  C6  UNL     1     -33.734  15.907  -5.136  1.00 20.00     0.135 A 
HETATM    7  N9  UNL     1     -34.709  12.887  -4.885  1.00 20.00    -0.218 NA
ENDROOT
BRANCH   6   8
HETATM    8  N10 UNL     1     -33.505  17.264  -5.503  1.00 20.00    -0.049 N 
HETATM    9  C7  UNL     1     -34.351  17.622  -6.688  1.00 20.00     0.276 C 
HETATM   10  C8  UNL     1     -33.736  18.158  -4.323  1.00 20.00     0.276 C 
HETATM   11  H21 UNL     1     -32.519  17.371  -5.783  1.00 20.00     0.285 HD
ENDBRANCH   6   8
TORSDOF 1
ENDMDL
MODEL 5
REMARK VINA RESULT:      -4.1      1.733      2.949
REMARK  1 active torsions:
REMARK  status: ('A' for Active; 'I' for Inactive)
REMARK    1  A    between atoms: C6_6  and  N10_10 
ROOT
HETATM    1  C1  UNL     1     -33.521  14.387  -3.574  1.00 20.00    -0.017 A 
HETATM    2  C2  UNL     1     -33.741  15.469  -2.892  1.00 20.00     0.079 A 
HETATM    3  C3  UNL     1     -35.125  15.879  -2.771  1.00 20.00     0.047 A 
HETATM    4  C4  UNL     1     -36.122  13.977  -4.104  1.00 20.00     0.057 A 
HETATM    5  C5  UNL     1     -35.047  13.239  -4.472  1.00 20.00     0.129 A 
HETATM    6  C6  UNL     1     -36.171  15.213  -3.313  1.00 20.00     0.135 A 
HETATM    7  N9  UNL     1     -33.697  13.426  -4.219  1.00 20.00    -0.218 NA
ENDROOT
BRANCH   6   8
HETATM    8  N10 UNL     1     -37.451  15.790  -3.075  1.00 20.00    -0.049 N 
HETATM    9  C7  UNL     1     -37.455  17.225  -3.512  1.00 20.00     0.276 C 
HETATM   10  C8  UNL     1     -38.512  14.969  -3.742  1.00 20.00     0.276 C 
HETATM   11  H21 UNL     1     -37.639  15.774  -2.063  1.00 20.00     0.285 HD
ENDBRANCH   6   8
TORSDOF 1
ENDMDL
MODEL 6
REMARK VINA RESULT:      -4.1      1.720      4.227
REMARK  1 active torsions:
REMARK  status: ('A' for Active; 'I' for Inactive)
REMARK    1  A    between atoms: C6_6  and  N10_10 
ROOT
HETATM    1  C1  UNL     1     -33.991  17.443  -2.429  1.00 20.00    -0.017 A 
HETATM    2  C2  UNL     1     -34.235  16.216  -2.086  1.00 20.00     0.079 A 
HETATM    3  C3  UNL     1     -34.214  15.237  -3.153  1.00 20.00     0.047 A 
HETATM    4  C4  UNL     1     -33.657  16.841  -5.025  1.00 20.00     0.057 A 
HETATM    5  C5  UNL     1     -33.571  18.043  -4.409  1.00 20.00     0.129 A 
HETATM    6  C6  UNL     1     -33.960  15.523  -4.450  1.00 20.00     0.135 A 
HETATM    7  N9  UNL     1     -33.743  18.387  -3.076  1.00 20.00    -0.218 NA
ENDROOT
BRANCH   6   8
HETATM    8  N10 UNL     1     -33.990  14.411  -5.339  1.00 20.00    -0.049 N 
HETATM    9  C7  UNL     1     -34.746  13.278  -4.713  1.00 20.00     0.276 C 
HETATM   10  C8  UNL     1     -34.549  14.831  -6.664  1.00 20.00     0.276 C 
HETATM   11  H21 UNL     1     -33.025  14.088  -5.499  1.00 20.00     0.285 HD
ENDBRANCH   6   8
TORSDOF 1
ENDMDL
MODEL 7
REMARK VINA RESULT:      -4.1      1.845      3.036
REMARK  1 active torsions:
REMARK  status: ('A' for Active; 'I' for Inactive)
REMARK    1  A    between atoms: C6_6  and  N10_10 
ROOT
HETATM    1  C1  UNL     1     -33.664  13.965  -4.119  1.00 20.00    -0.017 A 
HETATM    2  C2  UNL     1     -34.752  13.361  -4.486  1.00 20.00     0.079 A 
HETATM    3  C3  UNL     1     -35.996  13.975  -4.071  1.00 20.00     0.047 A 
HETATM    4  C4  UNL     1     -34.972  15.936  -2.848  1.00 20.00     0.057 A 
HETATM    5  C5  UNL     1     -33.639  15.749  -2.991  1.00 20.00     0.129 A 
HETATM    6  C6  UNL     1     -36.083  15.113  -3.344  1.00 20.00     0.135 A 
HETATM    7  N9  UNL     1     -32.934  14.743  -3.635  1.00 20.00    -0.218 NA
ENDROOT
BRANCH   6   8
HETATM    8  N10 UNL     1     -37.406  15.545  -3.042  1.00 20.00    -0.049 N 
HETATM    9  C7  UNL     1     -37.498  17.036  -3.172  1.00 20.00     0.276 C 
HETATM   10  C8  UNL     1     -38.390  14.817  -3.906  1.00 20.00     0.276 C 
HETATM   11  H21 UNL     1     -37.618  15.306  -2.063  1.00 20.00     0.285 HD
ENDBRANCH   6   8
TORSDOF 1
ENDMDL
MODEL 8
REMARK VINA RESULT:      -4.1     11.136     13.234
REMARK  1 active torsions:
REMARK  status: ('A' for Active; 'I' for Inactive)
REMARK    1  A    between atoms: C6_6  and  N10_10 
ROOT
HETATM    1  C1  UNL     1     -41.381   7.002  -1.358  1.00 20.00    -0.017 A 
HETATM    2  C2  UNL     1     -40.774   6.116  -0.630  1.00 20.00     0.079 A 
HETATM    3  C3  UNL     1     -41.038   4.730  -0.957  1.00 20.00     0.047 A 
HETATM    4  C4  UNL     1     -42.620   5.168  -2.879  1.00 20.00     0.057 A 
HETATM    5  C5  UNL     1     -42.683   6.519  -2.947  1.00 20.00     0.129 A 
HETATM    6  C6  UNL     1     -41.858   4.321  -1.952  1.00 20.00     0.135 A 
HETATM    7  N9  UNL     1     -42.062   7.490  -2.176  1.00 20.00    -0.218 NA
ENDROOT
BRANCH   6   8
HETATM    8  N10 UNL     1     -41.979   2.910  -2.103  1.00 20.00    -0.049 N 
HETATM    9  C7  UNL     1     -43.393   2.487  -1.837  1.00 20.00     0.276 C 
HETATM   10  C8  UNL     1     -41.486   2.498  -3.457  1.00 20.00     0.276 C 
HETATM   11  H21 UNL     1     -41.381   2.448  -1.403  1.00 20.00     0.285 HD
ENDBRANCH   6   8
TORSDOF 1
ENDMDL
MODEL 9
REMARK VINA RESULT:      -4.0      1.622      1.788
REMARK  1 active torsions:
REMARK  status: ('A' for Active; 'I' for Inactive)
REMARK    1  A    between atoms: C6_6  and  N10_10 
ROOT
HETATM    1  C1  UNL     1     -34.711  13.946  -5.420  1.00 20.00    -0.017 A 
HETATM    2  C2  UNL     1     -34.803  13.617  -4.169  1.00 20.00     0.079 A 
HETATM    3  C3  UNL     1     -34.441  14.640  -3.210  1.00 20.00     0.047 A 
HETATM    4  C4  UNL     1     -33.865  16.439  -4.889  1.00 20.00     0.057 A 
HETATM    5  C5  UNL     1     -34.084  15.848  -6.087  1.00 20.00     0.129 A 
HETATM    6  C6  UNL     1     -34.024  15.884  -3.538  1.00 20.00     0.135 A 
HETATM    7  N9  UNL     1     -34.514  14.566  -6.395  1.00 20.00    -0.218 NA
ENDROOT
BRANCH   6   8
HETATM    8  N10 UNL     1     -33.716  16.735  -2.439  1.00 20.00    -0.049 N 
HETATM    9  C7  UNL     1     -33.790  18.171  -2.867  1.00 20.00     0.276 C 
HETATM   10  C8  UNL     1     -34.614  16.420  -1.282  1.00 20.00     0.276 C 
HETATM   11  H21 UNL     1     -32.748  16.552  -2.137  1.00 20.00     0.285 HD
ENDBRANCH   6   8
TORSDOF 1
ENDMDL
