MODEL 1
REMARK VINA RESULT:      -4.2      0.000      0.000
REMARK  1 active torsions:
REMARK  status: ('A' for Active; 'I' for Inactive)
REMARK    1  A    between atoms: C6_6  and  N10_10 
ROOT
HETATM    1  C1  UNL     1     -35.320  14.393  -6.686  1.00 20.00     0.064 C 
HETATM    2  C2  UNL     1     -34.419  13.181  -4.704  1.00 20.00     0.021 C 
HETATM    3  C3  UNL     1     -33.568  13.986  -3.725  1.00 20.00     0.037 C 
HETATM    4  C4  UNL     1     -35.289  15.458  -4.443  1.00 20.00     0.055 C 
HETATM    5  C5  UNL     1     -35.475  14.162  -5.244  1.00 20.00     0.095 C 
HETATM    6  C6  UNL     1     -34.548  15.018  -3.184  1.00 20.00     0.223 C 
HETATM    7  N9  UNL     1     -35.198  14.577  -7.826  1.00 20.00    -0.197 NA
ENDROOT
BRANCH   6   8
HETATM    8  N10 UNL     1     -33.888  16.119  -2.507  1.00 20.00     0.084 N 
HETATM    9  C7  UNL     1     -34.576  16.451  -1.256  1.00 20.00     0.309 C 
HETATM   10  C8  UNL     1     -33.823  17.301  -3.373  1.00 20.00     0.309 C 
ENDBRANCH   6   8
TORSDOF 1
ENDMDL
MODEL 2
REMARK VINA RESULT:      -4.2      1.858      2.590
REMARK  1 active torsions:
REMARK  status: ('A' for Active; 'I' for Inactive)
REMARK    1  A    between atoms: C6_6  and  N10_10 
ROOT
HETATM    1  C1  UNL     1     -34.154  13.686  -4.343  1.00 20.00     0.064 C 
HETATM    2  C2  UNL     1     -33.349  15.997  -4.812  1.00 20.00     0.021 C 
HETATM    3  C3  UNL     1     -34.105  17.144  -4.146  1.00 20.00     0.037 C 
HETATM    4  C4  UNL     1     -34.051  15.392  -2.542  1.00 20.00     0.055 C 
HETATM    5  C5  UNL     1     -33.398  14.828  -3.812  1.00 20.00     0.095 C 
HETATM    6  C6  UNL     1     -33.863  16.901  -2.662  1.00 20.00     0.223 C 
HETATM    7  N9  UNL     1     -34.750  12.782  -4.762  1.00 20.00    -0.197 NA
ENDROOT
BRANCH   6   8
HETATM    8  N10 UNL     1     -34.772  17.650  -1.814  1.00 20.00     0.084 N 
HETATM    9  C7  UNL     1     -34.783  17.108  -0.452  1.00 20.00     0.309 C 
HETATM   10  C8  UNL     1     -36.130  17.640  -2.369  1.00 20.00     0.309 C 
ENDBRANCH   6   8
TORSDOF 1
ENDMDL
MODEL 3
REMARK VINA RESULT:      -4.1      1.163      4.214
REMARK  1 active torsions:
REMARK  status: ('A' for Active; 'I' for Inactive)
REMARK    1  A    between atoms: C6_6  and  N10_10 
ROOT
HETATM    1  C1  UNL     1     -34.043  16.002  -2.383  1.00 20.00     0.064 C 
HETATM    2  C2  UNL     1     -33.542  13.853  -3.541  1.00 20.00     0.021 C 
HETATM    3  C3  UNL     1     -34.546  13.378  -4.588  1.00 20.00     0.037 C 
HETATM    4  C4  UNL     1     -34.444  15.740  -4.819  1.00 20.00     0.055 C 
HETATM    5  C5  UNL     1     -33.548  15.390  -3.623  1.00 20.00     0.095 C 
HETATM    6  C6  UNL     1     -34.472  14.463  -5.654  1.00 20.00     0.223 C 
HETATM    7  N9  UNL     1     -34.434  16.487  -1.404  1.00 20.00    -0.197 NA
ENDROOT
BRANCH   6   8
HETATM    8  N10 UNL     1     -35.591  14.420  -6.578  1.00 20.00     0.084 N 
HETATM    9  C7  UNL     1     -35.177  14.849  -7.917  1.00 20.00     0.309 C 
HETATM   10  C8  UNL     1     -36.694  15.259  -6.100  1.00 20.00     0.309 C 
ENDBRANCH   6   8
TORSDOF 1
ENDMDL
MODEL 4
REMARK VINA RESULT:      -4.1      1.881      2.816
REMARK  1 active torsions:
REMARK  status: ('A' for Active; 'I' for Inactive)
REMARK    1  A    between atoms: C6_6  and  N10_10 
ROOT
HETATM    1  C1  UNL     1     -34.152  13.779  -4.274  1.00 20.00     0.064 C 
HETATM    2  C2  UNL     1     -33.293  16.054  -4.816  1.00 20.00     0.021 C 
HETATM    3  C3  UNL     1     -33.986  17.237  -4.145  1.00 20.00     0.037 C 
HETATM    4  C4  UNL     1     -33.929  15.513  -2.511  1.00 20.00     0.055 C 
HETATM    5  C5  UNL     1     -33.341  14.905  -3.793  1.00 20.00     0.095 C 
HETATM    6  C6  UNL     1     -33.697  17.013  -2.667  1.00 20.00     0.223 C 
HETATM    7  N9  UNL     1     -34.792  12.888  -4.653  1.00 20.00    -0.197 NA
ENDROOT
BRANCH   6   8
HETATM    8  N10 UNL     1     -34.550  17.806  -1.801  1.00 20.00     0.084 N 
HETATM    9  C7  UNL     1     -33.958  19.123  -1.549  1.00 20.00     0.309 C 
HETATM   10  C8  UNL     1     -34.792  17.114  -0.531  1.00 20.00     0.309 C 
ENDBRANCH   6   8
TORSDOF 1
ENDMDL
MODEL 5
REMARK VINA RESULT:      -3.9      1.115      1.700
REMARK  1 active torsions:
REMARK  status: ('A' for Active; 'I' for Inactive)
REMARK    1  A    between atoms: C6_6  and  N10_10 
ROOT
HETATM    1  C1  UNL     1     -35.138  14.121  -5.666  1.00 20.00     0.064 C 
HETATM    2  C2  UNL     1     -33.428  14.344  -3.867  1.00 20.00     0.021 C 
HETATM    3  C3  UNL     1     -33.447  15.631  -3.046  1.00 20.00     0.037 C 
HETATM    4  C4  UNL     1     -35.725  15.098  -3.460  1.00 20.00     0.055 C 
HETATM    5  C5  UNL     1     -34.898  14.051  -4.219  1.00 20.00     0.095 C 
HETATM    6  C6  UNL     1     -34.798  15.574  -2.346  1.00 20.00     0.223 C 
HETATM    7  N9  UNL     1     -35.329  14.176  -6.809  1.00 20.00    -0.197 NA
ENDROOT
BRANCH   6   8
HETATM    8  N10 UNL     1     -35.198  16.853  -1.790  1.00 20.00     0.084 N 
HETATM    9  C7  UNL     1     -34.696  17.959  -2.611  1.00 20.00     0.309 C 
HETATM   10  C8  UNL     1     -34.721  16.995  -0.411  1.00 20.00     0.309 C 
ENDBRANCH   6   8
TORSDOF 1
ENDMDL
MODEL 6
REMARK VINA RESULT:      -3.9      2.342      2.941
REMARK  1 active torsions:
REMARK  status: ('A' for Active; 'I' for Inactive)
REMARK    1  A    between atoms: C6_6  and  N10_10 
ROOT
HETATM    1  C1  UNL     1     -36.835  14.419  -3.987  1.00 20.00     0.064 C 
HETATM    2  C2  UNL     1     -35.037  14.063  -5.676  1.00 20.00     0.021 C 
HETATM    3  C3  UNL     1     -34.429  15.308  -6.316  1.00 20.00     0.037 C 
HETATM    4  C4  UNL     1     -34.829  15.882  -4.045  1.00 20.00     0.055 C 
HETATM    5  C5  UNL     1     -35.387  14.463  -4.232  1.00 20.00     0.095 C 
HETATM    6  C6  UNL     1     -33.772  16.015  -5.138  1.00 20.00     0.223 C 
HETATM    7  N9  UNL     1     -37.979  14.384  -3.793  1.00 20.00    -0.197 NA
ENDROOT
BRANCH   6   8
HETATM    8  N10 UNL     1     -33.436  17.397  -5.428  1.00 20.00     0.084 N 
HETATM    9  C7  UNL     1     -33.749  18.261  -4.286  1.00 20.00     0.309 C 
HETATM   10  C8  UNL     1     -34.147  17.866  -6.622  1.00 20.00     0.309 C 
ENDBRANCH   6   8
TORSDOF 1
ENDMDL
MODEL 7
REMARK VINA RESULT:      -3.8      2.111      3.067
REMARK  1 active torsions:
REMARK  status: ('A' for Active; 'I' for Inactive)
REMARK    1  A    between atoms: C6_6  and  N10_10 
ROOT
HETATM    1  C1  UNL     1     -35.160  13.783  -4.129  1.00 20.00     0.064 C 
HETATM    2  C2  UNL     1     -34.493  15.595  -2.554  1.00 20.00     0.021 C 
HETATM    3  C3  UNL     1     -33.870  16.850  -3.161  1.00 20.00     0.037 C 
HETATM    4  C4  UNL     1     -35.562  16.170  -4.684  1.00 20.00     0.055 C 
HETATM    5  C5  UNL     1     -35.522  15.098  -3.584  1.00 20.00     0.095 C 
HETATM    6  C6  UNL     1     -34.998  17.418  -4.011  1.00 20.00     0.223 C 
HETATM    7  N9  UNL     1     -34.874  12.744  -4.560  1.00 20.00    -0.197 NA
ENDROOT
BRANCH   6   8
HETATM    8  N10 UNL     1     -34.538  18.410  -4.965  1.00 20.00     0.084 N 
HETATM    9  C7  UNL     1     -34.059  17.770  -6.195  1.00 20.00     0.309 C 
HETATM   10  C8  UNL     1     -33.476  19.238  -4.385  1.00 20.00     0.309 C 
ENDBRANCH   6   8
TORSDOF 1
ENDMDL
MODEL 8
REMARK VINA RESULT:      -3.8      1.377      4.152
REMARK  1 active torsions:
REMARK  status: ('A' for Active; 'I' for Inactive)
REMARK    1  A    between atoms: C6_6  and  N10_10 
ROOT
HETATM    1  C1  UNL     1     -34.046  16.013  -2.308  1.00 20.00     0.064 C 
HETATM    2  C2  UNL     1     -33.780  14.017  -3.775  1.00 20.00     0.021 C 
HETATM    3  C3  UNL     1     -34.597  13.987  -5.064  1.00 20.00     0.037 C 
HETATM    4  C4  UNL     1     -33.929  16.249  -4.777  1.00 20.00     0.055 C 
HETATM    5  C5  UNL     1     -33.429  15.496  -3.536  1.00 20.00     0.095 C 
HETATM    6  C6  UNL     1     -34.046  15.169  -5.849  1.00 20.00     0.223 C 
HETATM    7  N9  UNL     1     -34.534  16.423  -1.338  1.00 20.00    -0.197 NA
ENDROOT
BRANCH   6   8
HETATM    8  N10 UNL     1     -34.906  15.562  -6.951  1.00 20.00     0.084 N 
HETATM    9  C7  UNL     1     -35.926  16.514  -6.502  1.00 20.00     0.309 C 
HETATM   10  C8  UNL     1     -35.544  14.390  -7.557  1.00 20.00     0.309 C 
ENDBRANCH   6   8
TORSDOF 1
ENDMDL
MODEL 9
REMARK VINA RESULT:      -3.7      2.116      2.537
REMARK  1 active torsions:
REMARK  status: ('A' for Active; 'I' for Inactive)
REMARK    1  A    between atoms: C6_6  and  N10_10 
ROOT
HETATM    1  C1  UNL     1     -36.980  14.520  -3.828  1.00 20.00     0.064 C 
HETATM    2  C2  UNL     1     -35.027  15.554  -4.978  1.00 20.00     0.021 C 
HETATM    3  C3  UNL     1     -34.443  16.819  -4.355  1.00 20.00     0.037 C 
HETATM    4  C4  UNL     1     -35.070  15.433  -2.530  1.00 20.00     0.055 C 
HETATM    5  C5  UNL     1     -35.523  14.697  -3.800  1.00 20.00     0.095 C 
HETATM    6  C6  UNL     1     -33.934  16.335  -3.004  1.00 20.00     0.223 C 
HETATM    7  N9  UNL     1     -38.132  14.379  -3.849  1.00 20.00    -0.197 NA
ENDROOT
BRANCH   6   8
HETATM    8  N10 UNL     1     -33.660  17.424  -2.084  1.00 20.00     0.084 N 
HETATM    9  C7  UNL     1     -34.213  17.137  -0.757  1.00 20.00     0.309 C 
HETATM   10  C8  UNL     1     -34.205  18.686  -2.592  1.00 20.00     0.309 C 
ENDBRANCH   6   8
TORSDOF 1
ENDMDL
