MODEL 1
REMARK VINA RESULT:      -4.7      0.000      0.000
REMARK  2 active torsions:
REMARK  status: ('A' for Active; 'I' for Inactive)
REMARK    1  A    between atoms: C1_1  and  C2_2 
REMARK    2  A    between atoms: N7_7  and  O8_8 
ROOT
HETATM    1  C2  UNL     1     -33.619   5.561   3.933  1.00 20.00     0.115 A 
HETATM    2  C3  UNL     1     -34.329   5.539   5.286  1.00 20.00     0.033 A 
HETATM    3  C4  UNL     1     -35.014   6.064   4.068  1.00 20.00     0.260 A 
HETATM    4  C5  UNL     1     -33.940   6.527   6.354  1.00 20.00     0.022 C 
HETATM    5  C6  UNL     1     -34.761   4.199   5.818  1.00 20.00     0.022 C 
HETATM    6  F9  UNL     1     -36.055   5.373   3.488  1.00 20.00    -0.205 F 
HETATM    7  F10 UNL     1     -35.297   7.405   3.934  1.00 20.00    -0.205 F 
ENDROOT
BRANCH   1   8
HETATM    8  C1  UNL     1     -32.525   6.505   3.676  1.00 20.00     0.130 C 
HETATM    9  N7  UNL     1     -32.530   7.254   2.625  1.00 20.00    -0.152 NA
BRANCH   9  10
HETATM   10  O8  UNL     1     -31.380   8.045   2.637  1.00 20.00    -0.267 OA
HETATM   11  H19 UNL     1     -31.215   8.137   3.590  1.00 20.00     0.247 HD
ENDBRANCH   9  10
ENDBRANCH   1   8
TORSDOF 2
ENDMDL
MODEL 2
REMARK VINA RESULT:      -4.7     11.824     12.672
REMARK  2 active torsions:
REMARK  status: ('A' for Active; 'I' for Inactive)
REMARK    1  A    between atoms: C1_1  and  C2_2 
REMARK    2  A    between atoms: N7_7  and  O8_8 
ROOT
HETATM    1  C2  UNL     1     -35.972  14.214  -4.815  1.00 20.00     0.115 A 
HETATM    2  C3  UNL     1     -34.781  15.032  -5.313  1.00 20.00     0.033 A 
HETATM    3  C4  UNL     1     -34.581  13.841  -4.436  1.00 20.00     0.260 A 
HETATM    4  C5  UNL     1     -34.507  16.392  -4.727  1.00 20.00     0.022 C 
HETATM    5  C6  UNL     1     -34.417  14.907  -6.769  1.00 20.00     0.022 C 
HETATM    6  F9  UNL     1     -34.018  12.684  -4.929  1.00 20.00    -0.205 F 
HETATM    7  F10 UNL     1     -34.142  13.981  -3.137  1.00 20.00    -0.205 F 
ENDROOT
BRANCH   1   8
HETATM    8  C1  UNL     1     -36.884  14.758  -3.802  1.00 20.00     0.130 C 
HETATM    9  N7  UNL     1     -38.110  14.362  -3.734  1.00 20.00    -0.152 NA
BRANCH   9  10
HETATM   10  O8  UNL     1     -38.739  15.038  -2.687  1.00 20.00    -0.267 OA
HETATM   11  H19 UNL     1     -38.786  14.346  -2.006  1.00 20.00     0.247 HD
ENDBRANCH   9  10
ENDBRANCH   1   8
TORSDOF 2
ENDMDL
MODEL 3
REMARK VINA RESULT:      -4.5     11.452     12.489
REMARK  2 active torsions:
REMARK  status: ('A' for Active; 'I' for Inactive)
REMARK    1  A    between atoms: C1_1  and  C2_2 
REMARK    2  A    between atoms: N7_7  and  O8_8 
ROOT
HETATM    1  C2  UNL     1     -33.871  15.875  -3.023  1.00 20.00     0.115 A 
HETATM    2  C3  UNL     1     -34.593  17.222  -3.035  1.00 20.00     0.033 A 
HETATM    3  C4  UNL     1     -34.103  16.625  -1.758  1.00 20.00     0.260 A 
HETATM    4  C5  UNL     1     -36.081  17.273  -3.262  1.00 20.00     0.022 C 
HETATM    5  C6  UNL     1     -33.846  18.402  -3.597  1.00 20.00     0.022 C 
HETATM    6  F9  UNL     1     -33.040  17.179  -1.079  1.00 20.00    -0.205 F 
HETATM    7  F10 UNL     1     -34.985  16.154  -0.809  1.00 20.00    -0.205 F 
ENDROOT
BRANCH   1   8
HETATM    8  C1  UNL     1     -34.603  14.629  -3.277  1.00 20.00     0.130 C 
HETATM    9  N7  UNL     1     -34.029  13.630  -3.858  1.00 20.00    -0.152 NA
BRANCH   9  10
HETATM   10  O8  UNL     1     -34.953  12.588  -3.968  1.00 20.00    -0.267 OA
HETATM   11  H19 UNL     1     -35.660  13.007  -4.486  1.00 20.00     0.247 HD
ENDBRANCH   9  10
ENDBRANCH   1   8
TORSDOF 2
ENDMDL
MODEL 4
REMARK VINA RESULT:      -4.5     11.855     12.556
REMARK  2 active torsions:
REMARK  status: ('A' for Active; 'I' for Inactive)
REMARK    1  A    between atoms: C1_1  and  C2_2 
REMARK    2  A    between atoms: N7_7  and  O8_8 
ROOT
HETATM    1  C2  UNL     1     -35.585  15.330  -4.550  1.00 20.00     0.115 A 
HETATM    2  C3  UNL     1     -34.187  15.678  -4.041  1.00 20.00     0.033 A 
HETATM    3  C4  UNL     1     -34.561  14.267  -4.354  1.00 20.00     0.260 A 
HETATM    4  C5  UNL     1     -33.985  16.047  -2.595  1.00 20.00     0.022 C 
HETATM    5  C6  UNL     1     -33.264  16.392  -4.991  1.00 20.00     0.022 C 
HETATM    6  F9  UNL     1     -34.024  13.617  -5.444  1.00 20.00    -0.205 F 
HETATM    7  F10 UNL     1     -34.698  13.330  -3.354  1.00 20.00    -0.205 F 
ENDROOT
BRANCH   1   8
HETATM    8  C1  UNL     1     -36.747  15.396  -3.656  1.00 20.00     0.130 C 
HETATM    9  N7  UNL     1     -37.683  14.510  -3.719  1.00 20.00    -0.152 NA
BRANCH   9  10
HETATM   10  O8  UNL     1     -38.652  14.818  -2.761  1.00 20.00    -0.267 OA
HETATM   11  H19 UNL     1     -39.315  14.126  -2.924  1.00 20.00     0.247 HD
ENDBRANCH   9  10
ENDBRANCH   1   8
TORSDOF 2
ENDMDL
MODEL 5
REMARK VINA RESULT:      -4.4     11.604     12.376
REMARK  2 active torsions:
REMARK  status: ('A' for Active; 'I' for Inactive)
REMARK    1  A    between atoms: C1_1  and  C2_2 
REMARK    2  A    between atoms: N7_7  and  O8_8 
ROOT
HETATM    1  C2  UNL     1     -34.299  15.181  -3.200  1.00 20.00     0.115 A 
HETATM    2  C3  UNL     1     -33.943  15.343  -4.677  1.00 20.00     0.033 A 
HETATM    3  C4  UNL     1     -33.168  14.419  -3.797  1.00 20.00     0.260 A 
HETATM    4  C5  UNL     1     -33.261  16.600  -5.150  1.00 20.00     0.022 C 
HETATM    5  C6  UNL     1     -34.883  14.738  -5.685  1.00 20.00     0.022 C 
HETATM    6  F9  UNL     1     -33.261  13.053  -3.949  1.00 20.00    -0.205 F 
HETATM    7  F10 UNL     1     -31.865  14.698  -3.446  1.00 20.00    -0.205 F 
ENDROOT
BRANCH   1   8
HETATM    8  C1  UNL     1     -34.027  16.257  -2.240  1.00 20.00     0.130 C 
HETATM    9  N7  UNL     1     -34.649  16.309  -1.110  1.00 20.00    -0.152 NA
BRANCH   9  10
HETATM   10  O8  UNL     1     -34.195  17.426  -0.404  1.00 20.00    -0.267 OA
HETATM   11  H19 UNL     1     -34.754  17.395   0.391  1.00 20.00     0.247 HD
ENDBRANCH   9  10
ENDBRANCH   1   8
TORSDOF 2
ENDMDL
MODEL 6
REMARK VINA RESULT:      -4.3     12.078     13.047
REMARK  2 active torsions:
REMARK  status: ('A' for Active; 'I' for Inactive)
REMARK    1  A    between atoms: C1_1  and  C2_2 
REMARK    2  A    between atoms: N7_7  and  O8_8 
ROOT
HETATM    1  C2  UNL     1     -34.879  16.050  -4.284  1.00 20.00     0.115 A 
HETATM    2  C3  UNL     1     -34.304  17.015  -3.249  1.00 20.00     0.033 A 
HETATM    3  C4  UNL     1     -33.451  16.468  -4.344  1.00 20.00     0.260 A 
HETATM    4  C5  UNL     1     -34.038  16.539  -1.845  1.00 20.00     0.022 C 
HETATM    5  C6  UNL     1     -34.728  18.457  -3.337  1.00 20.00     0.022 C 
HETATM    6  F9  UNL     1     -33.010  17.275  -5.370  1.00 20.00    -0.205 F 
HETATM    7  F10 UNL     1     -32.441  15.569  -4.076  1.00 20.00    -0.205 F 
ENDROOT
BRANCH   1   8
HETATM    8  C1  UNL     1     -35.221  14.671  -3.916  1.00 20.00     0.130 C 
HETATM    9  N7  UNL     1     -34.959  13.689  -4.711  1.00 20.00    -0.152 NA
BRANCH   9  10
HETATM   10  O8  UNL     1     -35.388  12.504  -4.110  1.00 20.00    -0.267 OA
HETATM   11  H19 UNL     1     -34.732  12.395  -3.402  1.00 20.00     0.247 HD
ENDBRANCH   9  10
ENDBRANCH   1   8
TORSDOF 2
ENDMDL
MODEL 7
REMARK VINA RESULT:      -4.3      9.161      9.886
REMARK  2 active torsions:
REMARK  status: ('A' for Active; 'I' for Inactive)
REMARK    1  A    between atoms: C1_1  and  C2_2 
REMARK    2  A    between atoms: N7_7  and  O8_8 
ROOT
HETATM    1  C2  UNL     1     -41.678   5.950  -1.597  1.00 20.00     0.115 A 
HETATM    2  C3  UNL     1     -42.447   6.406  -0.358  1.00 20.00     0.033 A 
HETATM    3  C4  UNL     1     -40.991   6.698  -0.509  1.00 20.00     0.260 A 
HETATM    4  C5  UNL     1     -42.858   5.398   0.683  1.00 20.00     0.022 C 
HETATM    5  C6  UNL     1     -43.417   7.544  -0.527  1.00 20.00     0.022 C 
HETATM    6  F9  UNL     1     -40.545   7.983  -0.729  1.00 20.00    -0.205 F 
HETATM    7  F10 UNL     1     -40.055   6.079   0.291  1.00 20.00    -0.205 F 
ENDROOT
BRANCH   1   8
HETATM    8  C1  UNL     1     -41.374   4.530  -1.811  1.00 20.00     0.130 C 
HETATM    9  N7  UNL     1     -42.042   3.832  -2.667  1.00 20.00    -0.152 NA
BRANCH   9  10
HETATM   10  O8  UNL     1     -41.543   2.527  -2.663  1.00 20.00    -0.267 OA
HETATM   11  H19 UNL     1     -40.642   2.661  -3.003  1.00 20.00     0.247 HD
ENDBRANCH   9  10
ENDBRANCH   1   8
TORSDOF 2
ENDMDL
MODEL 8
REMARK VINA RESULT:      -4.2     11.927     12.505
REMARK  2 active torsions:
REMARK  status: ('A' for Active; 'I' for Inactive)
REMARK    1  A    between atoms: C1_1  and  C2_2 
REMARK    2  A    between atoms: N7_7  and  O8_8 
ROOT
HETATM    1  C2  UNL     1     -33.822  15.938  -2.688  1.00 20.00     0.115 A 
HETATM    2  C3  UNL     1     -34.314  14.843  -3.634  1.00 20.00     0.033 A 
HETATM    3  C4  UNL     1     -33.847  16.159  -4.160  1.00 20.00     0.260 A 
HETATM    4  C5  UNL     1     -35.785  14.532  -3.721  1.00 20.00     0.022 C 
HETATM    5  C6  UNL     1     -33.421  13.646  -3.830  1.00 20.00     0.022 C 
HETATM    6  F9  UNL     1     -32.666  16.263  -4.863  1.00 20.00    -0.205 F 
HETATM    7  F10 UNL     1     -34.731  17.053  -4.724  1.00 20.00    -0.205 F 
ENDROOT
BRANCH   1   8
HETATM    8  C1  UNL     1     -34.762  16.662  -1.825  1.00 20.00     0.130 C 
HETATM    9  N7  UNL     1     -34.635  16.639  -0.541  1.00 20.00    -0.152 NA
BRANCH   9  10
HETATM   10  O8  UNL     1     -35.657  17.407   0.021  1.00 20.00    -0.267 OA
HETATM   11  H19 UNL     1     -36.445  17.018  -0.393  1.00 20.00     0.247 HD
ENDBRANCH   9  10
ENDBRANCH   1   8
TORSDOF 2
ENDMDL
MODEL 9
REMARK VINA RESULT:      -4.2     11.891     12.348
REMARK  2 active torsions:
REMARK  status: ('A' for Active; 'I' for Inactive)
REMARK    1  A    between atoms: C1_1  and  C2_2 
REMARK    2  A    between atoms: N7_7  and  O8_8 
ROOT
HETATM    1  C2  UNL     1     -35.718  15.091  -3.084  1.00 20.00     0.115 A 
HETATM    2  C3  UNL     1     -34.730  16.170  -2.642  1.00 20.00     0.033 A 
HETATM    3  C4  UNL     1     -35.993  16.530  -3.350  1.00 20.00     0.260 A 
HETATM    4  C5  UNL     1     -33.432  16.349  -3.386  1.00 20.00     0.022 C 
HETATM    5  C6  UNL     1     -34.638  16.462  -1.168  1.00 20.00     0.022 C 
HETATM    6  F9  UNL     1     -37.019  17.170  -2.689  1.00 20.00    -0.205 F 
HETATM    7  F10 UNL     1     -35.972  17.026  -4.636  1.00 20.00    -0.205 F 
ENDROOT
BRANCH   1   8
HETATM    8  C1  UNL     1     -35.397  14.191  -4.197  1.00 20.00     0.130 C 
HETATM    9  N7  UNL     1     -34.879  13.029  -3.982  1.00 20.00    -0.152 NA
BRANCH   9  10
HETATM   10  O8  UNL     1     -34.682  12.395  -5.210  1.00 20.00    -0.267 OA
HETATM   11  H19 UNL     1     -33.720  12.252  -5.205  1.00 20.00     0.247 HD
ENDBRANCH   9  10
ENDBRANCH   1   8
TORSDOF 2
ENDMDL
