MODEL 1
REMARK VINA RESULT:      -3.8      0.000      0.000
REMARK  3 active torsions:
REMARK  status: ('A' for Active; 'I' for Inactive)
REMARK    1  A    between atoms: C2_2  and  N9_9 
REMARK    2  A    between atoms: C6_6  and  N9_9 
REMARK    3  A    between atoms: C7_7  and  N9_9 
ROOT
HETATM    1  C1  UNL     1     -34.492  16.448  -1.466  1.00 20.00     0.036 C 
HETATM    2  C2  UNL     1     -34.225  15.986  -2.541  1.00 20.00     0.024 C 
HETATM    3  C3  UNL     1     -34.797  16.979  -0.238  1.00 20.00     0.154 C 
HETATM    4  N8  UNL     1     -35.056  17.427   0.799  1.00 20.00    -0.182 NA
ENDROOT
BRANCH   2   5
HETATM    5  N9  UNL     1     -33.901  15.424  -3.843  1.00 20.00    -0.342 N 
BRANCH   5   6
HETATM    6  C6  UNL     1     -33.694  13.992  -3.918  1.00 20.00     0.128 C 
HETATM    7  C4  UNL     1     -34.967  13.281  -4.228  1.00 20.00     0.027 C 
ENDBRANCH   5   6
BRANCH   5   8
HETATM    8  C7  UNL     1     -33.202  16.276  -4.782  1.00 20.00     0.128 C 
HETATM    9  C5  UNL     1     -33.923  16.345  -6.085  1.00 20.00     0.027 C 
ENDBRANCH   5   8
ENDBRANCH   2   5
TORSDOF 3
ENDMDL
MODEL 2
REMARK VINA RESULT:      -3.7     11.261     12.447
REMARK  3 active torsions:
REMARK  status: ('A' for Active; 'I' for Inactive)
REMARK    1  A    between atoms: C2_2  and  N9_9 
REMARK    2  A    between atoms: C6_6  and  N9_9 
REMARK    3  A    between atoms: C7_7  and  N9_9 
ROOT
HETATM    1  C1  UNL     1     -32.690   7.256   3.001  1.00 20.00     0.036 C 
HETATM    2  C2  UNL     1     -33.226   6.607   3.857  1.00 20.00     0.024 C 
HETATM    3  C3  UNL     1     -32.079   7.999   2.022  1.00 20.00     0.154 C 
HETATM    4  N8  UNL     1     -31.562   8.626   1.195  1.00 20.00    -0.182 NA
ENDROOT
BRANCH   2   5
HETATM    5  N9  UNL     1     -33.874   5.820   4.894  1.00 20.00    -0.342 N 
BRANCH   5   6
HETATM    6  C6  UNL     1     -34.618   4.650   4.476  1.00 20.00     0.128 C 
HETATM    7  C4  UNL     1     -35.142   3.898   5.652  1.00 20.00     0.027 C 
ENDBRANCH   5   6
BRANCH   5   8
HETATM    8  C7  UNL     1     -34.288   6.513   6.096  1.00 20.00     0.128 C 
HETATM    9  C5  UNL     1     -33.157   7.279   6.692  1.00 20.00     0.027 C 
ENDBRANCH   5   8
ENDBRANCH   2   5
TORSDOF 3
ENDMDL
MODEL 3
REMARK VINA RESULT:      -3.7     11.246     12.545
REMARK  3 active torsions:
REMARK  status: ('A' for Active; 'I' for Inactive)
REMARK    1  A    between atoms: C2_2  and  N9_9 
REMARK    2  A    between atoms: C6_6  and  N9_9 
REMARK    3  A    between atoms: C7_7  and  N9_9 
ROOT
HETATM    1  C1  UNL     1     -32.821   7.299   2.999  1.00 20.00     0.036 C 
HETATM    2  C2  UNL     1     -33.456   6.723   3.841  1.00 20.00     0.024 C 
HETATM    3  C3  UNL     1     -32.097   7.958   2.038  1.00 20.00     0.154 C 
HETATM    4  N8  UNL     1     -31.485   8.515   1.226  1.00 20.00    -0.182 NA
ENDROOT
BRANCH   2   5
HETATM    5  N9  UNL     1     -34.224   6.025   4.860  1.00 20.00    -0.342 N 
BRANCH   5   6
HETATM    6  C6  UNL     1     -33.672   5.984   6.198  1.00 20.00     0.128 C 
HETATM    7  C4  UNL     1     -33.604   7.349   6.794  1.00 20.00     0.027 C 
ENDBRANCH   5   6
BRANCH   5   8
HETATM    8  C7  UNL     1     -35.074   4.937   4.426  1.00 20.00     0.128 C 
HETATM    9  C5  UNL     1     -35.121   3.852   5.446  1.00 20.00     0.027 C 
ENDBRANCH   5   8
ENDBRANCH   2   5
TORSDOF 3
ENDMDL
MODEL 4
REMARK VINA RESULT:      -3.7      0.553      2.211
REMARK  3 active torsions:
REMARK  status: ('A' for Active; 'I' for Inactive)
REMARK    1  A    between atoms: C2_2  and  N9_9 
REMARK    2  A    between atoms: C6_6  and  N9_9 
REMARK    3  A    between atoms: C7_7  and  N9_9 
ROOT
HETATM    1  C1  UNL     1     -34.431  16.387  -1.537  1.00 20.00     0.036 C 
HETATM    2  C2  UNL     1     -34.134  15.883  -2.586  1.00 20.00     0.024 C 
HETATM    3  C3  UNL     1     -34.773  16.961  -0.339  1.00 20.00     0.154 C 
HETATM    4  N8  UNL     1     -35.060  17.446   0.674  1.00 20.00    -0.182 NA
ENDROOT
BRANCH   2   5
HETATM    5  N9  UNL     1     -33.773  15.274  -3.856  1.00 20.00    -0.342 N 
BRANCH   5   6
HETATM    6  C6  UNL     1     -34.171  15.967  -5.064  1.00 20.00     0.128 C 
HETATM    7  C4  UNL     1     -33.420  17.246  -5.222  1.00 20.00     0.027 C 
ENDBRANCH   5   6
BRANCH   5   8
HETATM    8  C7  UNL     1     -33.647  13.833  -3.893  1.00 20.00     0.128 C 
HETATM    9  C5  UNL     1     -34.747  13.217  -4.688  1.00 20.00     0.027 C 
ENDBRANCH   5   8
ENDBRANCH   2   5
TORSDOF 3
ENDMDL
MODEL 5
REMARK VINA RESULT:      -3.6      2.311      3.753
REMARK  3 active torsions:
REMARK  status: ('A' for Active; 'I' for Inactive)
REMARK    1  A    between atoms: C2_2  and  N9_9 
REMARK    2  A    between atoms: C6_6  and  N9_9 
REMARK    3  A    between atoms: C7_7  and  N9_9 
ROOT
HETATM    1  C1  UNL     1     -36.511  15.059  -3.469  1.00 20.00     0.036 C 
HETATM    2  C2  UNL     1     -35.389  15.397  -3.205  1.00 20.00     0.024 C 
HETATM    3  C3  UNL     1     -37.792  14.672  -3.769  1.00 20.00     0.154 C 
HETATM    4  N8  UNL     1     -38.875  14.345  -4.022  1.00 20.00    -0.182 NA
ENDROOT
BRANCH   2   5
HETATM    5  N9  UNL     1     -34.031  15.808  -2.887  1.00 20.00    -0.342 N 
BRANCH   5   6
HETATM    6  C6  UNL     1     -33.867  16.924  -1.978  1.00 20.00     0.128 C 
HETATM    7  C4  UNL     1     -34.603  16.691  -0.703  1.00 20.00     0.027 C 
ENDBRANCH   5   6
BRANCH   5   8
HETATM    8  C7  UNL     1     -33.011  15.572  -3.887  1.00 20.00     0.128 C 
HETATM    9  C5  UNL     1     -33.219  16.439  -5.081  1.00 20.00     0.027 C 
ENDBRANCH   5   8
ENDBRANCH   2   5
TORSDOF 3
ENDMDL
MODEL 6
REMARK VINA RESULT:      -3.6      1.880      4.079
REMARK  3 active torsions:
REMARK  status: ('A' for Active; 'I' for Inactive)
REMARK    1  A    between atoms: C2_2  and  N9_9 
REMARK    2  A    between atoms: C6_6  and  N9_9 
REMARK    3  A    between atoms: C7_7  and  N9_9 
ROOT
HETATM    1  C1  UNL     1     -34.341  14.978  -3.500  1.00 20.00     0.036 C 
HETATM    2  C2  UNL     1     -34.056  16.054  -3.050  1.00 20.00     0.024 C 
HETATM    3  C3  UNL     1     -34.665  13.748  -4.015  1.00 20.00     0.154 C 
HETATM    4  N8  UNL     1     -34.939  12.709  -4.450  1.00 20.00    -0.182 NA
ENDROOT
BRANCH   2   5
HETATM    5  N9  UNL     1     -33.712  17.357  -2.505  1.00 20.00    -0.342 N 
BRANCH   5   6
HETATM    6  C6  UNL     1     -33.591  17.467  -1.065  1.00 20.00     0.128 C 
HETATM    7  C4  UNL     1     -34.792  16.908  -0.381  1.00 20.00     0.027 C 
ENDBRANCH   5   6
BRANCH   5   8
HETATM    8  C7  UNL     1     -34.121  18.524  -3.257  1.00 20.00     0.128 C 
HETATM    9  C5  UNL     1     -33.630  18.458  -4.663  1.00 20.00     0.027 C 
ENDBRANCH   5   8
ENDBRANCH   2   5
TORSDOF 3
ENDMDL
MODEL 7
REMARK VINA RESULT:      -3.6      1.955      4.481
REMARK  3 active torsions:
REMARK  status: ('A' for Active; 'I' for Inactive)
REMARK    1  A    between atoms: C2_2  and  N9_9 
REMARK    2  A    between atoms: C6_6  and  N9_9 
REMARK    3  A    between atoms: C7_7  and  N9_9 
ROOT
HETATM    1  C1  UNL     1     -34.456  14.727  -3.247  1.00 20.00     0.036 C 
HETATM    2  C2  UNL     1     -34.272  15.698  -2.564  1.00 20.00     0.024 C 
HETATM    3  C3  UNL     1     -34.667  13.619  -4.028  1.00 20.00     0.154 C 
HETATM    4  N8  UNL     1     -34.845  12.682  -4.687  1.00 20.00    -0.182 NA
ENDROOT
BRANCH   2   5
HETATM    5  N9  UNL     1     -34.048  16.873  -1.737  1.00 20.00    -0.342 N 
BRANCH   5   6
HETATM    6  C6  UNL     1     -34.690  16.906  -0.439  1.00 20.00     0.128 C 
HETATM    7  C4  UNL     1     -34.150  18.014   0.400  1.00 20.00     0.027 C 
ENDBRANCH   5   6
BRANCH   5   8
HETATM    8  C7  UNL     1     -33.788  18.126  -2.414  1.00 20.00     0.128 C 
HETATM    9  C5  UNL     1     -34.964  18.553  -3.225  1.00 20.00     0.027 C 
ENDBRANCH   5   8
ENDBRANCH   2   5
TORSDOF 3
ENDMDL
MODEL 8
REMARK VINA RESULT:      -3.6      2.351      3.765
REMARK  3 active torsions:
REMARK  status: ('A' for Active; 'I' for Inactive)
REMARK    1  A    between atoms: C2_2  and  N9_9 
REMARK    2  A    between atoms: C6_6  and  N9_9 
REMARK    3  A    between atoms: C7_7  and  N9_9 
ROOT
HETATM    1  C1  UNL     1     -36.534  15.171  -3.628  1.00 20.00     0.036 C 
HETATM    2  C2  UNL     1     -35.416  15.578  -3.463  1.00 20.00     0.024 C 
HETATM    3  C3  UNL     1     -37.812  14.709  -3.816  1.00 20.00     0.154 C 
HETATM    4  N8  UNL     1     -38.891  14.318  -3.975  1.00 20.00    -0.182 NA
ENDROOT
BRANCH   2   5
HETATM    5  N9  UNL     1     -34.061  16.069  -3.264  1.00 20.00    -0.342 N 
BRANCH   5   6
HETATM    6  C6  UNL     1     -32.973  15.212  -3.688  1.00 20.00     0.128 C 
HETATM    7  C4  UNL     1     -33.396  13.783  -3.721  1.00 20.00     0.027 C 
ENDBRANCH   5   6
BRANCH   5   8
HETATM    8  C7  UNL     1     -33.838  16.980  -2.162  1.00 20.00     0.128 C 
HETATM    9  C5  UNL     1     -34.596  16.557  -0.951  1.00 20.00     0.027 C 
ENDBRANCH   5   8
ENDBRANCH   2   5
TORSDOF 3
ENDMDL
MODEL 9
REMARK VINA RESULT:      -3.4      1.879      4.545
REMARK  3 active torsions:
REMARK  status: ('A' for Active; 'I' for Inactive)
REMARK    1  A    between atoms: C2_2  and  N9_9 
REMARK    2  A    between atoms: C6_6  and  N9_9 
REMARK    3  A    between atoms: C7_7  and  N9_9 
ROOT
HETATM    1  C1  UNL     1     -34.507  15.014  -3.555  1.00 20.00     0.036 C 
HETATM    2  C2  UNL     1     -34.330  16.105  -3.085  1.00 20.00     0.024 C 
HETATM    3  C3  UNL     1     -34.713  13.769  -4.093  1.00 20.00     0.154 C 
HETATM    4  N8  UNL     1     -34.885  12.716  -4.547  1.00 20.00    -0.182 NA
ENDROOT
BRANCH   2   5
HETATM    5  N9  UNL     1     -34.113  17.425  -2.515  1.00 20.00    -0.342 N 
BRANCH   5   6
HETATM    6  C6  UNL     1     -33.723  18.486  -3.421  1.00 20.00     0.128 C 
HETATM    7  C4  UNL     1     -34.417  18.354  -4.734  1.00 20.00     0.027 C 
ENDBRANCH   5   6
BRANCH   5   8
HETATM    8  C7  UNL     1     -33.675  17.493  -1.137  1.00 20.00     0.128 C 
HETATM    9  C5  UNL     1     -34.747  17.035  -0.209  1.00 20.00     0.027 C 
ENDBRANCH   5   8
ENDBRANCH   2   5
TORSDOF 3
ENDMDL
