MODEL 1
REMARK VINA RESULT:      -4.7      0.000      0.000
REMARK  0 active torsions:
REMARK  status: ('A' for Active; 'I' for Inactive)
ROOT
HETATM    1  C1  UNL     1     -33.847  15.955  -4.796  1.00 20.00    -0.054 C 
HETATM    2  C2  UNL     1     -34.409  13.690  -4.634  1.00 20.00     0.226 C 
HETATM    3  C3  UNL     1     -33.429  17.093  -5.366  1.00 20.00     0.017 C 
HETATM    4  C4  UNL     1     -34.776  14.938  -5.416  1.00 20.00     0.104 C 
HETATM    5  C5  UNL     1     -33.356  15.468  -3.462  1.00 20.00     0.109 C 
HETATM    6  C6  UNL     1     -34.630  14.715  -6.913  1.00 20.00     0.025 C 
HETATM    7  C7  UNL     1     -34.092  16.105  -2.292  1.00 20.00     0.037 C 
HETATM    8  N8  UNL     1     -33.633  14.059  -3.546  1.00 20.00    -0.352 N 
HETATM    9  O9  UNL     1     -34.768  12.554  -4.911  1.00 20.00    -0.273 OA
HETATM   10  H20 UNL     1     -33.289  13.391  -2.865  1.00 20.00     0.163 HD
ENDROOT
TORSDOF 0
ENDMDL
MODEL 2
REMARK VINA RESULT:      -4.4      1.863      2.644
REMARK  0 active torsions:
REMARK  status: ('A' for Active; 'I' for Inactive)
ROOT
HETATM    1  C1  UNL     1     -34.770  15.478  -3.040  1.00 20.00    -0.054 C 
HETATM    2  C2  UNL     1     -35.061  13.578  -4.374  1.00 20.00     0.226 C 
HETATM    3  C3  UNL     1     -34.252  16.251  -2.076  1.00 20.00     0.017 C 
HETATM    4  C4  UNL     1     -33.995  14.581  -3.975  1.00 20.00     0.104 C 
HETATM    5  C5  UNL     1     -36.247  15.312  -3.264  1.00 20.00     0.109 C 
HETATM    6  C6  UNL     1     -32.775  13.887  -3.389  1.00 20.00     0.025 C 
HETATM    7  C7  UNL     1     -36.849  16.433  -4.099  1.00 20.00     0.037 C 
HETATM    8  N8  UNL     1     -36.297  14.057  -3.964  1.00 20.00    -0.352 N 
HETATM    9  O9  UNL     1     -34.857  12.536  -4.981  1.00 20.00    -0.273 OA
HETATM   10  H20 UNL     1     -37.164  13.563  -4.145  1.00 20.00     0.163 HD
ENDROOT
TORSDOF 0
ENDMDL
MODEL 3
REMARK VINA RESULT:      -4.3      2.038      2.506
REMARK  0 active torsions:
REMARK  status: ('A' for Active; 'I' for Inactive)
ROOT
HETATM    1  C1  UNL     1     -34.836  14.792  -5.619  1.00 20.00    -0.054 C 
HETATM    2  C2  UNL     1     -36.619  14.271  -4.198  1.00 20.00     0.226 C 
HETATM    3  C3  UNL     1     -34.213  15.151  -6.750  1.00 20.00     0.017 C 
HETATM    4  C4  UNL     1     -36.104  15.401  -5.069  1.00 20.00     0.104 C 
HETATM    5  C5  UNL     1     -34.403  13.631  -4.769  1.00 20.00     0.109 C 
HETATM    6  C6  UNL     1     -37.145  15.830  -6.091  1.00 20.00     0.025 C 
HETATM    7  C7  UNL     1     -33.274  13.986  -3.813  1.00 20.00     0.037 C 
HETATM    8  N8  UNL     1     -35.614  13.326  -4.054  1.00 20.00    -0.352 N 
HETATM    9  O9  UNL     1     -37.730  14.225  -3.688  1.00 20.00    -0.273 OA
HETATM   10  H20 UNL     1     -35.723  12.490  -3.491  1.00 20.00     0.163 HD
ENDROOT
TORSDOF 0
ENDMDL
MODEL 4
REMARK VINA RESULT:      -4.3     12.556     13.647
REMARK  0 active torsions:
REMARK  status: ('A' for Active; 'I' for Inactive)
ROOT
HETATM    1  C1  UNL     1     -33.835   6.344   5.594  1.00 20.00    -0.054 C 
HETATM    2  C2  UNL     1     -34.863   4.573   4.464  1.00 20.00     0.226 C 
HETATM    3  C3  UNL     1     -33.640   7.259   6.554  1.00 20.00     0.017 C 
HETATM    4  C4  UNL     1     -34.236   4.904   5.806  1.00 20.00     0.104 C 
HETATM    5  C5  UNL     1     -33.779   6.661   4.126  1.00 20.00     0.109 C 
HETATM    6  C6  UNL     1     -35.201   4.633   6.949  1.00 20.00     0.025 C 
HETATM    7  C7  UNL     1     -32.361   6.664   3.574  1.00 20.00     0.037 C 
HETATM    8  N8  UNL     1     -34.553   5.584   3.567  1.00 20.00    -0.352 N 
HETATM    9  O9  UNL     1     -35.509   3.564   4.218  1.00 20.00    -0.273 OA
HETATM   10  H20 UNL     1     -34.847   5.567   2.596  1.00 20.00     0.163 HD
ENDROOT
TORSDOF 0
ENDMDL
MODEL 5
REMARK VINA RESULT:      -4.2      2.160      2.512
REMARK  0 active torsions:
REMARK  status: ('A' for Active; 'I' for Inactive)
ROOT
HETATM    1  C1  UNL     1     -34.333  15.417  -3.577  1.00 20.00    -0.054 C 
HETATM    2  C2  UNL     1     -36.586  14.788  -3.611  1.00 20.00     0.226 C 
HETATM    3  C3  UNL     1     -33.002  15.266  -3.570  1.00 20.00     0.017 C 
HETATM    4  C4  UNL     1     -35.312  14.638  -4.422  1.00 20.00     0.104 C 
HETATM    5  C5  UNL     1     -35.067  16.338  -2.643  1.00 20.00     0.109 C 
HETATM    6  C6  UNL     1     -34.981  13.173  -4.663  1.00 20.00     0.025 C 
HETATM    7  C7  UNL     1     -35.090  17.780  -3.130  1.00 20.00     0.037 C 
HETATM    8  N8  UNL     1     -36.387  15.767  -2.649  1.00 20.00    -0.352 N 
HETATM    9  O9  UNL     1     -37.621  14.165  -3.802  1.00 20.00    -0.273 OA
HETATM   10  H20 UNL     1     -37.113  16.056  -2.001  1.00 20.00     0.163 HD
ENDROOT
TORSDOF 0
ENDMDL
MODEL 6
REMARK VINA RESULT:      -4.1      2.417      3.473
REMARK  0 active torsions:
REMARK  status: ('A' for Active; 'I' for Inactive)
ROOT
HETATM    1  C1  UNL     1     -34.202  16.198  -2.871  1.00 20.00    -0.054 C 
HETATM    2  C2  UNL     1     -33.610  17.012  -4.983  1.00 20.00     0.226 C 
HETATM    3  C3  UNL     1     -34.503  16.235  -1.566  1.00 20.00     0.017 C 
HETATM    4  C4  UNL     1     -34.683  17.170  -3.922  1.00 20.00     0.104 C 
HETATM    5  C5  UNL     1     -33.235  15.217  -3.471  1.00 20.00     0.109 C 
HETATM    6  C6  UNL     1     -34.821  18.621  -3.488  1.00 20.00     0.025 C 
HETATM    7  C7  UNL     1     -33.870  13.868  -3.771  1.00 20.00     0.037 C 
HETATM    8  N8  UNL     1     -32.849  15.892  -4.681  1.00 20.00    -0.352 N 
HETATM    9  O9  UNL     1     -33.465  17.740  -5.954  1.00 20.00    -0.273 OA
HETATM   10  H20 UNL     1     -32.083  15.574  -5.266  1.00 20.00     0.163 HD
ENDROOT
TORSDOF 0
ENDMDL
MODEL 7
REMARK VINA RESULT:      -4.0      1.397      2.957
REMARK  0 active torsions:
REMARK  status: ('A' for Active; 'I' for Inactive)
ROOT
HETATM    1  C1  UNL     1     -35.114  15.657  -4.980  1.00 20.00    -0.054 C 
HETATM    2  C2  UNL     1     -33.888  13.809  -4.235  1.00 20.00     0.226 C 
HETATM    3  C3  UNL     1     -35.875  16.757  -4.899  1.00 20.00     0.017 C 
HETATM    4  C4  UNL     1     -33.941  15.319  -4.091  1.00 20.00     0.104 C 
HETATM    5  C5  UNL     1     -35.392  14.526  -5.929  1.00 20.00     0.109 C 
HETATM    6  C6  UNL     1     -34.060  15.731  -2.631  1.00 20.00     0.025 C 
HETATM    7  C7  UNL     1     -34.847  14.778  -7.327  1.00 20.00     0.037 C 
HETATM    8  N8  UNL     1     -34.705  13.435  -5.292  1.00 20.00    -0.352 N 
HETATM    9  O9  UNL     1     -33.211  13.059  -3.546  1.00 20.00    -0.273 OA
HETATM   10  H20 UNL     1     -34.809  12.471  -5.590  1.00 20.00     0.163 HD
ENDROOT
TORSDOF 0
ENDMDL
MODEL 8
REMARK VINA RESULT:      -4.0     11.495     12.604
REMARK  0 active torsions:
REMARK  status: ('A' for Active; 'I' for Inactive)
ROOT
HETATM    1  C1  UNL     1     -33.640   5.763   3.054  1.00 20.00    -0.054 C 
HETATM    2  C2  UNL     1     -33.669   6.529   5.263  1.00 20.00     0.226 C 
HETATM    3  C3  UNL     1     -33.812   4.914   2.031  1.00 20.00     0.017 C 
HETATM    4  C4  UNL     1     -34.601   5.985   4.197  1.00 20.00     0.104 C 
HETATM    5  C5  UNL     1     -32.384   6.561   3.264  1.00 20.00     0.109 C 
HETATM    6  C6  UNL     1     -35.354   4.761   4.694  1.00 20.00     0.025 C 
HETATM    7  C7  UNL     1     -32.350   7.840   2.441  1.00 20.00     0.037 C 
HETATM    8  N8  UNL     1     -32.456   6.849   4.672  1.00 20.00    -0.352 N 
HETATM    9  O9  UNL     1     -33.958   6.683   6.442  1.00 20.00    -0.273 OA
HETATM   10  H20 UNL     1     -31.682   7.254   5.189  1.00 20.00     0.163 HD
ENDROOT
TORSDOF 0
ENDMDL
MODEL 9
REMARK VINA RESULT:      -4.0      2.201      3.779
REMARK  0 active torsions:
REMARK  status: ('A' for Active; 'I' for Inactive)
ROOT
HETATM    1  C1  UNL     1     -34.826  14.458  -4.859  1.00 20.00    -0.054 C 
HETATM    2  C2  UNL     1     -33.685  16.453  -5.291  1.00 20.00     0.226 C 
HETATM    3  C3  UNL     1     -35.164  13.336  -4.208  1.00 20.00     0.017 C 
HETATM    4  C4  UNL     1     -34.556  15.804  -4.231  1.00 20.00     0.104 C 
HETATM    5  C5  UNL     1     -34.562  14.508  -6.338  1.00 20.00     0.109 C 
HETATM    6  C6  UNL     1     -33.862  15.791  -2.878  1.00 20.00     0.025 C 
HETATM    7  C7  UNL     1     -35.834  14.636  -7.163  1.00 20.00     0.037 C 
HETATM    8  N8  UNL     1     -33.749  15.690  -6.448  1.00 20.00    -0.352 N 
HETATM    9  O9  UNL     1     -33.058  17.494  -5.148  1.00 20.00    -0.273 OA
HETATM   10  H20 UNL     1     -33.263  15.945  -7.301  1.00 20.00     0.163 HD
ENDROOT
TORSDOF 0
ENDMDL
