MODEL 1
REMARK VINA RESULT:      -5.2      0.000      0.000
REMARK  1 active torsions:
REMARK  status: ('A' for Active; 'I' for Inactive)
REMARK    1  A    between atoms: C3_3  and  C8_8 
ROOT
HETATM    1  C1  UNL     1     -36.159  16.209  -3.584  1.00 20.00    -0.024 C 
HETATM    2  C2  UNL     1     -35.586  17.244  -4.220  1.00 20.00    -0.021 C 
HETATM    3  C4  UNL     1     -34.501  16.251  -1.774  1.00 20.00     0.010 C 
HETATM    4  C5  UNL     1     -33.817  17.433  -2.504  1.00 20.00     0.014 C 
HETATM    5  C6  UNL     1     -33.474  16.004  -4.539  1.00 20.00     0.026 C 
HETATM    6  C7  UNL     1     -35.199  15.334  -2.803  1.00 20.00     0.019 C 
HETATM    7  C8  UNL     1     -34.107  14.814  -3.771  1.00 20.00     0.063 C 
HETATM    8  C9  UNL     1     -34.080  17.345  -4.033  1.00 20.00    -0.026 C 
HETATM    9  C11 UNL     1     -33.484  18.539  -4.772  1.00 20.00     0.019 C 
ENDROOT
BRANCH   7  10
HETATM   10  C3  UNL     1     -34.649  13.795  -4.730  1.00 20.00     0.128 C 
HETATM   11  C10 UNL     1     -34.713  14.197  -6.180  1.00 20.00     0.091 C 
HETATM   12  O12 UNL     1     -35.021  12.685  -4.351  1.00 20.00    -0.298 OA
ENDBRANCH   7  10
TORSDOF 1
ENDMDL
MODEL 2
REMARK VINA RESULT:      -5.1      1.995      3.784
REMARK  1 active torsions:
REMARK  status: ('A' for Active; 'I' for Inactive)
REMARK    1  A    between atoms: C3_3  and  C8_8 
ROOT
HETATM    1  C1  UNL     1     -33.214  16.017  -4.387  1.00 20.00    -0.024 C 
HETATM    2  C2  UNL     1     -34.005  15.930  -5.469  1.00 20.00    -0.021 C 
HETATM    3  C4  UNL     1     -33.515  13.645  -3.832  1.00 20.00     0.010 C 
HETATM    4  C5  UNL     1     -34.444  13.532  -5.065  1.00 20.00     0.014 C 
HETATM    5  C6  UNL     1     -35.962  15.286  -4.106  1.00 20.00     0.026 C 
HETATM    6  C7  UNL     1     -33.580  15.077  -3.256  1.00 20.00     0.019 C 
HETATM    7  C8  UNL     1     -35.052  15.343  -2.850  1.00 20.00     0.063 C 
HETATM    8  C9  UNL     1     -35.119  14.902  -5.356  1.00 20.00    -0.026 C 
HETATM    9  C11 UNL     1     -35.982  14.842  -6.612  1.00 20.00     0.019 C 
ENDROOT
BRANCH   7  10
HETATM   10  C3  UNL     1     -35.208  16.657  -2.142  1.00 20.00     0.128 C 
HETATM   11  C10 UNL     1     -34.571  16.773  -0.783  1.00 20.00     0.091 C 
HETATM   12  O12 UNL     1     -35.825  17.593  -2.647  1.00 20.00    -0.298 OA
ENDBRANCH   7  10
TORSDOF 1
ENDMDL
MODEL 3
REMARK VINA RESULT:      -4.8      1.598      2.892
REMARK  1 active torsions:
REMARK  status: ('A' for Active; 'I' for Inactive)
REMARK    1  A    between atoms: C3_3  and  C8_8 
ROOT
HETATM    1  C1  UNL     1     -34.778  14.868  -7.059  1.00 20.00    -0.024 C 
HETATM    2  C2  UNL     1     -34.043  15.984  -6.931  1.00 20.00    -0.021 C 
HETATM    3  C4  UNL     1     -36.834  15.997  -6.336  1.00 20.00     0.010 C 
HETATM    4  C5  UNL     1     -35.998  17.289  -6.166  1.00 20.00     0.014 C 
HETATM    5  C6  UNL     1     -34.509  16.129  -4.510  1.00 20.00     0.026 C 
HETATM    6  C7  UNL     1     -35.942  14.760  -6.094  1.00 20.00     0.019 C 
HETATM    7  C8  UNL     1     -35.395  14.863  -4.648  1.00 20.00     0.063 C 
HETATM    8  C9  UNL     1     -34.520  16.933  -5.842  1.00 20.00    -0.026 C 
HETATM    9  C11 UNL     1     -33.653  18.184  -5.744  1.00 20.00     0.019 C 
ENDROOT
BRANCH   7  10
HETATM   10  C3  UNL     1     -34.628  13.636  -4.251  1.00 20.00     0.128 C 
HETATM   11  C10 UNL     1     -33.248  13.853  -3.688  1.00 20.00     0.091 C 
HETATM   12  O12 UNL     1     -35.103  12.508  -4.378  1.00 20.00    -0.298 OA
ENDBRANCH   7  10
TORSDOF 1
ENDMDL
MODEL 4
REMARK VINA RESULT:      -4.8      1.776      3.643
REMARK  1 active torsions:
REMARK  status: ('A' for Active; 'I' for Inactive)
REMARK    1  A    between atoms: C3_3  and  C8_8 
ROOT
HETATM    1  C1  UNL     1     -35.385  13.569  -4.130  1.00 20.00    -0.024 C 
HETATM    2  C2  UNL     1     -34.864  13.654  -5.365  1.00 20.00    -0.021 C 
HETATM    3  C4  UNL     1     -37.309  14.977  -4.717  1.00 20.00     0.010 C 
HETATM    4  C5  UNL     1     -36.712  15.100  -6.141  1.00 20.00     0.014 C 
HETATM    5  C6  UNL     1     -34.616  16.105  -5.196  1.00 20.00     0.026 C 
HETATM    6  C7  UNL     1     -36.173  14.787  -3.688  1.00 20.00     0.019 C 
HETATM    7  C8  UNL     1     -35.253  16.030  -3.784  1.00 20.00     0.063 C 
HETATM    8  C9  UNL     1     -35.166  14.957  -6.090  1.00 20.00    -0.026 C 
HETATM    9  C11 UNL     1     -34.555  14.997  -7.487  1.00 20.00     0.019 C 
ENDROOT
BRANCH   7  10
HETATM   10  C3  UNL     1     -34.190  16.022  -2.724  1.00 20.00     0.128 C 
HETATM   11  C10 UNL     1     -34.625  16.380  -1.328  1.00 20.00     0.091 C 
HETATM   12  O12 UNL     1     -33.022  15.737  -2.983  1.00 20.00    -0.298 OA
ENDBRANCH   7  10
TORSDOF 1
ENDMDL
MODEL 5
REMARK VINA RESULT:      -4.7      1.132      2.205
REMARK  1 active torsions:
REMARK  status: ('A' for Active; 'I' for Inactive)
REMARK    1  A    between atoms: C3_3  and  C8_8 
ROOT
HETATM    1  C1  UNL     1     -34.305  16.502  -5.061  1.00 20.00    -0.024 C 
HETATM    2  C2  UNL     1     -33.709  17.182  -4.068  1.00 20.00    -0.021 C 
HETATM    3  C4  UNL     1     -36.547  16.892  -4.140  1.00 20.00     0.010 C 
HETATM    4  C5  UNL     1     -35.874  17.663  -2.978  1.00 20.00     0.014 C 
HETATM    5  C6  UNL     1     -34.559  15.617  -2.357  1.00 20.00     0.026 C 
HETATM    6  C7  UNL     1     -35.590  15.801  -4.668  1.00 20.00     0.019 C 
HETATM    7  C8  UNL     1     -35.288  14.844  -3.487  1.00 20.00     0.063 C 
HETATM    8  C9  UNL     1     -34.438  17.121  -2.735  1.00 20.00    -0.026 C 
HETATM    9  C11 UNL     1     -33.720  17.913  -1.646  1.00 20.00     0.019 C 
ENDROOT
BRANCH   7  10
HETATM   10  C3  UNL     1     -34.479  13.657  -3.922  1.00 20.00     0.128 C 
HETATM   11  C10 UNL     1     -33.024  13.652  -3.536  1.00 20.00     0.091 C 
HETATM   12  O12 UNL     1     -34.980  12.733  -4.560  1.00 20.00    -0.298 OA
ENDBRANCH   7  10
TORSDOF 1
ENDMDL
MODEL 6
REMARK VINA RESULT:      -4.7      1.434      2.441
REMARK  1 active torsions:
REMARK  status: ('A' for Active; 'I' for Inactive)
REMARK    1  A    between atoms: C3_3  and  C8_8 
ROOT
HETATM    1  C1  UNL     1     -34.821  15.813  -2.239  1.00 20.00    -0.024 C 
HETATM    2  C2  UNL     1     -34.397  16.985  -2.736  1.00 20.00    -0.021 C 
HETATM    3  C4  UNL     1     -33.475  14.516  -3.830  1.00 20.00     0.010 C 
HETATM    4  C5  UNL     1     -32.990  15.859  -4.428  1.00 20.00     0.014 C 
HETATM    5  C6  UNL     1     -35.358  16.500  -4.959  1.00 20.00     0.026 C 
HETATM    6  C7  UNL     1     -34.896  14.684  -3.248  1.00 20.00     0.019 C 
HETATM    7  C8  UNL     1     -35.821  15.124  -4.411  1.00 20.00     0.063 C 
HETATM    8  C9  UNL     1     -34.068  16.959  -4.221  1.00 20.00    -0.026 C 
HETATM    9  C11 UNL     1     -33.587  18.314  -4.732  1.00 20.00     0.019 C 
ENDROOT
BRANCH   7  10
HETATM   10  C3  UNL     1     -37.260  15.178  -3.992  1.00 20.00     0.128 C 
HETATM   11  C10 UNL     1     -37.919  16.532  -4.008  1.00 20.00     0.091 C 
HETATM   12  O12 UNL     1     -37.873  14.167  -3.653  1.00 20.00    -0.298 OA
ENDBRANCH   7  10
TORSDOF 1
ENDMDL
MODEL 7
REMARK VINA RESULT:      -4.6      1.933      3.260
REMARK  1 active torsions:
REMARK  status: ('A' for Active; 'I' for Inactive)
REMARK    1  A    between atoms: C3_3  and  C8_8 
ROOT
HETATM    1  C1  UNL     1     -36.363  15.159  -5.059  1.00 20.00    -0.024 C 
HETATM    2  C2  UNL     1     -36.104  15.623  -3.826  1.00 20.00    -0.021 C 
HETATM    3  C4  UNL     1     -34.673  13.388  -4.875  1.00 20.00     0.010 C 
HETATM    4  C5  UNL     1     -34.349  13.922  -3.458  1.00 20.00     0.014 C 
HETATM    5  C6  UNL     1     -33.768  16.168  -4.417  1.00 20.00     0.026 C 
HETATM    6  C7  UNL     1     -35.173  14.544  -5.769  1.00 20.00     0.019 C 
HETATM    7  C8  UNL     1     -34.039  15.598  -5.834  1.00 20.00     0.063 C 
HETATM    8  C9  UNL     1     -34.663  15.442  -3.372  1.00 20.00    -0.026 C 
HETATM    9  C11 UNL     1     -34.427  15.981  -1.965  1.00 20.00     0.019 C 
ENDROOT
BRANCH   7  10
HETATM   10  C3  UNL     1     -34.359  16.705  -6.797  1.00 20.00     0.128 C 
HETATM   11  C10 UNL     1     -34.098  18.110  -6.322  1.00 20.00     0.091 C 
HETATM   12  O12 UNL     1     -34.809  16.475  -7.918  1.00 20.00    -0.298 OA
ENDBRANCH   7  10
TORSDOF 1
ENDMDL
MODEL 8
REMARK VINA RESULT:      -4.6      1.812      3.249
REMARK  1 active torsions:
REMARK  status: ('A' for Active; 'I' for Inactive)
REMARK    1  A    between atoms: C3_3  and  C8_8 
ROOT
HETATM    1  C1  UNL     1     -35.069  13.599  -4.581  1.00 20.00    -0.024 C 
HETATM    2  C2  UNL     1     -34.519  14.158  -3.492  1.00 20.00    -0.021 C 
HETATM    3  C4  UNL     1     -34.265  15.392  -6.052  1.00 20.00     0.010 C 
HETATM    4  C5  UNL     1     -33.640  16.060  -4.803  1.00 20.00     0.014 C 
HETATM    5  C6  UNL     1     -35.900  16.193  -3.720  1.00 20.00     0.026 C 
HETATM    6  C7  UNL     1     -35.516  14.584  -5.644  1.00 20.00     0.019 C 
HETATM    7  C8  UNL     1     -36.517  15.578  -5.004  1.00 20.00     0.063 C 
HETATM    8  C9  UNL     1     -34.445  15.677  -3.530  1.00 20.00    -0.026 C 
HETATM    9  C11 UNL     1     -33.808  16.257  -2.271  1.00 20.00     0.019 C 
ENDROOT
BRANCH   7  10
HETATM   10  C3  UNL     1     -37.835  14.927  -4.698  1.00 20.00     0.128 C 
HETATM   11  C10 UNL     1     -38.914  15.063  -5.739  1.00 20.00     0.091 C 
HETATM   12  O12 UNL     1     -38.023  14.312  -3.650  1.00 20.00    -0.298 OA
ENDBRANCH   7  10
TORSDOF 1
ENDMDL
MODEL 9
REMARK VINA RESULT:      -4.6      2.224      3.985
REMARK  1 active torsions:
REMARK  status: ('A' for Active; 'I' for Inactive)
REMARK    1  A    between atoms: C3_3  and  C8_8 
ROOT
HETATM    1  C1  UNL     1     -35.122  17.794  -4.167  1.00 20.00    -0.024 C 
HETATM    2  C2  UNL     1     -35.998  16.777  -4.219  1.00 20.00    -0.021 C 
HETATM    3  C4  UNL     1     -33.313  16.439  -5.125  1.00 20.00     0.010 C 
HETATM    4  C5  UNL     1     -34.305  15.251  -5.174  1.00 20.00     0.014 C 
HETATM    5  C6  UNL     1     -34.634  15.398  -2.690  1.00 20.00     0.026 C 
HETATM    6  C7  UNL     1     -33.680  17.379  -3.955  1.00 20.00     0.019 C 
HETATM    7  C8  UNL     1     -33.592  16.547  -2.651  1.00 20.00     0.063 C 
HETATM    8  C9  UNL     1     -35.376  15.399  -4.057  1.00 20.00    -0.026 C 
HETATM    9  C11 UNL     1     -36.413  14.283  -4.129  1.00 20.00     0.019 C 
ENDROOT
BRANCH   7  10
HETATM   10  C3  UNL     1     -33.789  17.398  -1.431  1.00 20.00     0.128 C 
HETATM   11  C10 UNL     1     -34.760  16.887  -0.400  1.00 20.00     0.091 C 
HETATM   12  O12 UNL     1     -33.185  18.459  -1.279  1.00 20.00    -0.298 OA
ENDBRANCH   7  10
TORSDOF 1
ENDMDL
