MODEL 1
REMARK VINA RESULT:      -5.8      0.000      0.000
REMARK  2 active torsions:
REMARK  status: ('A' for Active; 'I' for Inactive)
REMARK    1  A    between atoms: C5_5  and  C7_7 
REMARK    2  A    between atoms: C7_7  and  O8_8 
ROOT
HETATM    1  C1  UNL     1     -33.224   6.603   5.305  1.00 20.00     0.013 C 
HETATM    2  C2  UNL     1     -34.353   5.259   3.481  1.00 20.00     0.013 C 
HETATM    3  C3  UNL     1     -34.264   6.113   6.309  1.00 20.00     0.079 C 
HETATM    4  C4  UNL     1     -35.392   4.769   4.486  1.00 20.00     0.079 C 
HETATM    5  C5  UNL     1     -33.788   6.632   3.876  1.00 20.00     0.009 C 
HETATM    6  C6  UNL     1     -34.841   4.768   5.902  1.00 20.00     0.243 C 
HETATM    7  F9  UNL     1     -33.876   3.816   6.005  1.00 20.00    -0.206 F 
HETATM    8  F10 UNL     1     -35.822   4.415   6.769  1.00 20.00    -0.206 F 
ENDROOT
BRANCH   5   9
HETATM    9  C7  UNL     1     -32.716   7.078   2.884  1.00 20.00     0.168 C 
BRANCH   9  10
HETATM   10  O8  UNL     1     -31.561   7.457   3.610  1.00 20.00    -0.400 OA
HETATM   11  H22 UNL     1     -31.092   8.120   3.076  1.00 20.00     0.209 HD
ENDBRANCH   9  10
ENDBRANCH   5   9
TORSDOF 2
ENDMDL
MODEL 2
REMARK VINA RESULT:      -4.8      2.942      4.162
REMARK  2 active torsions:
REMARK  status: ('A' for Active; 'I' for Inactive)
REMARK    1  A    between atoms: C5_5  and  C7_7 
REMARK    2  A    between atoms: C7_7  and  O8_8 
ROOT
HETATM    1  C1  UNL     1     -34.557   4.936   3.881  1.00 20.00     0.013 C 
HETATM    2  C2  UNL     1     -33.359   6.378   5.579  1.00 20.00     0.013 C 
HETATM    3  C3  UNL     1     -34.040   5.829   2.756  1.00 20.00     0.079 C 
HETATM    4  C4  UNL     1     -32.841   7.272   4.455  1.00 20.00     0.079 C 
HETATM    5  C5  UNL     1     -34.688   5.708   5.202  1.00 20.00     0.009 C 
HETATM    6  C6  UNL     1     -32.739   6.513   3.143  1.00 20.00     0.243 C 
HETATM    7  F9  UNL     1     -31.755   5.581   3.241  1.00 20.00    -0.206 F 
HETATM    8  F10 UNL     1     -32.365   7.364   2.155  1.00 20.00    -0.206 F 
ENDROOT
BRANCH   5   9
HETATM    9  C7  UNL     1     -35.160   4.782   6.322  1.00 20.00     0.168 C 
BRANCH   9  10
HETATM   10  O8  UNL     1     -35.528   3.540   5.752  1.00 20.00    -0.400 OA
HETATM   11  H22 UNL     1     -36.499   3.520   5.710  1.00 20.00     0.209 HD
ENDBRANCH   9  10
ENDBRANCH   5   9
TORSDOF 2
ENDMDL
MODEL 3
REMARK VINA RESULT:      -4.6     12.518     13.175
REMARK  2 active torsions:
REMARK  status: ('A' for Active; 'I' for Inactive)
REMARK    1  A    between atoms: C5_5  and  C7_7 
REMARK    2  A    between atoms: C7_7  and  O8_8 
ROOT
HETATM    1  C1  UNL     1     -35.224  16.207  -3.030  1.00 20.00     0.013 C 
HETATM    2  C2  UNL     1     -35.393  14.136  -4.474  1.00 20.00     0.013 C 
HETATM    3  C3  UNL     1     -33.781  15.849  -2.684  1.00 20.00     0.079 C 
HETATM    4  C4  UNL     1     -33.950  13.778  -4.128  1.00 20.00     0.079 C 
HETATM    5  C5  UNL     1     -36.055  14.958  -3.358  1.00 20.00     0.009 C 
HETATM    6  C6  UNL     1     -33.138  15.013  -3.778  1.00 20.00     0.243 C 
HETATM    7  F9  UNL     1     -32.982  15.776  -4.892  1.00 20.00    -0.206 F 
HETATM    8  F10 UNL     1     -31.893  14.641  -3.389  1.00 20.00    -0.206 F 
ENDROOT
BRANCH   5   9
HETATM    9  C7  UNL     1     -37.480  15.345  -3.748  1.00 20.00     0.168 C 
BRANCH   9  10
HETATM   10  O8  UNL     1     -38.281  14.178  -3.738  1.00 20.00    -0.400 OA
HETATM   11  H22 UNL     1     -38.734  14.135  -4.597  1.00 20.00     0.209 HD
ENDBRANCH   9  10
ENDBRANCH   5   9
TORSDOF 2
ENDMDL
MODEL 4
REMARK VINA RESULT:      -4.5     12.364     12.964
REMARK  2 active torsions:
REMARK  status: ('A' for Active; 'I' for Inactive)
REMARK    1  A    between atoms: C5_5  and  C7_7 
REMARK    2  A    between atoms: C7_7  and  O8_8 
ROOT
HETATM    1  C1  UNL     1     -33.411  15.207  -3.496  1.00 20.00     0.013 C 
HETATM    2  C2  UNL     1     -35.923  14.904  -3.491  1.00 20.00     0.013 C 
HETATM    3  C3  UNL     1     -33.579  16.613  -2.926  1.00 20.00     0.079 C 
HETATM    4  C4  UNL     1     -36.091  16.311  -2.920  1.00 20.00     0.079 C 
HETATM    5  C5  UNL     1     -34.635  14.780  -4.318  1.00 20.00     0.009 C 
HETATM    6  C6  UNL     1     -34.867  16.741  -2.130  1.00 20.00     0.243 C 
HETATM    7  F9  UNL     1     -34.774  15.987  -1.003  1.00 20.00    -0.206 F 
HETATM    8  F10 UNL     1     -35.020  18.025  -1.722  1.00 20.00    -0.206 F 
ENDROOT
BRANCH   5   9
HETATM    9  C7  UNL     1     -34.465  13.353  -4.837  1.00 20.00     0.168 C 
BRANCH   9  10
HETATM   10  O8  UNL     1     -35.372  12.513  -4.149  1.00 20.00    -0.400 OA
HETATM   11  H22 UNL     1     -35.727  13.025  -3.402  1.00 20.00     0.209 HD
ENDBRANCH   9  10
ENDBRANCH   5   9
TORSDOF 2
ENDMDL
MODEL 5
REMARK VINA RESULT:      -4.5     12.973     13.830
REMARK  2 active torsions:
REMARK  status: ('A' for Active; 'I' for Inactive)
REMARK    1  A    between atoms: C5_5  and  C7_7 
REMARK    2  A    between atoms: C7_7  and  O8_8 
ROOT
HETATM    1  C1  UNL     1     -34.673  14.876  -3.136  1.00 20.00     0.013 C 
HETATM    2  C2  UNL     1     -34.022  15.684  -5.444  1.00 20.00     0.013 C 
HETATM    3  C3  UNL     1     -34.030  16.117  -2.521  1.00 20.00     0.079 C 
HETATM    4  C4  UNL     1     -33.379  16.925  -4.828  1.00 20.00     0.079 C 
HETATM    5  C5  UNL     1     -34.010  14.498  -4.469  1.00 20.00     0.009 C 
HETATM    6  C6  UNL     1     -34.018  17.281  -3.497  1.00 20.00     0.243 C 
HETATM    7  F9  UNL     1     -35.294  17.699  -3.711  1.00 20.00    -0.206 F 
HETATM    8  F10 UNL     1     -33.358  18.328  -2.944  1.00 20.00    -0.206 F 
ENDROOT
BRANCH   5   9
HETATM    9  C7  UNL     1     -34.701  13.285  -5.089  1.00 20.00     0.168 C 
BRANCH   9  10
HETATM   10  O8  UNL     1     -35.361  12.570  -4.061  1.00 20.00    -0.400 OA
HETATM   11  H22 UNL     1     -34.713  11.953  -3.680  1.00 20.00     0.209 HD
ENDBRANCH   9  10
ENDBRANCH   5   9
TORSDOF 2
ENDMDL
MODEL 6
REMARK VINA RESULT:      -4.4      1.572      2.350
REMARK  2 active torsions:
REMARK  status: ('A' for Active; 'I' for Inactive)
REMARK    1  A    between atoms: C5_5  and  C7_7 
REMARK    2  A    between atoms: C7_7  and  O8_8 
ROOT
HETATM    1  C1  UNL     1     -33.356   5.921   2.654  1.00 20.00     0.013 C 
HETATM    2  C2  UNL     1     -33.481   6.837   5.009  1.00 20.00     0.013 C 
HETATM    3  C3  UNL     1     -34.152   4.693   3.089  1.00 20.00     0.079 C 
HETATM    4  C4  UNL     1     -34.277   5.609   5.444  1.00 20.00     0.079 C 
HETATM    5  C5  UNL     1     -32.560   6.523   3.821  1.00 20.00     0.009 C 
HETATM    6  C6  UNL     1     -35.042   5.000   4.281  1.00 20.00     0.243 C 
HETATM    7  F9  UNL     1     -36.026   5.855   3.897  1.00 20.00    -0.206 F 
HETATM    8  F10 UNL     1     -35.658   3.863   4.690  1.00 20.00    -0.206 F 
ENDROOT
BRANCH   5   9
HETATM    9  C7  UNL     1     -31.812   7.777   3.373  1.00 20.00     0.168 C 
BRANCH   9  10
HETATM   10  O8  UNL     1     -32.156   8.049   2.027  1.00 20.00    -0.400 OA
HETATM   11  H22 UNL     1     -31.351   7.933   1.497  1.00 20.00     0.209 HD
ENDBRANCH   9  10
ENDBRANCH   5   9
TORSDOF 2
ENDMDL
MODEL 7
REMARK VINA RESULT:      -4.4     12.288     12.833
REMARK  2 active torsions:
REMARK  status: ('A' for Active; 'I' for Inactive)
REMARK    1  A    between atoms: C5_5  and  C7_7 
REMARK    2  A    between atoms: C7_7  and  O8_8 
ROOT
HETATM    1  C1  UNL     1     -33.413  15.282  -3.106  1.00 20.00     0.013 C 
HETATM    2  C2  UNL     1     -35.928  15.419  -3.355  1.00 20.00     0.013 C 
HETATM    3  C3  UNL     1     -33.414  13.942  -3.837  1.00 20.00     0.079 C 
HETATM    4  C4  UNL     1     -35.928  14.079  -4.086  1.00 20.00     0.079 C 
HETATM    5  C5  UNL     1     -34.745  15.533  -2.382  1.00 20.00     0.009 C 
HETATM    6  C6  UNL     1     -34.601  13.822  -4.778  1.00 20.00     0.243 C 
HETATM    7  F9  UNL     1     -34.452  14.704  -5.802  1.00 20.00    -0.206 F 
HETATM    8  F10 UNL     1     -34.613  12.585  -5.335  1.00 20.00    -0.206 F 
ENDROOT
BRANCH   5   9
HETATM    9  C7  UNL     1     -34.738  16.899  -1.700  1.00 20.00     0.168 C 
BRANCH   9  10
HETATM   10  O8  UNL     1     -35.007  16.715  -0.322  1.00 20.00    -0.400 OA
HETATM   11  H22 UNL     1     -35.493  15.878  -0.235  1.00 20.00     0.209 HD
ENDBRANCH   9  10
ENDBRANCH   5   9
TORSDOF 2
ENDMDL
MODEL 8
REMARK VINA RESULT:      -4.3      9.716     10.633
REMARK  2 active torsions:
REMARK  status: ('A' for Active; 'I' for Inactive)
REMARK    1  A    between atoms: C5_5  and  C7_7 
REMARK    2  A    between atoms: C7_7  and  O8_8 
ROOT
HETATM    1  C1  UNL     1     -41.508   4.589  -0.668  1.00 20.00     0.013 C 
HETATM    2  C2  UNL     1     -42.543   5.670  -2.709  1.00 20.00     0.013 C 
HETATM    3  C3  UNL     1     -40.774   5.890  -0.352  1.00 20.00     0.079 C 
HETATM    4  C4  UNL     1     -41.808   6.971  -2.392  1.00 20.00     0.079 C 
HETATM    5  C5  UNL     1     -41.785   4.448  -2.172  1.00 20.00     0.009 C 
HETATM    6  C6  UNL     1     -41.513   7.096  -0.907  1.00 20.00     0.243 C 
HETATM    7  F9  UNL     1     -42.680   7.257  -0.231  1.00 20.00    -0.206 F 
HETATM    8  F10 UNL     1     -40.781   8.216  -0.684  1.00 20.00    -0.206 F 
ENDROOT
BRANCH   5   9
HETATM    9  C7  UNL     1     -42.562   3.164  -2.458  1.00 20.00     0.168 C 
BRANCH   9  10
HETATM   10  O8  UNL     1     -41.644   2.160  -2.848  1.00 20.00    -0.400 OA
HETATM   11  H22 UNL     1     -41.114   2.524  -3.577  1.00 20.00     0.209 HD
ENDBRANCH   9  10
ENDBRANCH   5   9
TORSDOF 2
ENDMDL
MODEL 9
REMARK VINA RESULT:      -4.3     12.353     13.424
REMARK  2 active torsions:
REMARK  status: ('A' for Active; 'I' for Inactive)
REMARK    1  A    between atoms: C5_5  and  C7_7 
REMARK    2  A    between atoms: C7_7  and  O8_8 
ROOT
HETATM    1  C1  UNL     1     -35.347  13.910  -3.837  1.00 20.00     0.013 C 
HETATM    2  C2  UNL     1     -35.134  16.235  -4.812  1.00 20.00     0.013 C 
HETATM    3  C3  UNL     1     -33.826  13.778  -3.819  1.00 20.00     0.079 C 
HETATM    4  C4  UNL     1     -33.613  16.103  -4.795  1.00 20.00     0.079 C 
HETATM    5  C5  UNL     1     -35.819  14.867  -4.941  1.00 20.00     0.009 C 
HETATM    6  C6  UNL     1     -33.151  15.136  -3.719  1.00 20.00     0.243 C 
HETATM    7  F9  UNL     1     -33.403  15.673  -2.496  1.00 20.00    -0.206 F 
HETATM    8  F10 UNL     1     -31.806  14.979  -3.800  1.00 20.00    -0.206 F 
ENDROOT
BRANCH   5   9
HETATM    9  C7  UNL     1     -37.338  15.020  -4.907  1.00 20.00     0.168 C 
BRANCH   9  10
HETATM   10  O8  UNL     1     -37.847  14.227  -3.851  1.00 20.00    -0.400 OA
HETATM   11  H22 UNL     1     -37.366  14.481  -3.045  1.00 20.00     0.209 HD
ENDBRANCH   9  10
ENDBRANCH   5   9
TORSDOF 2
ENDMDL
