MODEL 1
REMARK VINA RESULT:      -4.0      0.000      0.000
REMARK  1 active torsions:
REMARK  status: ('A' for Active; 'I' for Inactive)
REMARK    1  A    between atoms: C1_1  and  C4_4 
ROOT
HETATM    1  C2  UNL     1     -34.233  15.365  -2.729  1.00 20.00     0.037 C 
HETATM    2  C3  UNL     1     -33.243  16.025  -4.507  1.00 20.00     0.037 C 
HETATM    3  C4  UNL     1     -33.619  14.633  -3.946  1.00 20.00     0.058 C 
HETATM    4  C5  UNL     1     -34.325  16.657  -3.587  1.00 20.00     0.035 C 
HETATM    5  C7  UNL     1     -33.840  17.906  -2.854  1.00 20.00     0.032 C 
HETATM    6 CL9  UNL     1     -35.921  16.959  -4.364  1.00 20.00    -0.120 Cl
ENDROOT
BRANCH   3   7
HETATM    7  C1  UNL     1     -34.546  13.750  -4.791  1.00 20.00     0.127 C 
HETATM    8  C6  UNL     1     -34.800  14.196  -6.206  1.00 20.00     0.091 C 
HETATM    9  O8  UNL     1     -35.055  12.728  -4.336  1.00 20.00    -0.298 OA
ENDBRANCH   3   7
TORSDOF 1
ENDMDL
MODEL 2
REMARK VINA RESULT:      -4.0      1.492      1.687
REMARK  1 active torsions:
REMARK  status: ('A' for Active; 'I' for Inactive)
REMARK    1  A    between atoms: C1_1  and  C4_4 
ROOT
HETATM    1  C2  UNL     1     -35.497  15.983  -3.802  1.00 20.00     0.037 C 
HETATM    2  C3  UNL     1     -33.688  16.056  -2.661  1.00 20.00     0.037 C 
HETATM    3  C4  UNL     1     -34.652  14.916  -3.067  1.00 20.00     0.058 C 
HETATM    4  C5  UNL     1     -34.249  16.909  -3.832  1.00 20.00     0.035 C 
HETATM    5  C7  UNL     1     -34.557  18.352  -3.436  1.00 20.00     0.032 C 
HETATM    6 CL9  UNL     1     -33.286  16.863  -5.354  1.00 20.00    -0.120 Cl
ENDROOT
BRANCH   3   7
HETATM    7  C1  UNL     1     -34.080  13.760  -3.898  1.00 20.00     0.127 C 
HETATM    8  C6  UNL     1     -34.870  13.343  -5.109  1.00 20.00     0.091 C 
HETATM    9  O8  UNL     1     -33.027  13.204  -3.592  1.00 20.00    -0.298 OA
ENDBRANCH   3   7
TORSDOF 1
ENDMDL
MODEL 3
REMARK VINA RESULT:      -4.0      2.269      2.808
REMARK  1 active torsions:
REMARK  status: ('A' for Active; 'I' for Inactive)
REMARK    1  A    between atoms: C1_1  and  C4_4 
ROOT
HETATM    1  C2  UNL     1     -34.921  13.663  -3.856  1.00 20.00     0.037 C 
HETATM    2  C3  UNL     1     -34.721  15.516  -4.907  1.00 20.00     0.037 C 
HETATM    3  C4  UNL     1     -35.847  14.460  -4.805  1.00 20.00     0.058 C 
HETATM    4  C5  UNL     1     -34.126  14.969  -3.579  1.00 20.00     0.035 C 
HETATM    5  C7  UNL     1     -32.612  14.778  -3.628  1.00 20.00     0.032 C 
HETATM    6 CL9  UNL     1     -34.603  15.865  -2.091  1.00 20.00    -0.120 Cl
ENDROOT
BRANCH   3   7
HETATM    7  C1  UNL     1     -37.206  14.918  -4.259  1.00 20.00     0.127 C 
HETATM    8  C6  UNL     1     -37.542  16.376  -4.417  1.00 20.00     0.091 C 
HETATM    9  O8  UNL     1     -37.983  14.132  -3.719  1.00 20.00    -0.298 OA
ENDBRANCH   3   7
TORSDOF 1
ENDMDL
MODEL 4
REMARK VINA RESULT:      -4.0     11.687     12.533
REMARK  1 active torsions:
REMARK  status: ('A' for Active; 'I' for Inactive)
REMARK    1  A    between atoms: C1_1  and  C4_4 
ROOT
HETATM    1  C2  UNL     1     -34.546   6.425   3.595  1.00 20.00     0.037 C 
HETATM    2  C3  UNL     1     -32.942   5.116   4.136  1.00 20.00     0.037 C 
HETATM    3  C4  UNL     1     -33.112   6.209   3.055  1.00 20.00     0.058 C 
HETATM    4  C5  UNL     1     -34.112   5.759   4.931  1.00 20.00     0.035 C 
HETATM    5  C7  UNL     1     -35.121   4.739   5.454  1.00 20.00     0.032 C 
HETATM    6 CL9  UNL     1     -33.625   6.896   6.241  1.00 20.00    -0.120 Cl
ENDROOT
BRANCH   3   7
HETATM    7  C1  UNL     1     -32.148   7.402   3.088  1.00 20.00     0.127 C 
HETATM    8  C6  UNL     1     -32.257   8.391   1.959  1.00 20.00     0.091 C 
HETATM    9  O8  UNL     1     -31.329   7.544   3.994  1.00 20.00    -0.298 OA
ENDBRANCH   3   7
TORSDOF 1
ENDMDL
MODEL 5
REMARK VINA RESULT:      -3.9      1.762      2.102
REMARK  1 active torsions:
REMARK  status: ('A' for Active; 'I' for Inactive)
REMARK    1  A    between atoms: C1_1  and  C4_4 
ROOT
HETATM    1  C2  UNL     1     -34.540  16.344  -4.537  1.00 20.00     0.037 C 
HETATM    2  C3  UNL     1     -35.245  14.866  -3.159  1.00 20.00     0.037 C 
HETATM    3  C4  UNL     1     -35.491  15.130  -4.663  1.00 20.00     0.058 C 
HETATM    4  C5  UNL     1     -33.939  15.703  -3.255  1.00 20.00     0.035 C 
HETATM    5  C7  UNL     1     -33.770  16.694  -2.105  1.00 20.00     0.032 C 
HETATM    6 CL9  UNL     1     -32.427  14.754  -3.499  1.00 20.00    -0.120 Cl
ENDROOT
BRANCH   3   7
HETATM    7  C1  UNL     1     -35.109  14.023  -5.654  1.00 20.00     0.127 C 
HETATM    8  C6  UNL     1     -35.031  14.412  -7.106  1.00 20.00     0.091 C 
HETATM    9  O8  UNL     1     -34.877  12.874  -5.281  1.00 20.00    -0.298 OA
ENDBRANCH   3   7
TORSDOF 1
ENDMDL
MODEL 6
REMARK VINA RESULT:      -3.9      2.251      3.715
REMARK  1 active torsions:
REMARK  status: ('A' for Active; 'I' for Inactive)
REMARK    1  A    between atoms: C1_1  and  C4_4 
ROOT
HETATM    1  C2  UNL     1     -33.212  15.977  -4.482  1.00 20.00     0.037 C 
HETATM    2  C3  UNL     1     -34.524  14.705  -3.369  1.00 20.00     0.037 C 
HETATM    3  C4  UNL     1     -33.450  15.745  -2.971  1.00 20.00     0.058 C 
HETATM    4  C5  UNL     1     -34.617  15.378  -4.766  1.00 20.00     0.035 C 
HETATM    5  C7  UNL     1     -34.627  14.377  -5.920  1.00 20.00     0.032 C 
HETATM    6 CL9  UNL     1     -35.947  16.578  -4.960  1.00 20.00    -0.120 Cl
ENDROOT
BRANCH   3   7
HETATM    7  C1  UNL     1     -33.896  16.945  -2.126  1.00 20.00     0.127 C 
HETATM    8  C6  UNL     1     -34.605  16.636  -0.834  1.00 20.00     0.091 C 
HETATM    9  O8  UNL     1     -33.684  18.102  -2.484  1.00 20.00    -0.298 OA
ENDBRANCH   3   7
TORSDOF 1
ENDMDL
MODEL 7
REMARK VINA RESULT:      -3.9      1.755      2.616
REMARK  1 active torsions:
REMARK  status: ('A' for Active; 'I' for Inactive)
REMARK    1  A    between atoms: C1_1  and  C4_4 
ROOT
HETATM    1  C2  UNL     1     -34.103  15.832  -5.975  1.00 20.00     0.037 C 
HETATM    2  C3  UNL     1     -36.015  14.913  -6.257  1.00 20.00     0.037 C 
HETATM    3  C4  UNL     1     -34.598  14.366  -5.961  1.00 20.00     0.058 C 
HETATM    4  C5  UNL     1     -35.562  16.298  -5.716  1.00 20.00     0.035 C 
HETATM    5  C7  UNL     1     -35.992  17.464  -6.605  1.00 20.00     0.032 C 
HETATM    6 CL9  UNL     1     -35.976  16.629  -3.995  1.00 20.00    -0.120 Cl
ENDROOT
BRANCH   3   7
HETATM    7  C1  UNL     1     -34.401  13.558  -4.672  1.00 20.00     0.127 C 
HETATM    8  C6  UNL     1     -33.285  13.997  -3.763  1.00 20.00     0.091 C 
HETATM    9  O8  UNL     1     -35.120  12.599  -4.394  1.00 20.00    -0.298 OA
ENDBRANCH   3   7
TORSDOF 1
ENDMDL
MODEL 8
REMARK VINA RESULT:      -3.8      2.108      2.889
REMARK  1 active torsions:
REMARK  status: ('A' for Active; 'I' for Inactive)
REMARK    1  A    between atoms: C1_1  and  C4_4 
ROOT
HETATM    1  C2  UNL     1     -36.525  15.087  -5.516  1.00 20.00     0.037 C 
HETATM    2  C3  UNL     1     -34.809  16.186  -4.861  1.00 20.00     0.037 C 
HETATM    3  C4  UNL     1     -35.572  14.962  -4.303  1.00 20.00     0.058 C 
HETATM    4  C5  UNL     1     -35.427  15.899  -6.258  1.00 20.00     0.035 C 
HETATM    5  C7  UNL     1     -35.963  17.150  -6.951  1.00 20.00     0.032 C 
HETATM    6 CL9  UNL     1     -34.388  14.949  -7.382  1.00 20.00    -0.120 Cl
ENDROOT
BRANCH   3   7
HETATM    7  C1  UNL     1     -34.793  13.650  -4.139  1.00 20.00     0.127 C 
HETATM    8  C6  UNL     1     -33.353  13.767  -3.717  1.00 20.00     0.091 C 
HETATM    9  O8  UNL     1     -35.320  12.557  -4.341  1.00 20.00    -0.298 OA
ENDBRANCH   3   7
TORSDOF 1
ENDMDL
MODEL 9
REMARK VINA RESULT:      -3.8      1.909      2.472
REMARK  1 active torsions:
REMARK  status: ('A' for Active; 'I' for Inactive)
REMARK    1  A    between atoms: C1_1  and  C4_4 
ROOT
HETATM    1  C2  UNL     1     -34.799  16.656  -3.953  1.00 20.00     0.037 C 
HETATM    2  C3  UNL     1     -36.283  15.291  -3.235  1.00 20.00     0.037 C 
HETATM    3  C4  UNL     1     -35.061  15.147  -4.174  1.00 20.00     0.058 C 
HETATM    4  C5  UNL     1     -35.647  16.583  -2.653  1.00 20.00     0.035 C 
HETATM    5  C7  UNL     1     -36.640  17.736  -2.513  1.00 20.00     0.032 C 
HETATM    6 CL9  UNL     1     -34.712  16.367  -1.129  1.00 20.00    -0.120 Cl
ENDROOT
BRANCH   3   7
HETATM    7  C1  UNL     1     -33.958  14.162  -3.764  1.00 20.00     0.127 C 
HETATM    8  C6  UNL     1     -32.565  14.719  -3.646  1.00 20.00     0.091 C 
HETATM    9  O8  UNL     1     -34.201  12.977  -3.542  1.00 20.00    -0.298 OA
ENDBRANCH   3   7
TORSDOF 1
ENDMDL
