MODEL 1
REMARK VINA RESULT:      -5.6      0.000      0.000
REMARK  0 active torsions:
REMARK  status: ('A' for Active; 'I' for Inactive)
ROOT
HETATM    1  C1  UNL     1     -31.862   8.342   1.577  1.00 20.00     0.012 C 
HETATM    2  C2  UNL     1     -32.279   7.550   2.377  1.00 20.00    -0.112 C 
HETATM    3  C3  UNL     1     -34.579   4.856   3.754  1.00 20.00    -0.015 C 
HETATM    4  C4  UNL     1     -34.583   5.087   5.075  1.00 20.00    -0.020 C 
HETATM    5  C5  UNL     1     -33.903   6.314   5.594  1.00 20.00     0.156 C 
HETATM    6  C6  UNL     1     -33.883   5.707   2.734  1.00 20.00     0.045 C 
HETATM    7  C7  UNL     1     -33.324   7.296   4.597  1.00 20.00     0.101 C 
HETATM    8  C8  UNL     1     -32.791   6.580   3.358  1.00 20.00     0.075 C 
HETATM    9  C9  UNL     1     -35.262   4.195   6.065  1.00 20.00     0.052 C 
HETATM   10  O10 UNL     1     -33.871   6.547   6.801  1.00 20.00    -0.293 OA
ENDROOT
TORSDOF 0
ENDMDL
MODEL 2
REMARK VINA RESULT:      -5.1     11.442     12.834
REMARK  0 active torsions:
REMARK  status: ('A' for Active; 'I' for Inactive)
ROOT
HETATM    1  C1  UNL     1     -34.546  16.804  -0.649  1.00 20.00     0.012 C 
HETATM    2  C2  UNL     1     -34.398  16.365  -1.757  1.00 20.00    -0.112 C 
HETATM    3  C3  UNL     1     -34.784  16.211  -5.534  1.00 20.00    -0.015 C 
HETATM    4  C4  UNL     1     -34.764  14.896  -5.802  1.00 20.00    -0.020 C 
HETATM    5  C5  UNL     1     -34.775  13.929  -4.662  1.00 20.00     0.156 C 
HETATM    6  C6  UNL     1     -34.752  16.809  -4.160  1.00 20.00     0.045 C 
HETATM    7  C7  UNL     1     -34.907  14.472  -3.254  1.00 20.00     0.101 C 
HETATM    8  C8  UNL     1     -34.217  15.827  -3.115  1.00 20.00     0.075 C 
HETATM    9  C9  UNL     1     -34.765  14.338  -7.189  1.00 20.00     0.052 C 
HETATM   10  O10 UNL     1     -34.738  12.717  -4.870  1.00 20.00    -0.293 OA
ENDROOT
TORSDOF 0
ENDMDL
MODEL 3
REMARK VINA RESULT:      -4.8     11.757     12.203
REMARK  0 active torsions:
REMARK  status: ('A' for Active; 'I' for Inactive)
ROOT
HETATM    1  C1  UNL     1     -34.249  17.973  -0.308  1.00 20.00     0.012 C 
HETATM    2  C2  UNL     1     -34.347  17.036  -1.052  1.00 20.00    -0.112 C 
HETATM    3  C3  UNL     1     -33.579  14.902  -4.102  1.00 20.00    -0.015 C 
HETATM    4  C4  UNL     1     -34.749  14.306  -4.375  1.00 20.00    -0.020 C 
HETATM    5  C5  UNL     1     -35.965  14.721  -3.609  1.00 20.00     0.156 C 
HETATM    6  C6  UNL     1     -33.366  15.927  -3.028  1.00 20.00     0.045 C 
HETATM    7  C7  UNL     1     -35.844  15.867  -2.626  1.00 20.00     0.101 C 
HETATM    8  C8  UNL     1     -34.468  15.888  -1.966  1.00 20.00     0.075 C 
HETATM    9  C9  UNL     1     -34.915  13.263  -5.434  1.00 20.00     0.052 C 
HETATM   10  O10 UNL     1     -37.050  14.183  -3.820  1.00 20.00    -0.293 OA
ENDROOT
TORSDOF 0
ENDMDL
MODEL 4
REMARK VINA RESULT:      -4.5      1.514      2.193
REMARK  0 active torsions:
REMARK  status: ('A' for Active; 'I' for Inactive)
ROOT
HETATM    1  C1  UNL     1     -31.857   7.852   2.151  1.00 20.00     0.012 C 
HETATM    2  C2  UNL     1     -32.637   7.366   2.924  1.00 20.00    -0.112 C 
HETATM    3  C3  UNL     1     -33.974   6.254   6.303  1.00 20.00    -0.015 C 
HETATM    4  C4  UNL     1     -34.712   5.173   6.012  1.00 20.00    -0.020 C 
HETATM    5  C5  UNL     1     -34.682   4.634   4.618  1.00 20.00     0.156 C 
HETATM    6  C6  UNL     1     -33.150   7.024   5.315  1.00 20.00     0.045 C 
HETATM    7  C7  UNL     1     -33.741   5.272   3.616  1.00 20.00     0.101 C 
HETATM    8  C8  UNL     1     -33.592   6.769   3.872  1.00 20.00     0.075 C 
HETATM    9  C9  UNL     1     -35.547   4.450   7.020  1.00 20.00     0.052 C 
HETATM   10  O10 UNL     1     -35.361   3.656   4.311  1.00 20.00    -0.293 OA
ENDROOT
TORSDOF 0
ENDMDL
MODEL 5
REMARK VINA RESULT:      -4.5     12.112     13.466
REMARK  0 active torsions:
REMARK  status: ('A' for Active; 'I' for Inactive)
ROOT
HETATM    1  C1  UNL     1     -34.426  17.010  -0.423  1.00 20.00     0.012 C 
HETATM    2  C2  UNL     1     -34.591  16.703  -1.572  1.00 20.00    -0.112 C 
HETATM    3  C3  UNL     1     -34.467  14.470  -4.645  1.00 20.00    -0.015 C 
HETATM    4  C4  UNL     1     -34.317  15.335  -5.660  1.00 20.00    -0.020 C 
HETATM    5  C5  UNL     1     -34.084  16.778  -5.348  1.00 20.00     0.156 C 
HETATM    6  C6  UNL     1     -34.483  14.843  -3.193  1.00 20.00     0.045 C 
HETATM    7  C7  UNL     1     -33.927  17.188  -3.898  1.00 20.00     0.101 C 
HETATM    8  C8  UNL     1     -34.792  16.327  -2.981  1.00 20.00     0.075 C 
HETATM    9  C9  UNL     1     -34.339  14.928  -7.099  1.00 20.00     0.052 C 
HETATM   10  O10 UNL     1     -33.961  17.601  -6.253  1.00 20.00    -0.293 OA
ENDROOT
TORSDOF 0
ENDMDL
MODEL 6
REMARK VINA RESULT:      -4.4      9.779     10.898
REMARK  0 active torsions:
REMARK  status: ('A' for Active; 'I' for Inactive)
ROOT
HETATM    1  C1  UNL     1     -41.548   1.438  -3.783  1.00 20.00     0.012 C 
HETATM    2  C2  UNL     1     -41.810   2.418  -3.140  1.00 20.00    -0.112 C 
HETATM    3  C3  UNL     1     -43.058   5.951  -2.506  1.00 20.00    -0.015 C 
HETATM    4  C4  UNL     1     -42.301   6.376  -1.483  1.00 20.00    -0.020 C 
HETATM    5  C5  UNL     1     -41.167   5.518  -1.021  1.00 20.00     0.156 C 
HETATM    6  C6  UNL     1     -42.901   4.632  -3.201  1.00 20.00     0.045 C 
HETATM    7  C7  UNL     1     -40.859   4.250  -1.791  1.00 20.00     0.101 C 
HETATM    8  C8  UNL     1     -42.130   3.619  -2.351  1.00 20.00     0.075 C 
HETATM    9  C9  UNL     1     -42.510   7.687  -0.793  1.00 20.00     0.052 C 
HETATM   10  O10 UNL     1     -40.465   5.867  -0.074  1.00 20.00    -0.293 OA
ENDROOT
TORSDOF 0
ENDMDL
MODEL 7
REMARK VINA RESULT:      -4.4     11.889     13.106
REMARK  0 active torsions:
REMARK  status: ('A' for Active; 'I' for Inactive)
ROOT
HETATM    1  C1  UNL     1     -34.625  14.922  -7.568  1.00 20.00     0.012 C 
HETATM    2  C2  UNL     1     -34.400  15.194  -6.420  1.00 20.00    -0.112 C 
HETATM    3  C3  UNL     1     -34.948  15.202  -2.660  1.00 20.00    -0.015 C 
HETATM    4  C4  UNL     1     -34.472  16.395  -2.273  1.00 20.00    -0.020 C 
HETATM    5  C5  UNL     1     -34.057  17.379  -3.319  1.00 20.00     0.156 C 
HETATM    6  C6  UNL     1     -35.045  14.736  -4.082  1.00 20.00     0.045 C 
HETATM    7  C7  UNL     1     -34.285  17.027  -4.775  1.00 20.00     0.101 C 
HETATM    8  C8  UNL     1     -34.125  15.528  -5.013  1.00 20.00     0.075 C 
HETATM    9  C9  UNL     1     -34.360  16.812  -0.840  1.00 20.00     0.052 C 
HETATM   10  O10 UNL     1     -33.598  18.475  -3.000  1.00 20.00    -0.293 OA
ENDROOT
TORSDOF 0
ENDMDL
MODEL 8
REMARK VINA RESULT:      -4.3     11.702     12.950
REMARK  0 active torsions:
REMARK  status: ('A' for Active; 'I' for Inactive)
ROOT
HETATM    1  C1  UNL     1     -34.212  18.179   0.685  1.00 20.00     0.012 C 
HETATM    2  C2  UNL     1     -34.014  17.654  -0.376  1.00 20.00    -0.112 C 
HETATM    3  C3  UNL     1     -33.798  17.399  -4.162  1.00 20.00    -0.015 C 
HETATM    4  C4  UNL     1     -34.109  16.119  -4.412  1.00 20.00    -0.020 C 
HETATM    5  C5  UNL     1     -34.582  15.259  -3.284  1.00 20.00     0.156 C 
HETATM    6  C6  UNL     1     -33.824  18.042  -2.807  1.00 20.00     0.045 C 
HETATM    7  C7  UNL     1     -34.786  15.897  -1.925  1.00 20.00     0.101 C 
HETATM    8  C8  UNL     1     -33.772  17.010  -1.678  1.00 20.00     0.075 C 
HETATM    9  C9  UNL     1     -34.039  15.505  -5.774  1.00 20.00     0.052 C 
HETATM   10  O10 UNL     1     -34.858  14.076  -3.473  1.00 20.00    -0.293 OA
ENDROOT
TORSDOF 0
ENDMDL
MODEL 9
REMARK VINA RESULT:      -4.2     12.211     12.820
REMARK  0 active torsions:
REMARK  status: ('A' for Active; 'I' for Inactive)
ROOT
HETATM    1  C1  UNL     1     -35.018  15.819  -3.814  1.00 20.00     0.012 C 
HETATM    2  C2  UNL     1     -34.588  16.235  -2.773  1.00 20.00    -0.112 C 
HETATM    3  C3  UNL     1     -34.733  17.684   0.738  1.00 20.00    -0.015 C 
HETATM    4  C4  UNL     1     -33.615  18.421   0.823  1.00 20.00    -0.020 C 
HETATM    5  C5  UNL     1     -32.781  18.609  -0.404  1.00 20.00     0.156 C 
HETATM    6  C6  UNL     1     -35.196  16.965  -0.494  1.00 20.00     0.045 C 
HETATM    7  C7  UNL     1     -33.285  18.043  -1.715  1.00 20.00     0.101 C 
HETATM    8  C8  UNL     1     -34.061  16.746  -1.497  1.00 20.00     0.075 C 
HETATM    9  C9  UNL     1     -33.168  19.097   2.080  1.00 20.00     0.052 C 
HETATM   10  O10 UNL     1     -31.740  19.263  -0.358  1.00 20.00    -0.293 OA
ENDROOT
TORSDOF 0
ENDMDL
