MODEL 1
REMARK VINA RESULT:      -5.3      0.000      0.000
REMARK  0 active torsions:
REMARK  status: ('A' for Active; 'I' for Inactive)
ROOT
HETATM    1  C1  UNL     1     -34.422  17.121  -0.418  1.00 20.00     0.013 C 
HETATM    2  C2  UNL     1     -34.510  16.680  -1.531  1.00 20.00    -0.104 C 
HETATM    3  C3  UNL     1     -33.497  14.045  -3.768  1.00 20.00     0.048 C 
HETATM    4  C4  UNL     1     -33.434  15.230  -3.150  1.00 20.00    -0.001 C 
HETATM    5  C5  UNL     1     -34.780  13.555  -4.325  1.00 20.00     0.149 C 
HETATM    6  C6  UNL     1     -35.990  14.459  -4.253  1.00 20.00     0.085 C 
HETATM    7  C7  UNL     1     -35.940  15.349  -3.017  1.00 20.00     0.034 C 
HETATM    8  C8  UNL     1     -34.618  16.136  -2.903  1.00 20.00     0.037 C 
HETATM    9  C9  UNL     1     -34.578  17.303  -3.902  1.00 20.00     0.034 C 
HETATM   10  O10 UNL     1     -34.824  12.461  -4.883  1.00 20.00    -0.293 OA
ENDROOT
TORSDOF 0
ENDMDL
MODEL 2
REMARK VINA RESULT:      -4.9      1.661      2.320
REMARK  0 active torsions:
REMARK  status: ('A' for Active; 'I' for Inactive)
ROOT
HETATM    1  C1  UNL     1     -34.664  16.358  -1.339  1.00 20.00     0.013 C 
HETATM    2  C2  UNL     1     -34.317  15.865  -2.377  1.00 20.00    -0.104 C 
HETATM    3  C3  UNL     1     -35.231  13.636  -5.056  1.00 20.00     0.048 C 
HETATM    4  C4  UNL     1     -34.703  14.002  -3.882  1.00 20.00    -0.001 C 
HETATM    5  C5  UNL     1     -34.991  14.447  -6.273  1.00 20.00     0.149 C 
HETATM    6  C6  UNL     1     -34.070  15.642  -6.174  1.00 20.00     0.085 C 
HETATM    7  C7  UNL     1     -34.136  16.275  -4.790  1.00 20.00     0.034 C 
HETATM    8  C8  UNL     1     -33.891  15.257  -3.657  1.00 20.00     0.037 C 
HETATM    9  C9  UNL     1     -32.403  14.885  -3.556  1.00 20.00     0.034 C 
HETATM   10  O10 UNL     1     -35.489  14.103  -7.343  1.00 20.00    -0.293 OA
ENDROOT
TORSDOF 0
ENDMDL
MODEL 3
REMARK VINA RESULT:      -4.8      0.723      2.297
REMARK  0 active torsions:
REMARK  status: ('A' for Active; 'I' for Inactive)
ROOT
HETATM    1  C1  UNL     1     -34.849  18.985  -3.591  1.00 20.00     0.013 C 
HETATM    2  C2  UNL     1     -34.791  17.831  -3.265  1.00 20.00    -0.104 C 
HETATM    3  C3  UNL     1     -36.093  14.519  -3.820  1.00 20.00     0.048 C 
HETATM    4  C4  UNL     1     -36.009  15.735  -3.266  1.00 20.00    -0.001 C 
HETATM    5  C5  UNL     1     -34.875  13.701  -4.027  1.00 20.00     0.149 C 
HETATM    6  C6  UNL     1     -33.553  14.235  -3.521  1.00 20.00     0.085 C 
HETATM    7  C7  UNL     1     -33.516  15.757  -3.577  1.00 20.00     0.034 C 
HETATM    8  C8  UNL     1     -34.718  16.409  -2.863  1.00 20.00     0.037 C 
HETATM    9  C9  UNL     1     -34.565  16.334  -1.336  1.00 20.00     0.034 C 
HETATM   10  O10 UNL     1     -34.966  12.590  -4.544  1.00 20.00    -0.293 OA
ENDROOT
TORSDOF 0
ENDMDL
MODEL 4
REMARK VINA RESULT:      -4.5     11.598     13.289
REMARK  0 active torsions:
REMARK  status: ('A' for Active; 'I' for Inactive)
ROOT
HETATM    1  C1  UNL     1     -41.328   2.065  -3.700  1.00 20.00     0.013 C 
HETATM    2  C2  UNL     1     -41.697   2.916  -2.938  1.00 20.00    -0.104 C 
HETATM    3  C3  UNL     1     -40.677   5.616  -0.783  1.00 20.00     0.048 C 
HETATM    4  C4  UNL     1     -40.984   4.359  -1.124  1.00 20.00    -0.001 C 
HETATM    5  C5  UNL     1     -41.537   6.743  -1.214  1.00 20.00     0.149 C 
HETATM    6  C6  UNL     1     -42.808   6.432  -1.972  1.00 20.00     0.085 C 
HETATM    7  C7  UNL     1     -42.652   5.174  -2.817  1.00 20.00     0.034 C 
HETATM    8  C8  UNL     1     -42.152   3.965  -1.999  1.00 20.00     0.037 C 
HETATM    9  C9  UNL     1     -43.271   3.388  -1.118  1.00 20.00     0.034 C 
HETATM   10  O10 UNL     1     -41.239   7.893  -0.900  1.00 20.00    -0.293 OA
ENDROOT
TORSDOF 0
ENDMDL
MODEL 5
REMARK VINA RESULT:      -4.4      1.662      2.372
REMARK  0 active torsions:
REMARK  status: ('A' for Active; 'I' for Inactive)
ROOT
HETATM    1  C1  UNL     1     -34.533  16.471  -1.164  1.00 20.00     0.013 C 
HETATM    2  C2  UNL     1     -34.948  16.026  -2.199  1.00 20.00    -0.104 C 
HETATM    3  C3  UNL     1     -34.875  16.305  -5.790  1.00 20.00     0.048 C 
HETATM    4  C4  UNL     1     -35.304  16.537  -4.543  1.00 20.00    -0.001 C 
HETATM    5  C5  UNL     1     -34.569  14.925  -6.235  1.00 20.00     0.149 C 
HETATM    6  C6  UNL     1     -34.832  13.783  -5.279  1.00 20.00     0.085 C 
HETATM    7  C7  UNL     1     -34.639  14.220  -3.833  1.00 20.00     0.034 C 
HETATM    8  C8  UNL     1     -35.458  15.478  -3.476  1.00 20.00     0.037 C 
HETATM    9  C9  UNL     1     -36.948  15.142  -3.309  1.00 20.00     0.034 C 
HETATM   10  O10 UNL     1     -34.169  14.728  -7.381  1.00 20.00    -0.293 OA
ENDROOT
TORSDOF 0
ENDMDL
MODEL 6
REMARK VINA RESULT:      -4.4      2.324      3.938
REMARK  0 active torsions:
REMARK  status: ('A' for Active; 'I' for Inactive)
ROOT
HETATM    1  C1  UNL     1     -34.370  15.156  -7.511  1.00 20.00     0.013 C 
HETATM    2  C2  UNL     1     -34.508  14.919  -6.343  1.00 20.00    -0.104 C 
HETATM    3  C3  UNL     1     -33.453  15.750  -3.000  1.00 20.00     0.048 C 
HETATM    4  C4  UNL     1     -33.444  15.102  -4.171  1.00 20.00    -0.001 C 
HETATM    5  C5  UNL     1     -34.729  16.001  -2.290  1.00 20.00     0.149 C 
HETATM    6  C6  UNL     1     -36.004  15.436  -2.875  1.00 20.00     0.085 C 
HETATM    7  C7  UNL     1     -35.932  15.373  -4.395  1.00 20.00     0.034 C 
HETATM    8  C8  UNL     1     -34.679  14.628  -4.902  1.00 20.00     0.037 C 
HETATM    9  C9  UNL     1     -34.823  13.109  -4.718  1.00 20.00     0.034 C 
HETATM   10  O10 UNL     1     -34.722  16.605  -1.219  1.00 20.00    -0.293 OA
ENDROOT
TORSDOF 0
ENDMDL
MODEL 7
REMARK VINA RESULT:      -4.3      2.100      3.657
REMARK  0 active torsions:
REMARK  status: ('A' for Active; 'I' for Inactive)
ROOT
HETATM    1  C1  UNL     1     -34.781  17.396  -7.918  1.00 20.00     0.013 C 
HETATM    2  C2  UNL     1     -34.774  16.880  -6.834  1.00 20.00    -0.104 C 
HETATM    3  C3  UNL     1     -34.678  13.761  -5.033  1.00 20.00     0.048 C 
HETATM    4  C4  UNL     1     -35.230  14.813  -5.651  1.00 20.00    -0.001 C 
HETATM    5  C5  UNL     1     -33.564  13.953  -4.075  1.00 20.00     0.149 C 
HETATM    6  C6  UNL     1     -33.128  15.364  -3.749  1.00 20.00     0.085 C 
HETATM    7  C7  UNL     1     -33.328  16.292  -4.940  1.00 20.00     0.034 C 
HETATM    8  C8  UNL     1     -34.765  16.242  -5.499  1.00 20.00     0.037 C 
HETATM    9  C9  UNL     1     -35.743  16.997  -4.584  1.00 20.00     0.034 C 
HETATM   10  O10 UNL     1     -33.062  12.978  -3.520  1.00 20.00    -0.293 OA
ENDROOT
TORSDOF 0
ENDMDL
MODEL 8
REMARK VINA RESULT:      -4.3     11.231     12.009
REMARK  0 active torsions:
REMARK  status: ('A' for Active; 'I' for Inactive)
ROOT
HETATM    1  C1  UNL     1     -32.530   8.620   1.910  1.00 20.00     0.013 C 
HETATM    2  C2  UNL     1     -32.706   7.638   2.577  1.00 20.00    -0.104 C 
HETATM    3  C3  UNL     1     -33.720   6.377   5.796  1.00 20.00     0.048 C 
HETATM    4  C4  UNL     1     -32.879   6.827   4.856  1.00 20.00    -0.001 C 
HETATM    5  C5  UNL     1     -34.754   5.371   5.460  1.00 20.00     0.149 C 
HETATM    6  C6  UNL     1     -34.781   4.804   4.058  1.00 20.00     0.085 C 
HETATM    7  C7  UNL     1     -34.301   5.830   3.039  1.00 20.00     0.034 C 
HETATM    8  C8  UNL     1     -32.924   6.427   3.399  1.00 20.00     0.037 C 
HETATM    9  C9  UNL     1     -31.793   5.426   3.115  1.00 20.00     0.034 C 
HETATM   10  O10 UNL     1     -35.524   4.973   6.332  1.00 20.00    -0.293 OA
ENDROOT
TORSDOF 0
ENDMDL
MODEL 9
REMARK VINA RESULT:      -4.2      2.545      4.240
REMARK  0 active torsions:
REMARK  status: ('A' for Active; 'I' for Inactive)
ROOT
HETATM    1  C1  UNL     1     -35.047  13.711  -5.528  1.00 20.00     0.013 C 
HETATM    2  C2  UNL     1     -34.447  14.444  -4.791  1.00 20.00    -0.104 C 
HETATM    3  C3  UNL     1     -33.638  17.869  -4.023  1.00 20.00     0.048 C 
HETATM    4  C4  UNL     1     -33.495  16.665  -4.592  1.00 20.00    -0.001 C 
HETATM    5  C5  UNL     1     -33.970  17.986  -2.584  1.00 20.00     0.149 C 
HETATM    6  C6  UNL     1     -34.059  16.721  -1.759  1.00 20.00     0.085 C 
HETATM    7  C7  UNL     1     -34.544  15.548  -2.601  1.00 20.00     0.034 C 
HETATM    8  C8  UNL     1     -33.708  15.348  -3.882  1.00 20.00     0.037 C 
HETATM    9  C9  UNL     1     -32.343  14.720  -3.563  1.00 20.00     0.034 C 
HETATM   10  O10 UNL     1     -34.104  19.097  -2.077  1.00 20.00    -0.293 OA
ENDROOT
TORSDOF 0
ENDMDL
