MODEL 1
REMARK VINA RESULT:      -4.6      0.000      0.000
REMARK  0 active torsions:
REMARK  status: ('A' for Active; 'I' for Inactive)
ROOT
HETATM    1  C1  UNL     1     -33.349  14.829  -3.720  1.00 20.00     0.031 A 
HETATM    2  C2  UNL     1     -33.363  16.956  -4.939  1.00 20.00    -0.014 A 
HETATM    3  C3  UNL     1     -34.931  15.728  -6.983  1.00 20.00    -0.013 A 
HETATM    4  C4  UNL     1     -33.765  13.551  -3.693  1.00 20.00     0.117 A 
HETATM    5  C5  UNL     1     -34.894  13.642  -5.677  1.00 20.00     0.128 A 
HETATM    6  C6  UNL     1     -33.726  15.666  -4.844  1.00 20.00    -0.027 A 
HETATM    7  C7  UNL     1     -34.533  15.068  -5.890  1.00 20.00    -0.012 A 
HETATM    8  C8  UNL     1     -33.756  17.839  -6.092  1.00 20.00     0.032 A 
HETATM    9  C9  UNL     1     -34.565  17.165  -7.218  1.00 20.00     0.032 A 
HETATM   10  N10 UNL     1     -34.538  12.926  -4.652  1.00 20.00    -0.272 NA
ENDROOT
TORSDOF 0
ENDMDL
MODEL 2
REMARK VINA RESULT:      -4.5     12.110     13.510
REMARK  0 active torsions:
REMARK  status: ('A' for Active; 'I' for Inactive)
ROOT
HETATM    1  C1  UNL     1     -41.675   3.255  -2.295  1.00 20.00     0.031 A 
HETATM    2  C2  UNL     1     -40.615   4.851  -0.766  1.00 20.00    -0.014 A 
HETATM    3  C3  UNL     1     -42.254   6.919  -1.854  1.00 20.00    -0.013 A 
HETATM    4  C4  UNL     1     -42.594   3.069  -3.259  1.00 20.00     0.117 A 
HETATM    5  C5  UNL     1     -43.289   5.244  -3.330  1.00 20.00     0.128 A 
HETATM    6  C6  UNL     1     -41.500   4.585  -1.741  1.00 20.00    -0.027 A 
HETATM    7  C7  UNL     1     -42.330   5.651  -2.269  1.00 20.00    -0.012 A 
HETATM    8  C8  UNL     1     -40.430   6.222  -0.174  1.00 20.00     0.032 A 
HETATM    9  C9  UNL     1     -41.284   7.348  -0.791  1.00 20.00     0.032 A 
HETATM   10  N10 UNL     1     -43.417   4.037  -3.798  1.00 20.00    -0.272 NA
ENDROOT
TORSDOF 0
ENDMDL
MODEL 3
REMARK VINA RESULT:      -4.5     11.865     13.993
REMARK  0 active torsions:
REMARK  status: ('A' for Active; 'I' for Inactive)
ROOT
HETATM    1  C1  UNL     1     -33.216   5.919   2.563  1.00 20.00     0.031 A 
HETATM    2  C2  UNL     1     -34.748   4.775   4.097  1.00 20.00    -0.014 A 
HETATM    3  C3  UNL     1     -33.771   6.405   6.226  1.00 20.00    -0.013 A 
HETATM    4  C4  UNL     1     -32.280   6.874   2.421  1.00 20.00     0.117 A 
HETATM    5  C5  UNL     1     -32.289   7.525   4.611  1.00 20.00     0.128 A 
HETATM    6  C6  UNL     1     -33.798   5.698   3.875  1.00 20.00    -0.027 A 
HETATM    7  C7  UNL     1     -33.326   6.523   4.971  1.00 20.00    -0.012 A 
HETATM    8  C8  UNL     1     -35.369   4.541   5.447  1.00 20.00     0.032 A 
HETATM    9  C9  UNL     1     -34.811   5.391   6.607  1.00 20.00     0.032 A 
HETATM   10  N10 UNL     1     -31.795   7.695   3.421  1.00 20.00    -0.272 NA
ENDROOT
TORSDOF 0
ENDMDL
MODEL 4
REMARK VINA RESULT:      -4.5      1.101      2.562
REMARK  0 active torsions:
REMARK  status: ('A' for Active; 'I' for Inactive)
ROOT
HETATM    1  C1  UNL     1     -34.566  14.661  -6.099  1.00 20.00     0.031 A 
HETATM    2  C2  UNL     1     -34.035  16.944  -5.379  1.00 20.00    -0.014 A 
HETATM    3  C3  UNL     1     -33.984  16.035  -2.673  1.00 20.00    -0.013 A 
HETATM    4  C4  UNL     1     -34.777  13.388  -5.720  1.00 20.00     0.117 A 
HETATM    5  C5  UNL     1     -34.486  13.767  -3.486  1.00 20.00     0.128 A 
HETATM    6  C6  UNL     1     -34.271  15.655  -5.082  1.00 20.00    -0.027 A 
HETATM    7  C7  UNL     1     -34.229  15.215  -3.701  1.00 20.00    -0.012 A 
HETATM    8  C8  UNL     1     -33.718  17.983  -4.338  1.00 20.00     0.032 A 
HETATM    9  C9  UNL     1     -33.733  17.503  -2.873  1.00 20.00     0.032 A 
HETATM   10  N10 UNL     1     -34.743  12.906  -4.426  1.00 20.00    -0.272 NA
ENDROOT
TORSDOF 0
ENDMDL
MODEL 5
REMARK VINA RESULT:      -4.4      1.552      3.343
REMARK  0 active torsions:
REMARK  status: ('A' for Active; 'I' for Inactive)
ROOT
HETATM    1  C1  UNL     1     -34.337  16.895  -6.696  1.00 20.00     0.031 A 
HETATM    2  C2  UNL     1     -33.201  16.140  -4.659  1.00 20.00    -0.014 A 
HETATM    3  C3  UNL     1     -34.404  13.572  -4.988  1.00 20.00    -0.013 A 
HETATM    4  C4  UNL     1     -35.152  16.561  -7.713  1.00 20.00     0.117 A 
HETATM    5  C5  UNL     1     -35.478  14.403  -7.041  1.00 20.00     0.128 A 
HETATM    6  C6  UNL     1     -34.017  15.891  -5.697  1.00 20.00    -0.027 A 
HETATM    7  C7  UNL     1     -34.607  14.575  -5.849  1.00 20.00    -0.012 A 
HETATM    8  C8  UNL     1     -32.851  15.108  -3.622  1.00 20.00     0.032 A 
HETATM    9  C9  UNL     1     -33.535  13.734  -3.774  1.00 20.00     0.032 A 
HETATM   10  N10 UNL     1     -35.737  15.328  -7.917  1.00 20.00    -0.272 NA
ENDROOT
TORSDOF 0
ENDMDL
MODEL 6
REMARK VINA RESULT:      -4.4      2.559      3.453
REMARK  0 active torsions:
REMARK  status: ('A' for Active; 'I' for Inactive)
ROOT
HETATM    1  C1  UNL     1     -35.997  14.106  -4.213  1.00 20.00     0.031 A 
HETATM    2  C2  UNL     1     -36.486  16.230  -3.090  1.00 20.00    -0.014 A 
HETATM    3  C3  UNL     1     -33.744  16.405  -2.316  1.00 20.00    -0.013 A 
HETATM    4  C4  UNL     1     -35.057  13.199  -4.534  1.00 20.00     0.117 A 
HETATM    5  C5  UNL     1     -33.335  14.285  -3.497  1.00 20.00     0.128 A 
HETATM    6  C6  UNL     1     -35.611  15.272  -3.439  1.00 20.00    -0.027 A 
HETATM    7  C7  UNL     1     -34.220  15.389  -3.044  1.00 20.00    -0.012 A 
HETATM    8  C8  UNL     1     -36.099  17.448  -2.298  1.00 20.00     0.032 A 
HETATM    9  C9  UNL     1     -34.627  17.523  -1.842  1.00 20.00     0.032 A 
HETATM   10  N10 UNL     1     -33.720  13.257  -4.195  1.00 20.00    -0.272 NA
ENDROOT
TORSDOF 0
ENDMDL
MODEL 7
REMARK VINA RESULT:      -4.4      2.589      2.860
REMARK  0 active torsions:
REMARK  status: ('A' for Active; 'I' for Inactive)
ROOT
HETATM    1  C1  UNL     1     -33.220  14.282  -3.529  1.00 20.00     0.031 A 
HETATM    2  C2  UNL     1     -33.779  16.410  -2.448  1.00 20.00    -0.014 A 
HETATM    3  C3  UNL     1     -36.515  16.003  -3.153  1.00 20.00    -0.013 A 
HETATM    4  C4  UNL     1     -33.683  13.205  -4.187  1.00 20.00     0.117 A 
HETATM    5  C5  UNL     1     -35.871  13.864  -4.185  1.00 20.00     0.128 A 
HETATM    6  C6  UNL     1     -34.159  15.312  -3.121  1.00 20.00    -0.027 A 
HETATM    7  C7  UNL     1     -35.557  15.122  -3.458  1.00 20.00    -0.012 A 
HETATM    8  C8  UNL     1     -34.741  17.480  -2.009  1.00 20.00     0.032 A 
HETATM    9  C9  UNL     1     -36.212  17.283  -2.427  1.00 20.00     0.032 A 
HETATM   10  N10 UNL     1     -34.999  12.963  -4.530  1.00 20.00    -0.272 NA
ENDROOT
TORSDOF 0
ENDMDL
MODEL 8
REMARK VINA RESULT:      -4.4      1.284      2.395
REMARK  0 active torsions:
REMARK  status: ('A' for Active; 'I' for Inactive)
ROOT
HETATM    1  C1  UNL     1     -34.301  13.514  -4.791  1.00 20.00     0.031 A 
HETATM    2  C2  UNL     1     -35.376  14.292  -6.853  1.00 20.00    -0.014 A 
HETATM    3  C3  UNL     1     -34.177  16.853  -6.464  1.00 20.00    -0.013 A 
HETATM    4  C4  UNL     1     -33.488  13.825  -3.766  1.00 20.00     0.117 A 
HETATM    5  C5  UNL     1     -33.109  15.979  -4.425  1.00 20.00     0.128 A 
HETATM    6  C6  UNL     1     -34.587  14.527  -5.791  1.00 20.00    -0.027 A 
HETATM    7  C7  UNL     1     -33.979  15.833  -5.622  1.00 20.00    -0.012 A 
HETATM    8  C8  UNL     1     -35.673  15.327  -7.902  1.00 20.00     0.032 A 
HETATM    9  C9  UNL     1     -35.061  16.724  -7.670  1.00 20.00     0.032 A 
HETATM   10  N10 UNL     1     -32.875  15.044  -3.553  1.00 20.00    -0.272 NA
ENDROOT
TORSDOF 0
ENDMDL
MODEL 9
REMARK VINA RESULT:      -4.4      2.227      3.516
REMARK  0 active torsions:
REMARK  status: ('A' for Active; 'I' for Inactive)
ROOT
HETATM    1  C1  UNL     1     -34.092  16.185  -2.158  1.00 20.00     0.031 A 
HETATM    2  C2  UNL     1     -34.503  14.142  -3.450  1.00 20.00    -0.014 A 
HETATM    3  C3  UNL     1     -34.304  15.670  -5.853  1.00 20.00    -0.013 A 
HETATM    4  C4  UNL     1     -33.838  17.505  -2.201  1.00 20.00     0.117 A 
HETATM    5  C5  UNL     1     -33.864  17.665  -4.480  1.00 20.00     0.128 A 
HETATM    6  C6  UNL     1     -34.261  15.463  -3.406  1.00 20.00    -0.027 A 
HETATM    7  C7  UNL     1     -34.153  16.216  -4.641  1.00 20.00    -0.012 A 
HETATM    8  C8  UNL     1     -34.670  13.379  -4.735  1.00 20.00     0.032 A 
HETATM    9  C9  UNL     1     -34.606  14.210  -6.032  1.00 20.00     0.032 A 
HETATM   10  N10 UNL     1     -33.716  18.275  -3.341  1.00 20.00    -0.272 NA
ENDROOT
TORSDOF 0
ENDMDL
