MODEL 1
REMARK VINA RESULT:      -5.0      0.000      0.000
REMARK  1 active torsions:
REMARK  status: ('A' for Active; 'I' for Inactive)
REMARK    1  A    between atoms: C3_3  and  C8_8 
ROOT
HETATM    1  C1  UNL     1     -34.064  15.849  -2.631  1.00 20.00    -0.079 C 
HETATM    2  C2  UNL     1     -33.854  16.714  -1.635  1.00 20.00    -0.028 C 
HETATM    3  C4  UNL     1     -35.358  15.134  -2.931  1.00 20.00     0.039 C 
HETATM    4  C5  UNL     1     -33.390  16.022  -4.991  1.00 20.00     0.023 C 
HETATM    5  C6  UNL     1     -33.522  13.933  -3.846  1.00 20.00     0.014 C 
HETATM    6  C7  UNL     1     -33.044  15.372  -3.640  1.00 20.00     0.015 C 
HETATM    7  C8  UNL     1     -34.685  15.291  -5.402  1.00 20.00     0.077 C 
HETATM    8  C9  UNL     1     -34.954  14.352  -4.202  1.00 20.00     0.003 C 
HETATM    9  C10 UNL     1     -34.902  17.139  -0.660  1.00 20.00     0.036 C 
ENDROOT
BRANCH   7  10
HETATM   10  C3  UNL     1     -35.818  16.219  -5.706  1.00 20.00     0.223 C 
HETATM   11  O11 UNL     1     -36.887  15.808  -6.149  1.00 20.00    -0.279 OA
HETATM   12 CL12 UNL     1     -35.421  17.874  -5.357  1.00 20.00    -0.043 Cl
ENDBRANCH   7  10
TORSDOF 1
ENDMDL
MODEL 2
REMARK VINA RESULT:      -5.0      1.908      2.418
REMARK  1 active torsions:
REMARK  status: ('A' for Active; 'I' for Inactive)
REMARK    1  A    between atoms: C3_3  and  C8_8 
ROOT
HETATM    1  C1  UNL     1     -34.391  16.820  -2.885  1.00 20.00    -0.079 C 
HETATM    2  C2  UNL     1     -34.830  17.473  -1.806  1.00 20.00    -0.028 C 
HETATM    3  C4  UNL     1     -33.616  15.526  -2.889  1.00 20.00     0.039 C 
HETATM    4  C5  UNL     1     -35.579  16.336  -4.985  1.00 20.00     0.023 C 
HETATM    5  C6  UNL     1     -33.226  16.725  -4.904  1.00 20.00     0.014 C 
HETATM    6  C7  UNL     1     -34.538  17.258  -4.325  1.00 20.00     0.015 C 
HETATM    7  C8  UNL     1     -34.831  14.990  -5.084  1.00 20.00     0.077 C 
HETATM    8  C9  UNL     1     -33.472  15.293  -4.410  1.00 20.00     0.003 C 
HETATM    9  C10 UNL     1     -34.644  16.994  -0.405  1.00 20.00     0.036 C 
ENDROOT
BRANCH   7  10
HETATM   10  C3  UNL     1     -35.573  13.853  -4.456  1.00 20.00     0.223 C 
HETATM   11  O11 UNL     1     -35.096  12.723  -4.402  1.00 20.00    -0.279 OA
HETATM   12 CL12 UNL     1     -37.126  14.341  -3.847  1.00 20.00    -0.043 Cl
ENDBRANCH   7  10
TORSDOF 1
ENDMDL
MODEL 3
REMARK VINA RESULT:      -5.0      2.085      2.932
REMARK  1 active torsions:
REMARK  status: ('A' for Active; 'I' for Inactive)
REMARK    1  A    between atoms: C3_3  and  C8_8 
ROOT
HETATM    1  C1  UNL     1     -35.347  17.108  -3.889  1.00 20.00    -0.079 C 
HETATM    2  C2  UNL     1     -36.033  18.045  -4.549  1.00 20.00    -0.028 C 
HETATM    3  C4  UNL     1     -35.922  15.869  -3.250  1.00 20.00     0.039 C 
HETATM    4  C5  UNL     1     -33.219  16.035  -4.503  1.00 20.00     0.023 C 
HETATM    5  C6  UNL     1     -33.847  16.432  -2.236  1.00 20.00     0.014 C 
HETATM    6  C7  UNL     1     -33.862  17.109  -3.607  1.00 20.00     0.015 C 
HETATM    7  C8  UNL     1     -33.714  14.719  -3.869  1.00 20.00     0.077 C 
HETATM    8  C9  UNL     1     -34.631  15.204  -2.721  1.00 20.00     0.003 C 
HETATM    9  C10 UNL     1     -37.506  17.994  -4.786  1.00 20.00     0.036 C 
ENDROOT
BRANCH   7  10
HETATM   10  C3  UNL     1     -34.398  13.812  -4.842  1.00 20.00     0.223 C 
HETATM   11  O11 UNL     1     -34.790  12.695  -4.518  1.00 20.00    -0.279 OA
HETATM   12 CL12 UNL     1     -34.548  14.535  -6.415  1.00 20.00    -0.043 Cl
ENDBRANCH   7  10
TORSDOF 1
ENDMDL
MODEL 4
REMARK VINA RESULT:      -4.8      1.923      3.056
REMARK  1 active torsions:
REMARK  status: ('A' for Active; 'I' for Inactive)
REMARK    1  A    between atoms: C3_3  and  C8_8 
ROOT
HETATM    1  C1  UNL     1     -33.964  16.989  -4.273  1.00 20.00    -0.079 C 
HETATM    2  C2  UNL     1     -33.381  17.591  -5.314  1.00 20.00    -0.028 C 
HETATM    3  C4  UNL     1     -35.391  17.174  -3.823  1.00 20.00     0.039 C 
HETATM    4  C5  UNL     1     -33.859  14.623  -3.602  1.00 20.00     0.023 C 
HETATM    5  C6  UNL     1     -34.053  16.397  -2.019  1.00 20.00     0.014 C 
HETATM    6  C7  UNL     1     -33.310  16.030  -3.305  1.00 20.00     0.015 C 
HETATM    7  C8  UNL     1     -35.316  14.712  -3.105  1.00 20.00     0.077 C 
HETATM    8  C9  UNL     1     -35.440  16.182  -2.638  1.00 20.00     0.003 C 
HETATM    9  C10 UNL     1     -34.080  18.539  -6.231  1.00 20.00     0.036 C 
ENDROOT
BRANCH   7  10
HETATM   10  C3  UNL     1     -36.321  14.324  -4.144  1.00 20.00     0.223 C 
HETATM   11  O11 UNL     1     -37.502  14.144  -3.863  1.00 20.00    -0.279 OA
HETATM   12 CL12 UNL     1     -35.608  14.176  -5.721  1.00 20.00    -0.043 Cl
ENDBRANCH   7  10
TORSDOF 1
ENDMDL
MODEL 5
REMARK VINA RESULT:      -4.7      1.575      1.725
REMARK  1 active torsions:
REMARK  status: ('A' for Active; 'I' for Inactive)
REMARK    1  A    between atoms: C3_3  and  C8_8 
ROOT
HETATM    1  C1  UNL     1     -33.870  16.813  -3.258  1.00 20.00    -0.079 C 
HETATM    2  C2  UNL     1     -33.756  18.127  -3.047  1.00 20.00    -0.028 C 
HETATM    3  C4  UNL     1     -34.590  15.828  -2.371  1.00 20.00     0.039 C 
HETATM    4  C5  UNL     1     -34.419  15.627  -5.343  1.00 20.00     0.023 C 
HETATM    5  C6  UNL     1     -32.962  14.708  -3.692  1.00 20.00     0.014 C 
HETATM    6  C7  UNL     1     -33.270  16.028  -4.402  1.00 20.00     0.015 C 
HETATM    7  C8  UNL     1     -35.177  14.561  -4.524  1.00 20.00     0.077 C 
HETATM    8  C9  UNL     1     -34.400  14.529  -3.186  1.00 20.00     0.003 C 
HETATM    9  C10 UNL     1     -34.365  18.845  -1.889  1.00 20.00     0.036 C 
ENDROOT
BRANCH   7  10
HETATM   10  C3  UNL     1     -36.634  14.862  -4.365  1.00 20.00     0.223 C 
HETATM   11  O11 UNL     1     -37.397  14.077  -3.810  1.00 20.00    -0.279 OA
HETATM   12 CL12 UNL     1     -37.062  16.402  -5.046  1.00 20.00    -0.043 Cl
ENDBRANCH   7  10
TORSDOF 1
ENDMDL
MODEL 6
REMARK VINA RESULT:      -4.7      1.976      3.714
REMARK  1 active torsions:
REMARK  status: ('A' for Active; 'I' for Inactive)
REMARK    1  A    between atoms: C3_3  and  C8_8 
ROOT
HETATM    1  C1  UNL     1     -34.503  15.329  -5.568  1.00 20.00    -0.079 C 
HETATM    2  C2  UNL     1     -34.926  15.772  -6.755  1.00 20.00    -0.028 C 
HETATM    3  C4  UNL     1     -33.438  15.964  -4.709  1.00 20.00     0.039 C 
HETATM    4  C5  UNL     1     -35.832  14.527  -3.658  1.00 20.00     0.023 C 
HETATM    5  C6  UNL     1     -33.668  13.661  -4.168  1.00 20.00     0.014 C 
HETATM    6  C7  UNL     1     -34.969  14.082  -4.853  1.00 20.00     0.015 C 
HETATM    7  C8  UNL     1     -34.794  15.137  -2.694  1.00 20.00     0.077 C 
HETATM    8  C9  UNL     1     -33.469  15.021  -3.485  1.00 20.00     0.003 C 
HETATM    9  C10 UNL     1     -34.418  17.009  -7.417  1.00 20.00     0.036 C 
ENDROOT
BRANCH   7  10
HETATM   10  C3  UNL     1     -35.124  16.535  -2.277  1.00 20.00     0.223 C 
HETATM   11  O11 UNL     1     -36.063  17.151  -2.773  1.00 20.00    -0.279 OA
HETATM   12 CL12 UNL     1     -34.042  17.126  -1.053  1.00 20.00    -0.043 Cl
ENDBRANCH   7  10
TORSDOF 1
ENDMDL
MODEL 7
REMARK VINA RESULT:      -4.7      1.891      3.774
REMARK  1 active torsions:
REMARK  status: ('A' for Active; 'I' for Inactive)
REMARK    1  A    between atoms: C3_3  and  C8_8 
ROOT
HETATM    1  C1  UNL     1     -34.577  14.590  -5.499  1.00 20.00    -0.079 C 
HETATM    2  C2  UNL     1     -35.270  14.380  -6.622  1.00 20.00    -0.028 C 
HETATM    3  C4  UNL     1     -33.447  15.572  -5.320  1.00 20.00     0.039 C 
HETATM    4  C5  UNL     1     -35.411  14.839  -3.196  1.00 20.00     0.023 C 
HETATM    5  C6  UNL     1     -33.300  13.843  -3.695  1.00 20.00     0.014 C 
HETATM    6  C7  UNL     1     -34.749  13.862  -4.185  1.00 20.00     0.015 C 
HETATM    7  C8  UNL     1     -34.283  15.853  -2.911  1.00 20.00     0.077 C 
HETATM    8  C9  UNL     1     -33.132  15.363  -3.821  1.00 20.00     0.003 C 
HETATM    9  C10 UNL     1     -35.045  15.126  -7.895  1.00 20.00     0.036 C 
ENDROOT
BRANCH   7  10
HETATM   10  C3  UNL     1     -34.686  17.272  -3.161  1.00 20.00     0.223 C 
HETATM   11  O11 UNL     1     -33.940  18.210  -2.893  1.00 20.00    -0.279 OA
HETATM   12 CL12 UNL     1     -36.277  17.389  -3.849  1.00 20.00    -0.043 Cl
ENDBRANCH   7  10
TORSDOF 1
ENDMDL
MODEL 8
REMARK VINA RESULT:      -4.6      2.255      3.348
REMARK  1 active torsions:
REMARK  status: ('A' for Active; 'I' for Inactive)
REMARK    1  A    between atoms: C3_3  and  C8_8 
ROOT
HETATM    1  C1  UNL     1     -36.463  14.656  -4.385  1.00 20.00    -0.079 C 
HETATM    2  C2  UNL     1     -37.642  14.732  -3.763  1.00 20.00    -0.028 C 
HETATM    3  C4  UNL     1     -35.929  15.632  -5.403  1.00 20.00     0.039 C 
HETATM    4  C5  UNL     1     -34.250  14.140  -3.439  1.00 20.00     0.023 C 
HETATM    5  C6  UNL     1     -34.873  13.517  -5.657  1.00 20.00     0.014 C 
HETATM    6  C7  UNL     1     -35.433  13.559  -4.234  1.00 20.00     0.015 C 
HETATM    7  C8  UNL     1     -33.605  15.114  -4.447  1.00 20.00     0.077 C 
HETATM    8  C9  UNL     1     -34.538  15.015  -5.677  1.00 20.00     0.003 C 
HETATM    9  C10 UNL     1     -38.624  15.839  -3.962  1.00 20.00     0.036 C 
ENDROOT
BRANCH   7  10
HETATM   10  C3  UNL     1     -33.457  16.504  -3.914  1.00 20.00     0.223 C 
HETATM   11  O11 UNL     1     -33.095  17.433  -4.631  1.00 20.00    -0.279 OA
HETATM   12 CL12 UNL     1     -33.852  16.604  -2.225  1.00 20.00    -0.043 Cl
ENDBRANCH   7  10
TORSDOF 1
ENDMDL
MODEL 9
REMARK VINA RESULT:      -4.6      2.739      3.888
REMARK  1 active torsions:
REMARK  status: ('A' for Active; 'I' for Inactive)
REMARK    1  A    between atoms: C3_3  and  C8_8 
ROOT
HETATM    1  C1  UNL     1     -35.117  16.647  -6.034  1.00 20.00    -0.079 C 
HETATM    2  C2  UNL     1     -35.007  17.970  -5.886  1.00 20.00    -0.028 C 
HETATM    3  C4  UNL     1     -33.989  15.686  -6.313  1.00 20.00     0.039 C 
HETATM    4  C5  UNL     1     -36.400  15.045  -4.677  1.00 20.00     0.023 C 
HETATM    5  C6  UNL     1     -36.059  14.755  -7.020  1.00 20.00     0.014 C 
HETATM    6  C7  UNL     1     -36.394  15.839  -5.995  1.00 20.00     0.015 C 
HETATM    7  C8  UNL     1     -35.302  13.987  -4.909  1.00 20.00     0.077 C 
HETATM    8  C9  UNL     1     -34.759  14.346  -6.313  1.00 20.00     0.003 C 
HETATM    9  C10 UNL     1     -33.714  18.714  -5.946  1.00 20.00     0.036 C 
ENDROOT
BRANCH   7  10
HETATM   10  C3  UNL     1     -34.252  13.978  -3.843  1.00 20.00     0.223 C 
HETATM   11  O11 UNL     1     -33.374  13.121  -3.810  1.00 20.00    -0.279 OA
HETATM   12 CL12 UNL     1     -34.449  15.290  -2.721  1.00 20.00    -0.043 Cl
ENDBRANCH   7  10
TORSDOF 1
ENDMDL
