MODEL 1
REMARK VINA RESULT:      -4.3      0.000      0.000
REMARK  2 active torsions:
REMARK  status: ('A' for Active; 'I' for Inactive)
REMARK    1  A    between atoms: C7_7  and  O10_10 
REMARK    2  A    between atoms: C9_9  and  O10_10 
ROOT
HETATM    1  C1  UNL     1     -33.661  17.071  -5.665  1.00 20.00     0.015 C 
HETATM    2  C2  UNL     1     -33.833  16.372  -4.704  1.00 20.00    -0.079 C 
HETATM    3  C3  UNL     1     -35.633  13.875  -4.332  1.00 20.00     0.004 C 
HETATM    4  C4  UNL     1     -34.224  13.305  -4.500  1.00 20.00     0.004 C 
HETATM    5  C5  UNL     1     -35.499  15.070  -3.390  1.00 20.00     0.051 C 
HETATM    6  C6  UNL     1     -33.307  14.185  -3.652  1.00 20.00     0.051 C 
HETATM    7  C7  UNL     1     -34.044  15.516  -3.526  1.00 20.00     0.122 C 
ENDROOT
BRANCH   7   8
HETATM    8  O10 UNL     1     -33.614  16.198  -2.357  1.00 20.00    -0.368 OA
BRANCH   8   9
HETATM    9  C9  UNL     1     -34.674  16.354  -1.422  1.00 20.00     0.165 C 
HETATM   10  C8  UNL     1     -34.250  17.345  -0.358  1.00 20.00     0.033 C 
ENDBRANCH   8   9
ENDBRANCH   7   8
TORSDOF 2
ENDMDL
MODEL 2
REMARK VINA RESULT:      -4.3      1.048      3.233
REMARK  2 active torsions:
REMARK  status: ('A' for Active; 'I' for Inactive)
REMARK    1  A    between atoms: C7_7  and  O10_10 
REMARK    2  A    between atoms: C9_9  and  O10_10 
ROOT
HETATM    1  C1  UNL     1     -34.630  16.527  -0.891  1.00 20.00     0.015 C 
HETATM    2  C2  UNL     1     -34.342  16.341  -2.041  1.00 20.00    -0.079 C 
HETATM    3  C3  UNL     1     -33.916  13.697  -3.603  1.00 20.00     0.004 C 
HETATM    4  C4  UNL     1     -35.310  14.165  -4.023  1.00 20.00     0.004 C 
HETATM    5  C5  UNL     1     -33.028  14.938  -3.622  1.00 20.00     0.051 C 
HETATM    6  C6  UNL     1     -35.195  15.668  -4.274  1.00 20.00     0.051 C 
HETATM    7  C7  UNL     1     -33.989  16.113  -3.451  1.00 20.00     0.122 C 
ENDROOT
BRANCH   7   8
HETATM    8  O10 UNL     1     -33.439  17.300  -4.003  1.00 20.00    -0.368 OA
BRANCH   8   9
HETATM    9  C9  UNL     1     -33.578  17.333  -5.418  1.00 20.00     0.165 C 
HETATM   10  C8  UNL     1     -33.693  18.774  -5.868  1.00 20.00     0.033 C 
ENDBRANCH   8   9
ENDBRANCH   7   8
TORSDOF 2
ENDMDL
MODEL 3
REMARK VINA RESULT:      -4.2      1.571      3.502
REMARK  2 active torsions:
REMARK  status: ('A' for Active; 'I' for Inactive)
REMARK    1  A    between atoms: C7_7  and  O10_10 
REMARK    2  A    between atoms: C9_9  and  O10_10 
ROOT
HETATM    1  C1  UNL     1     -34.561  16.729  -0.694  1.00 20.00     0.015 C 
HETATM    2  C2  UNL     1     -34.798  16.198  -1.744  1.00 20.00    -0.079 C 
HETATM    3  C3  UNL     1     -33.264  16.301  -4.437  1.00 20.00     0.004 C 
HETATM    4  C4  UNL     1     -32.881  14.948  -3.834  1.00 20.00     0.004 C 
HETATM    5  C5  UNL     1     -34.768  16.452  -4.220  1.00 20.00     0.051 C 
HETATM    6  C6  UNL     1     -34.173  14.350  -3.280  1.00 20.00     0.051 C 
HETATM    7  C7  UNL     1     -35.087  15.547  -3.031  1.00 20.00     0.122 C 
ENDROOT
BRANCH   7   8
HETATM    8  O10 UNL     1     -36.445  15.133  -3.062  1.00 20.00    -0.368 OA
BRANCH   8   9
HETATM    9  C9  UNL     1     -36.835  14.711  -4.363  1.00 20.00     0.165 C 
HETATM   10  C8  UNL     1     -38.322  14.944  -4.531  1.00 20.00     0.033 C 
ENDBRANCH   8   9
ENDBRANCH   7   8
TORSDOF 2
ENDMDL
MODEL 4
REMARK VINA RESULT:      -4.2     11.806     12.779
REMARK  2 active torsions:
REMARK  status: ('A' for Active; 'I' for Inactive)
REMARK    1  A    between atoms: C7_7  and  O10_10 
REMARK    2  A    between atoms: C9_9  and  O10_10 
ROOT
HETATM    1  C1  UNL     1     -36.736   6.101   3.160  1.00 20.00     0.015 C 
HETATM    2  C2  UNL     1     -35.650   5.828   3.592  1.00 20.00    -0.079 C 
HETATM    3  C3  UNL     1     -34.632   5.682   6.517  1.00 20.00     0.004 C 
HETATM    4  C4  UNL     1     -34.844   4.221   6.116  1.00 20.00     0.004 C 
HETATM    5  C5  UNL     1     -33.946   6.353   5.329  1.00 20.00     0.051 C 
HETATM    6  C6  UNL     1     -34.277   4.082   4.704  1.00 20.00     0.051 C 
HETATM    7  C7  UNL     1     -34.319   5.494   4.123  1.00 20.00     0.122 C 
ENDROOT
BRANCH   7   8
HETATM    8  O10 UNL     1     -33.350   5.621   3.094  1.00 20.00    -0.368 OA
BRANCH   8   9
HETATM    9  C9  UNL     1     -32.308   6.516   3.463  1.00 20.00     0.165 C 
HETATM   10  C8  UNL     1     -32.230   7.630   2.440  1.00 20.00     0.033 C 
ENDBRANCH   8   9
ENDBRANCH   7   8
TORSDOF 2
ENDMDL
MODEL 5
REMARK VINA RESULT:      -4.2      2.277      3.579
REMARK  2 active torsions:
REMARK  status: ('A' for Active; 'I' for Inactive)
REMARK    1  A    between atoms: C7_7  and  O10_10 
REMARK    2  A    between atoms: C9_9  and  O10_10 
ROOT
HETATM    1  C1  UNL     1     -35.735  15.227  -6.792  1.00 20.00     0.015 C 
HETATM    2  C2  UNL     1     -35.754  14.828  -5.660  1.00 20.00    -0.079 C 
HETATM    3  C3  UNL     1     -33.433  13.931  -3.809  1.00 20.00     0.004 C 
HETATM    4  C4  UNL     1     -33.783  15.339  -3.323  1.00 20.00     0.004 C 
HETATM    5  C5  UNL     1     -34.764  13.219  -4.039  1.00 20.00     0.051 C 
HETATM    6  C6  UNL     1     -35.309  15.408  -3.286  1.00 20.00     0.051 C 
HETATM    7  C7  UNL     1     -35.776  14.340  -4.272  1.00 20.00     0.122 C 
ENDROOT
BRANCH   7   8
HETATM    8  O10 UNL     1     -37.087  13.914  -3.937  1.00 20.00    -0.368 OA
BRANCH   8   9
HETATM    9  C9  UNL     1     -37.962  15.017  -3.738  1.00 20.00     0.165 C 
HETATM   10  C8  UNL     1     -39.304  14.701  -4.366  1.00 20.00     0.033 C 
ENDBRANCH   8   9
ENDBRANCH   7   8
TORSDOF 2
ENDMDL
MODEL 6
REMARK VINA RESULT:      -4.1      1.452      2.475
REMARK  2 active torsions:
REMARK  status: ('A' for Active; 'I' for Inactive)
REMARK    1  A    between atoms: C7_7  and  O10_10 
REMARK    2  A    between atoms: C9_9  and  O10_10 
ROOT
HETATM    1  C1  UNL     1     -38.060  14.809  -3.759  1.00 20.00     0.015 C 
HETATM    2  C2  UNL     1     -36.885  15.049  -3.833  1.00 20.00    -0.079 C 
HETATM    3  C3  UNL     1     -34.531  13.276  -4.796  1.00 20.00     0.004 C 
HETATM    4  C4  UNL     1     -34.801  14.218  -5.970  1.00 20.00     0.004 C 
HETATM    5  C5  UNL     1     -34.587  14.139  -3.537  1.00 20.00     0.051 C 
HETATM    6  C6  UNL     1     -35.010  15.604  -5.362  1.00 20.00     0.051 C 
HETATM    7  C7  UNL     1     -35.446  15.341  -3.923  1.00 20.00     0.122 C 
ENDROOT
BRANCH   7   8
HETATM    8  O10 UNL     1     -35.136  16.464  -3.112  1.00 20.00    -0.368 OA
BRANCH   8   9
HETATM    9  C9  UNL     1     -34.175  16.141  -2.115  1.00 20.00     0.165 C 
HETATM   10  C8  UNL     1     -34.641  16.692  -0.784  1.00 20.00     0.033 C 
ENDBRANCH   8   9
ENDBRANCH   7   8
TORSDOF 2
ENDMDL
MODEL 7
REMARK VINA RESULT:      -4.1      1.245      3.686
REMARK  2 active torsions:
REMARK  status: ('A' for Active; 'I' for Inactive)
REMARK    1  A    between atoms: C7_7  and  O10_10 
REMARK    2  A    between atoms: C9_9  and  O10_10 
ROOT
HETATM    1  C1  UNL     1     -34.447  16.891  -0.585  1.00 20.00     0.015 C 
HETATM    2  C2  UNL     1     -34.502  16.442  -1.697  1.00 20.00    -0.079 C 
HETATM    3  C3  UNL     1     -35.233  17.809  -4.381  1.00 20.00     0.004 C 
HETATM    4  C4  UNL     1     -33.707  17.707  -4.411  1.00 20.00     0.004 C 
HETATM    5  C5  UNL     1     -35.738  16.467  -3.857  1.00 20.00     0.051 C 
HETATM    6  C6  UNL     1     -33.365  16.309  -3.901  1.00 20.00     0.051 C 
HETATM    7  C7  UNL     1     -34.569  15.891  -3.059  1.00 20.00     0.122 C 
ENDROOT
BRANCH   7   8
HETATM    8  O10 UNL     1     -34.649  14.475  -2.999  1.00 20.00    -0.368 OA
BRANCH   8   9
HETATM    9  C9  UNL     1     -33.807  13.861  -3.967  1.00 20.00     0.165 C 
HETATM   10  C8  UNL     1     -34.667  13.110  -4.961  1.00 20.00     0.033 C 
ENDBRANCH   8   9
ENDBRANCH   7   8
TORSDOF 2
ENDMDL
MODEL 8
REMARK VINA RESULT:      -3.9      2.335      3.526
REMARK  2 active torsions:
REMARK  status: ('A' for Active; 'I' for Inactive)
REMARK    1  A    between atoms: C7_7  and  O10_10 
REMARK    2  A    between atoms: C9_9  and  O10_10 
ROOT
HETATM    1  C1  UNL     1     -34.928  16.057  -2.004  1.00 20.00     0.015 C 
HETATM    2  C2  UNL     1     -35.455  15.410  -2.867  1.00 20.00    -0.079 C 
HETATM    3  C3  UNL     1     -34.655  14.994  -5.834  1.00 20.00     0.004 C 
HETATM    4  C4  UNL     1     -34.210  13.707  -5.137  1.00 20.00     0.004 C 
HETATM    5  C5  UNL     1     -36.043  15.316  -5.284  1.00 20.00     0.051 C 
HETATM    6  C6  UNL     1     -35.350  13.316  -4.199  1.00 20.00     0.051 C 
HETATM    7  C7  UNL     1     -36.100  14.619  -3.926  1.00 20.00     0.122 C 
ENDROOT
BRANCH   7   8
HETATM    8  O10 UNL     1     -37.442  14.336  -3.560  1.00 20.00    -0.368 OA
BRANCH   8   9
HETATM    9  C9  UNL     1     -38.356  15.221  -4.194  1.00 20.00     0.165 C 
HETATM   10  C8  UNL     1     -39.530  15.463  -3.268  1.00 20.00     0.033 C 
ENDBRANCH   8   9
ENDBRANCH   7   8
TORSDOF 2
ENDMDL
MODEL 9
REMARK VINA RESULT:      -3.9     11.383     13.011
REMARK  2 active torsions:
REMARK  status: ('A' for Active; 'I' for Inactive)
REMARK    1  A    between atoms: C7_7  and  O10_10 
REMARK    2  A    between atoms: C9_9  and  O10_10 
ROOT
HETATM    1  C1  UNL     1     -41.749   3.114  -2.805  1.00 20.00     0.015 C 
HETATM    2  C2  UNL     1     -42.007   4.227  -2.439  1.00 20.00    -0.079 C 
HETATM    3  C3  UNL     1     -42.398   5.361   0.421  1.00 20.00     0.004 C 
HETATM    4  C4  UNL     1     -40.992   5.813   0.022  1.00 20.00     0.004 C 
HETATM    5  C5  UNL     1     -43.282   5.601  -0.801  1.00 20.00     0.051 C 
HETATM    6  C6  UNL     1     -41.096   6.302  -1.422  1.00 20.00     0.051 C 
HETATM    7  C7  UNL     1     -42.323   5.592  -1.989  1.00 20.00     0.122 C 
ENDROOT
BRANCH   7   8
HETATM    8  O10 UNL     1     -42.855   6.340  -3.073  1.00 20.00    -0.368 OA
BRANCH   8   9
HETATM    9  C9  UNL     1     -42.455   7.703  -3.015  1.00 20.00     0.165 C 
HETATM   10  C8  UNL     1     -42.511   8.292  -4.409  1.00 20.00     0.033 C 
ENDBRANCH   8   9
ENDBRANCH   7   8
TORSDOF 2
ENDMDL
