MODEL 1
REMARK VINA RESULT:      -4.6      0.000      0.000
REMARK  1 active torsions:
REMARK  status: ('A' for Active; 'I' for Inactive)
REMARK    1  A    between atoms: C8_8  and  O11_11 
ROOT
HETATM    1  C1  UNL     1     -32.850  14.758  -3.661  1.00 20.00    -0.023 C 
HETATM    2  C2  UNL     1     -33.120  15.890  -4.331  1.00 20.00    -0.022 C 
HETATM    3  C3  UNL     1     -35.893  14.794  -6.742  1.00 20.00     0.011 A 
HETATM    4  C4  UNL     1     -34.455  14.888  -7.169  1.00 20.00     0.011 A 
HETATM    5  C5  UNL     1     -34.507  13.420  -4.953  1.00 20.00     0.021 C 
HETATM    6  C6  UNL     1     -34.144  13.973  -3.541  1.00 20.00     0.038 C 
HETATM    7  C7  UNL     1     -34.592  15.847  -4.698  1.00 20.00     0.046 C 
HETATM    8  C8  UNL     1     -35.139  15.143  -3.438  1.00 20.00     0.136 C 
HETATM    9  C9  UNL     1     -34.796  14.725  -5.712  1.00 20.00    -0.030 A 
ENDROOT
BRANCH   8  10
HETATM   10  O11 UNL     1     -35.018  15.893  -2.246  1.00 20.00    -0.389 OA
HETATM   11  C10 UNL     1     -35.838  17.058  -2.268  1.00 20.00     0.202 C 
ENDBRANCH   8  10
TORSDOF 1
ENDMDL
MODEL 2
REMARK VINA RESULT:      -4.6      1.701      3.748
REMARK  1 active torsions:
REMARK  status: ('A' for Active; 'I' for Inactive)
REMARK    1  A    between atoms: C8_8  and  O11_11 
ROOT
HETATM    1  C1  UNL     1     -35.365  13.571  -4.194  1.00 20.00    -0.023 C 
HETATM    2  C2  UNL     1     -36.226  14.523  -3.796  1.00 20.00    -0.022 C 
HETATM    3  C3  UNL     1     -33.893  17.239  -2.424  1.00 20.00     0.011 A 
HETATM    4  C4  UNL     1     -34.580  16.247  -1.526  1.00 20.00     0.011 A 
HETATM    5  C5  UNL     1     -33.367  14.850  -3.434  1.00 20.00     0.021 C 
HETATM    6  C6  UNL     1     -34.103  14.263  -4.677  1.00 20.00     0.038 C 
HETATM    7  C7  UNL     1     -35.525  15.856  -3.975  1.00 20.00     0.046 C 
HETATM    8  C8  UNL     1     -34.727  15.545  -5.260  1.00 20.00     0.136 C 
HETATM    9  C9  UNL     1     -34.369  15.923  -2.981  1.00 20.00    -0.030 A 
ENDROOT
BRANCH   8  10
HETATM   10  O11 UNL     1     -35.522  15.324  -6.407  1.00 20.00    -0.389 OA
HETATM   11  C10 UNL     1     -34.731  14.979  -7.540  1.00 20.00     0.202 C 
ENDBRANCH   8  10
TORSDOF 1
ENDMDL
MODEL 3
REMARK VINA RESULT:      -4.6      1.793      2.393
REMARK  1 active torsions:
REMARK  status: ('A' for Active; 'I' for Inactive)
REMARK    1  A    between atoms: C8_8  and  O11_11 
ROOT
HETATM    1  C1  UNL     1     -34.489  13.687  -3.756  1.00 20.00    -0.023 C 
HETATM    2  C2  UNL     1     -34.633  14.888  -3.172  1.00 20.00    -0.022 C 
HETATM    3  C3  UNL     1     -34.699  17.273  -6.174  1.00 20.00     0.011 A 
HETATM    4  C4  UNL     1     -33.451  17.035  -5.369  1.00 20.00     0.011 A 
HETATM    5  C5  UNL     1     -34.395  14.647  -6.052  1.00 20.00     0.021 C 
HETATM    6  C6  UNL     1     -35.212  13.732  -5.089  1.00 20.00     0.038 C 
HETATM    7  C7  UNL     1     -35.421  15.756  -4.134  1.00 20.00     0.046 C 
HETATM    8  C8  UNL     1     -36.365  14.683  -4.718  1.00 20.00     0.136 C 
HETATM    9  C9  UNL     1     -34.554  16.011  -5.364  1.00 20.00    -0.030 A 
ENDROOT
BRANCH   8  10
HETATM   10  O11 UNL     1     -37.280  14.137  -3.789  1.00 20.00    -0.389 OA
HETATM   11  C10 UNL     1     -38.531  14.816  -3.816  1.00 20.00     0.202 C 
ENDBRANCH   8  10
TORSDOF 1
ENDMDL
MODEL 4
REMARK VINA RESULT:      -4.5      1.841      3.290
REMARK  1 active torsions:
REMARK  status: ('A' for Active; 'I' for Inactive)
REMARK    1  A    between atoms: C8_8  and  O11_11 
ROOT
HETATM    1  C1  UNL     1     -35.448  13.919  -5.827  1.00 20.00    -0.023 C 
HETATM    2  C2  UNL     1     -34.963  13.295  -4.741  1.00 20.00    -0.022 C 
HETATM    3  C3  UNL     1     -33.570  16.200  -2.661  1.00 20.00     0.011 A 
HETATM    4  C4  UNL     1     -32.691  15.350  -3.537  1.00 20.00     0.011 A 
HETATM    5  C5  UNL     1     -34.721  16.170  -5.044  1.00 20.00     0.021 C 
HETATM    6  C6  UNL     1     -35.955  15.281  -5.389  1.00 20.00     0.038 C 
HETATM    7  C7  UNL     1     -35.109  14.257  -3.576  1.00 20.00     0.046 C 
HETATM    8  C8  UNL     1     -36.443  14.924  -3.973  1.00 20.00     0.136 C 
HETATM    9  C9  UNL     1     -34.168  15.435  -3.813  1.00 20.00    -0.030 A 
ENDROOT
BRANCH   8  10
HETATM   10  O11 UNL     1     -37.561  14.059  -3.954  1.00 20.00    -0.389 OA
HETATM   11  C10 UNL     1     -38.789  14.781  -3.951  1.00 20.00     0.202 C 
ENDBRANCH   8  10
TORSDOF 1
ENDMDL
MODEL 5
REMARK VINA RESULT:      -4.5      1.132      1.602
REMARK  1 active torsions:
REMARK  status: ('A' for Active; 'I' for Inactive)
REMARK    1  A    between atoms: C8_8  and  O11_11 
ROOT
HETATM    1  C1  UNL     1     -34.432  13.869  -3.390  1.00 20.00    -0.023 C 
HETATM    2  C2  UNL     1     -33.297  14.266  -3.990  1.00 20.00    -0.022 C 
HETATM    3  C3  UNL     1     -34.575  16.680  -6.681  1.00 20.00     0.011 A 
HETATM    4  C4  UNL     1     -34.233  15.249  -6.989  1.00 20.00     0.011 A 
HETATM    5  C5  UNL     1     -35.881  15.217  -4.903  1.00 20.00     0.021 C 
HETATM    6  C6  UNL     1     -35.406  15.032  -3.430  1.00 20.00     0.038 C 
HETATM    7  C7  UNL     1     -33.524  15.687  -4.469  1.00 20.00     0.046 C 
HETATM    8  C8  UNL     1     -34.409  16.199  -3.312  1.00 20.00     0.136 C 
HETATM    9  C9  UNL     1     -34.571  15.653  -5.579  1.00 20.00    -0.030 A 
ENDROOT
BRANCH   8  10
HETATM   10  O11 UNL     1     -33.757  16.270  -2.060  1.00 20.00    -0.389 OA
HETATM   11  C10 UNL     1     -34.651  16.648  -1.018  1.00 20.00     0.202 C 
ENDBRANCH   8  10
TORSDOF 1
ENDMDL
MODEL 6
REMARK VINA RESULT:      -4.4      1.320      2.131
REMARK  1 active torsions:
REMARK  status: ('A' for Active; 'I' for Inactive)
REMARK    1  A    between atoms: C8_8  and  O11_11 
ROOT
HETATM    1  C1  UNL     1     -33.786  17.313  -3.814  1.00 20.00    -0.023 C 
HETATM    2  C2  UNL     1     -35.013  17.045  -4.291  1.00 20.00    -0.022 C 
HETATM    3  C3  UNL     1     -35.074  13.211  -4.335  1.00 20.00     0.011 A 
HETATM    4  C4  UNL     1     -34.776  14.020  -5.567  1.00 20.00     0.011 A 
HETATM    5  C5  UNL     1     -33.160  14.907  -3.652  1.00 20.00     0.021 C 
HETATM    6  C6  UNL     1     -33.420  16.211  -2.837  1.00 20.00     0.038 C 
HETATM    7  C7  UNL     1     -35.456  15.737  -3.662  1.00 20.00     0.046 C 
HETATM    8  C8  UNL     1     -34.817  15.906  -2.267  1.00 20.00     0.136 C 
HETATM    9  C9  UNL     1     -34.565  14.623  -4.204  1.00 20.00    -0.030 A 
ENDROOT
BRANCH   8  10
HETATM   10  O11 UNL     1     -35.361  16.957  -1.494  1.00 20.00    -0.389 OA
HETATM   11  C10 UNL     1     -34.747  17.044  -0.212  1.00 20.00     0.202 C 
ENDBRANCH   8  10
TORSDOF 1
ENDMDL
MODEL 7
REMARK VINA RESULT:      -4.3      1.922      4.035
REMARK  1 active torsions:
REMARK  status: ('A' for Active; 'I' for Inactive)
REMARK    1  A    between atoms: C8_8  and  O11_11 
ROOT
HETATM    1  C1  UNL     1     -34.153  17.125  -4.927  1.00 20.00    -0.023 C 
HETATM    2  C2  UNL     1     -33.276  16.398  -4.215  1.00 20.00    -0.022 C 
HETATM    3  C3  UNL     1     -34.678  16.650  -0.655  1.00 20.00     0.011 A 
HETATM    4  C4  UNL     1     -33.555  17.527  -1.135  1.00 20.00     0.011 A 
HETATM    5  C5  UNL     1     -35.510  17.725  -2.925  1.00 20.00     0.021 C 
HETATM    6  C6  UNL     1     -35.518  16.960  -4.284  1.00 20.00     0.038 C 
HETATM    7  C7  UNL     1     -34.047  15.775  -3.067  1.00 20.00     0.046 C 
HETATM    8  C8  UNL     1     -35.387  15.509  -3.785  1.00 20.00     0.136 C 
HETATM    9  C9  UNL     1     -34.492  16.894  -2.129  1.00 20.00    -0.030 A 
ENDROOT
BRANCH   8  10
HETATM   10  O11 UNL     1     -35.318  14.552  -4.823  1.00 20.00    -0.389 OA
HETATM   11  C10 UNL     1     -35.096  13.239  -4.317  1.00 20.00     0.202 C 
ENDBRANCH   8  10
TORSDOF 1
ENDMDL
MODEL 8
REMARK VINA RESULT:      -4.3     11.922     13.047
REMARK  1 active torsions:
REMARK  status: ('A' for Active; 'I' for Inactive)
REMARK    1  A    between atoms: C8_8  and  O11_11 
ROOT
HETATM    1  C1  UNL     1     -41.705   4.684   0.331  1.00 20.00    -0.023 C 
HETATM    2  C2  UNL     1     -42.981   4.797  -0.072  1.00 20.00    -0.022 C 
HETATM    3  C3  UNL     1     -42.910   7.996  -2.185  1.00 20.00     0.011 A 
HETATM    4  C4  UNL     1     -43.367   7.994  -0.752  1.00 20.00     0.011 A 
HETATM    5  C5  UNL     1     -41.001   6.783  -0.810  1.00 20.00     0.021 C 
HETATM    6  C6  UNL     1     -40.822   5.235  -0.774  1.00 20.00     0.038 C 
HETATM    7  C7  UNL     1     -42.958   5.462  -1.435  1.00 20.00     0.046 C 
HETATM    8  C8  UNL     1     -41.666   4.830  -1.996  1.00 20.00     0.136 C 
HETATM    9  C9  UNL     1     -42.467   6.897  -1.255  1.00 20.00    -0.030 A 
ENDROOT
BRANCH   8  10
HETATM   10  O11 UNL     1     -41.737   3.434  -2.205  1.00 20.00    -0.389 OA
HETATM   11  C10 UNL     1     -42.640   3.101  -3.255  1.00 20.00     0.202 C 
ENDBRANCH   8  10
TORSDOF 1
ENDMDL
MODEL 9
REMARK VINA RESULT:      -4.2      1.623      2.482
REMARK  1 active torsions:
REMARK  status: ('A' for Active; 'I' for Inactive)
REMARK    1  A    between atoms: C8_8  and  O11_11 
ROOT
HETATM    1  C1  UNL     1     -34.712  16.132  -1.957  1.00 20.00    -0.023 C 
HETATM    2  C2  UNL     1     -33.608  15.880  -2.680  1.00 20.00    -0.022 C 
HETATM    3  C3  UNL     1     -35.008  14.005  -5.717  1.00 20.00     0.011 A 
HETATM    4  C4  UNL     1     -34.400  13.286  -4.545  1.00 20.00     0.011 A 
HETATM    5  C5  UNL     1     -36.214  14.964  -3.565  1.00 20.00     0.021 C 
HETATM    6  C6  UNL     1     -35.861  16.342  -2.927  1.00 20.00     0.038 C 
HETATM    7  C7  UNL     1     -34.025  15.882  -4.139  1.00 20.00     0.046 C 
HETATM    8  C8  UNL     1     -35.092  16.996  -4.089  1.00 20.00     0.136 C 
HETATM    9  C9  UNL     1     -34.938  14.682  -4.373  1.00 20.00    -0.030 A 
ENDROOT
BRANCH   8  10
HETATM   10  O11 UNL     1     -34.586  18.281  -3.789  1.00 20.00    -0.389 OA
HETATM   11  C10 UNL     1     -33.766  18.786  -4.839  1.00 20.00     0.202 C 
ENDBRANCH   8  10
TORSDOF 1
ENDMDL
