MODEL 1
REMARK VINA RESULT:      -5.3      0.000      0.000
REMARK  1 active torsions:
REMARK  status: ('A' for Active; 'I' for Inactive)
REMARK    1  A    between atoms: C5_5  and  C7_7 
ROOT
HETATM    1  C1  UNL     1     -34.127   5.921   6.386  1.00 20.00    -0.026 A 
HETATM    2  C2  UNL     1     -33.677   6.823   5.503  1.00 20.00    -0.013 A 
HETATM    3  C3  UNL     1     -35.132   4.586   4.505  1.00 20.00    -0.019 A 
HETATM    4  C4  UNL     1     -34.688   5.482   3.605  1.00 20.00    -0.071 A 
HETATM    5  C6  UNL     1     -34.887   4.693   5.982  1.00 20.00     0.054 A 
HETATM    6  C7  UNL     1     -33.893   6.697   4.022  1.00 20.00     0.123 A 
HETATM    7  C8  UNL     1     -35.015   5.348   2.143  1.00 20.00     0.044 C 
ENDROOT
BRANCH   6   8
HETATM    8  C5  UNL     1     -32.522   6.585   3.426  1.00 20.00     0.230 C 
HETATM    9  O9  UNL     1     -31.837   5.576   3.567  1.00 20.00    -0.279 OA
HETATM   10 CL10 UNL     1     -32.070   8.017   2.551  1.00 20.00    -0.043 Cl
ENDBRANCH   6   8
TORSDOF 1
ENDMDL
MODEL 2
REMARK VINA RESULT:      -4.6     11.937     13.011
REMARK  1 active torsions:
REMARK  status: ('A' for Active; 'I' for Inactive)
REMARK    1  A    between atoms: C5_5  and  C7_7 
ROOT
HETATM    1  C1  UNL     1     -33.728  16.509  -2.805  1.00 20.00    -0.026 A 
HETATM    2  C2  UNL     1     -33.684  15.191  -3.048  1.00 20.00    -0.013 A 
HETATM    3  C3  UNL     1     -34.217  16.936  -5.236  1.00 20.00    -0.019 A 
HETATM    4  C4  UNL     1     -34.176  15.617  -5.497  1.00 20.00    -0.071 A 
HETATM    5  C6  UNL     1     -34.019  17.524  -3.869  1.00 20.00     0.054 A 
HETATM    6  C7  UNL     1     -33.916  14.601  -4.409  1.00 20.00     0.123 A 
HETATM    7  C8  UNL     1     -34.327  15.093  -6.899  1.00 20.00     0.044 C 
ENDROOT
BRANCH   6   8
HETATM    8  C5  UNL     1     -35.137  13.743  -4.271  1.00 20.00     0.230 C 
HETATM    9  O9  UNL     1     -35.098  12.529  -4.454  1.00 20.00    -0.279 OA
HETATM   10 CL10 UNL     1     -36.542  14.670  -3.837  1.00 20.00    -0.043 Cl
ENDBRANCH   6   8
TORSDOF 1
ENDMDL
MODEL 3
REMARK VINA RESULT:      -4.5     11.870     13.126
REMARK  1 active torsions:
REMARK  status: ('A' for Active; 'I' for Inactive)
REMARK    1  A    between atoms: C5_5  and  C7_7 
ROOT
HETATM    1  C1  UNL     1     -34.038  16.119  -6.408  1.00 20.00    -0.026 A 
HETATM    2  C2  UNL     1     -34.841  15.135  -5.978  1.00 20.00    -0.013 A 
HETATM    3  C3  UNL     1     -33.776  16.931  -4.040  1.00 20.00    -0.019 A 
HETATM    4  C4  UNL     1     -34.581  15.950  -3.593  1.00 20.00    -0.071 A 
HETATM    5  C6  UNL     1     -33.402  17.112  -5.483  1.00 20.00     0.054 A 
HETATM    6  C7  UNL     1     -35.188  14.933  -4.531  1.00 20.00     0.123 A 
HETATM    7  C8  UNL     1     -34.963  15.855  -2.142  1.00 20.00     0.044 C 
ENDROOT
BRANCH   6   8
HETATM    8  C5  UNL     1     -34.643  13.584  -4.173  1.00 20.00     0.230 C 
HETATM    9  O9  UNL     1     -35.338  12.573  -4.218  1.00 20.00    -0.279 OA
HETATM   10 CL10 UNL     1     -32.970  13.656  -3.709  1.00 20.00    -0.043 Cl
ENDBRANCH   6   8
TORSDOF 1
ENDMDL
MODEL 4
REMARK VINA RESULT:      -4.4     11.693     12.782
REMARK  1 active torsions:
REMARK  status: ('A' for Active; 'I' for Inactive)
REMARK    1  A    between atoms: C5_5  and  C7_7 
ROOT
HETATM    1  C1  UNL     1     -37.434  15.181  -3.784  1.00 20.00    -0.026 A 
HETATM    2  C2  UNL     1     -36.144  15.045  -3.443  1.00 20.00    -0.013 A 
HETATM    3  C3  UNL     1     -36.788  15.162  -6.216  1.00 20.00    -0.019 A 
HETATM    4  C4  UNL     1     -35.489  15.026  -5.891  1.00 20.00    -0.071 A 
HETATM    5  C6  UNL     1     -37.898  15.234  -5.208  1.00 20.00     0.054 A 
HETATM    6  C7  UNL     1     -35.037  14.939  -4.452  1.00 20.00     0.123 A 
HETATM    7  C8  UNL     1     -34.418  15.016  -6.946  1.00 20.00     0.044 C 
ENDROOT
BRANCH   6   8
HETATM    8  C5  UNL     1     -34.428  13.587  -4.236  1.00 20.00     0.230 C 
HETATM    9  O9  UNL     1     -35.027  12.554  -4.524  1.00 20.00    -0.279 OA
HETATM   10 CL10 UNL     1     -32.832  13.689  -3.555  1.00 20.00    -0.043 Cl
ENDBRANCH   6   8
TORSDOF 1
ENDMDL
MODEL 5
REMARK VINA RESULT:      -4.4      2.562      3.971
REMARK  1 active torsions:
REMARK  status: ('A' for Active; 'I' for Inactive)
REMARK    1  A    between atoms: C5_5  and  C7_7 
ROOT
HETATM    1  C1  UNL     1     -33.853   5.555   2.382  1.00 20.00    -0.026 A 
HETATM    2  C2  UNL     1     -34.904   5.265   3.162  1.00 20.00    -0.013 A 
HETATM    3  C3  UNL     1     -32.717   6.668   4.332  1.00 20.00    -0.019 A 
HETATM    4  C4  UNL     1     -33.764   6.386   5.129  1.00 20.00    -0.071 A 
HETATM    5  C6  UNL     1     -32.636   6.270   2.887  1.00 20.00     0.054 A 
HETATM    6  C7  UNL     1     -34.970   5.633   4.616  1.00 20.00     0.123 A 
HETATM    7  C8  UNL     1     -33.810   6.860   6.555  1.00 20.00     0.044 C 
ENDROOT
BRANCH   6   8
HETATM    8  C5  UNL     1     -35.056   4.332   5.355  1.00 20.00     0.230 C 
HETATM    9  O9  UNL     1     -34.826   3.259   4.803  1.00 20.00    -0.279 OA
HETATM   10 CL10 UNL     1     -35.507   4.552   7.019  1.00 20.00    -0.043 Cl
ENDBRANCH   6   8
TORSDOF 1
ENDMDL
MODEL 6
REMARK VINA RESULT:      -4.4     11.978     13.095
REMARK  1 active torsions:
REMARK  status: ('A' for Active; 'I' for Inactive)
REMARK    1  A    between atoms: C5_5  and  C7_7 
ROOT
HETATM    1  C1  UNL     1     -33.353  15.246  -3.488  1.00 20.00    -0.026 A 
HETATM    2  C2  UNL     1     -34.428  14.455  -3.365  1.00 20.00    -0.013 A 
HETATM    3  C3  UNL     1     -34.053  15.827  -5.834  1.00 20.00    -0.019 A 
HETATM    4  C4  UNL     1     -35.136  15.036  -5.728  1.00 20.00    -0.071 A 
HETATM    5  C6  UNL     1     -33.059  16.035  -4.728  1.00 20.00     0.054 A 
HETATM    6  C7  UNL     1     -35.440  14.274  -4.459  1.00 20.00     0.123 A 
HETATM    7  C8  UNL     1     -36.066  14.826  -6.891  1.00 20.00     0.044 C 
ENDROOT
BRANCH   6   8
HETATM    8  C5  UNL     1     -36.730  14.794  -3.901  1.00 20.00     0.230 C 
HETATM    9  O9  UNL     1     -37.720  14.076  -3.784  1.00 20.00    -0.279 OA
HETATM   10 CL10 UNL     1     -36.625  16.473  -3.465  1.00 20.00    -0.043 Cl
ENDBRANCH   6   8
TORSDOF 1
ENDMDL
MODEL 7
REMARK VINA RESULT:      -4.3     11.830     12.723
REMARK  1 active torsions:
REMARK  status: ('A' for Active; 'I' for Inactive)
REMARK    1  A    between atoms: C5_5  and  C7_7 
ROOT
HETATM    1  C1  UNL     1     -36.269  16.546  -3.451  1.00 20.00    -0.026 A 
HETATM    2  C2  UNL     1     -36.147  15.211  -3.421  1.00 20.00    -0.013 A 
HETATM    3  C3  UNL     1     -33.768  16.766  -3.620  1.00 20.00    -0.019 A 
HETATM    4  C4  UNL     1     -33.628  15.428  -3.592  1.00 20.00    -0.071 A 
HETATM    5  C6  UNL     1     -35.094  17.468  -3.573  1.00 20.00     0.054 A 
HETATM    6  C7  UNL     1     -34.823  14.508  -3.503  1.00 20.00     0.123 A 
HETATM    7  C8  UNL     1     -32.268  14.786  -3.586  1.00 20.00     0.044 C 
ENDROOT
BRANCH   6   8
HETATM    8  C5  UNL     1     -34.878  13.693  -4.760  1.00 20.00     0.230 C 
HETATM    9  O9  UNL     1     -34.914  12.466  -4.734  1.00 20.00    -0.279 OA
HETATM   10 CL10 UNL     1     -34.885  14.689  -6.185  1.00 20.00    -0.043 Cl
ENDBRANCH   6   8
TORSDOF 1
ENDMDL
MODEL 8
REMARK VINA RESULT:      -4.3     11.611     12.686
REMARK  1 active torsions:
REMARK  status: ('A' for Active; 'I' for Inactive)
REMARK    1  A    between atoms: C5_5  and  C7_7 
ROOT
HETATM    1  C1  UNL     1     -34.352  13.389  -4.826  1.00 20.00    -0.026 A 
HETATM    2  C2  UNL     1     -34.444  13.831  -3.564  1.00 20.00    -0.013 A 
HETATM    3  C3  UNL     1     -35.922  15.207  -5.574  1.00 20.00    -0.019 A 
HETATM    4  C4  UNL     1     -36.026  15.664  -4.313  1.00 20.00    -0.071 A 
HETATM    5  C6  UNL     1     -35.065  14.041  -5.972  1.00 20.00     0.054 A 
HETATM    6  C7  UNL     1     -35.274  15.019  -3.172  1.00 20.00     0.123 A 
HETATM    7  C8  UNL     1     -36.945  16.803  -3.969  1.00 20.00     0.044 C 
ENDROOT
BRANCH   6   8
HETATM    8  C5  UNL     1     -34.304  16.024  -2.626  1.00 20.00     0.230 C 
HETATM    9  O9  UNL     1     -33.395  16.483  -3.313  1.00 20.00    -0.279 OA
HETATM   10 CL10 UNL     1     -34.636  16.421  -0.968  1.00 20.00    -0.043 Cl
ENDBRANCH   6   8
TORSDOF 1
ENDMDL
MODEL 9
REMARK VINA RESULT:      -4.2     11.800     12.554
REMARK  1 active torsions:
REMARK  status: ('A' for Active; 'I' for Inactive)
REMARK    1  A    between atoms: C5_5  and  C7_7 
ROOT
HETATM    1  C1  UNL     1     -36.514  14.834  -4.243  1.00 20.00    -0.026 A 
HETATM    2  C2  UNL     1     -35.338  14.290  -3.898  1.00 20.00    -0.013 A 
HETATM    3  C3  UNL     1     -36.062  16.776  -2.707  1.00 20.00    -0.019 A 
HETATM    4  C4  UNL     1     -34.879  16.244  -2.350  1.00 20.00    -0.071 A 
HETATM    5  C6  UNL     1     -36.995  16.146  -3.700  1.00 20.00     0.054 A 
HETATM    6  C7  UNL     1     -34.389  14.937  -2.931  1.00 20.00     0.123 A 
HETATM    7  C8  UNL     1     -34.013  16.895  -1.308  1.00 20.00     0.044 C 
ENDROOT
BRANCH   6   8
HETATM    8  C5  UNL     1     -33.143  15.215  -3.717  1.00 20.00     0.230 C 
HETATM    9  O9  UNL     1     -32.102  14.593  -3.519  1.00 20.00    -0.279 OA
HETATM   10 CL10 UNL     1     -33.376  16.477  -4.888  1.00 20.00    -0.043 Cl
ENDBRANCH   6   8
TORSDOF 1
ENDMDL
