MODEL 1
REMARK VINA RESULT:      -4.0      0.000      0.000
REMARK  3 active torsions:
REMARK  status: ('A' for Active; 'I' for Inactive)
REMARK    1  A    between atoms: C1_1  and  C4_4 
REMARK    2  A    between atoms: C2_2  and  C8_8 
REMARK    3  A    between atoms: C8_8  and  O10_10 
ROOT
HETATM    1  C1  UNL     1     -34.217  14.809  -3.246  1.00 20.00    -0.069 C 
HETATM    2  C2  UNL     1     -34.441  15.758  -2.545  1.00 20.00    -0.066 C 
ENDROOT
BRANCH   2   3
HETATM    3  C8  UNL     1     -34.719  16.923  -1.686  1.00 20.00     0.116 C 
HETATM    4  C5  UNL     1     -36.070  17.544  -2.040  1.00 20.00     0.060 C 
HETATM    5  C6  UNL     1     -33.604  17.957  -1.819  1.00 20.00     0.060 C 
BRANCH   3   6
HETATM    6  O10 UNL     1     -34.754  16.508  -0.320  1.00 20.00    -0.373 OA
HETATM    7  C7  UNL     1     -35.154  17.570   0.531  1.00 20.00     0.204 C 
ENDBRANCH   3   6
ENDBRANCH   2   3
BRANCH   1   8
HETATM    8  C4  UNL     1     -33.942  13.653  -4.098  1.00 20.00     0.224 A 
HETATM    9  C3  UNL     1     -34.718  13.494  -5.357  1.00 20.00     0.214 A 
HETATM   10  O9  UNL     1     -35.054  12.771  -4.167  1.00 20.00    -0.368 OA
ENDBRANCH   1   8
TORSDOF 3
ENDMDL
MODEL 2
REMARK VINA RESULT:      -4.0      1.112      1.940
REMARK  3 active torsions:
REMARK  status: ('A' for Active; 'I' for Inactive)
REMARK    1  A    between atoms: C1_1  and  C4_4 
REMARK    2  A    between atoms: C2_2  and  C8_8 
REMARK    3  A    between atoms: C8_8  and  O10_10 
ROOT
HETATM    1  C1  UNL     1     -34.186  14.825  -3.308  1.00 20.00    -0.069 C 
HETATM    2  C2  UNL     1     -34.400  15.835  -2.694  1.00 20.00    -0.066 C 
ENDROOT
BRANCH   2   3
HETATM    3  C8  UNL     1     -34.661  17.075  -1.942  1.00 20.00     0.116 C 
HETATM    4  C5  UNL     1     -34.673  16.801  -0.438  1.00 20.00     0.060 C 
HETATM    5  C6  UNL     1     -35.987  17.692  -2.383  1.00 20.00     0.060 C 
BRANCH   3   6
HETATM    6  O10 UNL     1     -33.634  18.026  -2.223  1.00 20.00    -0.373 OA
HETATM    7  C7  UNL     1     -33.808  18.610  -3.504  1.00 20.00     0.204 C 
ENDBRANCH   3   6
ENDBRANCH   2   3
BRANCH   1   8
HETATM    8  C4  UNL     1     -33.927  13.595  -4.054  1.00 20.00     0.224 A 
HETATM    9  C3  UNL     1     -34.645  13.376  -5.339  1.00 20.00     0.214 A 
HETATM   10  O9  UNL     1     -35.078  12.764  -4.118  1.00 20.00    -0.368 OA
ENDBRANCH   1   8
TORSDOF 3
ENDMDL
MODEL 3
REMARK VINA RESULT:      -3.9      1.032      1.795
REMARK  3 active torsions:
REMARK  status: ('A' for Active; 'I' for Inactive)
REMARK    1  A    between atoms: C1_1  and  C4_4 
REMARK    2  A    between atoms: C2_2  and  C8_8 
REMARK    3  A    between atoms: C8_8  and  O10_10 
ROOT
HETATM    1  C1  UNL     1     -34.246  14.837  -3.297  1.00 20.00    -0.069 C 
HETATM    2  C2  UNL     1     -34.490  15.838  -2.681  1.00 20.00    -0.066 C 
ENDROOT
BRANCH   2   3
HETATM    3  C8  UNL     1     -34.788  17.067  -1.924  1.00 20.00     0.116 C 
HETATM    4  C5  UNL     1     -33.853  18.201  -2.347  1.00 20.00     0.060 C 
HETATM    5  C6  UNL     1     -34.669  16.808  -0.424  1.00 20.00     0.060 C 
BRANCH   3   6
HETATM    6  O10 UNL     1     -36.133  17.469  -2.182  1.00 20.00    -0.373 OA
HETATM    7  C7  UNL     1     -36.194  18.428  -3.226  1.00 20.00     0.204 C 
ENDBRANCH   3   6
ENDBRANCH   2   3
BRANCH   1   8
HETATM    8  C4  UNL     1     -33.950  13.618  -4.048  1.00 20.00     0.224 A 
HETATM    9  C3  UNL     1     -34.647  13.392  -5.344  1.00 20.00     0.214 A 
HETATM   10  O9  UNL     1     -35.081  12.762  -4.133  1.00 20.00    -0.368 OA
ENDBRANCH   1   8
TORSDOF 3
ENDMDL
MODEL 4
REMARK VINA RESULT:      -3.9      1.400      4.882
REMARK  3 active torsions:
REMARK  status: ('A' for Active; 'I' for Inactive)
REMARK    1  A    between atoms: C1_1  and  C4_4 
REMARK    2  A    between atoms: C2_2  and  C8_8 
REMARK    3  A    between atoms: C8_8  and  O10_10 
ROOT
HETATM    1  C1  UNL     1     -34.482  16.421  -1.456  1.00 20.00    -0.069 C 
HETATM    2  C2  UNL     1     -34.222  15.903  -2.508  1.00 20.00    -0.066 C 
ENDROOT
BRANCH   2   3
HETATM    3  C8  UNL     1     -33.904  15.267  -3.798  1.00 20.00     0.116 C 
HETATM    4  C5  UNL     1     -33.002  14.050  -3.592  1.00 20.00     0.060 C 
HETATM    5  C6  UNL     1     -33.237  16.273  -4.734  1.00 20.00     0.060 C 
BRANCH   3   6
HETATM    6  O10 UNL     1     -35.111  14.836  -4.426  1.00 20.00    -0.373 OA
HETATM    7  C7  UNL     1     -35.247  13.425  -4.368  1.00 20.00     0.204 C 
ENDBRANCH   3   6
ENDBRANCH   2   3
BRANCH   1   8
HETATM    8  C4  UNL     1     -34.798  17.053  -0.176  1.00 20.00     0.224 A 
HETATM    9  C3  UNL     1     -35.059  18.517  -0.148  1.00 20.00     0.214 A 
HETATM   10  O9  UNL     1     -33.789  17.970   0.225  1.00 20.00    -0.368 OA
ENDBRANCH   1   8
TORSDOF 3
ENDMDL
MODEL 5
REMARK VINA RESULT:      -3.9      1.937      4.809
REMARK  3 active torsions:
REMARK  status: ('A' for Active; 'I' for Inactive)
REMARK    1  A    between atoms: C1_1  and  C4_4 
REMARK    2  A    between atoms: C2_2  and  C8_8 
REMARK    3  A    between atoms: C8_8  and  O10_10 
ROOT
HETATM    1  C1  UNL     1     -34.438  16.395  -1.528  1.00 20.00    -0.069 C 
HETATM    2  C2  UNL     1     -34.164  15.913  -2.593  1.00 20.00    -0.066 C 
ENDROOT
BRANCH   2   3
HETATM    3  C8  UNL     1     -33.830  15.321  -3.900  1.00 20.00     0.116 C 
HETATM    4  C5  UNL     1     -35.062  15.281  -4.805  1.00 20.00     0.060 C 
HETATM    5  C6  UNL     1     -33.258  13.917  -3.714  1.00 20.00     0.060 C 
BRANCH   3   6
HETATM    6  O10 UNL     1     -32.825  16.110  -4.537  1.00 20.00    -0.373 OA
HETATM    7  C7  UNL     1     -33.397  17.198  -5.246  1.00 20.00     0.204 C 
ENDBRANCH   3   6
ENDBRANCH   2   3
BRANCH   1   8
HETATM    8  C4  UNL     1     -34.770  16.983  -0.231  1.00 20.00     0.224 A 
HETATM    9  C3  UNL     1     -35.123  18.427  -0.172  1.00 20.00     0.214 A 
HETATM   10  O9  UNL     1     -33.814  17.956   0.169  1.00 20.00    -0.368 OA
ENDBRANCH   1   8
TORSDOF 3
ENDMDL
MODEL 6
REMARK VINA RESULT:      -3.8      1.873      4.734
REMARK  3 active torsions:
REMARK  status: ('A' for Active; 'I' for Inactive)
REMARK    1  A    between atoms: C1_1  and  C4_4 
REMARK    2  A    between atoms: C2_2  and  C8_8 
REMARK    3  A    between atoms: C8_8  and  O10_10 
ROOT
HETATM    1  C1  UNL     1     -34.726  15.998  -2.324  1.00 20.00    -0.069 C 
HETATM    2  C2  UNL     1     -35.243  15.300  -3.153  1.00 20.00    -0.066 C 
ENDROOT
BRANCH   2   3
HETATM    3  C8  UNL     1     -35.878  14.444  -4.171  1.00 20.00     0.116 C 
HETATM    4  C5  UNL     1     -35.029  13.201  -4.435  1.00 20.00     0.060 C 
HETATM    5  C6  UNL     1     -36.093  15.229  -5.463  1.00 20.00     0.060 C 
BRANCH   3   6
HETATM    6  O10 UNL     1     -37.162  14.027  -3.707  1.00 20.00    -0.373 OA
HETATM    7  C7  UNL     1     -38.118  15.067  -3.830  1.00 20.00     0.204 C 
ENDBRANCH   3   6
ENDBRANCH   2   3
BRANCH   1   8
HETATM    8  C4  UNL     1     -34.095  16.847  -1.315  1.00 20.00     0.224 A 
HETATM    9  C3  UNL     1     -34.843  17.142  -0.062  1.00 20.00     0.214 A 
HETATM   10  O9  UNL     1     -34.790  18.076  -1.148  1.00 20.00    -0.368 OA
ENDBRANCH   1   8
TORSDOF 3
ENDMDL
MODEL 7
REMARK VINA RESULT:      -3.7      1.409      4.966
REMARK  3 active torsions:
REMARK  status: ('A' for Active; 'I' for Inactive)
REMARK    1  A    between atoms: C1_1  and  C4_4 
REMARK    2  A    between atoms: C2_2  and  C8_8 
REMARK    3  A    between atoms: C8_8  and  O10_10 
ROOT
HETATM    1  C1  UNL     1     -34.580  16.575  -1.383  1.00 20.00    -0.069 C 
HETATM    2  C2  UNL     1     -34.857  15.922  -2.351  1.00 20.00    -0.066 C 
ENDROOT
BRANCH   2   3
HETATM    3  C8  UNL     1     -35.197  15.120  -3.540  1.00 20.00     0.116 C 
HETATM    4  C5  UNL     1     -34.706  15.808  -4.813  1.00 20.00     0.060 C 
HETATM    5  C6  UNL     1     -36.705  14.887  -3.607  1.00 20.00     0.060 C 
BRANCH   3   6
HETATM    6  O10 UNL     1     -34.572  13.840  -3.445  1.00 20.00    -0.373 OA
HETATM    7  C7  UNL     1     -34.486  13.213  -4.715  1.00 20.00     0.204 C 
ENDBRANCH   3   6
ENDBRANCH   2   3
BRANCH   1   8
HETATM    8  C4  UNL     1     -34.243  17.371  -0.204  1.00 20.00     0.224 A 
HETATM    9  C3  UNL     1     -35.245  17.488   0.890  1.00 20.00     0.214 A 
HETATM   10  O9  UNL     1     -35.070  18.521  -0.088  1.00 20.00    -0.368 OA
ENDBRANCH   1   8
TORSDOF 3
ENDMDL
MODEL 8
REMARK VINA RESULT:      -3.6     12.793     14.345
REMARK  3 active torsions:
REMARK  status: ('A' for Active; 'I' for Inactive)
REMARK    1  A    between atoms: C1_1  and  C4_4 
REMARK    2  A    between atoms: C2_2  and  C8_8 
REMARK    3  A    between atoms: C8_8  and  O10_10 
ROOT
HETATM    1  C1  UNL     1     -41.584   2.377  -3.263  1.00 20.00    -0.069 C 
HETATM    2  C2  UNL     1     -41.721   3.364  -2.592  1.00 20.00    -0.066 C 
ENDROOT
BRANCH   2   3
HETATM    3  C8  UNL     1     -41.890   4.573  -1.768  1.00 20.00     0.116 C 
HETATM    4  C5  UNL     1     -42.798   4.288  -0.571  1.00 20.00     0.060 C 
HETATM    5  C6  UNL     1     -42.460   5.713  -2.610  1.00 20.00     0.060 C 
BRANCH   3   6
HETATM    6  O10 UNL     1     -40.618   4.998  -1.280  1.00 20.00    -0.373 OA
HETATM    7  C7  UNL     1     -40.754   6.018  -0.303  1.00 20.00     0.204 C 
ENDBRANCH   3   6
ENDBRANCH   2   3
BRANCH   1   8
HETATM    8  C4  UNL     1     -41.416   1.177  -4.080  1.00 20.00     0.224 A 
HETATM    9  C3  UNL     1     -42.620   0.560  -4.699  1.00 20.00     0.214 A 
HETATM   10  O9  UNL     1     -42.044   0.045  -3.493  1.00 20.00    -0.368 OA
ENDBRANCH   1   8
TORSDOF 3
ENDMDL
MODEL 9
REMARK VINA RESULT:      -3.6     11.848     13.360
REMARK  3 active torsions:
REMARK  status: ('A' for Active; 'I' for Inactive)
REMARK    1  A    between atoms: C1_1  and  C4_4 
REMARK    2  A    between atoms: C2_2  and  C8_8 
REMARK    3  A    between atoms: C8_8  and  O10_10 
ROOT
HETATM    1  C1  UNL     1     -42.065   3.516  -2.427  1.00 20.00    -0.069 C 
HETATM    2  C2  UNL     1     -41.901   4.604  -1.947  1.00 20.00    -0.066 C 
ENDROOT
BRANCH   2   3
HETATM    3  C8  UNL     1     -41.701   5.939  -1.358  1.00 20.00     0.116 C 
HETATM    4  C5  UNL     1     -40.634   5.892  -0.264  1.00 20.00     0.060 C 
HETATM    5  C6  UNL     1     -43.018   6.473  -0.798  1.00 20.00     0.060 C 
BRANCH   3   6
HETATM    6  O10 UNL     1     -41.271   6.847  -2.373  1.00 20.00    -0.373 OA
HETATM    7  C7  UNL     1     -42.364   7.304  -3.153  1.00 20.00     0.204 C 
ENDBRANCH   3   6
ENDBRANCH   2   3
BRANCH   1   8
HETATM    8  C4  UNL     1     -42.264   2.190  -3.011  1.00 20.00     0.224 A 
HETATM    9  C3  UNL     1     -41.304   1.714  -4.044  1.00 20.00     0.214 A 
HETATM   10  O9  UNL     1     -42.580   2.264  -4.395  1.00 20.00    -0.368 OA
ENDBRANCH   1   8
TORSDOF 3
ENDMDL
