MODEL 1
REMARK VINA RESULT:      -4.2      0.000      0.000
REMARK  1 active torsions:
REMARK  status: ('A' for Active; 'I' for Inactive)
REMARK    1  A    between atoms: C2_2  and  C6_6 
ROOT
HETATM    1  C1  UNL     1     -34.115  17.876  -3.742  1.00 20.00     0.074 C 
HETATM    2  C3  UNL     1     -34.963  16.203  -2.115  1.00 20.00     0.031 C 
HETATM    3  C4  UNL     1     -35.551  15.161  -3.058  1.00 20.00     0.025 C 
HETATM    4  C5  UNL     1     -33.744  16.808  -2.805  1.00 20.00     0.154 C 
HETATM    5  C6  UNL     1     -34.393  14.284  -3.510  1.00 20.00     0.117 C 
HETATM    6  N8  UNL     1     -34.408  18.719  -4.482  1.00 20.00    -0.196 NA
HETATM    7  S10 UNL     1     -32.976  15.405  -3.678  1.00 20.00    -0.137 SA
ENDROOT
BRANCH   5   8
HETATM    8  C2  UNL     1     -34.648  13.641  -4.830  1.00 20.00     0.136 C 
HETATM    9  C7  UNL     1     -34.661  14.546  -6.032  1.00 20.00     0.092 C 
HETATM   10  O9  UNL     1     -34.836  12.430  -4.933  1.00 20.00    -0.297 OA
ENDBRANCH   5   8
TORSDOF 1
ENDMDL
MODEL 2
REMARK VINA RESULT:      -4.2      2.033      2.168
REMARK  1 active torsions:
REMARK  status: ('A' for Active; 'I' for Inactive)
REMARK    1  A    between atoms: C2_2  and  C6_6 
ROOT
HETATM    1  C1  UNL     1     -33.412  17.136  -4.938  1.00 20.00     0.074 C 
HETATM    2  C3  UNL     1     -33.723  15.820  -2.856  1.00 20.00     0.031 C 
HETATM    3  C4  UNL     1     -35.243  15.734  -2.798  1.00 20.00     0.025 C 
HETATM    4  C5  UNL     1     -33.321  15.803  -4.328  1.00 20.00     0.154 C 
HETATM    5  C6  UNL     1     -35.647  14.583  -3.706  1.00 20.00     0.117 C 
HETATM    6  N8  UNL     1     -33.484  18.189  -5.420  1.00 20.00    -0.196 NA
HETATM    7  S10 UNL     1     -34.492  14.643  -5.105  1.00 20.00    -0.137 SA
ENDROOT
BRANCH   5   8
HETATM    8  C2  UNL     1     -37.034  14.731  -4.231  1.00 20.00     0.136 C 
HETATM    9  C7  UNL     1     -37.209  15.608  -5.441  1.00 20.00     0.092 C 
HETATM   10  O9  UNL     1     -37.988  14.163  -3.703  1.00 20.00    -0.297 OA
ENDBRANCH   5   8
TORSDOF 1
ENDMDL
MODEL 3
REMARK VINA RESULT:      -4.1      2.526      3.942
REMARK  1 active torsions:
REMARK  status: ('A' for Active; 'I' for Inactive)
REMARK    1  A    between atoms: C2_2  and  C6_6 
ROOT
HETATM    1  C1  UNL     1     -34.811  14.682  -6.556  1.00 20.00     0.074 C 
HETATM    2  C3  UNL     1     -34.360  13.173  -4.637  1.00 20.00     0.031 C 
HETATM    3  C4  UNL     1     -33.635  14.124  -3.692  1.00 20.00     0.025 C 
HETATM    4  C5  UNL     1     -35.397  13.991  -5.401  1.00 20.00     0.154 C 
HETATM    5  C6  UNL     1     -34.711  14.906  -2.955  1.00 20.00     0.117 C 
HETATM    6  N8  UNL     1     -34.348  15.227  -7.470  1.00 20.00    -0.196 NA
HETATM    7  S10 UNL     1     -36.027  15.183  -4.174  1.00 20.00    -0.137 SA
ENDROOT
BRANCH   5   8
HETATM    8  C2  UNL     1     -34.225  16.231  -2.475  1.00 20.00     0.136 C 
HETATM    9  C7  UNL     1     -34.545  16.593  -1.050  1.00 20.00     0.092 C 
HETATM   10  O9  UNL     1     -33.590  16.989  -3.207  1.00 20.00    -0.297 OA
ENDBRANCH   5   8
TORSDOF 1
ENDMDL
MODEL 4
REMARK VINA RESULT:      -4.1      1.645      1.945
REMARK  1 active torsions:
REMARK  status: ('A' for Active; 'I' for Inactive)
REMARK    1  A    between atoms: C2_2  and  C6_6 
ROOT
HETATM    1  C1  UNL     1     -35.754  17.751  -4.431  1.00 20.00     0.074 C 
HETATM    2  C3  UNL     1     -33.941  17.512  -2.751  1.00 20.00     0.031 C 
HETATM    3  C4  UNL     1     -34.008  16.016  -2.471  1.00 20.00     0.025 C 
HETATM    4  C5  UNL     1     -34.301  17.718  -4.219  1.00 20.00     0.154 C 
HETATM    5  C6  UNL     1     -33.215  15.332  -3.574  1.00 20.00     0.117 C 
HETATM    6  N8  UNL     1     -36.902  17.778  -4.597  1.00 20.00    -0.196 NA
HETATM    7  S10 UNL     1     -33.545  16.298  -5.075  1.00 20.00    -0.137 SA
ENDROOT
BRANCH   5   8
HETATM    8  C2  UNL     1     -33.657  13.928  -3.807  1.00 20.00     0.136 C 
HETATM    9  C7  UNL     1     -35.112  13.722  -4.128  1.00 20.00     0.092 C 
HETATM   10  O9  UNL     1     -32.870  12.985  -3.742  1.00 20.00    -0.297 OA
ENDBRANCH   5   8
TORSDOF 1
ENDMDL
MODEL 5
REMARK VINA RESULT:      -4.0      3.023      4.235
REMARK  1 active torsions:
REMARK  status: ('A' for Active; 'I' for Inactive)
REMARK    1  A    between atoms: C2_2  and  C6_6 
ROOT
HETATM    1  C1  UNL     1     -34.694  13.807  -4.980  1.00 20.00     0.074 C 
HETATM    2  C3  UNL     1     -35.741  15.988  -5.542  1.00 20.00     0.031 C 
HETATM    3  C4  UNL     1     -35.804  16.636  -4.164  1.00 20.00     0.025 C 
HETATM    4  C5  UNL     1     -34.481  15.128  -5.585  1.00 20.00     0.154 C 
HETATM    5  C6  UNL     1     -34.434  17.244  -3.908  1.00 20.00     0.117 C 
HETATM    6  N8  UNL     1     -34.864  12.763  -4.504  1.00 20.00    -0.196 NA
HETATM    7  S10 UNL     1     -33.246  16.087  -4.647  1.00 20.00    -0.137 SA
ENDROOT
BRANCH   5   8
HETATM    8  C2  UNL     1     -34.129  17.371  -2.455  1.00 20.00     0.136 C 
HETATM    9  C7  UNL     1     -34.636  16.274  -1.559  1.00 20.00     0.092 C 
HETATM   10  O9  UNL     1     -33.493  18.325  -2.010  1.00 20.00    -0.297 OA
ENDBRANCH   5   8
TORSDOF 1
ENDMDL
MODEL 6
REMARK VINA RESULT:      -4.0      2.032      2.650
REMARK  1 active torsions:
REMARK  status: ('A' for Active; 'I' for Inactive)
REMARK    1  A    between atoms: C2_2  and  C6_6 
ROOT
HETATM    1  C1  UNL     1     -34.123  15.829  -2.497  1.00 20.00     0.074 C 
HETATM    2  C3  UNL     1     -33.377  13.810  -3.735  1.00 20.00     0.031 C 
HETATM    3  C4  UNL     1     -34.603  13.536  -4.598  1.00 20.00     0.025 C 
HETATM    4  C5  UNL     1     -33.261  15.323  -3.573  1.00 20.00     0.154 C 
HETATM    5  C6  UNL     1     -34.490  14.446  -5.811  1.00 20.00     0.117 C 
HETATM    6  N8  UNL     1     -34.804  16.228  -1.647  1.00 20.00    -0.196 NA
HETATM    7  S10 UNL     1     -33.769  15.992  -5.190  1.00 20.00    -0.137 SA
ENDROOT
BRANCH   5   8
HETATM    8  C2  UNL     1     -35.816  14.753  -6.418  1.00 20.00     0.136 C 
HETATM    9  C7  UNL     1     -35.916  14.642  -7.915  1.00 20.00     0.092 C 
HETATM   10  O9  UNL     1     -36.781  15.079  -5.729  1.00 20.00    -0.297 OA
ENDBRANCH   5   8
TORSDOF 1
ENDMDL
MODEL 7
REMARK VINA RESULT:      -4.0      2.009      2.504
REMARK  1 active torsions:
REMARK  status: ('A' for Active; 'I' for Inactive)
REMARK    1  A    between atoms: C2_2  and  C6_6 
ROOT
HETATM    1  C1  UNL     1     -34.992  16.914  -1.470  1.00 20.00     0.074 C 
HETATM    2  C3  UNL     1     -34.487  17.364  -3.859  1.00 20.00     0.031 C 
HETATM    3  C4  UNL     1     -33.709  16.106  -4.226  1.00 20.00     0.025 C 
HETATM    4  C5  UNL     1     -35.541  16.964  -2.831  1.00 20.00     0.154 C 
HETATM    5  C6  UNL     1     -34.741  15.035  -4.542  1.00 20.00     0.117 C 
HETATM    6  N8  UNL     1     -34.559  16.875  -0.395  1.00 20.00    -0.196 NA
HETATM    7  S10 UNL     1     -36.102  15.317  -3.374  1.00 20.00    -0.137 SA
ENDROOT
BRANCH   5   8
HETATM    8  C2  UNL     1     -34.214  13.657  -4.331  1.00 20.00     0.136 C 
HETATM    9  C7  UNL     1     -32.904  13.538  -3.600  1.00 20.00     0.092 C 
HETATM   10  O9  UNL     1     -34.822  12.665  -4.732  1.00 20.00    -0.297 OA
ENDBRANCH   5   8
TORSDOF 1
ENDMDL
MODEL 8
REMARK VINA RESULT:      -4.0      3.209      3.906
REMARK  1 active torsions:
REMARK  status: ('A' for Active; 'I' for Inactive)
REMARK    1  A    between atoms: C2_2  and  C6_6 
ROOT
HETATM    1  C1  UNL     1     -35.177  13.701  -4.053  1.00 20.00     0.074 C 
HETATM    2  C3  UNL     1     -34.270  15.583  -2.712  1.00 20.00     0.031 C 
HETATM    3  C4  UNL     1     -33.479  16.335  -3.775  1.00 20.00     0.025 C 
HETATM    4  C5  UNL     1     -35.491  14.975  -3.396  1.00 20.00     0.154 C 
HETATM    5  C6  UNL     1     -34.475  17.211  -4.518  1.00 20.00     0.117 C 
HETATM    6  N8  UNL     1     -34.929  12.693  -4.572  1.00 20.00    -0.196 NA
HETATM    7  S10 UNL     1     -36.002  16.233  -4.612  1.00 20.00    -0.137 SA
ENDROOT
BRANCH   5   8
HETATM    8  C2  UNL     1     -34.031  17.529  -5.904  1.00 20.00     0.136 C 
HETATM    9  C7  UNL     1     -34.270  16.474  -6.950  1.00 20.00     0.092 C 
HETATM   10  O9  UNL     1     -33.497  18.603  -6.181  1.00 20.00    -0.297 OA
ENDBRANCH   5   8
TORSDOF 1
ENDMDL
MODEL 9
REMARK VINA RESULT:      -4.0      3.016      3.608
REMARK  1 active torsions:
REMARK  status: ('A' for Active; 'I' for Inactive)
REMARK    1  A    between atoms: C2_2  and  C6_6 
ROOT
HETATM    1  C1  UNL     1     -37.135  14.674  -3.654  1.00 20.00     0.074 C 
HETATM    2  C3  UNL     1     -34.777  13.919  -3.838  1.00 20.00     0.031 C 
HETATM    3  C4  UNL     1     -34.585  13.951  -5.350  1.00 20.00     0.025 C 
HETATM    4  C5  UNL     1     -35.728  15.055  -3.475  1.00 20.00     0.154 C 
HETATM    5  C6  UNL     1     -34.259  15.391  -5.715  1.00 20.00     0.117 C 
HETATM    6  N8  UNL     1     -38.246  14.373  -3.795  1.00 20.00    -0.196 NA
HETATM    7  S10 UNL     1     -35.266  16.411  -4.602  1.00 20.00    -0.137 SA
ENDROOT
BRANCH   5   8
HETATM    8  C2  UNL     1     -34.627  15.719  -7.121  1.00 20.00     0.136 C 
HETATM    9  C7  UNL     1     -35.308  14.635  -7.913  1.00 20.00     0.092 C 
HETATM   10  O9  UNL     1     -34.389  16.822  -7.610  1.00 20.00    -0.297 OA
ENDBRANCH   5   8
TORSDOF 1
ENDMDL
