MODEL 1
REMARK VINA RESULT:      -4.2      0.000      0.000
REMARK  1 active torsions:
REMARK  status: ('A' for Active; 'I' for Inactive)
REMARK    1  A    between atoms: C1_1  and  C4_4 
ROOT
HETATM    1  C2  UNL     1     -32.841  14.678  -3.877  1.00 20.00     0.225 A 
HETATM    2  C3  UNL     1     -33.781  15.657  -3.266  1.00 20.00     0.225 A 
HETATM    3  C4  UNL     1     -34.196  14.903  -4.509  1.00 20.00     0.099 A 
HETATM    4  C5  UNL     1     -34.222  15.682  -5.800  1.00 20.00     0.031 C 
HETATM    5  F7  UNL     1     -32.624  13.490  -3.199  1.00 20.00    -0.245 F 
HETATM    6  F8  UNL     1     -34.370  15.311  -2.063  1.00 20.00    -0.245 F 
ENDROOT
BRANCH   3   7
HETATM    7  C1  UNL     1     -35.208  13.832  -4.349  1.00 20.00     0.233 C 
HETATM    8  O6  UNL     1     -34.920  12.647  -4.489  1.00 20.00    -0.279 OA
HETATM    9 CL9  UNL     1     -36.776  14.467  -3.956  1.00 20.00    -0.043 Cl
ENDBRANCH   3   7
TORSDOF 1
ENDMDL
MODEL 2
REMARK VINA RESULT:      -4.0      1.813      2.219
REMARK  1 active torsions:
REMARK  status: ('A' for Active; 'I' for Inactive)
REMARK    1  A    between atoms: C1_1  and  C4_4 
ROOT
HETATM    1  C2  UNL     1     -33.904  16.004  -4.440  1.00 20.00     0.225 A 
HETATM    2  C3  UNL     1     -33.515  15.040  -3.374  1.00 20.00     0.225 A 
HETATM    3  C4  UNL     1     -34.822  14.849  -4.110  1.00 20.00     0.099 A 
HETATM    4  C5  UNL     1     -36.083  15.179  -3.352  1.00 20.00     0.031 C 
HETATM    5  F7  UNL     1     -33.198  15.960  -5.631  1.00 20.00    -0.245 F 
HETATM    6  F8  UNL     1     -32.475  14.170  -3.650  1.00 20.00    -0.245 F 
ENDROOT
BRANCH   3   7
HETATM    7  C1  UNL     1     -34.896  13.737  -5.088  1.00 20.00     0.233 C 
HETATM    8  O6  UNL     1     -34.725  12.570  -4.750  1.00 20.00    -0.279 OA
HETATM    9 CL9  UNL     1     -35.243  14.300  -6.694  1.00 20.00    -0.043 Cl
ENDBRANCH   3   7
TORSDOF 1
ENDMDL
MODEL 3
REMARK VINA RESULT:      -3.9      2.647      3.143
REMARK  1 active torsions:
REMARK  status: ('A' for Active; 'I' for Inactive)
REMARK    1  A    between atoms: C1_1  and  C4_4 
ROOT
HETATM    1  C2  UNL     1     -35.987  14.978  -5.972  1.00 20.00     0.225 A 
HETATM    2  C3  UNL     1     -34.877  15.862  -5.523  1.00 20.00     0.225 A 
HETATM    3  C4  UNL     1     -35.355  14.750  -4.618  1.00 20.00     0.099 A 
HETATM    4  C5  UNL     1     -36.166  15.156  -3.413  1.00 20.00     0.031 C 
HETATM    5  F7  UNL     1     -35.714  14.071  -6.983  1.00 20.00    -0.245 F 
HETATM    6  F8  UNL     1     -33.651  15.716  -6.150  1.00 20.00    -0.245 F 
ENDROOT
BRANCH   3   7
HETATM    7  C1  UNL     1     -34.473  13.567  -4.468  1.00 20.00     0.233 C 
HETATM    8  O6  UNL     1     -34.797  12.464  -4.897  1.00 20.00    -0.279 OA
HETATM    9 CL9  UNL     1     -32.995  13.954  -3.640  1.00 20.00    -0.043 Cl
ENDBRANCH   3   7
TORSDOF 1
ENDMDL
MODEL 4
REMARK VINA RESULT:      -3.9      2.626      3.189
REMARK  1 active torsions:
REMARK  status: ('A' for Active; 'I' for Inactive)
REMARK    1  A    between atoms: C1_1  and  C4_4 
ROOT
HETATM    1  C2  UNL     1     -36.439  15.161  -3.403  1.00 20.00     0.225 A 
HETATM    2  C3  UNL     1     -35.624  16.145  -4.167  1.00 20.00     0.225 A 
HETATM    3  C4  UNL     1     -34.982  15.355  -3.050  1.00 20.00     0.099 A 
HETATM    4  C5  UNL     1     -34.686  16.101  -1.773  1.00 20.00     0.031 C 
HETATM    5  F7  UNL     1     -36.806  13.993  -4.050  1.00 20.00    -0.245 F 
HETATM    6  F8  UNL     1     -35.293  15.822  -5.472  1.00 20.00    -0.245 F 
ENDROOT
BRANCH   3   7
HETATM    7  C1  UNL     1     -34.038  14.277  -3.433  1.00 20.00     0.233 C 
HETATM    8  O6  UNL     1     -34.406  13.112  -3.552  1.00 20.00    -0.279 OA
HETATM    9 CL9  UNL     1     -32.426  14.874  -3.675  1.00 20.00    -0.043 Cl
ENDBRANCH   3   7
TORSDOF 1
ENDMDL
MODEL 5
REMARK VINA RESULT:      -3.9      1.937      2.400
REMARK  1 active torsions:
REMARK  status: ('A' for Active; 'I' for Inactive)
REMARK    1  A    between atoms: C1_1  and  C4_4 
ROOT
HETATM    1  C2  UNL     1     -35.092  15.860  -3.605  1.00 20.00     0.225 A 
HETATM    2  C3  UNL     1     -36.229  15.248  -4.344  1.00 20.00     0.225 A 
HETATM    3  C4  UNL     1     -34.812  14.916  -4.752  1.00 20.00     0.099 A 
HETATM    4  C5  UNL     1     -34.312  15.533  -6.034  1.00 20.00     0.031 C 
HETATM    5  F7  UNL     1     -34.851  15.414  -2.317  1.00 20.00    -0.245 F 
HETATM    6  F8  UNL     1     -36.967  14.277  -3.689  1.00 20.00    -0.245 F 
ENDROOT
BRANCH   3   7
HETATM    7  C1  UNL     1     -34.305  13.564  -4.414  1.00 20.00     0.233 C 
HETATM    8  O6  UNL     1     -34.907  12.548  -4.750  1.00 20.00    -0.279 OA
HETATM    9 CL9  UNL     1     -32.817  13.627  -3.522  1.00 20.00    -0.043 Cl
ENDBRANCH   3   7
TORSDOF 1
ENDMDL
MODEL 6
REMARK VINA RESULT:      -3.9     12.591     13.172
REMARK  1 active torsions:
REMARK  status: ('A' for Active; 'I' for Inactive)
REMARK    1  A    between atoms: C1_1  and  C4_4 
ROOT
HETATM    1  C2  UNL     1     -35.337   5.192   6.022  1.00 20.00     0.225 A 
HETATM    2  C3  UNL     1     -34.646   4.049   5.366  1.00 20.00     0.225 A 
HETATM    3  C4  UNL     1     -34.701   5.386   4.664  1.00 20.00     0.099 A 
HETATM    4  C5  UNL     1     -35.636   5.497   3.486  1.00 20.00     0.031 C 
HETATM    5  F7  UNL     1     -34.722   5.767   7.121  1.00 20.00    -0.245 F 
HETATM    6  F8  UNL     1     -33.437   3.641   5.904  1.00 20.00    -0.245 F 
ENDROOT
BRANCH   3   7
HETATM    7  C1  UNL     1     -33.448   6.177   4.605  1.00 20.00     0.233 C 
HETATM    8  O6  UNL     1     -33.113   6.922   5.522  1.00 20.00    -0.279 OA
HETATM    9 CL9  UNL     1     -32.574   5.908   3.129  1.00 20.00    -0.043 Cl
ENDBRANCH   3   7
TORSDOF 1
ENDMDL
MODEL 7
REMARK VINA RESULT:      -3.8      2.321      2.870
REMARK  1 active torsions:
REMARK  status: ('A' for Active; 'I' for Inactive)
REMARK    1  A    between atoms: C1_1  and  C4_4 
ROOT
HETATM    1  C2  UNL     1     -34.139  13.703  -3.425  1.00 20.00     0.225 A 
HETATM    2  C3  UNL     1     -35.236  13.687  -4.430  1.00 20.00     0.225 A 
HETATM    3  C4  UNL     1     -34.727  15.010  -3.906  1.00 20.00     0.099 A 
HETATM    4  C5  UNL     1     -35.621  15.749  -2.942  1.00 20.00     0.031 C 
HETATM    5  F7  UNL     1     -32.870  13.358  -3.858  1.00 20.00    -0.245 F 
HETATM    6  F8  UNL     1     -34.909  13.325  -5.726  1.00 20.00    -0.245 F 
ENDROOT
BRANCH   3   7
HETATM    7  C1  UNL     1     -33.901  15.833  -4.823  1.00 20.00     0.233 C 
HETATM    8  O6  UNL     1     -32.714  16.052  -4.598  1.00 20.00    -0.279 OA
HETATM    9 CL9  UNL     1     -34.811  16.408  -6.185  1.00 20.00    -0.043 Cl
ENDBRANCH   3   7
TORSDOF 1
ENDMDL
MODEL 8
REMARK VINA RESULT:      -3.8      2.231      2.799
REMARK  1 active torsions:
REMARK  status: ('A' for Active; 'I' for Inactive)
REMARK    1  A    between atoms: C1_1  and  C4_4 
ROOT
HETATM    1  C2  UNL     1     -34.403  15.236  -2.936  1.00 20.00     0.225 A 
HETATM    2  C3  UNL     1     -34.357  13.934  -3.655  1.00 20.00     0.225 A 
HETATM    3  C4  UNL     1     -34.789  15.179  -4.396  1.00 20.00     0.099 A 
HETATM    4  C5  UNL     1     -36.257  15.304  -4.716  1.00 20.00     0.031 C 
HETATM    5  F7  UNL     1     -33.196  15.825  -2.600  1.00 20.00    -0.245 F 
HETATM    6  F8  UNL     1     -33.110  13.404  -3.936  1.00 20.00    -0.245 F 
ENDROOT
BRANCH   3   7
HETATM    7  C1  UNL     1     -33.836  15.753  -5.376  1.00 20.00     0.233 C 
HETATM    8  O6  UNL     1     -32.955  16.538  -5.034  1.00 20.00    -0.279 OA
HETATM    9 CL9  UNL     1     -34.132  15.183  -6.989  1.00 20.00    -0.043 Cl
ENDBRANCH   3   7
TORSDOF 1
ENDMDL
MODEL 9
REMARK VINA RESULT:      -3.7     12.119     12.579
REMARK  1 active torsions:
REMARK  status: ('A' for Active; 'I' for Inactive)
REMARK    1  A    between atoms: C1_1  and  C4_4 
ROOT
HETATM    1  C2  UNL     1     -34.550   4.624   3.414  1.00 20.00     0.225 A 
HETATM    2  C3  UNL     1     -35.726   5.346   3.972  1.00 20.00     0.225 A 
HETATM    3  C4  UNL     1     -34.500   5.143   4.833  1.00 20.00     0.099 A 
HETATM    4  C5  UNL     1     -34.606   4.120   5.936  1.00 20.00     0.031 C 
HETATM    5  F7  UNL     1     -33.796   5.275   2.452  1.00 20.00    -0.245 F 
HETATM    6  F8  UNL     1     -35.983   6.617   3.487  1.00 20.00    -0.245 F 
ENDROOT
BRANCH   3   7
HETATM    7  C1  UNL     1     -33.649   6.329   5.096  1.00 20.00     0.233 C 
HETATM    8  O6  UNL     1     -32.852   6.748   4.260  1.00 20.00    -0.279 OA
HETATM    9 CL9  UNL     1     -33.929   7.000   6.673  1.00 20.00    -0.043 Cl
ENDBRANCH   3   7
TORSDOF 1
ENDMDL
