MODEL 1
REMARK VINA RESULT:      -4.8      0.000      0.000
REMARK  2 active torsions:
REMARK  status: ('A' for Active; 'I' for Inactive)
REMARK    1  A    between atoms: C4_4  and  C6_6 
REMARK    2  A    between atoms: C7_7  and  C9_9 
ROOT
HETATM    1  C1  UNL     1     -34.218  16.486  -5.469  1.00 20.00    -0.003 C 
HETATM    2  C2  UNL     1     -35.604  16.127  -5.280  1.00 20.00     0.011 C 
HETATM    3  C3  UNL     1     -33.274  16.068  -4.612  1.00 20.00    -0.021 C 
HETATM    4  C4  UNL     1     -36.023  15.633  -4.104  1.00 20.00    -0.012 C 
HETATM    5  C8  UNL     1     -33.609  15.236  -3.391  1.00 20.00     0.016 C 
HETATM    6  C9  UNL     1     -35.092  15.418  -2.930  1.00 20.00     0.051 C 
HETATM    7  C10 UNL     1     -33.308  13.763  -3.700  1.00 20.00     0.015 C 
ENDROOT
BRANCH   4   8
HETATM    8  C6  UNL     1     -37.437  15.268  -3.984  1.00 20.00     0.266 C 
HETATM    9  O11 UNL     1     -37.804  14.135  -3.700  1.00 20.00    -0.302 OA
ENDBRANCH   4   8
BRANCH   6  10
HETATM   10  C7  UNL     1     -35.209  16.563  -1.957  1.00 20.00    -0.027 C 
HETATM   11  C5  UNL     1     -34.477  16.676  -0.843  1.00 20.00     0.007 C 
ENDBRANCH   6  10
TORSDOF 2
ENDMDL
MODEL 2
REMARK VINA RESULT:      -4.8      1.086      2.893
REMARK  2 active torsions:
REMARK  status: ('A' for Active; 'I' for Inactive)
REMARK    1  A    between atoms: C4_4  and  C6_6 
REMARK    2  A    between atoms: C7_7  and  C9_9 
ROOT
HETATM    1  C1  UNL     1     -33.558  13.608  -3.810  1.00 20.00    -0.003 C 
HETATM    2  C2  UNL     1     -34.986  13.627  -4.029  1.00 20.00     0.011 C 
HETATM    3  C3  UNL     1     -32.875  14.746  -3.620  1.00 20.00    -0.021 C 
HETATM    4  C4  UNL     1     -35.609  14.773  -4.344  1.00 20.00    -0.012 C 
HETATM    5  C8  UNL     1     -33.547  16.103  -3.658  1.00 20.00     0.016 C 
HETATM    6  C9  UNL     1     -34.877  16.091  -4.481  1.00 20.00     0.051 C 
HETATM    7  C10 UNL     1     -33.799  16.570  -2.218  1.00 20.00     0.015 C 
ENDROOT
BRANCH   4   8
HETATM    8  C6  UNL     1     -37.062  14.729  -4.532  1.00 20.00     0.266 C 
HETATM    9  O11 UNL     1     -37.812  14.164  -3.745  1.00 20.00    -0.302 OA
ENDBRANCH   4   8
BRANCH   6  10
HETATM   10  C7  UNL     1     -34.606  16.386  -5.934  1.00 20.00    -0.027 C 
HETATM   11  C5  UNL     1     -34.308  15.452  -6.844  1.00 20.00     0.007 C 
ENDBRANCH   6  10
TORSDOF 2
ENDMDL
MODEL 3
REMARK VINA RESULT:      -4.6      1.790      2.880
REMARK  2 active torsions:
REMARK  status: ('A' for Active; 'I' for Inactive)
REMARK    1  A    between atoms: C4_4  and  C6_6 
REMARK    2  A    between atoms: C7_7  and  C9_9 
ROOT
HETATM    1  C1  UNL     1     -34.374  16.751  -5.783  1.00 20.00    -0.003 C 
HETATM    2  C2  UNL     1     -35.406  16.482  -4.808  1.00 20.00     0.011 C 
HETATM    3  C3  UNL     1     -34.088  15.864  -6.746  1.00 20.00    -0.021 C 
HETATM    4  C4  UNL     1     -35.886  15.239  -4.654  1.00 20.00    -0.012 C 
HETATM    5  C8  UNL     1     -34.796  14.528  -6.845  1.00 20.00     0.016 C 
HETATM    6  C9  UNL     1     -35.397  14.066  -5.477  1.00 20.00     0.051 C 
HETATM    7  C10 UNL     1     -35.888  14.626  -7.918  1.00 20.00     0.015 C 
ENDROOT
BRANCH   4   8
HETATM    8  C6  UNL     1     -36.946  15.035  -3.663  1.00 20.00     0.266 C 
HETATM    9  O11 UNL     1     -37.796  14.161  -3.776  1.00 20.00    -0.302 OA
ENDBRANCH   4   8
BRANCH   6  10
HETATM   10  C7  UNL     1     -34.386  13.268  -4.695  1.00 20.00    -0.027 C 
HETATM   11  C5  UNL     1     -33.524  13.802  -3.822  1.00 20.00     0.007 C 
ENDBRANCH   6  10
TORSDOF 2
ENDMDL
MODEL 4
REMARK VINA RESULT:      -4.5      1.422      2.948
REMARK  2 active torsions:
REMARK  status: ('A' for Active; 'I' for Inactive)
REMARK    1  A    between atoms: C4_4  and  C6_6 
REMARK    2  A    between atoms: C7_7  and  C9_9 
ROOT
HETATM    1  C1  UNL     1     -33.415  16.875  -4.125  1.00 20.00    -0.003 C 
HETATM    2  C2  UNL     1     -33.439  15.435  -4.230  1.00 20.00     0.011 C 
HETATM    3  C3  UNL     1     -34.200  17.515  -3.246  1.00 20.00    -0.021 C 
HETATM    4  C4  UNL     1     -34.442  14.731  -3.682  1.00 20.00    -0.012 C 
HETATM    5  C8  UNL     1     -35.171  16.776  -2.349  1.00 20.00     0.016 C 
HETATM    6  C9  UNL     1     -35.581  15.383  -2.929  1.00 20.00     0.051 C 
HETATM    7  C10 UNL     1     -34.542  16.627  -0.957  1.00 20.00     0.015 C 
ENDROOT
BRANCH   4   8
HETATM    8  C6  UNL     1     -34.397  13.271  -3.806  1.00 20.00     0.266 C 
HETATM    9  O11 UNL     1     -34.953  12.670  -4.716  1.00 20.00    -0.302 OA
ENDBRANCH   4   8
BRANCH   6  10
HETATM   10  C7  UNL     1     -36.788  15.513  -3.823  1.00 20.00    -0.027 C 
HETATM   11  C5  UNL     1     -37.903  14.788  -3.685  1.00 20.00     0.007 C 
ENDBRANCH   6  10
TORSDOF 2
ENDMDL
MODEL 5
REMARK VINA RESULT:      -4.5      1.508      2.430
REMARK  2 active torsions:
REMARK  status: ('A' for Active; 'I' for Inactive)
REMARK    1  A    between atoms: C4_4  and  C6_6 
REMARK    2  A    between atoms: C7_7  and  C9_9 
ROOT
HETATM    1  C1  UNL     1     -36.648  16.476  -4.899  1.00 20.00    -0.003 C 
HETATM    2  C2  UNL     1     -36.113  15.147  -4.711  1.00 20.00     0.011 C 
HETATM    3  C3  UNL     1     -35.941  17.560  -4.549  1.00 20.00    -0.021 C 
HETATM    4  C4  UNL     1     -35.048  14.951  -3.919  1.00 20.00    -0.012 C 
HETATM    5  C8  UNL     1     -34.572  17.454  -3.909  1.00 20.00     0.016 C 
HETATM    6  C9  UNL     1     -34.348  16.081  -3.194  1.00 20.00     0.051 C 
HETATM    7  C10 UNL     1     -33.504  17.691  -4.986  1.00 20.00     0.015 C 
ENDROOT
BRANCH   4   8
HETATM    8  C6  UNL     1     -34.540  13.583  -3.786  1.00 20.00     0.266 C 
HETATM    9  O11 UNL     1     -35.044  12.633  -4.373  1.00 20.00    -0.302 OA
ENDBRANCH   4   8
BRANCH   6  10
HETATM   10  C7  UNL     1     -34.812  16.147  -1.762  1.00 20.00    -0.027 C 
HETATM   11  C5  UNL     1     -34.357  17.031  -0.868  1.00 20.00     0.007 C 
ENDBRANCH   6  10
TORSDOF 2
ENDMDL
MODEL 6
REMARK VINA RESULT:      -4.4      1.204      3.340
REMARK  2 active torsions:
REMARK  status: ('A' for Active; 'I' for Inactive)
REMARK    1  A    between atoms: C4_4  and  C6_6 
REMARK    2  A    between atoms: C7_7  and  C9_9 
ROOT
HETATM    1  C1  UNL     1     -33.378  15.248  -3.336  1.00 20.00    -0.003 C 
HETATM    2  C2  UNL     1     -34.794  15.129  -3.076  1.00 20.00     0.011 C 
HETATM    3  C3  UNL     1     -32.930  15.833  -4.456  1.00 20.00    -0.021 C 
HETATM    4  C4  UNL     1     -35.684  15.322  -4.062  1.00 20.00    -0.012 C 
HETATM    5  C8  UNL     1     -33.871  16.366  -5.517  1.00 20.00     0.016 C 
HETATM    6  C9  UNL     1     -35.273  15.675  -5.476  1.00 20.00     0.051 C 
HETATM    7  C10 UNL     1     -34.003  17.885  -5.342  1.00 20.00     0.015 C 
ENDROOT
BRANCH   4   8
HETATM    8  C6  UNL     1     -37.106  15.209  -3.729  1.00 20.00     0.266 C 
HETATM    9  O11 UNL     1     -37.707  14.142  -3.758  1.00 20.00    -0.302 OA
ENDBRANCH   4   8
BRANCH   6  10
HETATM   10  C7  UNL     1     -35.284  14.442  -6.343  1.00 20.00    -0.027 C 
HETATM   11  C5  UNL     1     -35.427  14.464  -7.673  1.00 20.00     0.007 C 
ENDBRANCH   6  10
TORSDOF 2
ENDMDL
MODEL 7
REMARK VINA RESULT:      -4.3      1.869      3.618
REMARK  2 active torsions:
REMARK  status: ('A' for Active; 'I' for Inactive)
REMARK    1  A    between atoms: C4_4  and  C6_6 
REMARK    2  A    between atoms: C7_7  and  C9_9 
ROOT
HETATM    1  C1  UNL     1     -33.697  16.446  -2.623  1.00 20.00    -0.003 C 
HETATM    2  C2  UNL     1     -34.304  15.158  -2.867  1.00 20.00     0.011 C 
HETATM    3  C3  UNL     1     -34.028  17.515  -3.361  1.00 20.00    -0.021 C 
HETATM    4  C4  UNL     1     -34.973  14.929  -4.007  1.00 20.00    -0.012 C 
HETATM    5  C8  UNL     1     -35.020  17.427  -4.503  1.00 20.00     0.016 C 
HETATM    6  C9  UNL     1     -35.139  15.980  -5.083  1.00 20.00     0.051 C 
HETATM    7  C10 UNL     1     -36.382  17.936  -4.014  1.00 20.00     0.015 C 
ENDROOT
BRANCH   4   8
HETATM    8  C6  UNL     1     -35.584  13.608  -4.185  1.00 20.00     0.266 C 
HETATM    9  O11 UNL     1     -34.944  12.629  -4.546  1.00 20.00    -0.302 OA
ENDBRANCH   4   8
BRANCH   6  10
HETATM   10  C7  UNL     1     -34.130  15.763  -6.182  1.00 20.00    -0.027 C 
HETATM   11  C5  UNL     1     -34.384  15.088  -7.308  1.00 20.00     0.007 C 
ENDBRANCH   6  10
TORSDOF 2
ENDMDL
MODEL 8
REMARK VINA RESULT:      -4.3      2.218      3.108
REMARK  2 active torsions:
REMARK  status: ('A' for Active; 'I' for Inactive)
REMARK    1  A    between atoms: C4_4  and  C6_6 
REMARK    2  A    between atoms: C7_7  and  C9_9 
ROOT
HETATM    1  C1  UNL     1     -34.497  13.862  -5.242  1.00 20.00    -0.003 C 
HETATM    2  C2  UNL     1     -34.235  15.222  -5.652  1.00 20.00     0.011 C 
HETATM    3  C3  UNL     1     -35.348  13.595  -4.241  1.00 20.00    -0.021 C 
HETATM    4  C4  UNL     1     -34.592  16.248  -4.864  1.00 20.00    -0.012 C 
HETATM    5  C8  UNL     1     -36.050  14.693  -3.469  1.00 20.00     0.016 C 
HETATM    6  C9  UNL     1     -35.282  16.054  -3.531  1.00 20.00     0.051 C 
HETATM    7  C10 UNL     1     -37.477  14.844  -4.011  1.00 20.00     0.015 C 
ENDROOT
BRANCH   4   8
HETATM    8  C6  UNL     1     -34.317  17.605  -5.347  1.00 20.00     0.266 C 
HETATM    9  O11 UNL     1     -33.305  18.222  -5.038  1.00 20.00    -0.302 OA
ENDBRANCH   4   8
BRANCH   6  10
HETATM   10  C7  UNL     1     -34.282  16.152  -2.409  1.00 20.00    -0.027 C 
HETATM   11  C5  UNL     1     -34.596  16.492  -1.153  1.00 20.00     0.007 C 
ENDBRANCH   6  10
TORSDOF 2
ENDMDL
MODEL 9
REMARK VINA RESULT:      -4.3      1.774      3.438
REMARK  2 active torsions:
REMARK  status: ('A' for Active; 'I' for Inactive)
REMARK    1  A    between atoms: C4_4  and  C6_6 
REMARK    2  A    between atoms: C7_7  and  C9_9 
ROOT
HETATM    1  C1  UNL     1     -34.036  13.327  -4.311  1.00 20.00    -0.003 C 
HETATM    2  C2  UNL     1     -33.801  14.328  -3.296  1.00 20.00     0.011 C 
HETATM    3  C3  UNL     1     -34.838  13.579  -5.355  1.00 20.00    -0.021 C 
HETATM    4  C4  UNL     1     -34.597  15.405  -3.208  1.00 20.00    -0.012 C 
HETATM    5  C8  UNL     1     -35.564  14.900  -5.510  1.00 20.00     0.016 C 
HETATM    6  C9  UNL     1     -35.761  15.640  -4.147  1.00 20.00     0.051 C 
HETATM    7  C10 UNL     1     -34.787  15.776  -6.502  1.00 20.00     0.015 C 
ENDROOT
BRANCH   4   8
HETATM    8  C6  UNL     1     -34.293  16.394  -2.170  1.00 20.00     0.266 C 
HETATM    9  O11 UNL     1     -34.642  16.255  -1.004  1.00 20.00    -0.302 OA
ENDBRANCH   4   8
BRANCH   6  10
HETATM   10  C7  UNL     1     -37.050  15.215  -3.493  1.00 20.00    -0.027 C 
HETATM   11  C5  UNL     1     -38.114  14.758  -4.163  1.00 20.00     0.007 C 
ENDBRANCH   6  10
TORSDOF 2
ENDMDL
