MODEL 1
REMARK VINA RESULT:      -4.8      0.000      0.000
REMARK  1 active torsions:
REMARK  status: ('A' for Active; 'I' for Inactive)
REMARK    1  A    between atoms: C5_5  and  C8_8 
ROOT
HETATM    1  C1  UNL     1     -36.248  17.470  -2.249  1.00 20.00    -0.027 C 
HETATM    2  C2  UNL     1     -36.598  17.182  -3.512  1.00 20.00    -0.029 C 
HETATM    3  C3  UNL     1     -34.004  16.255  -2.071  1.00 20.00    -0.020 C 
HETATM    4  C4  UNL     1     -34.023  15.414  -3.122  1.00 20.00    -0.076 C 
HETATM    5  C6  UNL     1     -35.202  16.837  -1.377  1.00 20.00     0.054 C 
HETATM    6  C7  UNL     1     -36.094  16.080  -4.401  1.00 20.00     0.043 C 
HETATM    7  C8  UNL     1     -35.341  14.947  -3.698  1.00 20.00     0.086 C 
HETATM    8  C9  UNL     1     -32.731  14.948  -3.737  1.00 20.00     0.044 C 
ENDROOT
BRANCH   7   9
HETATM    9  C5  UNL     1     -35.150  13.807  -4.661  1.00 20.00     0.131 C 
HETATM   10  C10 UNL     1     -35.101  14.158  -6.124  1.00 20.00     0.091 C 
HETATM   11  O11 UNL     1     -35.037  12.646  -4.273  1.00 20.00    -0.298 OA
ENDBRANCH   7   9
TORSDOF 1
ENDMDL
MODEL 2
REMARK VINA RESULT:      -4.6      2.295      3.411
REMARK  1 active torsions:
REMARK  status: ('A' for Active; 'I' for Inactive)
REMARK    1  A    between atoms: C5_5  and  C8_8 
ROOT
HETATM    1  C1  UNL     1     -33.807  18.483   0.539  1.00 20.00    -0.027 C 
HETATM    2  C2  UNL     1     -34.623  17.440   0.324  1.00 20.00    -0.029 C 
HETATM    3  C3  UNL     1     -33.277  19.194  -1.861  1.00 20.00    -0.020 C 
HETATM    4  C4  UNL     1     -33.653  18.127  -2.591  1.00 20.00    -0.076 C 
HETATM    5  C6  UNL     1     -32.880  19.184  -0.412  1.00 20.00     0.054 C 
HETATM    6  C7  UNL     1     -34.792  16.616  -0.921  1.00 20.00     0.043 C 
HETATM    7  C8  UNL     1     -33.680  16.750  -1.966  1.00 20.00     0.086 C 
HETATM    8  C9  UNL     1     -34.065  18.305  -4.027  1.00 20.00     0.044 C 
ENDROOT
BRANCH   7   9
HETATM    9  C5  UNL     1     -33.845  15.675  -3.005  1.00 20.00     0.131 C 
HETATM   10  C10 UNL     1     -35.226  15.101  -3.172  1.00 20.00     0.091 C 
HETATM   11  O11 UNL     1     -32.898  15.286  -3.686  1.00 20.00    -0.298 OA
ENDBRANCH   7   9
TORSDOF 1
ENDMDL
MODEL 3
REMARK VINA RESULT:      -4.5      1.962      4.044
REMARK  1 active torsions:
REMARK  status: ('A' for Active; 'I' for Inactive)
REMARK    1  A    between atoms: C5_5  and  C8_8 
ROOT
HETATM    1  C1  UNL     1     -34.906  16.550  -7.720  1.00 20.00    -0.027 C 
HETATM    2  C2  UNL     1     -34.753  17.314  -6.628  1.00 20.00    -0.029 C 
HETATM    3  C3  UNL     1     -35.184  14.235  -6.666  1.00 20.00    -0.020 C 
HETATM    4  C4  UNL     1     -34.736  14.412  -5.409  1.00 20.00    -0.076 C 
HETATM    5  C6  UNL     1     -34.810  15.058  -7.866  1.00 20.00     0.054 C 
HETATM    6  C7  UNL     1     -34.363  16.902  -5.237  1.00 20.00     0.043 C 
HETATM    7  C8  UNL     1     -33.741  15.508  -5.103  1.00 20.00     0.086 C 
HETATM    8  C9  UNL     1     -35.239  13.528  -4.300  1.00 20.00     0.044 C 
ENDROOT
BRANCH   7   9
HETATM    9  C5  UNL     1     -33.158  15.356  -3.725  1.00 20.00     0.131 C 
HETATM   10  C10 UNL     1     -33.777  16.186  -2.633  1.00 20.00     0.091 C 
HETATM   11  O11 UNL     1     -32.222  14.591  -3.501  1.00 20.00    -0.298 OA
ENDBRANCH   7   9
TORSDOF 1
ENDMDL
MODEL 4
REMARK VINA RESULT:      -4.5      2.105      4.350
REMARK  1 active torsions:
REMARK  status: ('A' for Active; 'I' for Inactive)
REMARK    1  A    between atoms: C5_5  and  C8_8 
ROOT
HETATM    1  C1  UNL     1     -34.523  13.556  -4.243  1.00 20.00    -0.027 C 
HETATM    2  C2  UNL     1     -33.422  14.250  -3.917  1.00 20.00    -0.029 C 
HETATM    3  C3  UNL     1     -36.335  15.337  -3.945  1.00 20.00    -0.020 C 
HETATM    4  C4  UNL     1     -35.717  16.288  -3.219  1.00 20.00    -0.076 C 
HETATM    5  C6  UNL     1     -35.968  13.881  -3.997  1.00 20.00     0.054 C 
HETATM    6  C7  UNL     1     -33.312  15.529  -3.137  1.00 20.00     0.043 C 
HETATM    7  C8  UNL     1     -34.550  15.927  -2.328  1.00 20.00     0.086 C 
HETATM    8  C9  UNL     1     -36.177  17.718  -3.306  1.00 20.00     0.044 C 
ENDROOT
BRANCH   7   9
HETATM    9  C5  UNL     1     -34.194  17.055  -1.399  1.00 20.00     0.131 C 
HETATM   10  C10 UNL     1     -34.865  17.060  -0.052  1.00 20.00     0.091 C 
HETATM   11  O11 UNL     1     -33.393  17.930  -1.724  1.00 20.00    -0.298 OA
ENDBRANCH   7   9
TORSDOF 1
ENDMDL
MODEL 5
REMARK VINA RESULT:      -4.4      2.187      4.162
REMARK  1 active torsions:
REMARK  status: ('A' for Active; 'I' for Inactive)
REMARK    1  A    between atoms: C5_5  and  C8_8 
ROOT
HETATM    1  C1  UNL     1     -34.763  13.330  -5.302  1.00 20.00    -0.027 C 
HETATM    2  C2  UNL     1     -34.476  13.432  -3.996  1.00 20.00    -0.029 C 
HETATM    3  C3  UNL     1     -34.306  15.719  -6.095  1.00 20.00    -0.020 C 
HETATM    4  C4  UNL     1     -34.279  16.426  -4.950  1.00 20.00    -0.076 C 
HETATM    5  C6  UNL     1     -35.010  14.411  -6.316  1.00 20.00     0.054 C 
HETATM    6  C7  UNL     1     -34.391  14.667  -3.144  1.00 20.00     0.043 C 
HETATM    7  C8  UNL     1     -35.027  15.930  -3.733  1.00 20.00     0.086 C 
HETATM    8  C9  UNL     1     -33.490  17.705  -4.872  1.00 20.00     0.044 C 
ENDROOT
BRANCH   7   9
HETATM    9  C5  UNL     1     -35.109  16.987  -2.666  1.00 20.00     0.131 C 
HETATM   10  C10 UNL     1     -34.231  16.799  -1.458  1.00 20.00     0.091 C 
HETATM   11  O11 UNL     1     -35.856  17.958  -2.775  1.00 20.00    -0.298 OA
ENDBRANCH   7   9
TORSDOF 1
ENDMDL
MODEL 6
REMARK VINA RESULT:      -4.4      2.721      4.275
REMARK  1 active torsions:
REMARK  status: ('A' for Active; 'I' for Inactive)
REMARK    1  A    between atoms: C5_5  and  C8_8 
ROOT
HETATM    1  C1  UNL     1     -33.618  13.683  -3.801  1.00 20.00    -0.027 C 
HETATM    2  C2  UNL     1     -32.941  14.840  -3.747  1.00 20.00    -0.029 C 
HETATM    3  C3  UNL     1     -34.917  13.972  -5.986  1.00 20.00    -0.020 C 
HETATM    4  C4  UNL     1     -34.829  15.294  -6.226  1.00 20.00    -0.076 C 
HETATM    5  C6  UNL     1     -34.800  13.303  -4.646  1.00 20.00     0.054 C 
HETATM    6  C7  UNL     1     -33.219  16.128  -4.470  1.00 20.00     0.043 C 
HETATM    7  C8  UNL     1     -34.617  16.262  -5.083  1.00 20.00     0.086 C 
HETATM    8  C9  UNL     1     -34.925  15.812  -7.636  1.00 20.00     0.044 C 
ENDROOT
BRANCH   7   9
HETATM    9  C5  UNL     1     -34.833  17.686  -5.517  1.00 20.00     0.131 C 
HETATM   10  C10 UNL     1     -33.600  18.502  -5.798  1.00 20.00     0.091 C 
HETATM   11  O11 UNL     1     -35.961  18.159  -5.638  1.00 20.00    -0.298 OA
ENDBRANCH   7   9
TORSDOF 1
ENDMDL
MODEL 7
REMARK VINA RESULT:      -4.4      2.026      3.942
REMARK  1 active torsions:
REMARK  status: ('A' for Active; 'I' for Inactive)
REMARK    1  A    between atoms: C5_5  and  C8_8 
ROOT
HETATM    1  C1  UNL     1     -35.644  16.572  -7.895  1.00 20.00    -0.027 C 
HETATM    2  C2  UNL     1     -34.493  16.487  -7.210  1.00 20.00    -0.029 C 
HETATM    3  C3  UNL     1     -37.306  15.654  -6.180  1.00 20.00    -0.020 C 
HETATM    4  C4  UNL     1     -36.515  15.034  -5.284  1.00 20.00    -0.076 C 
HETATM    5  C6  UNL     1     -36.972  15.927  -7.619  1.00 20.00     0.054 C 
HETATM    6  C7  UNL     1     -34.176  15.654  -6.001  1.00 20.00     0.043 C 
HETATM    7  C8  UNL     1     -35.156  14.516  -5.698  1.00 20.00     0.086 C 
HETATM    8  C9  UNL     1     -36.975  14.871  -3.860  1.00 20.00     0.044 C 
ENDROOT
BRANCH   7   9
HETATM    9  C5  UNL     1     -34.563  13.618  -4.647  1.00 20.00     0.131 C 
HETATM   10  C10 UNL     1     -33.448  14.194  -3.816  1.00 20.00     0.091 C 
HETATM   11  O11 UNL     1     -34.970  12.471  -4.474  1.00 20.00    -0.298 OA
ENDBRANCH   7   9
TORSDOF 1
ENDMDL
MODEL 8
REMARK VINA RESULT:      -4.3      1.640      2.165
REMARK  1 active torsions:
REMARK  status: ('A' for Active; 'I' for Inactive)
REMARK    1  A    between atoms: C5_5  and  C8_8 
ROOT
HETATM    1  C1  UNL     1     -34.437  17.777  -2.625  1.00 20.00    -0.027 C 
HETATM    2  C2  UNL     1     -35.260  17.999  -3.661  1.00 20.00    -0.029 C 
HETATM    3  C3  UNL     1     -34.208  15.231  -2.713  1.00 20.00    -0.020 C 
HETATM    4  C4  UNL     1     -35.234  14.855  -3.500  1.00 20.00    -0.076 C 
HETATM    5  C6  UNL     1     -34.124  16.496  -1.907  1.00 20.00     0.054 C 
HETATM    6  C7  UNL     1     -36.174  17.033  -4.361  1.00 20.00     0.043 C 
HETATM    7  C8  UNL     1     -36.464  15.727  -3.614  1.00 20.00     0.086 C 
HETATM    8  C9  UNL     1     -35.152  13.572  -4.281  1.00 20.00     0.044 C 
ENDROOT
BRANCH   7   9
HETATM    9  C5  UNL     1     -37.592  15.005  -4.299  1.00 20.00     0.131 C 
HETATM   10  C10 UNL     1     -37.841  15.353  -5.742  1.00 20.00     0.091 C 
HETATM   11  O11 UNL     1     -38.276  14.170  -3.710  1.00 20.00    -0.298 OA
ENDBRANCH   7   9
TORSDOF 1
ENDMDL
MODEL 9
REMARK VINA RESULT:      -4.3      1.847      2.584
REMARK  1 active torsions:
REMARK  status: ('A' for Active; 'I' for Inactive)
REMARK    1  A    between atoms: C5_5  and  C8_8 
ROOT
HETATM    1  C1  UNL     1     -37.590  16.935  -4.070  1.00 20.00    -0.027 C 
HETATM    2  C2  UNL     1     -37.776  15.631  -3.813  1.00 20.00    -0.029 C 
HETATM    3  C3  UNL     1     -35.670  16.835  -5.757  1.00 20.00    -0.020 C 
HETATM    4  C4  UNL     1     -35.188  15.587  -5.604  1.00 20.00    -0.076 C 
HETATM    5  C6  UNL     1     -36.432  17.625  -4.732  1.00 20.00     0.054 C 
HETATM    6  C7  UNL     1     -36.836  14.482  -4.045  1.00 20.00     0.043 C 
HETATM    7  C8  UNL     1     -35.371  14.856  -4.293  1.00 20.00     0.086 C 
HETATM    8  C9  UNL     1     -34.478  14.910  -6.745  1.00 20.00     0.044 C 
ENDROOT
BRANCH   7   9
HETATM    9  C5  UNL     1     -34.525  13.615  -4.229  1.00 20.00     0.131 C 
HETATM   10  C10 UNL     1     -33.143  13.768  -3.653  1.00 20.00     0.091 C 
HETATM   11  O11 UNL     1     -34.942  12.528  -4.626  1.00 20.00    -0.298 OA
ENDBRANCH   7   9
TORSDOF 1
ENDMDL
