MODEL 1
REMARK VINA RESULT:      -3.5      0.000      0.000
REMARK  3 active torsions:
REMARK  status: ('A' for Active; 'I' for Inactive)
REMARK    1  A    between atoms: C1_1  and  C7_7 
REMARK    2  A    between atoms: C1_1  and  N8_8 
REMARK    3  A    between atoms: C6_6  and  N8_8 
ROOT
HETATM    1  C1  UNL     1     -35.481  15.401  -3.140  1.00 20.00     0.078 C 
HETATM    2  S9  UNL     1     -37.020  15.009  -3.743  1.00 20.00    -0.065 SA
ENDROOT
BRANCH   1   3
HETATM    3  C7  UNL     1     -34.306  14.408  -3.357  1.00 20.00     0.039 C 
HETATM    4  C3  UNL     1     -34.694  13.323  -4.365  1.00 20.00     0.017 C 
HETATM    5  C4  UNL     1     -32.985  15.069  -3.764  1.00 20.00     0.017 C 
ENDBRANCH   1   3
BRANCH   1   6
HETATM    6  N8  UNL     1     -35.199  16.567  -2.404  1.00 20.00    -0.380 N 
HETATM    7  C5  UNL     1     -35.348  17.916  -2.947  1.00 20.00     0.150 C 
BRANCH   6   8
HETATM    8  C6  UNL     1     -34.715  16.537  -1.021  1.00 20.00     0.118 C 
HETATM    9  C2  UNL     1     -33.678  17.583  -0.792  1.00 20.00     0.026 C 
ENDBRANCH   6   8
ENDBRANCH   1   6
TORSDOF 3
ENDMDL
MODEL 2
REMARK VINA RESULT:      -3.5      1.530      3.726
REMARK  3 active torsions:
REMARK  status: ('A' for Active; 'I' for Inactive)
REMARK    1  A    between atoms: C1_1  and  C7_7 
REMARK    2  A    between atoms: C1_1  and  N8_8 
REMARK    3  A    between atoms: C6_6  and  N8_8 
ROOT
HETATM    1  C1  UNL     1     -34.461  16.638  -2.847  1.00 20.00     0.078 C 
HETATM    2  S9  UNL     1     -36.145  16.717  -3.058  1.00 20.00    -0.065 SA
ENDROOT
BRANCH   1   3
HETATM    3  C7  UNL     1     -33.841  17.124  -1.509  1.00 20.00     0.039 C 
HETATM    4  C3  UNL     1     -33.393  18.583  -1.619  1.00 20.00     0.017 C 
HETATM    5  C4  UNL     1     -34.745  16.932  -0.286  1.00 20.00     0.017 C 
ENDBRANCH   1   3
BRANCH   1   6
HETATM    6  N8  UNL     1     -33.566  16.194  -3.838  1.00 20.00    -0.380 N 
HETATM    7  C5  UNL     1     -33.352  16.897  -5.102  1.00 20.00     0.150 C 
BRANCH   6   8
HETATM    8  C6  UNL     1     -32.768  14.972  -3.701  1.00 20.00     0.118 C 
HETATM    9  C2  UNL     1     -33.627  13.757  -3.790  1.00 20.00     0.026 C 
ENDBRANCH   6   8
ENDBRANCH   1   6
TORSDOF 3
ENDMDL
MODEL 3
REMARK VINA RESULT:      -3.4      1.720      3.895
REMARK  3 active torsions:
REMARK  status: ('A' for Active; 'I' for Inactive)
REMARK    1  A    between atoms: C1_1  and  C7_7 
REMARK    2  A    between atoms: C1_1  and  N8_8 
REMARK    3  A    between atoms: C6_6  and  N8_8 
ROOT
HETATM    1  C1  UNL     1     -35.070  15.350  -3.440  1.00 20.00     0.078 C 
HETATM    2  S9  UNL     1     -36.734  15.688  -3.473  1.00 20.00    -0.065 SA
ENDROOT
BRANCH   1   3
HETATM    3  C7  UNL     1     -34.139  16.211  -2.543  1.00 20.00     0.039 C 
HETATM    4  C3  UNL     1     -33.794  17.533  -3.233  1.00 20.00     0.017 C 
HETATM    5  C4  UNL     1     -34.682  16.469  -1.133  1.00 20.00     0.017 C 
ENDBRANCH   1   3
BRANCH   1   6
HETATM    6  N8  UNL     1     -34.456  14.352  -4.219  1.00 20.00    -0.380 N 
HETATM    7  C5  UNL     1     -33.299  13.579  -3.770  1.00 20.00     0.150 C 
BRANCH   6   8
HETATM    8  C6  UNL     1     -34.912  14.002  -5.568  1.00 20.00     0.118 C 
HETATM    9  C2  UNL     1     -34.460  15.010  -6.568  1.00 20.00     0.026 C 
ENDBRANCH   6   8
ENDBRANCH   1   6
TORSDOF 3
ENDMDL
MODEL 4
REMARK VINA RESULT:      -3.4     11.604     12.344
REMARK  3 active torsions:
REMARK  status: ('A' for Active; 'I' for Inactive)
REMARK    1  A    between atoms: C1_1  and  C7_7 
REMARK    2  A    between atoms: C1_1  and  N8_8 
REMARK    3  A    between atoms: C6_6  and  N8_8 
ROOT
HETATM    1  C1  UNL     1     -33.574   6.188   4.804  1.00 20.00     0.078 C 
HETATM    2  S9  UNL     1     -33.533   7.002   6.294  1.00 20.00    -0.065 SA
ENDROOT
BRANCH   1   3
HETATM    3  C7  UNL     1     -34.633   5.075   4.576  1.00 20.00     0.039 C 
HETATM    4  C3  UNL     1     -35.048   4.443   5.907  1.00 20.00     0.017 C 
HETATM    5  C4  UNL     1     -35.868   5.528   3.791  1.00 20.00     0.017 C 
ENDBRANCH   1   3
BRANCH   1   6
HETATM    6  N8  UNL     1     -32.667   6.425   3.754  1.00 20.00    -0.380 N 
HETATM    7  C5  UNL     1     -32.332   5.428   2.739  1.00 20.00     0.150 C 
BRANCH   6   8
HETATM    8  C6  UNL     1     -31.958   7.698   3.588  1.00 20.00     0.118 C 
HETATM    9  C2  UNL     1     -32.028   8.172   2.176  1.00 20.00     0.026 C 
ENDBRANCH   6   8
ENDBRANCH   1   6
TORSDOF 3
ENDMDL
MODEL 5
REMARK VINA RESULT:      -3.4      2.123      4.055
REMARK  3 active torsions:
REMARK  status: ('A' for Active; 'I' for Inactive)
REMARK    1  A    between atoms: C1_1  and  C7_7 
REMARK    2  A    between atoms: C1_1  and  N8_8 
REMARK    3  A    between atoms: C6_6  and  N8_8 
ROOT
HETATM    1  C1  UNL     1     -33.794  17.543  -2.937  1.00 20.00     0.078 C 
HETATM    2  S9  UNL     1     -33.815  19.155  -3.471  1.00 20.00    -0.065 SA
ENDROOT
BRANCH   1   3
HETATM    3  C7  UNL     1     -33.577  17.247  -1.428  1.00 20.00     0.039 C 
HETATM    4  C3  UNL     1     -33.103  18.503  -0.693  1.00 20.00     0.017 C 
HETATM    5  C4  UNL     1     -34.795  16.641  -0.721  1.00 20.00     0.017 C 
ENDBRANCH   1   3
BRANCH   1   6
HETATM    6  N8  UNL     1     -33.916  16.431  -3.791  1.00 20.00    -0.380 N 
HETATM    7  C5  UNL     1     -34.932  16.329  -4.838  1.00 20.00     0.150 C 
BRANCH   6   8
HETATM    8  C6  UNL     1     -33.041  15.259  -3.702  1.00 20.00     0.118 C 
HETATM    9  C2  UNL     1     -33.832  13.995  -3.697  1.00 20.00     0.026 C 
ENDBRANCH   6   8
ENDBRANCH   1   6
TORSDOF 3
ENDMDL
MODEL 6
REMARK VINA RESULT:      -3.4      1.745      3.597
REMARK  3 active torsions:
REMARK  status: ('A' for Active; 'I' for Inactive)
REMARK    1  A    between atoms: C1_1  and  C7_7 
REMARK    2  A    between atoms: C1_1  and  N8_8 
REMARK    3  A    between atoms: C6_6  and  N8_8 
ROOT
HETATM    1  C1  UNL     1     -35.854  16.016  -3.226  1.00 20.00     0.078 C 
HETATM    2  S9  UNL     1     -36.367  17.602  -3.556  1.00 20.00    -0.065 SA
ENDROOT
BRANCH   1   3
HETATM    3  C7  UNL     1     -34.639  15.793  -2.285  1.00 20.00     0.039 C 
HETATM    4  C3  UNL     1     -33.328  16.104  -3.013  1.00 20.00     0.017 C 
HETATM    5  C4  UNL     1     -34.713  16.564  -0.962  1.00 20.00     0.017 C 
ENDBRANCH   1   3
BRANCH   1   6
HETATM    6  N8  UNL     1     -36.439  14.868  -3.792  1.00 20.00    -0.380 N 
HETATM    7  C5  UNL     1     -37.880  14.708  -3.980  1.00 20.00     0.150 C 
BRANCH   6   8
HETATM    8  C6  UNL     1     -35.654  13.713  -4.237  1.00 20.00     0.118 C 
HETATM    9  C2  UNL     1     -35.034  13.964  -5.569  1.00 20.00     0.026 C 
ENDBRANCH   6   8
ENDBRANCH   1   6
TORSDOF 3
ENDMDL
MODEL 7
REMARK VINA RESULT:      -3.4      1.669      1.919
REMARK  3 active torsions:
REMARK  status: ('A' for Active; 'I' for Inactive)
REMARK    1  A    between atoms: C1_1  and  C7_7 
REMARK    2  A    between atoms: C1_1  and  N8_8 
REMARK    3  A    between atoms: C6_6  and  N8_8 
ROOT
HETATM    1  C1  UNL     1     -34.657  15.578  -3.977  1.00 20.00     0.078 C 
HETATM    2  S9  UNL     1     -33.682  16.506  -5.013  1.00 20.00    -0.065 SA
ENDROOT
BRANCH   1   3
HETATM    3  C7  UNL     1     -34.378  14.057  -3.834  1.00 20.00     0.039 C 
HETATM    4  C3  UNL     1     -34.834  13.303  -5.086  1.00 20.00     0.017 C 
HETATM    5  C4  UNL     1     -32.923  13.710  -3.501  1.00 20.00     0.017 C 
ENDBRANCH   1   3
BRANCH   1   6
HETATM    6  N8  UNL     1     -35.751  16.094  -3.258  1.00 20.00    -0.380 N 
HETATM    7  C5  UNL     1     -37.142  15.759  -3.560  1.00 20.00     0.150 C 
BRANCH   6   8
HETATM    8  C6  UNL     1     -35.599  17.031  -2.141  1.00 20.00     0.118 C 
HETATM    9  C2  UNL     1     -34.623  16.519  -1.138  1.00 20.00     0.026 C 
ENDBRANCH   6   8
ENDBRANCH   1   6
TORSDOF 3
ENDMDL
MODEL 8
REMARK VINA RESULT:      -3.3      2.256      2.859
REMARK  3 active torsions:
REMARK  status: ('A' for Active; 'I' for Inactive)
REMARK    1  A    between atoms: C1_1  and  C7_7 
REMARK    2  A    between atoms: C1_1  and  N8_8 
REMARK    3  A    between atoms: C6_6  and  N8_8 
ROOT
HETATM    1  C1  UNL     1     -35.100  14.897  -4.620  1.00 20.00     0.078 C 
HETATM    2  S9  UNL     1     -34.435  13.339  -4.495  1.00 20.00    -0.065 SA
ENDROOT
BRANCH   1   3
HETATM    3  C7  UNL     1     -34.564  15.865  -5.710  1.00 20.00     0.039 C 
HETATM    4  C3  UNL     1     -33.256  16.518  -5.257  1.00 20.00     0.017 C 
HETATM    5  C4  UNL     1     -34.392  15.227  -7.093  1.00 20.00     0.017 C 
ENDBRANCH   1   3
BRANCH   1   6
HETATM    6  N8  UNL     1     -36.094  15.398  -3.759  1.00 20.00    -0.380 N 
HETATM    7  C5  UNL     1     -37.471  14.907  -3.747  1.00 20.00     0.150 C 
BRANCH   6   8
HETATM    8  C6  UNL     1     -35.843  16.475  -2.796  1.00 20.00     0.118 C 
HETATM    9  C2  UNL     1     -34.753  16.106  -1.849  1.00 20.00     0.026 C 
ENDBRANCH   6   8
ENDBRANCH   1   6
TORSDOF 3
ENDMDL
MODEL 9
REMARK VINA RESULT:      -3.3      1.787      2.122
REMARK  3 active torsions:
REMARK  status: ('A' for Active; 'I' for Inactive)
REMARK    1  A    between atoms: C1_1  and  C7_7 
REMARK    2  A    between atoms: C1_1  and  N8_8 
REMARK    3  A    between atoms: C6_6  and  N8_8 
ROOT
HETATM    1  C1  UNL     1     -35.103  15.838  -4.747  1.00 20.00     0.078 C 
HETATM    2  S9  UNL     1     -36.781  16.096  -4.801  1.00 20.00    -0.065 SA
ENDROOT
BRANCH   1   3
HETATM    3  C7  UNL     1     -34.495  14.638  -5.523  1.00 20.00     0.039 C 
HETATM    4  C3  UNL     1     -34.811  13.319  -4.813  1.00 20.00     0.017 C 
HETATM    5  C4  UNL     1     -34.906  14.565  -6.998  1.00 20.00     0.017 C 
ENDBRANCH   1   3
BRANCH   1   6
HETATM    6  N8  UNL     1     -34.212  16.627  -3.996  1.00 20.00    -0.380 N 
HETATM    7  C5  UNL     1     -33.737  17.940  -4.431  1.00 20.00     0.150 C 
BRANCH   6   8
HETATM    8  C6  UNL     1     -33.662  16.198  -2.707  1.00 20.00     0.118 C 
HETATM    9  C2  UNL     1     -34.694  16.261  -1.634  1.00 20.00     0.026 C 
ENDBRANCH   6   8
ENDBRANCH   1   6
TORSDOF 3
ENDMDL
