MODEL 1
REMARK VINA RESULT:      -3.7      0.000      0.000
REMARK  0 active torsions:
REMARK  status: ('A' for Active; 'I' for Inactive)
ROOT
HETATM    1  C1  UNL     1     -36.171  14.269  -4.121  1.00 20.00     0.029 C 
HETATM    2  C2  UNL     1     -35.602  15.673  -4.325  1.00 20.00     0.046 C 
HETATM    3  C3  UNL     1     -35.092  13.218  -4.340  1.00 20.00     0.167 C 
HETATM    4  C4  UNL     1     -33.340  14.714  -3.763  1.00 20.00     0.209 C 
HETATM    5  C5  UNL     1     -34.305  15.881  -3.537  1.00 20.00     0.134 C 
HETATM    6  O6  UNL     1     -33.970  13.457  -3.492  1.00 20.00    -0.388 OA
HETATM    7 CL7  UNL     1     -33.528  17.411  -4.049  1.00 20.00    -0.099 Cl
HETATM    8 CL8  UNL     1     -34.670  16.014  -1.780  1.00 20.00    -0.099 Cl
ENDROOT
TORSDOF 0
ENDMDL
MODEL 2
REMARK VINA RESULT:      -3.7      1.886      2.383
REMARK  0 active torsions:
REMARK  status: ('A' for Active; 'I' for Inactive)
ROOT
HETATM    1  C1  UNL     1     -34.779  13.297  -5.199  1.00 20.00     0.029 C 
HETATM    2  C2  UNL     1     -34.918  13.867  -3.788  1.00 20.00     0.046 C 
HETATM    3  C3  UNL     1     -34.986  14.390  -6.239  1.00 20.00     0.167 C 
HETATM    4  C4  UNL     1     -34.294  16.109  -4.754  1.00 20.00     0.209 C 
HETATM    5  C5  UNL     1     -34.072  15.130  -3.599  1.00 20.00     0.134 C 
HETATM    6  O6  UNL     1     -34.087  15.476  -6.021  1.00 20.00    -0.388 OA
HETATM    7 CL7  UNL     1     -34.505  15.919  -2.050  1.00 20.00    -0.099 Cl
HETATM    8 CL8  UNL     1     -32.327  14.694  -3.521  1.00 20.00    -0.099 Cl
ENDROOT
TORSDOF 0
ENDMDL
MODEL 3
REMARK VINA RESULT:      -3.7     12.081     12.899
REMARK  0 active torsions:
REMARK  status: ('A' for Active; 'I' for Inactive)
ROOT
HETATM    1  C1  UNL     1     -40.818   6.006  -0.168  1.00 20.00     0.029 C 
HETATM    2  C2  UNL     1     -40.647   4.697  -0.939  1.00 20.00     0.046 C 
HETATM    3  C3  UNL     1     -41.343   7.102  -1.085  1.00 20.00     0.167 C 
HETATM    4  C4  UNL     1     -42.390   5.551  -2.548  1.00 20.00     0.209 C 
HETATM    5  C5  UNL     1     -41.903   4.343  -1.742  1.00 20.00     0.134 C 
HETATM    6  O6  UNL     1     -42.560   6.701  -1.712  1.00 20.00    -0.388 OA
HETATM    7 CL7  UNL     1     -41.543   2.985  -2.853  1.00 20.00    -0.099 Cl
HETATM    8 CL8  UNL     1     -43.212   3.808  -0.630  1.00 20.00    -0.099 Cl
ENDROOT
TORSDOF 0
ENDMDL
MODEL 4
REMARK VINA RESULT:      -3.7     12.167     13.017
REMARK  0 active torsions:
REMARK  status: ('A' for Active; 'I' for Inactive)
ROOT
HETATM    1  C1  UNL     1     -35.173   4.362   6.021  1.00 20.00     0.029 C 
HETATM    2  C2  UNL     1     -34.824   4.057   4.565  1.00 20.00     0.046 C 
HETATM    3  C3  UNL     1     -34.232   5.417   6.587  1.00 20.00     0.167 C 
HETATM    4  C4  UNL     1     -33.796   6.356   4.449  1.00 20.00     0.209 C 
HETATM    5  C5  UNL     1     -34.686   5.337   3.734  1.00 20.00     0.134 C 
HETATM    6  O6  UNL     1     -34.251   6.598   5.785  1.00 20.00    -0.388 OA
HETATM    7 CL7  UNL     1     -33.982   4.942   2.134  1.00 20.00    -0.099 Cl
HETATM    8 CL8  UNL     1     -36.309   6.063   3.453  1.00 20.00    -0.099 Cl
ENDROOT
TORSDOF 0
ENDMDL
MODEL 5
REMARK VINA RESULT:      -3.5      2.668      3.135
REMARK  0 active torsions:
REMARK  status: ('A' for Active; 'I' for Inactive)
ROOT
HETATM    1  C1  UNL     1     -33.988  13.838  -3.615  1.00 20.00     0.029 C 
HETATM    2  C2  UNL     1     -34.548  13.486  -4.992  1.00 20.00     0.046 C 
HETATM    3  C3  UNL     1     -32.977  14.972  -3.723  1.00 20.00     0.167 C 
HETATM    4  C4  UNL     1     -33.967  15.833  -5.703  1.00 20.00     0.209 C 
HETATM    5  C5  UNL     1     -35.028  14.731  -5.746  1.00 20.00     0.134 C 
HETATM    6  O6  UNL     1     -33.557  16.110  -4.359  1.00 20.00    -0.388 OA
HETATM    7 CL7  UNL     1     -35.382  14.304  -7.449  1.00 20.00    -0.099 Cl
HETATM    8 CL8  UNL     1     -36.550  15.346  -5.008  1.00 20.00    -0.099 Cl
ENDROOT
TORSDOF 0
ENDMDL
MODEL 6
REMARK VINA RESULT:      -3.5      2.259      3.040
REMARK  0 active torsions:
REMARK  status: ('A' for Active; 'I' for Inactive)
ROOT
HETATM    1  C1  UNL     1     -33.042  15.243  -3.923  1.00 20.00     0.029 C 
HETATM    2  C2  UNL     1     -34.393  15.810  -4.357  1.00 20.00     0.046 C 
HETATM    3  C3  UNL     1     -33.188  13.792  -3.482  1.00 20.00     0.167 C 
HETATM    4  C4  UNL     1     -35.104  13.441  -4.842  1.00 20.00     0.209 C 
HETATM    5  C5  UNL     1     -35.105  14.886  -5.349  1.00 20.00     0.134 C 
HETATM    6  O6  UNL     1     -33.780  13.005  -4.515  1.00 20.00    -0.388 OA
HETATM    7 CL7  UNL     1     -36.793  15.439  -5.582  1.00 20.00    -0.099 Cl
HETATM    8 CL8  UNL     1     -34.283  14.952  -6.948  1.00 20.00    -0.099 Cl
ENDROOT
TORSDOF 0
ENDMDL
MODEL 7
REMARK VINA RESULT:      -3.5      2.372      3.063
REMARK  0 active torsions:
REMARK  status: ('A' for Active; 'I' for Inactive)
ROOT
HETATM    1  C1  UNL     1     -33.725  15.927  -2.761  1.00 20.00     0.029 C 
HETATM    2  C2  UNL     1     -33.430  15.878  -4.259  1.00 20.00     0.046 C 
HETATM    3  C3  UNL     1     -35.190  16.262  -2.515  1.00 20.00     0.167 C 
HETATM    4  C4  UNL     1     -35.875  15.371  -4.608  1.00 20.00     0.209 C 
HETATM    5  C5  UNL     1     -34.443  15.006  -5.009  1.00 20.00     0.134 C 
HETATM    6  O6  UNL     1     -36.042  15.335  -3.186  1.00 20.00    -0.388 OA
HETATM    7 CL7  UNL     1     -34.239  15.230  -6.774  1.00 20.00    -0.099 Cl
HETATM    8 CL8  UNL     1     -34.149  13.269  -4.640  1.00 20.00    -0.099 Cl
ENDROOT
TORSDOF 0
ENDMDL
MODEL 8
REMARK VINA RESULT:      -3.5      1.647      2.350
REMARK  0 active torsions:
REMARK  status: ('A' for Active; 'I' for Inactive)
ROOT
HETATM    1  C1  UNL     1     -33.732  13.744  -3.776  1.00 20.00     0.029 C 
HETATM    2  C2  UNL     1     -34.274  15.067  -3.238  1.00 20.00     0.046 C 
HETATM    3  C3  UNL     1     -34.674  13.166  -4.823  1.00 20.00     0.167 C 
HETATM    4  C4  UNL     1     -35.537  15.301  -5.407  1.00 20.00     0.209 C 
HETATM    5  C5  UNL     1     -34.672  16.021  -4.369  1.00 20.00     0.134 C 
HETATM    6  O6  UNL     1     -34.904  14.104  -5.873  1.00 20.00    -0.388 OA
HETATM    7 CL7  UNL     1     -35.576  17.412  -3.694  1.00 20.00    -0.099 Cl
HETATM    8 CL8  UNL     1     -33.197  16.665  -5.174  1.00 20.00    -0.099 Cl
ENDROOT
TORSDOF 0
ENDMDL
MODEL 9
REMARK VINA RESULT:      -3.4      1.549      1.648
REMARK  0 active torsions:
REMARK  status: ('A' for Active; 'I' for Inactive)
ROOT
HETATM    1  C1  UNL     1     -35.179  14.580  -6.025  1.00 20.00     0.029 C 
HETATM    2  C2  UNL     1     -34.528  15.590  -5.081  1.00 20.00     0.046 C 
HETATM    3  C3  UNL     1     -34.717  13.167  -5.697  1.00 20.00     0.167 C 
HETATM    4  C4  UNL     1     -34.270  13.705  -3.427  1.00 20.00     0.209 C 
HETATM    5  C5  UNL     1     -34.672  15.170  -3.614  1.00 20.00     0.134 C 
HETATM    6  O6  UNL     1     -34.979  12.851  -4.331  1.00 20.00    -0.388 OA
HETATM    7 CL7  UNL     1     -33.639  16.213  -2.586  1.00 20.00    -0.099 Cl
HETATM    8 CL8  UNL     1     -36.375  15.389  -3.077  1.00 20.00    -0.099 Cl
ENDROOT
TORSDOF 0
ENDMDL
