MODEL 1
REMARK VINA RESULT:      -5.0      0.000      0.000
REMARK  1 active torsions:
REMARK  status: ('A' for Active; 'I' for Inactive)
REMARK    1  A    between atoms: C1_1  and  C3_3 
ROOT
HETATM    1  C1  UNL     1     -36.450  15.623  -3.521  1.00 20.00    -0.010 C 
HETATM    2  C2  UNL     1     -35.282  14.969  -3.427  1.00 20.00    -0.066 C 
HETATM    3  C4  UNL     1     -36.663  17.003  -2.957  1.00 20.00     0.042 C 
HETATM    4  C5  UNL     1     -34.887  13.666  -4.072  1.00 20.00     0.035 C 
HETATM    5  C6  UNL     1     -35.490  17.532  -2.119  1.00 20.00     0.005 C 
HETATM    6  C7  UNL     1     -33.380  13.571  -3.818  1.00 20.00     0.005 C 
HETATM    7  C8  UNL     1     -34.139  17.102  -2.692  1.00 20.00     0.009 C 
HETATM    8  C9  UNL     1     -32.931  15.008  -3.566  1.00 20.00     0.009 C 
HETATM    9  C10 UNL     1     -34.081  15.579  -2.749  1.00 20.00     0.015 C 
ENDROOT
BRANCH   1  10
HETATM   10  C3  UNL     1     -37.579  15.016  -4.235  1.00 20.00     0.152 C 
HETATM   11  C11 UNL     1     -37.800  15.411  -5.673  1.00 20.00     0.096 C 
HETATM   12  O12 UNL     1     -38.321  14.214  -3.667  1.00 20.00    -0.293 OA
ENDBRANCH   1  10
TORSDOF 1
ENDMDL
MODEL 2
REMARK VINA RESULT:      -4.9      2.410      3.596
REMARK  1 active torsions:
REMARK  status: ('A' for Active; 'I' for Inactive)
REMARK    1  A    between atoms: C1_1  and  C3_3 
ROOT
HETATM    1  C1  UNL     1     -34.039  15.526  -4.252  1.00 20.00    -0.010 C 
HETATM    2  C2  UNL     1     -34.300  16.339  -3.216  1.00 20.00    -0.066 C 
HETATM    3  C4  UNL     1     -33.691  16.036  -5.626  1.00 20.00     0.042 C 
HETATM    4  C5  UNL     1     -34.506  15.972  -1.770  1.00 20.00     0.035 C 
HETATM    5  C6  UNL     1     -33.824  17.557  -5.788  1.00 20.00     0.005 C 
HETATM    6  C7  UNL     1     -34.498  17.320  -1.043  1.00 20.00     0.005 C 
HETATM    7  C8  UNL     1     -33.397  18.306  -4.525  1.00 20.00     0.009 C 
HETATM    8  C9  UNL     1     -33.756  18.269  -1.980  1.00 20.00     0.009 C 
HETATM    9  C10 UNL     1     -34.254  17.840  -3.353  1.00 20.00     0.015 C 
ENDROOT
BRANCH   1  10
HETATM   10  C3  UNL     1     -34.042  14.070  -4.065  1.00 20.00     0.152 C 
HETATM   11  C11 UNL     1     -35.328  13.328  -4.320  1.00 20.00     0.096 C 
HETATM   12  O12 UNL     1     -33.020  13.484  -3.706  1.00 20.00    -0.293 OA
ENDBRANCH   1  10
TORSDOF 1
ENDMDL
MODEL 3
REMARK VINA RESULT:      -4.8      1.840      2.538
REMARK  1 active torsions:
REMARK  status: ('A' for Active; 'I' for Inactive)
REMARK    1  A    between atoms: C1_1  and  C3_3 
ROOT
HETATM    1  C1  UNL     1     -36.115  15.290  -3.971  1.00 20.00    -0.010 C 
HETATM    2  C2  UNL     1     -35.631  15.060  -5.202  1.00 20.00    -0.066 C 
HETATM    3  C4  UNL     1     -35.236  15.625  -2.795  1.00 20.00     0.042 C 
HETATM    4  C5  UNL     1     -36.395  14.869  -6.486  1.00 20.00     0.035 C 
HETATM    5  C6  UNL     1     -33.731  15.517  -3.079  1.00 20.00     0.005 C 
HETATM    6  C7  UNL     1     -35.313  14.913  -7.569  1.00 20.00     0.005 C 
HETATM    7  C8  UNL     1     -33.382  15.977  -4.495  1.00 20.00     0.009 C 
HETATM    8  C9  UNL     1     -34.144  15.657  -6.929  1.00 20.00     0.009 C 
HETATM    9  C10 UNL     1     -34.154  15.130  -5.501  1.00 20.00     0.015 C 
ENDROOT
BRANCH   1  10
HETATM   10  C3  UNL     1     -37.563  15.264  -3.733  1.00 20.00     0.152 C 
HETATM   11  C11 UNL     1     -38.277  16.581  -3.578  1.00 20.00     0.096 C 
HETATM   12  O12 UNL     1     -38.166  14.192  -3.658  1.00 20.00    -0.293 OA
ENDBRANCH   1  10
TORSDOF 1
ENDMDL
MODEL 4
REMARK VINA RESULT:      -4.7      2.299      3.315
REMARK  1 active torsions:
REMARK  status: ('A' for Active; 'I' for Inactive)
REMARK    1  A    between atoms: C1_1  and  C3_3 
ROOT
HETATM    1  C1  UNL     1     -34.161  15.566  -3.199  1.00 20.00    -0.010 C 
HETATM    2  C2  UNL     1     -33.859  16.562  -4.047  1.00 20.00    -0.066 C 
HETATM    3  C4  UNL     1     -34.543  15.802  -1.761  1.00 20.00     0.042 C 
HETATM    4  C5  UNL     1     -33.613  16.483  -5.531  1.00 20.00     0.035 C 
HETATM    5  C6  UNL     1     -34.396  17.259  -1.299  1.00 20.00     0.005 C 
HETATM    6  C7  UNL     1     -33.582  17.948  -5.978  1.00 20.00     0.005 C 
HETATM    7  C8  UNL     1     -34.775  18.250  -2.401  1.00 20.00     0.009 C 
HETATM    8  C9  UNL     1     -34.340  18.707  -4.892  1.00 20.00     0.009 C 
HETATM    9  C10 UNL     1     -33.889  18.008  -3.618  1.00 20.00     0.015 C 
ENDROOT
BRANCH   1  10
HETATM   10  C3  UNL     1     -34.171  14.176  -3.669  1.00 20.00     0.152 C 
HETATM   11  C11 UNL     1     -35.469  13.616  -4.190  1.00 20.00     0.096 C 
HETATM   12  O12 UNL     1     -33.146  13.495  -3.630  1.00 20.00    -0.293 OA
ENDBRANCH   1  10
TORSDOF 1
ENDMDL
MODEL 5
REMARK VINA RESULT:      -4.7      1.967      4.341
REMARK  1 active torsions:
REMARK  status: ('A' for Active; 'I' for Inactive)
REMARK    1  A    between atoms: C1_1  and  C3_3 
ROOT
HETATM    1  C1  UNL     1     -34.198  15.974  -3.070  1.00 20.00    -0.010 C 
HETATM    2  C2  UNL     1     -35.490  15.654  -3.239  1.00 20.00    -0.066 C 
HETATM    3  C4  UNL     1     -33.069  15.051  -3.448  1.00 20.00     0.042 C 
HETATM    4  C5  UNL     1     -36.702  16.530  -3.053  1.00 20.00     0.035 C 
HETATM    5  C6  UNL     1     -33.518  13.649  -3.885  1.00 20.00     0.005 C 
HETATM    6  C7  UNL     1     -37.848  15.703  -3.641  1.00 20.00     0.005 C 
HETATM    7  C8  UNL     1     -34.821  13.690  -4.685  1.00 20.00     0.009 C 
HETATM    8  C9  UNL     1     -37.175  14.716  -4.591  1.00 20.00     0.009 C 
HETATM    9  C10 UNL     1     -35.911  14.334  -3.835  1.00 20.00     0.015 C 
ENDROOT
BRANCH   1  10
HETATM   10  C3  UNL     1     -33.829  17.290  -2.535  1.00 20.00     0.152 C 
HETATM   11  C11 UNL     1     -33.712  17.438  -1.040  1.00 20.00     0.096 C 
HETATM   12  O12 UNL     1     -33.628  18.240  -3.293  1.00 20.00    -0.293 OA
ENDBRANCH   1  10
TORSDOF 1
ENDMDL
MODEL 6
REMARK VINA RESULT:      -4.6      0.719      2.788
REMARK  1 active torsions:
REMARK  status: ('A' for Active; 'I' for Inactive)
REMARK    1  A    between atoms: C1_1  and  C3_3 
ROOT
HETATM    1  C1  UNL     1     -36.237  14.758  -4.087  1.00 20.00    -0.010 C 
HETATM    2  C2  UNL     1     -35.652  15.762  -3.415  1.00 20.00    -0.066 C 
HETATM    3  C4  UNL     1     -35.485  13.541  -4.559  1.00 20.00     0.042 C 
HETATM    4  C5  UNL     1     -36.304  16.950  -2.757  1.00 20.00     0.035 C 
HETATM    5  C6  UNL     1     -33.965  13.619  -4.357  1.00 20.00     0.005 C 
HETATM    6  C7  UNL     1     -35.174  17.584  -1.940  1.00 20.00     0.005 C 
HETATM    7  C8  UNL     1     -33.597  14.332  -3.055  1.00 20.00     0.009 C 
HETATM    8  C9  UNL     1     -34.159  16.463  -1.733  1.00 20.00     0.009 C 
HETATM    9  C10 UNL     1     -34.184  15.740  -3.072  1.00 20.00     0.015 C 
ENDROOT
BRANCH   1  10
HETATM   10  C3  UNL     1     -37.679  14.793  -4.356  1.00 20.00     0.152 C 
HETATM   11  C11 UNL     1     -38.147  15.468  -5.619  1.00 20.00     0.096 C 
HETATM   12  O12 UNL     1     -38.475  14.287  -3.564  1.00 20.00    -0.293 OA
ENDBRANCH   1  10
TORSDOF 1
ENDMDL
MODEL 7
REMARK VINA RESULT:      -4.6      3.247      4.272
REMARK  1 active torsions:
REMARK  status: ('A' for Active; 'I' for Inactive)
REMARK    1  A    between atoms: C1_1  and  C3_3 
ROOT
HETATM    1  C1  UNL     1     -33.741  16.404  -4.930  1.00 20.00    -0.010 C 
HETATM    2  C2  UNL     1     -34.228  15.826  -6.040  1.00 20.00    -0.066 C 
HETATM    3  C4  UNL     1     -33.470  17.882  -4.829  1.00 20.00     0.042 C 
HETATM    4  C5  UNL     1     -34.687  14.403  -6.228  1.00 20.00     0.035 C 
HETATM    5  C6  UNL     1     -33.635  18.647  -6.149  1.00 20.00     0.005 C 
HETATM    6  C7  UNL     1     -35.370  14.414  -7.598  1.00 20.00     0.005 C 
HETATM    7  C8  UNL     1     -34.794  18.102  -6.985  1.00 20.00     0.009 C 
HETATM    8  C9  UNL     1     -35.747  15.873  -7.839  1.00 20.00     0.009 C 
HETATM    9  C10 UNL     1     -34.549  16.626  -7.277  1.00 20.00     0.015 C 
ENDROOT
BRANCH   1  10
HETATM   10  C3  UNL     1     -33.491  15.598  -3.729  1.00 20.00     0.152 C 
HETATM   11  C11 UNL     1     -34.525  15.623  -2.634  1.00 20.00     0.096 C 
HETATM   12  O12 UNL     1     -32.461  14.930  -3.628  1.00 20.00    -0.293 OA
ENDBRANCH   1  10
TORSDOF 1
ENDMDL
MODEL 8
REMARK VINA RESULT:      -4.6      2.025      3.504
REMARK  1 active torsions:
REMARK  status: ('A' for Active; 'I' for Inactive)
REMARK    1  A    between atoms: C1_1  and  C3_3 
ROOT
HETATM    1  C1  UNL     1     -35.408  16.569  -2.764  1.00 20.00    -0.010 C 
HETATM    2  C2  UNL     1     -34.919  15.520  -3.443  1.00 20.00    -0.066 C 
HETATM    3  C4  UNL     1     -36.842  17.018  -2.872  1.00 20.00     0.042 C 
HETATM    4  C5  UNL     1     -33.564  14.874  -3.315  1.00 20.00     0.035 C 
HETATM    5  C6  UNL     1     -37.656  16.284  -3.947  1.00 20.00     0.005 C 
HETATM    6  C7  UNL     1     -33.689  13.589  -4.139  1.00 20.00     0.005 C 
HETATM    7  C8  UNL     1     -37.269  14.807  -4.047  1.00 20.00     0.009 C 
HETATM    8  C9  UNL     1     -35.188  13.308  -4.205  1.00 20.00     0.009 C 
HETATM    9  C10 UNL     1     -35.782  14.699  -4.368  1.00 20.00     0.015 C 
ENDROOT
BRANCH   1  10
HETATM   10  C3  UNL     1     -34.549  17.310  -1.834  1.00 20.00     0.152 C 
HETATM   11  C11 UNL     1     -34.642  16.977  -0.367  1.00 20.00     0.096 C 
HETATM   12  O12 UNL     1     -33.782  18.180  -2.248  1.00 20.00    -0.293 OA
ENDBRANCH   1  10
TORSDOF 1
ENDMDL
MODEL 9
REMARK VINA RESULT:      -4.5      1.472      2.937
REMARK  1 active torsions:
REMARK  status: ('A' for Active; 'I' for Inactive)
REMARK    1  A    between atoms: C1_1  and  C3_3 
ROOT
HETATM    1  C1  UNL     1     -36.008  14.781  -4.024  1.00 20.00    -0.010 C 
HETATM    2  C2  UNL     1     -35.393  15.554  -3.115  1.00 20.00    -0.066 C 
HETATM    3  C4  UNL     1     -37.470  14.917  -4.359  1.00 20.00     0.042 C 
HETATM    4  C5  UNL     1     -33.923  15.631  -2.796  1.00 20.00     0.035 C 
HETATM    5  C6  UNL     1     -38.237  15.895  -3.459  1.00 20.00     0.005 C 
HETATM    6  C7  UNL     1     -33.807  16.856  -1.885  1.00 20.00     0.005 C 
HETATM    7  C8  UNL     1     -37.387  17.108  -3.079  1.00 20.00     0.009 C 
HETATM    8  C9  UNL     1     -35.048  17.691  -2.187  1.00 20.00     0.009 C 
HETATM    9  C10 UNL     1     -36.129  16.633  -2.361  1.00 20.00     0.015 C 
ENDROOT
BRANCH   1  10
HETATM   10  C3  UNL     1     -35.245  13.777  -4.774  1.00 20.00     0.152 C 
HETATM   11  C11 UNL     1     -34.738  14.151  -6.143  1.00 20.00     0.096 C 
HETATM   12  O12 UNL     1     -35.035  12.662  -4.293  1.00 20.00    -0.293 OA
ENDBRANCH   1  10
TORSDOF 1
ENDMDL
