MODEL 1
REMARK VINA RESULT:      -5.2      0.000      0.000
REMARK  0 active torsions:
REMARK  status: ('A' for Active; 'I' for Inactive)
ROOT
HETATM    1  C1  UNL     1     -34.435  14.435  -3.393  1.00 20.00     0.057 C 
HETATM    2  C2  UNL     1     -34.002  17.847  -4.744  1.00 20.00    -0.019 C 
HETATM    3  C3  UNL     1     -34.047  16.521  -4.565  1.00 20.00    -0.051 C 
HETATM    4  C4  UNL     1     -34.164  15.751  -3.347  1.00 20.00    -0.052 C 
HETATM    5  C5  UNL     1     -34.709  13.743  -4.686  1.00 20.00     0.150 C 
HETATM    6  C6  UNL     1     -33.885  18.201  -6.192  1.00 20.00     0.028 C 
HETATM    7  C7  UNL     1     -34.848  14.587  -5.938  1.00 20.00     0.092 C 
HETATM    8  C8  UNL     1     -34.248  16.889  -6.890  1.00 20.00     0.013 C 
HETATM    9  C9  UNL     1     -33.922  15.792  -5.873  1.00 20.00     0.026 C 
HETATM   10  C10 UNL     1     -33.952  16.452  -2.036  1.00 20.00     0.049 C 
HETATM   11  O11 UNL     1     -34.888  12.527  -4.702  1.00 20.00    -0.293 OA
ENDROOT
TORSDOF 0
ENDMDL
MODEL 2
REMARK VINA RESULT:      -5.1      0.617      2.819
REMARK  0 active torsions:
REMARK  status: ('A' for Active; 'I' for Inactive)
ROOT
HETATM    1  C1  UNL     1     -34.584  14.541  -5.921  1.00 20.00     0.057 C 
HETATM    2  C2  UNL     1     -33.818  17.703  -4.169  1.00 20.00    -0.019 C 
HETATM    3  C3  UNL     1     -34.229  16.472  -4.500  1.00 20.00    -0.051 C 
HETATM    4  C4  UNL     1     -34.390  15.867  -5.803  1.00 20.00    -0.052 C 
HETATM    5  C5  UNL     1     -34.553  13.642  -4.731  1.00 20.00     0.150 C 
HETATM    6  C6  UNL     1     -33.797  17.892  -2.685  1.00 20.00     0.028 C 
HETATM    7  C7  UNL     1     -34.126  14.227  -3.399  1.00 20.00     0.092 C 
HETATM    8  C8  UNL     1     -33.898  16.458  -2.161  1.00 20.00     0.013 C 
HETATM    9  C9  UNL     1     -34.585  15.671  -3.280  1.00 20.00     0.026 C 
HETATM   10  C10 UNL     1     -34.360  16.755  -7.013  1.00 20.00     0.049 C 
HETATM   11  O11 UNL     1     -34.799  12.445  -4.864  1.00 20.00    -0.293 OA
ENDROOT
TORSDOF 0
ENDMDL
MODEL 3
REMARK VINA RESULT:      -4.9      2.444      3.254
REMARK  0 active torsions:
REMARK  status: ('A' for Active; 'I' for Inactive)
ROOT
HETATM    1  C1  UNL     1     -35.358  13.816  -4.017  1.00 20.00     0.057 C 
HETATM    2  C2  UNL     1     -36.319  17.123  -2.675  1.00 20.00    -0.019 C 
HETATM    3  C3  UNL     1     -35.719  15.953  -2.931  1.00 20.00    -0.051 C 
HETATM    4  C4  UNL     1     -36.201  14.803  -3.663  1.00 20.00    -0.052 C 
HETATM    5  C5  UNL     1     -33.895  13.910  -3.746  1.00 20.00     0.150 C 
HETATM    6  C6  UNL     1     -35.434  18.031  -1.882  1.00 20.00     0.028 C 
HETATM    7  C7  UNL     1     -33.343  15.220  -3.218  1.00 20.00     0.092 C 
HETATM    8  C8  UNL     1     -34.061  17.369  -2.023  1.00 20.00     0.013 C 
HETATM    9  C9  UNL     1     -34.355  15.894  -2.305  1.00 20.00     0.026 C 
HETATM   10  C10 UNL     1     -37.663  14.729  -3.996  1.00 20.00     0.049 C 
HETATM   11  O11 UNL     1     -33.161  12.963  -4.022  1.00 20.00    -0.293 OA
ENDROOT
TORSDOF 0
ENDMDL
MODEL 4
REMARK VINA RESULT:      -4.8      1.070      2.738
REMARK  0 active torsions:
REMARK  status: ('A' for Active; 'I' for Inactive)
ROOT
HETATM    1  C1  UNL     1     -34.777  13.742  -5.572  1.00 20.00     0.057 C 
HETATM    2  C2  UNL     1     -34.396  17.118  -7.026  1.00 20.00    -0.019 C 
HETATM    3  C3  UNL     1     -34.530  16.069  -6.204  1.00 20.00    -0.051 C 
HETATM    4  C4  UNL     1     -34.936  14.711  -6.491  1.00 20.00    -0.052 C 
HETATM    5  C5  UNL     1     -34.103  14.010  -4.269  1.00 20.00     0.150 C 
HETATM    6  C6  UNL     1     -33.938  18.336  -6.288  1.00 20.00     0.028 C 
HETATM    7  C7  UNL     1     -33.441  15.359  -4.065  1.00 20.00     0.092 C 
HETATM    8  C8  UNL     1     -33.453  17.761  -4.956  1.00 20.00     0.013 C 
HETATM    9  C9  UNL     1     -34.221  16.448  -4.784  1.00 20.00     0.026 C 
HETATM   10  C10 UNL     1     -35.560  14.418  -7.824  1.00 20.00     0.049 C 
HETATM   11  O11 UNL     1     -34.032  13.119  -3.423  1.00 20.00    -0.293 OA
ENDROOT
TORSDOF 0
ENDMDL
MODEL 5
REMARK VINA RESULT:      -4.8      2.197      3.536
REMARK  0 active torsions:
REMARK  status: ('A' for Active; 'I' for Inactive)
ROOT
HETATM    1  C1  UNL     1     -33.903  17.740  -3.311  1.00 20.00     0.057 C 
HETATM    2  C2  UNL     1     -34.716  14.135  -3.370  1.00 20.00    -0.019 C 
HETATM    3  C3  UNL     1     -34.539  15.428  -3.671  1.00 20.00    -0.051 C 
HETATM    4  C4  UNL     1     -34.294  16.558  -2.802  1.00 20.00    -0.052 C 
HETATM    5  C5  UNL     1     -33.626  17.904  -4.768  1.00 20.00     0.150 C 
HETATM    6  C6  UNL     1     -34.932  13.312  -4.600  1.00 20.00     0.028 C 
HETATM    7  C7  UNL     1     -33.624  16.667  -5.644  1.00 20.00     0.092 C 
HETATM    8  C8  UNL     1     -34.480  14.253  -5.719  1.00 20.00     0.013 C 
HETATM    9  C9  UNL     1     -34.654  15.663  -5.149  1.00 20.00     0.026 C 
HETATM   10  C10 UNL     1     -34.511  16.385  -1.326  1.00 20.00     0.049 C 
HETATM   11  O11 UNL     1     -33.334  19.013  -5.212  1.00 20.00    -0.293 OA
ENDROOT
TORSDOF 0
ENDMDL
MODEL 6
REMARK VINA RESULT:      -4.7      2.289      4.397
REMARK  0 active torsions:
REMARK  status: ('A' for Active; 'I' for Inactive)
ROOT
HETATM    1  C1  UNL     1     -34.419  17.017  -7.144  1.00 20.00     0.057 C 
HETATM    2  C2  UNL     1     -34.412  13.958  -5.070  1.00 20.00    -0.019 C 
HETATM    3  C3  UNL     1     -34.152  15.152  -5.618  1.00 20.00    -0.051 C 
HETATM    4  C4  UNL     1     -34.589  15.709  -6.879  1.00 20.00    -0.052 C 
HETATM    5  C5  UNL     1     -33.858  17.949  -6.124  1.00 20.00     0.150 C 
HETATM    6  C6  UNL     1     -33.751  13.813  -3.736  1.00 20.00     0.028 C 
HETATM    7  C7  UNL     1     -33.641  17.429  -4.715  1.00 20.00     0.092 C 
HETATM    8  C8  UNL     1     -33.360  15.252  -3.395  1.00 20.00     0.013 C 
HETATM    9  C9  UNL     1     -33.238  15.963  -4.745  1.00 20.00     0.026 C 
HETATM   10  C10 UNL     1     -35.213  14.790  -7.889  1.00 20.00     0.049 C 
HETATM   11  O11 UNL     1     -33.653  19.125  -6.419  1.00 20.00    -0.293 OA
ENDROOT
TORSDOF 0
ENDMDL
MODEL 7
REMARK VINA RESULT:      -4.7      2.384      3.063
REMARK  0 active torsions:
REMARK  status: ('A' for Active; 'I' for Inactive)
ROOT
HETATM    1  C1  UNL     1     -37.029  16.135  -3.487  1.00 20.00     0.057 C 
HETATM    2  C2  UNL     1     -33.334  16.124  -3.555  1.00 20.00    -0.019 C 
HETATM    3  C3  UNL     1     -34.629  15.800  -3.442  1.00 20.00    -0.051 C 
HETATM    4  C4  UNL     1     -35.794  16.651  -3.353  1.00 20.00    -0.052 C 
HETATM    5  C5  UNL     1     -37.238  14.696  -3.818  1.00 20.00     0.150 C 
HETATM    6  C6  UNL     1     -32.469  14.906  -3.625  1.00 20.00     0.028 C 
HETATM    7  C7  UNL     1     -36.026  13.856  -4.172  1.00 20.00     0.092 C 
HETATM    8  C8  UNL     1     -33.478  13.793  -3.918  1.00 20.00     0.013 C 
HETATM    9  C9  UNL     1     -34.813  14.311  -3.376  1.00 20.00     0.026 C 
HETATM   10  C10 UNL     1     -35.592  18.114  -3.082  1.00 20.00     0.049 C 
HETATM   11  O11 UNL     1     -38.379  14.241  -3.869  1.00 20.00    -0.293 OA
ENDROOT
TORSDOF 0
ENDMDL
MODEL 8
REMARK VINA RESULT:      -4.7     11.909     13.462
REMARK  0 active torsions:
REMARK  status: ('A' for Active; 'I' for Inactive)
ROOT
HETATM    1  C1  UNL     1     -34.562   5.520   6.090  1.00 20.00     0.057 C 
HETATM    2  C2  UNL     1     -32.338   7.789   4.203  1.00 20.00    -0.019 C 
HETATM    3  C3  UNL     1     -33.047   6.743   4.647  1.00 20.00    -0.051 C 
HETATM    4  C4  UNL     1     -33.696   6.536   5.922  1.00 20.00    -0.052 C 
HETATM    5  C5  UNL     1     -34.948   4.633   4.956  1.00 20.00     0.150 C 
HETATM    6  C6  UNL     1     -31.857   7.571   2.804  1.00 20.00     0.028 C 
HETATM    7  C7  UNL     1     -34.478   5.000   3.562  1.00 20.00     0.092 C 
HETATM    8  C8  UNL     1     -32.707   6.388   2.336  1.00 20.00     0.013 C 
HETATM    9  C9  UNL     1     -33.105   5.651   3.618  1.00 20.00     0.026 C 
HETATM   10  C10 UNL     1     -33.362   7.463   7.054  1.00 20.00     0.049 C 
HETATM   11  O11 UNL     1     -35.691   3.673   5.157  1.00 20.00    -0.293 OA
ENDROOT
TORSDOF 0
ENDMDL
MODEL 9
REMARK VINA RESULT:      -4.7      6.416      8.269
REMARK  0 active torsions:
REMARK  status: ('A' for Active; 'I' for Inactive)
ROOT
HETATM    1  C1  UNL     1     -33.686  18.366   4.135  1.00 20.00     0.057 C 
HETATM    2  C2  UNL     1     -34.045  18.189   0.461  1.00 20.00    -0.019 C 
HETATM    3  C3  UNL     1     -33.668  18.476   1.713  1.00 20.00    -0.051 C 
HETATM    4  C4  UNL     1     -34.338  18.215   2.968  1.00 20.00    -0.052 C 
HETATM    5  C5  UNL     1     -32.237  18.718   4.176  1.00 20.00     0.150 C 
HETATM    6  C6  UNL     1     -33.025  18.641  -0.536  1.00 20.00     0.028 C 
HETATM    7  C7  UNL     1     -31.464  18.737   2.871  1.00 20.00     0.092 C 
HETATM    8  C8  UNL     1     -31.797  18.909   0.337  1.00 20.00     0.013 C 
HETATM    9  C9  UNL     1     -32.355  19.206   1.731  1.00 20.00     0.026 C 
HETATM   10  C10 UNL     1     -35.780  17.798   2.935  1.00 20.00     0.049 C 
HETATM   11  O11 UNL     1     -31.687  18.913   5.258  1.00 20.00    -0.293 OA
ENDROOT
TORSDOF 0
ENDMDL
