MODEL 1
REMARK VINA RESULT:      -5.4      0.000      0.000
REMARK  2 active torsions:
REMARK  status: ('A' for Active; 'I' for Inactive)
REMARK    1  A    between atoms: C1_1  and  C5_5 
REMARK    2  A    between atoms: C5_5  and  C6_6 
ROOT
HETATM    1  C2  UNL     1     -32.581   7.060   2.794  1.00 20.00     0.003 C 
HETATM    2  C3  UNL     1     -33.767   7.572   3.630  1.00 20.00     0.029 C 
HETATM    3  C4  UNL     1     -32.387   5.949   3.841  1.00 20.00     0.029 C 
HETATM    4  C5  UNL     1     -33.869   6.159   4.286  1.00 20.00     0.149 C 
ENDROOT
BRANCH   4   5
HETATM    5  C1  UNL     1     -34.106   6.156   5.822  1.00 20.00     0.316 C 
HETATM    6  O7  UNL     1     -34.904   5.440   6.407  1.00 20.00    -0.259 OA
HETATM    7  F8  UNL     1     -33.351   6.975   6.568  1.00 20.00    -0.163 F 
ENDBRANCH   4   5
BRANCH   4   8
HETATM    8  C6  UNL     1     -34.856   5.227   3.577  1.00 20.00     0.404 C 
HETATM    9  F9  UNL     1     -36.075   5.783   3.564  1.00 20.00    -0.170 F 
HETATM   10  F10 UNL     1     -34.457   5.016   2.315  1.00 20.00    -0.170 F 
HETATM   11  F11 UNL     1     -34.917   4.053   4.221  1.00 20.00    -0.170 F 
ENDBRANCH   4   8
TORSDOF 2
ENDMDL
MODEL 2
REMARK VINA RESULT:      -5.1      1.852      2.438
REMARK  2 active torsions:
REMARK  status: ('A' for Active; 'I' for Inactive)
REMARK    1  A    between atoms: C1_1  and  C5_5 
REMARK    2  A    between atoms: C5_5  and  C6_6 
ROOT
HETATM    1  C2  UNL     1     -34.348   5.553   2.932  1.00 20.00     0.003 C 
HETATM    2  C3  UNL     1     -35.287   6.081   4.030  1.00 20.00     0.029 C 
HETATM    3  C4  UNL     1     -33.215   5.543   3.973  1.00 20.00     0.029 C 
HETATM    4  C5  UNL     1     -34.299   5.514   5.098  1.00 20.00     0.149 C 
ENDROOT
BRANCH   4   5
HETATM    5  C1  UNL     1     -34.022   6.450   6.308  1.00 20.00     0.316 C 
HETATM    6  O7  UNL     1     -33.066   7.204   6.407  1.00 20.00    -0.259 OA
HETATM    7  F8  UNL     1     -34.918   6.460   7.304  1.00 20.00    -0.163 F 
ENDBRANCH   4   5
BRANCH   4   8
HETATM    8  C6  UNL     1     -34.652   4.101   5.567  1.00 20.00     0.404 C 
HETATM    9  F9  UNL     1     -33.586   3.535   6.149  1.00 20.00    -0.170 F 
HETATM   10  F10 UNL     1     -35.658   4.152   6.451  1.00 20.00    -0.170 F 
HETATM   11  F11 UNL     1     -35.026   3.354   4.519  1.00 20.00    -0.170 F 
ENDBRANCH   4   8
TORSDOF 2
ENDMDL
MODEL 3
REMARK VINA RESULT:      -5.0      1.939      2.950
REMARK  2 active torsions:
REMARK  status: ('A' for Active; 'I' for Inactive)
REMARK    1  A    between atoms: C1_1  and  C5_5 
REMARK    2  A    between atoms: C5_5  and  C6_6 
ROOT
HETATM    1  C2  UNL     1     -34.467   5.790   6.499  1.00 20.00     0.003 C 
HETATM    2  C3  UNL     1     -33.437   5.006   5.668  1.00 20.00     0.029 C 
HETATM    3  C4  UNL     1     -34.421   6.891   5.426  1.00 20.00     0.029 C 
HETATM    4  C5  UNL     1     -33.867   5.835   4.417  1.00 20.00     0.149 C 
ENDROOT
BRANCH   4   5
HETATM    5  C1  UNL     1     -32.701   6.329   3.516  1.00 20.00     0.316 C 
HETATM    6  O7  UNL     1     -32.647   7.423   2.976  1.00 20.00    -0.259 OA
HETATM    7  F8  UNL     1     -31.655   5.508   3.348  1.00 20.00    -0.163 F 
ENDBRANCH   4   5
BRANCH   4   8
HETATM    8  C6  UNL     1     -34.957   5.159   3.583  1.00 20.00     0.404 C 
HETATM    9  F9  UNL     1     -34.523   4.981   2.327  1.00 20.00    -0.170 F 
HETATM   10  F10 UNL     1     -35.264   3.967   4.113  1.00 20.00    -0.170 F 
HETATM   11  F11 UNL     1     -36.056   5.926   3.561  1.00 20.00    -0.170 F 
ENDBRANCH   4   8
TORSDOF 2
ENDMDL
MODEL 4
REMARK VINA RESULT:      -5.0     11.741     12.802
REMARK  2 active torsions:
REMARK  status: ('A' for Active; 'I' for Inactive)
REMARK    1  A    between atoms: C1_1  and  C5_5 
REMARK    2  A    between atoms: C5_5  and  C6_6 
ROOT
HETATM    1  C2  UNL     1     -35.135  16.640  -2.397  1.00 20.00     0.003 C 
HETATM    2  C3  UNL     1     -35.784  15.497  -3.197  1.00 20.00     0.029 C 
HETATM    3  C4  UNL     1     -33.782  15.927  -2.570  1.00 20.00     0.029 C 
HETATM    4  C5  UNL     1     -34.380  15.168  -3.797  1.00 20.00     0.149 C 
ENDROOT
BRANCH   4   5
HETATM    5  C1  UNL     1     -34.031  13.655  -3.875  1.00 20.00     0.316 C 
HETATM    6  O7  UNL     1     -34.823  12.766  -4.150  1.00 20.00    -0.259 OA
HETATM    7  F8  UNL     1     -32.756  13.300  -3.661  1.00 20.00    -0.163 F 
ENDBRANCH   4   5
BRANCH   4   8
HETATM    8  C6  UNL     1     -34.110  15.863  -5.134  1.00 20.00     0.404 C 
HETATM    9  F9  UNL     1     -34.073  14.955  -6.119  1.00 20.00    -0.170 F 
HETATM   10  F10 UNL     1     -35.083  16.748  -5.392  1.00 20.00    -0.170 F 
HETATM   11  F11 UNL     1     -32.934  16.504  -5.084  1.00 20.00    -0.170 F 
ENDBRANCH   4   8
TORSDOF 2
ENDMDL
MODEL 5
REMARK VINA RESULT:      -4.9      1.310      3.052
REMARK  2 active torsions:
REMARK  status: ('A' for Active; 'I' for Inactive)
REMARK    1  A    between atoms: C1_1  and  C5_5 
REMARK    2  A    between atoms: C5_5  and  C6_6 
ROOT
HETATM    1  C2  UNL     1     -32.532   6.928   3.678  1.00 20.00     0.003 C 
HETATM    2  C3  UNL     1     -32.743   5.426   3.935  1.00 20.00     0.029 C 
HETATM    3  C4  UNL     1     -34.037   7.131   3.922  1.00 20.00     0.029 C 
HETATM    4  C5  UNL     1     -34.057   5.778   4.701  1.00 20.00     0.149 C 
ENDROOT
BRANCH   4   5
HETATM    5  C1  UNL     1     -35.270   4.855   4.395  1.00 20.00     0.316 C 
HETATM    6  O7  UNL     1     -35.377   3.694   4.759  1.00 20.00    -0.259 OA
HETATM    7  F8  UNL     1     -36.296   5.384   3.713  1.00 20.00    -0.163 F 
ENDBRANCH   4   5
BRANCH   4   8
HETATM    8  C6  UNL     1     -33.858   5.941   6.210  1.00 20.00     0.404 C 
HETATM    9  F9  UNL     1     -33.306   4.830   6.718  1.00 20.00    -0.170 F 
HETATM   10  F10 UNL     1     -33.051   6.982   6.454  1.00 20.00    -0.170 F 
HETATM   11  F11 UNL     1     -35.040   6.153   6.805  1.00 20.00    -0.170 F 
ENDBRANCH   4   8
TORSDOF 2
ENDMDL
MODEL 6
REMARK VINA RESULT:      -4.8     11.554     12.550
REMARK  2 active torsions:
REMARK  status: ('A' for Active; 'I' for Inactive)
REMARK    1  A    between atoms: C1_1  and  C5_5 
REMARK    2  A    between atoms: C5_5  and  C6_6 
ROOT
HETATM    1  C2  UNL     1     -33.860  16.762  -5.560  1.00 20.00     0.003 C 
HETATM    2  C3  UNL     1     -33.050  16.021  -4.483  1.00 20.00     0.029 C 
HETATM    3  C4  UNL     1     -34.804  15.548  -5.616  1.00 20.00     0.029 C 
HETATM    4  C5  UNL     1     -34.308  15.142  -4.191  1.00 20.00     0.149 C 
ENDROOT
BRANCH   4   5
HETATM    5  C1  UNL     1     -34.027  13.626  -3.995  1.00 20.00     0.316 C 
HETATM    6  O7  UNL     1     -34.819  12.729  -4.240  1.00 20.00    -0.259 OA
HETATM    7  F8  UNL     1     -32.810  13.271  -3.560  1.00 20.00    -0.163 F 
ENDBRANCH   4   5
BRANCH   4   8
HETATM    8  C6  UNL     1     -35.184  15.689  -3.062  1.00 20.00     0.404 C 
HETATM    9  F9  UNL     1     -35.440  16.987  -3.273  1.00 20.00    -0.170 F 
HETATM   10  F10 UNL     1     -36.342  15.016  -3.018  1.00 20.00    -0.170 F 
HETATM   11  F11 UNL     1     -34.552  15.553  -1.888  1.00 20.00    -0.170 F 
ENDBRANCH   4   8
TORSDOF 2
ENDMDL
MODEL 7
REMARK VINA RESULT:      -4.8     12.116     13.156
REMARK  2 active torsions:
REMARK  status: ('A' for Active; 'I' for Inactive)
REMARK    1  A    between atoms: C1_1  and  C5_5 
REMARK    2  A    between atoms: C5_5  and  C6_6 
ROOT
HETATM    1  C2  UNL     1     -35.347  16.146  -6.561  1.00 20.00     0.003 C 
HETATM    2  C3  UNL     1     -34.364  14.964  -6.545  1.00 20.00     0.029 C 
HETATM    3  C4  UNL     1     -35.766  15.754  -5.133  1.00 20.00     0.029 C 
HETATM    4  C5  UNL     1     -34.411  14.992  -4.984  1.00 20.00     0.149 C 
ENDROOT
BRANCH   4   5
HETATM    5  C1  UNL     1     -34.506  13.600  -4.299  1.00 20.00     0.316 C 
HETATM    6  O7  UNL     1     -34.699  12.543  -4.881  1.00 20.00    -0.259 OA
HETATM    7  F8  UNL     1     -34.325  13.547  -2.972  1.00 20.00    -0.163 F 
ENDBRANCH   4   5
BRANCH   4   8
HETATM    8  C6  UNL     1     -33.302  15.838  -4.355  1.00 20.00     0.404 C 
HETATM    9  F9  UNL     1     -32.851  16.731  -5.247  1.00 20.00    -0.170 F 
HETATM   10  F10 UNL     1     -33.776  16.490  -3.285  1.00 20.00    -0.170 F 
HETATM   11  F11 UNL     1     -32.287  15.050  -3.975  1.00 20.00    -0.170 F 
ENDBRANCH   4   8
TORSDOF 2
ENDMDL
MODEL 8
REMARK VINA RESULT:      -4.8     11.893     12.787
REMARK  2 active torsions:
REMARK  status: ('A' for Active; 'I' for Inactive)
REMARK    1  A    between atoms: C1_1  and  C5_5 
REMARK    2  A    between atoms: C5_5  and  C6_6 
ROOT
HETATM    1  C2  UNL     1     -35.923  16.723  -3.477  1.00 20.00     0.003 C 
HETATM    2  C3  UNL     1     -35.376  16.280  -4.845  1.00 20.00     0.029 C 
HETATM    3  C4  UNL     1     -35.723  15.280  -2.984  1.00 20.00     0.029 C 
HETATM    4  C5  UNL     1     -34.693  15.066  -4.139  1.00 20.00     0.149 C 
ENDROOT
BRANCH   4   5
HETATM    5  C1  UNL     1     -34.811  13.710  -4.889  1.00 20.00     0.316 C 
HETATM    6  O7  UNL     1     -35.034  12.633  -4.358  1.00 20.00    -0.259 OA
HETATM    7  F8  UNL     1     -34.697  13.727  -6.224  1.00 20.00    -0.163 F 
ENDBRANCH   4   5
BRANCH   4   8
HETATM    8  C6  UNL     1     -33.245  15.339  -3.722  1.00 20.00     0.404 C 
HETATM    9  F9  UNL     1     -32.572  14.184  -3.635  1.00 20.00    -0.170 F 
HETATM   10  F10 UNL     1     -32.650  16.125  -4.630  1.00 20.00    -0.170 F 
HETATM   11  F11 UNL     1     -33.222  15.950  -2.530  1.00 20.00    -0.170 F 
ENDBRANCH   4   8
TORSDOF 2
ENDMDL
MODEL 9
REMARK VINA RESULT:      -4.7     11.493     12.489
REMARK  2 active torsions:
REMARK  status: ('A' for Active; 'I' for Inactive)
REMARK    1  A    between atoms: C1_1  and  C5_5 
REMARK    2  A    between atoms: C5_5  and  C6_6 
ROOT
HETATM    1  C2  UNL     1     -33.861  17.027  -2.985  1.00 20.00     0.003 C 
HETATM    2  C3  UNL     1     -34.440  15.755  -2.344  1.00 20.00     0.029 C 
HETATM    3  C4  UNL     1     -33.478  16.177  -4.209  1.00 20.00     0.029 C 
HETATM    4  C5  UNL     1     -34.548  15.128  -3.770  1.00 20.00     0.149 C 
ENDROOT
BRANCH   4   5
HETATM    5  C1  UNL     1     -34.102  13.643  -3.877  1.00 20.00     0.316 C 
HETATM    6  O7  UNL     1     -34.829  12.713  -4.193  1.00 20.00    -0.259 OA
HETATM    7  F8  UNL     1     -32.813  13.363  -3.642  1.00 20.00    -0.163 F 
ENDBRANCH   4   5
BRANCH   4   8
HETATM    8  C6  UNL     1     -35.914  15.339  -4.427  1.00 20.00     0.404 C 
HETATM    9  F9  UNL     1     -36.850  14.649  -3.761  1.00 20.00    -0.170 F 
HETATM   10  F10 UNL     1     -36.233  16.641  -4.407  1.00 20.00    -0.170 F 
HETATM   11  F11 UNL     1     -35.879  14.915  -5.698  1.00 20.00    -0.170 F 
ENDBRANCH   4   8
TORSDOF 2
ENDMDL
