MODEL 1
REMARK VINA RESULT:      -4.3      0.000      0.000
REMARK  3 active torsions:
REMARK  status: ('A' for Active; 'I' for Inactive)
REMARK    1  A    between atoms: C1_1  and  C4_4 
REMARK    2  A    between atoms: C3_3  and  C7_7 
REMARK    3  A    between atoms: C7_7  and  O9_9 
ROOT
HETATM    1  C1  UNL     1     -34.221  16.311  -2.697  1.00 20.00    -0.066 C 
HETATM    2  C2  UNL     1     -34.468  16.620  -1.563  1.00 20.00    -0.108 C 
HETATM    3  C5  UNL     1     -34.768  16.996  -0.182  1.00 20.00     0.112 C 
ENDROOT
BRANCH   1   4
HETATM    4  C4  UNL     1     -33.928  15.942  -4.050  1.00 20.00     0.148 A 
HETATM    5  C3  UNL     1     -34.625  14.761  -4.693  1.00 20.00     0.194 A 
HETATM    6  O8  UNL     1     -33.302  14.653  -4.158  1.00 20.00    -0.354 OA
HETATM    7  C6  UNL     1     -33.302  16.983  -4.923  1.00 20.00     0.063 C 
BRANCH   5   8
HETATM    8  C7  UNL     1     -35.642  13.928  -3.993  1.00 20.00     0.200 C 
BRANCH   8   9
HETATM    9  O9  UNL     1     -35.352  12.542  -4.183  1.00 20.00    -0.398 OA
HETATM   10  H19 UNL     1     -35.895  12.250  -4.930  1.00 20.00     0.209 HD
ENDBRANCH   8   9
ENDBRANCH   5   8
ENDBRANCH   1   4
TORSDOF 3
ENDMDL
MODEL 2
REMARK VINA RESULT:      -4.1      1.480      1.575
REMARK  3 active torsions:
REMARK  status: ('A' for Active; 'I' for Inactive)
REMARK    1  A    between atoms: C1_1  and  C4_4 
REMARK    2  A    between atoms: C3_3  and  C7_7 
REMARK    3  A    between atoms: C7_7  and  O9_9 
ROOT
HETATM    1  C1  UNL     1     -34.541  16.035  -2.084  1.00 20.00    -0.066 C 
HETATM    2  C2  UNL     1     -34.683  16.580  -1.023  1.00 20.00    -0.108 C 
HETATM    3  C5  UNL     1     -34.856  17.244   0.268  1.00 20.00     0.112 C 
ENDROOT
BRANCH   1   4
HETATM    4  C4  UNL     1     -34.371  15.384  -3.349  1.00 20.00     0.148 A 
HETATM    5  C3  UNL     1     -35.574  15.030  -4.199  1.00 20.00     0.194 A 
HETATM    6  O8  UNL     1     -34.922  14.057  -3.376  1.00 20.00    -0.354 OA
HETATM    7  C6  UNL     1     -33.026  15.484  -3.995  1.00 20.00     0.063 C 
BRANCH   5   8
HETATM    8  C7  UNL     1     -36.976  15.331  -3.801  1.00 20.00     0.200 C 
BRANCH   8   9
HETATM    9  O9  UNL     1     -37.741  14.125  -3.755  1.00 20.00    -0.398 OA
HETATM   10  H19 UNL     1     -38.019  14.013  -2.833  1.00 20.00     0.209 HD
ENDBRANCH   8   9
ENDBRANCH   5   8
ENDBRANCH   1   4
TORSDOF 3
ENDMDL
MODEL 3
REMARK VINA RESULT:      -4.0      1.752      2.401
REMARK  3 active torsions:
REMARK  status: ('A' for Active; 'I' for Inactive)
REMARK    1  A    between atoms: C1_1  and  C4_4 
REMARK    2  A    between atoms: C3_3  and  C7_7 
REMARK    3  A    between atoms: C7_7  and  O9_9 
ROOT
HETATM    1  C1  UNL     1     -34.940  15.855  -2.271  1.00 20.00    -0.066 C 
HETATM    2  C2  UNL     1     -34.732  16.508  -1.285  1.00 20.00    -0.108 C 
HETATM    3  C5  UNL     1     -34.479  17.302  -0.084  1.00 20.00     0.112 C 
ENDROOT
BRANCH   1   4
HETATM    4  C4  UNL     1     -35.190  15.076  -3.448  1.00 20.00     0.148 A 
HETATM    5  C3  UNL     1     -34.091  14.226  -4.053  1.00 20.00     0.194 A 
HETATM    6  O8  UNL     1     -34.424  15.513  -4.583  1.00 20.00    -0.354 OA
HETATM    7  C6  UNL     1     -36.615  14.766  -3.774  1.00 20.00     0.063 C 
BRANCH   5   8
HETATM    8  C7  UNL     1     -32.719  14.131  -3.483  1.00 20.00     0.200 C 
BRANCH   8   9
HETATM    9  O9  UNL     1     -31.869  15.104  -4.092  1.00 20.00    -0.398 OA
HETATM   10  H19 UNL     1     -30.959  14.822  -3.914  1.00 20.00     0.209 HD
ENDBRANCH   8   9
ENDBRANCH   5   8
ENDBRANCH   1   4
TORSDOF 3
ENDMDL
MODEL 4
REMARK VINA RESULT:      -3.9      1.753      3.055
REMARK  3 active torsions:
REMARK  status: ('A' for Active; 'I' for Inactive)
REMARK    1  A    between atoms: C1_1  and  C4_4 
REMARK    2  A    between atoms: C3_3  and  C7_7 
REMARK    3  A    between atoms: C7_7  and  O9_9 
ROOT
HETATM    1  C1  UNL     1     -34.149  16.095  -2.409  1.00 20.00    -0.066 C 
HETATM    2  C2  UNL     1     -34.464  16.534  -1.337  1.00 20.00    -0.108 C 
HETATM    3  C5  UNL     1     -34.848  17.070  -0.032  1.00 20.00     0.112 C 
ENDROOT
BRANCH   1   4
HETATM    4  C4  UNL     1     -33.773  15.571  -3.689  1.00 20.00     0.148 A 
HETATM    5  C3  UNL     1     -33.446  16.505  -4.836  1.00 20.00     0.194 A 
HETATM    6  O8  UNL     1     -34.725  15.874  -4.722  1.00 20.00    -0.354 OA
HETATM    7  C6  UNL     1     -33.275  14.161  -3.732  1.00 20.00     0.063 C 
BRANCH   5   8
HETATM    8  C7  UNL     1     -33.479  17.989  -4.720  1.00 20.00     0.200 C 
BRANCH   8   9
HETATM    9  O9  UNL     1     -33.274  18.584  -6.003  1.00 20.00    -0.398 OA
HETATM   10  H19 UNL     1     -32.518  18.126  -6.398  1.00 20.00     0.209 HD
ENDBRANCH   8   9
ENDBRANCH   5   8
ENDBRANCH   1   4
TORSDOF 3
ENDMDL
MODEL 5
REMARK VINA RESULT:      -3.8      1.625      2.701
REMARK  3 active torsions:
REMARK  status: ('A' for Active; 'I' for Inactive)
REMARK    1  A    between atoms: C1_1  and  C4_4 
REMARK    2  A    between atoms: C3_3  and  C7_7 
REMARK    3  A    between atoms: C7_7  and  O9_9 
ROOT
HETATM    1  C1  UNL     1     -35.183  15.976  -2.710  1.00 20.00    -0.066 C 
HETATM    2  C2  UNL     1     -34.932  16.422  -1.624  1.00 20.00    -0.108 C 
HETATM    3  C5  UNL     1     -34.625  16.965  -0.301  1.00 20.00     0.112 C 
ENDROOT
BRANCH   1   4
HETATM    4  C4  UNL     1     -35.484  15.445  -4.006  1.00 20.00     0.148 A 
HETATM    5  C3  UNL     1     -34.556  15.700  -5.176  1.00 20.00     0.194 A 
HETATM    6  O8  UNL     1     -35.751  16.465  -4.983  1.00 20.00    -0.354 OA
HETATM    7  C6  UNL     1     -36.438  14.295  -4.071  1.00 20.00     0.063 C 
BRANCH   5   8
HETATM    8  C7  UNL     1     -33.297  16.488  -5.067  1.00 20.00     0.200 C 
BRANCH   8   9
HETATM    9  O9  UNL     1     -32.230  15.643  -4.631  1.00 20.00    -0.398 OA
HETATM   10  H19 UNL     1     -32.641  14.911  -4.147  1.00 20.00     0.209 HD
ENDBRANCH   8   9
ENDBRANCH   5   8
ENDBRANCH   1   4
TORSDOF 3
ENDMDL
MODEL 6
REMARK VINA RESULT:      -3.8     11.661     13.165
REMARK  3 active torsions:
REMARK  status: ('A' for Active; 'I' for Inactive)
REMARK    1  A    between atoms: C1_1  and  C4_4 
REMARK    2  A    between atoms: C3_3  and  C7_7 
REMARK    3  A    between atoms: C7_7  and  O9_9 
ROOT
HETATM    1  C1  UNL     1     -41.675   4.196  -2.007  1.00 20.00    -0.066 C 
HETATM    2  C2  UNL     1     -41.633   3.229  -2.717  1.00 20.00    -0.108 C 
HETATM    3  C5  UNL     1     -41.581   2.051  -3.582  1.00 20.00     0.112 C 
ENDROOT
BRANCH   1   4
HETATM    4  C4  UNL     1     -41.727   5.351  -1.160  1.00 20.00     0.148 A 
HETATM    5  C3  UNL     1     -42.134   6.698  -1.721  1.00 20.00     0.194 A 
HETATM    6  O8  UNL     1     -40.760   6.353  -1.516  1.00 20.00    -0.354 OA
HETATM    7  C6  UNL     1     -41.825   5.115   0.313  1.00 20.00     0.063 C 
BRANCH   5   8
HETATM    8  C7  UNL     1     -42.508   6.913  -3.146  1.00 20.00     0.200 C 
BRANCH   8   9
HETATM    9  O9  UNL     1     -41.882   8.098  -3.642  1.00 20.00    -0.398 OA
HETATM   10  H19 UNL     1     -42.370   8.844  -3.262  1.00 20.00     0.209 HD
ENDBRANCH   8   9
ENDBRANCH   5   8
ENDBRANCH   1   4
TORSDOF 3
ENDMDL
MODEL 7
REMARK VINA RESULT:      -3.7      1.668      1.924
REMARK  3 active torsions:
REMARK  status: ('A' for Active; 'I' for Inactive)
REMARK    1  A    between atoms: C1_1  and  C4_4 
REMARK    2  A    between atoms: C3_3  and  C7_7 
REMARK    3  A    between atoms: C7_7  and  O9_9 
ROOT
HETATM    1  C1  UNL     1     -35.506  16.150  -3.166  1.00 20.00    -0.066 C 
HETATM    2  C2  UNL     1     -35.086  16.384  -2.066  1.00 20.00    -0.108 C 
HETATM    3  C5  UNL     1     -34.575  16.668  -0.726  1.00 20.00     0.112 C 
ENDROOT
BRANCH   1   4
HETATM    4  C4  UNL     1     -36.006  15.870  -4.480  1.00 20.00     0.148 A 
HETATM    5  C3  UNL     1     -35.509  14.665  -5.251  1.00 20.00     0.194 A 
HETATM    6  O8  UNL     1     -35.000  15.979  -5.500  1.00 20.00    -0.354 OA
HETATM    7  C6  UNL     1     -37.311  16.493  -4.862  1.00 20.00     0.063 C 
BRANCH   5   8
HETATM    8  C7  UNL     1     -34.504  13.706  -4.715  1.00 20.00     0.200 C 
BRANCH   8   9
HETATM    9  O9  UNL     1     -35.165  12.595  -4.107  1.00 20.00    -0.398 OA
HETATM   10  H19 UNL     1     -34.854  12.561  -3.190  1.00 20.00     0.209 HD
ENDBRANCH   8   9
ENDBRANCH   5   8
ENDBRANCH   1   4
TORSDOF 3
ENDMDL
MODEL 8
REMARK VINA RESULT:      -3.7      1.902      2.330
REMARK  3 active torsions:
REMARK  status: ('A' for Active; 'I' for Inactive)
REMARK    1  A    between atoms: C1_1  and  C4_4 
REMARK    2  A    between atoms: C3_3  and  C7_7 
REMARK    3  A    between atoms: C7_7  and  O9_9 
ROOT
HETATM    1  C1  UNL     1     -34.663  15.542  -2.521  1.00 20.00    -0.066 C 
HETATM    2  C2  UNL     1     -34.649  16.240  -1.545  1.00 20.00    -0.108 C 
HETATM    3  C5  UNL     1     -34.633  17.090  -0.355  1.00 20.00     0.112 C 
ENDROOT
BRANCH   1   4
HETATM    4  C4  UNL     1     -34.677  14.709  -3.687  1.00 20.00     0.148 A 
HETATM    5  C3  UNL     1     -35.495  15.100  -4.901  1.00 20.00     0.194 A 
HETATM    6  O8  UNL     1     -35.970  14.138  -3.954  1.00 20.00    -0.354 OA
HETATM    7  C6  UNL     1     -33.552  13.737  -3.849  1.00 20.00     0.063 C 
BRANCH   5   8
HETATM    8  C7  UNL     1     -36.309  16.345  -4.975  1.00 20.00     0.200 C 
BRANCH   8   9
HETATM    9  O9  UNL     1     -37.700  16.017  -5.006  1.00 20.00    -0.398 OA
HETATM   10  H19 UNL     1     -38.156  16.716  -4.513  1.00 20.00     0.209 HD
ENDBRANCH   8   9
ENDBRANCH   5   8
ENDBRANCH   1   4
TORSDOF 3
ENDMDL
MODEL 9
REMARK VINA RESULT:      -3.7      1.344      2.948
REMARK  3 active torsions:
REMARK  status: ('A' for Active; 'I' for Inactive)
REMARK    1  A    between atoms: C1_1  and  C4_4 
REMARK    2  A    between atoms: C3_3  and  C7_7 
REMARK    3  A    between atoms: C7_7  and  O9_9 
ROOT
HETATM    1  C1  UNL     1     -34.210  16.767  -4.012  1.00 20.00    -0.066 C 
HETATM    2  C2  UNL     1     -33.940  17.540  -4.890  1.00 20.00    -0.108 C 
HETATM    3  C5  UNL     1     -33.611  18.482  -5.959  1.00 20.00     0.112 C 
ENDROOT
BRANCH   1   4
HETATM    4  C4  UNL     1     -34.532  15.844  -2.965  1.00 20.00     0.148 A 
HETATM    5  C3  UNL     1     -34.475  14.350  -3.212  1.00 20.00     0.194 A 
HETATM    6  O8  UNL     1     -35.711  15.070  -3.241  1.00 20.00    -0.354 OA
HETATM    7  C6  UNL     1     -34.470  16.353  -1.560  1.00 20.00     0.063 C 
BRANCH   5   8
HETATM    8  C7  UNL     1     -34.081  13.750  -4.516  1.00 20.00     0.200 C 
BRANCH   8   9
HETATM    9  O9  UNL     1     -34.860  12.580  -4.770  1.00 20.00    -0.398 OA
HETATM   10  H19 UNL     1     -34.705  11.981  -4.024  1.00 20.00     0.209 HD
ENDBRANCH   8   9
ENDBRANCH   5   8
ENDBRANCH   1   4
TORSDOF 3
ENDMDL
