MODEL 1
REMARK VINA RESULT:      -3.5      0.000      0.000
REMARK  3 active torsions:
REMARK  status: ('A' for Active; 'I' for Inactive)
REMARK    1  A    between atoms: C2_2  and  N7_7 
REMARK    2  A    between atoms: C4_4  and  C5_5 
REMARK    3  A    between atoms: C5_5  and  N7_7 
ROOT
HETATM    1  C1  UNL     1     -34.074  13.631  -4.195  1.00 20.00     0.060 C 
HETATM    2  C4  UNL     1     -33.171  14.706  -3.756  1.00 20.00     0.143 C 
HETATM    3  N6  UNL     1     -34.787  12.782  -4.540  1.00 20.00    -0.197 NA
ENDROOT
BRANCH   2   4
HETATM    4  C5  UNL     1     -33.394  15.994  -4.542  1.00 20.00     0.138 C 
BRANCH   4   5
HETATM    5  N7  UNL     1     -33.959  17.039  -3.683  1.00 20.00    -0.366 N 
HETATM    6  C3  UNL     1     -33.584  18.414  -4.027  1.00 20.00     0.151 C 
BRANCH   5   7
HETATM    7  C2  UNL     1     -34.937  16.765  -2.760  1.00 20.00     0.167 C 
HETATM    8  S8  UNL     1     -34.601  16.748  -1.064  1.00 20.00    -0.048 SA
HETATM    9  S9  UNL     1     -36.563  16.427  -3.236  1.00 20.00    -0.048 SA
ENDBRANCH   5   7
ENDBRANCH   4   5
ENDBRANCH   2   4
TORSDOF 3
ENDMDL
MODEL 2
REMARK VINA RESULT:      -3.4      1.753      2.270
REMARK  3 active torsions:
REMARK  status: ('A' for Active; 'I' for Inactive)
REMARK    1  A    between atoms: C2_2  and  N7_7 
REMARK    2  A    between atoms: C4_4  and  C5_5 
REMARK    3  A    between atoms: C5_5  and  N7_7 
ROOT
HETATM    1  C1  UNL     1     -36.290  14.183  -4.076  1.00 20.00     0.060 C 
HETATM    2  C4  UNL     1     -34.882  14.012  -4.468  1.00 20.00     0.143 C 
HETATM    3  N6  UNL     1     -37.402  14.317  -3.769  1.00 20.00    -0.197 NA
ENDROOT
BRANCH   2   4
HETATM    4  C5  UNL     1     -33.928  14.599  -3.434  1.00 20.00     0.138 C 
BRANCH   4   5
HETATM    5  N7  UNL     1     -33.684  16.020  -3.696  1.00 20.00    -0.366 N 
HETATM    6  C3  UNL     1     -33.270  16.352  -5.063  1.00 20.00     0.151 C 
BRANCH   5   7
HETATM    7  C2  UNL     1     -34.024  16.991  -2.788  1.00 20.00     0.167 C 
HETATM    8  S8  UNL     1     -33.895  18.673  -3.169  1.00 20.00    -0.048 SA
HETATM    9  S9  UNL     1     -34.610  16.591  -1.211  1.00 20.00    -0.048 SA
ENDBRANCH   5   7
ENDBRANCH   4   5
ENDBRANCH   2   4
TORSDOF 3
ENDMDL
MODEL 3
REMARK VINA RESULT:      -3.4      1.216      1.690
REMARK  3 active torsions:
REMARK  status: ('A' for Active; 'I' for Inactive)
REMARK    1  A    between atoms: C2_2  and  N7_7 
REMARK    2  A    between atoms: C4_4  and  C5_5 
REMARK    3  A    between atoms: C5_5  and  N7_7 
ROOT
HETATM    1  C1  UNL     1     -34.036  13.664  -4.138  1.00 20.00     0.060 C 
HETATM    2  C4  UNL     1     -33.132  14.740  -3.702  1.00 20.00     0.143 C 
HETATM    3  N6  UNL     1     -34.750  12.815  -4.480  1.00 20.00    -0.197 NA
ENDROOT
BRANCH   2   4
HETATM    4  C5  UNL     1     -33.394  16.043  -4.449  1.00 20.00     0.138 C 
BRANCH   4   5
HETATM    5  N7  UNL     1     -34.441  16.824  -3.785  1.00 20.00    -0.366 N 
HETATM    6  C3  UNL     1     -35.784  16.702  -4.359  1.00 20.00     0.151 C 
BRANCH   5   7
HETATM    7  C2  UNL     1     -34.221  17.455  -2.586  1.00 20.00     0.167 C 
HETATM    8  S8  UNL     1     -34.603  16.695  -1.080  1.00 20.00    -0.048 SA
HETATM    9  S9  UNL     1     -33.543  19.043  -2.508  1.00 20.00    -0.048 SA
ENDBRANCH   5   7
ENDBRANCH   4   5
ENDBRANCH   2   4
TORSDOF 3
ENDMDL
MODEL 4
REMARK VINA RESULT:      -3.4      1.539      1.813
REMARK  3 active torsions:
REMARK  status: ('A' for Active; 'I' for Inactive)
REMARK    1  A    between atoms: C2_2  and  N7_7 
REMARK    2  A    between atoms: C4_4  and  C5_5 
REMARK    3  A    between atoms: C5_5  and  N7_7 
ROOT
HETATM    1  C1  UNL     1     -34.095  13.547  -4.151  1.00 20.00     0.060 C 
HETATM    2  C4  UNL     1     -33.095  14.500  -3.646  1.00 20.00     0.143 C 
HETATM    3  N6  UNL     1     -34.884  12.793  -4.549  1.00 20.00    -0.197 NA
ENDROOT
BRANCH   2   4
HETATM    4  C5  UNL     1     -33.513  15.946  -3.888  1.00 20.00     0.138 C 
BRANCH   4   5
HETATM    5  N7  UNL     1     -34.710  16.281  -3.113  1.00 20.00    -0.366 N 
HETATM    6  C3  UNL     1     -34.542  16.291  -1.657  1.00 20.00     0.151 C 
BRANCH   5   7
HETATM    7  C2  UNL     1     -35.849  16.759  -3.713  1.00 20.00     0.167 C 
HETATM    8  S8  UNL     1     -37.076  17.574  -2.807  1.00 20.00    -0.048 SA
HETATM    9  S9  UNL     1     -36.120  16.583  -5.411  1.00 20.00    -0.048 SA
ENDBRANCH   5   7
ENDBRANCH   4   5
ENDBRANCH   2   4
TORSDOF 3
ENDMDL
MODEL 5
REMARK VINA RESULT:      -3.4      1.538      2.048
REMARK  3 active torsions:
REMARK  status: ('A' for Active; 'I' for Inactive)
REMARK    1  A    between atoms: C2_2  and  N7_7 
REMARK    2  A    between atoms: C4_4  and  C5_5 
REMARK    3  A    between atoms: C5_5  and  N7_7 
ROOT
HETATM    1  C1  UNL     1     -34.106  13.551  -4.138  1.00 20.00     0.060 C 
HETATM    2  C4  UNL     1     -33.101  14.504  -3.645  1.00 20.00     0.143 C 
HETATM    3  N6  UNL     1     -34.899  12.797  -4.526  1.00 20.00    -0.197 NA
ENDROOT
BRANCH   2   4
HETATM    4  C5  UNL     1     -33.518  15.950  -3.889  1.00 20.00     0.138 C 
BRANCH   4   5
HETATM    5  N7  UNL     1     -34.711  16.288  -3.108  1.00 20.00    -0.366 N 
HETATM    6  C3  UNL     1     -34.538  16.292  -1.652  1.00 20.00     0.151 C 
BRANCH   5   7
HETATM    7  C2  UNL     1     -35.849  16.774  -3.703  1.00 20.00     0.167 C 
HETATM    8  S8  UNL     1     -36.133  16.593  -5.398  1.00 20.00    -0.048 SA
HETATM    9  S9  UNL     1     -37.070  17.591  -2.790  1.00 20.00    -0.048 SA
ENDBRANCH   5   7
ENDBRANCH   4   5
ENDBRANCH   2   4
TORSDOF 3
ENDMDL
MODEL 6
REMARK VINA RESULT:      -3.4      2.649      3.920
REMARK  3 active torsions:
REMARK  status: ('A' for Active; 'I' for Inactive)
REMARK    1  A    between atoms: C2_2  and  N7_7 
REMARK    2  A    between atoms: C4_4  and  C5_5 
REMARK    3  A    between atoms: C5_5  and  N7_7 
ROOT
HETATM    1  C1  UNL     1     -34.491  16.750  -1.029  1.00 20.00     0.060 C 
HETATM    2  C4  UNL     1     -34.824  15.887  -2.173  1.00 20.00     0.143 C 
HETATM    3  N6  UNL     1     -34.230  17.429  -0.125  1.00 20.00    -0.197 NA
ENDROOT
BRANCH   2   4
HETATM    4  C5  UNL     1     -33.609  15.613  -3.053  1.00 20.00     0.138 C 
BRANCH   4   5
HETATM    5  N7  UNL     1     -33.905  15.903  -4.458  1.00 20.00    -0.366 N 
HETATM    6  C3  UNL     1     -33.526  17.240  -4.924  1.00 20.00     0.151 C 
BRANCH   5   7
HETATM    7  C2  UNL     1     -34.311  14.922  -5.329  1.00 20.00     0.167 C 
HETATM    8  S8  UNL     1     -34.473  15.225  -7.023  1.00 20.00    -0.048 SA
HETATM    9  S9  UNL     1     -34.677  13.322  -4.784  1.00 20.00    -0.048 SA
ENDBRANCH   5   7
ENDBRANCH   4   5
ENDBRANCH   2   4
TORSDOF 3
ENDMDL
MODEL 7
REMARK VINA RESULT:      -3.4      2.591      4.026
REMARK  3 active torsions:
REMARK  status: ('A' for Active; 'I' for Inactive)
REMARK    1  A    between atoms: C2_2  and  N7_7 
REMARK    2  A    between atoms: C4_4  and  C5_5 
REMARK    3  A    between atoms: C5_5  and  N7_7 
ROOT
HETATM    1  C1  UNL     1     -34.641  16.603  -0.984  1.00 20.00     0.060 C 
HETATM    2  C4  UNL     1     -34.796  15.804  -2.209  1.00 20.00     0.143 C 
HETATM    3  N6  UNL     1     -34.520  17.233  -0.016  1.00 20.00    -0.197 NA
ENDROOT
BRANCH   2   4
HETATM    4  C5  UNL     1     -33.543  15.842  -3.077  1.00 20.00     0.138 C 
BRANCH   4   5
HETATM    5  N7  UNL     1     -33.772  15.163  -4.355  1.00 20.00    -0.366 N 
HETATM    6  C3  UNL     1     -33.986  13.714  -4.275  1.00 20.00     0.151 C 
BRANCH   5   7
HETATM    7  C2  UNL     1     -33.984  15.862  -5.517  1.00 20.00     0.167 C 
HETATM    8  S8  UNL     1     -33.724  17.569  -5.606  1.00 20.00    -0.048 SA
HETATM    9  S9  UNL     1     -34.517  15.078  -6.963  1.00 20.00    -0.048 SA
ENDBRANCH   5   7
ENDBRANCH   4   5
ENDBRANCH   2   4
TORSDOF 3
ENDMDL
MODEL 8
REMARK VINA RESULT:      -3.3      2.912      3.168
REMARK  3 active torsions:
REMARK  status: ('A' for Active; 'I' for Inactive)
REMARK    1  A    between atoms: C2_2  and  N7_7 
REMARK    2  A    between atoms: C4_4  and  C5_5 
REMARK    3  A    between atoms: C5_5  and  N7_7 
ROOT
HETATM    1  C1  UNL     1     -34.417  13.737  -3.922  1.00 20.00     0.060 C 
HETATM    2  C4  UNL     1     -33.801  14.959  -3.382  1.00 20.00     0.143 C 
HETATM    3  N6  UNL     1     -34.905  12.773  -4.347  1.00 20.00    -0.197 NA
ENDROOT
BRANCH   2   4
HETATM    4  C5  UNL     1     -33.327  15.896  -4.487  1.00 20.00     0.138 C 
BRANCH   4   5
HETATM    5  N7  UNL     1     -34.466  16.506  -5.179  1.00 20.00    -0.366 N 
HETATM    6  C3  UNL     1     -35.342  17.337  -4.347  1.00 20.00     0.151 C 
BRANCH   5   7
HETATM    7  C2  UNL     1     -34.581  16.475  -6.546  1.00 20.00     0.167 C 
HETATM    8  S8  UNL     1     -34.779  14.988  -7.405  1.00 20.00    -0.048 SA
HETATM    9  S9  UNL     1     -34.543  17.922  -7.491  1.00 20.00    -0.048 SA
ENDBRANCH   5   7
ENDBRANCH   4   5
ENDBRANCH   2   4
TORSDOF 3
ENDMDL
MODEL 9
REMARK VINA RESULT:      -3.3      0.635      1.566
REMARK  3 active torsions:
REMARK  status: ('A' for Active; 'I' for Inactive)
REMARK    1  A    between atoms: C2_2  and  N7_7 
REMARK    2  A    between atoms: C4_4  and  C5_5 
REMARK    3  A    between atoms: C5_5  and  N7_7 
ROOT
HETATM    1  C1  UNL     1     -34.523  13.818  -4.915  1.00 20.00     0.060 C 
HETATM    2  C4  UNL     1     -34.124  15.161  -5.365  1.00 20.00     0.143 C 
HETATM    3  N6  UNL     1     -34.837  12.758  -4.562  1.00 20.00    -0.197 NA
ENDROOT
BRANCH   2   4
HETATM    4  C5  UNL     1     -33.264  15.878  -4.331  1.00 20.00     0.138 C 
BRANCH   4   5
HETATM    5  N7  UNL     1     -33.951  17.062  -3.808  1.00 20.00    -0.366 N 
HETATM    6  C3  UNL     1     -33.681  18.317  -4.517  1.00 20.00     0.151 C 
BRANCH   5   7
HETATM    7  C2  UNL     1     -34.940  16.964  -2.861  1.00 20.00     0.167 C 
HETATM    8  S8  UNL     1     -36.609  17.152  -3.273  1.00 20.00    -0.048 SA
HETATM    9  S9  UNL     1     -34.577  16.640  -1.203  1.00 20.00    -0.048 SA
ENDBRANCH   5   7
ENDBRANCH   4   5
ENDBRANCH   2   4
TORSDOF 3
ENDMDL
