MODEL 1
REMARK VINA RESULT:      -4.9      0.000      0.000
REMARK  1 active torsions:
REMARK  status: ('A' for Active; 'I' for Inactive)
REMARK    1  A    between atoms: C1_1  and  C9_9 
ROOT
HETATM    1  C2  UNL     1     -33.622  15.471  -3.123  1.00 20.00     0.002 C 
HETATM    2  C3  UNL     1     -33.218  14.133  -3.751  1.00 20.00     0.005 C 
HETATM    3  C4  UNL     1     -34.488  14.676  -5.894  1.00 20.00     0.006 C 
HETATM    4  C5  UNL     1     -35.127  15.568  -2.845  1.00 20.00     0.018 C 
HETATM    5  C6  UNL     1     -35.621  15.560  -5.348  1.00 20.00     0.019 C 
HETATM    6  C7  UNL     1     -35.598  13.489  -4.153  1.00 20.00     0.023 C 
HETATM    7  C8  UNL     1     -34.225  13.630  -4.802  1.00 20.00    -0.013 C 
HETATM    8  C9  UNL     1     -35.977  14.960  -3.975  1.00 20.00     0.036 C 
ENDROOT
BRANCH   8   9
HETATM    9  C1  UNL     1     -37.434  15.116  -3.664  1.00 20.00     0.227 C 
HETATM   10  O10 UNL     1     -38.216  14.173  -3.744  1.00 20.00    -0.279 OA
HETATM   11 CL11 UNL     1     -37.833  16.742  -3.198  1.00 20.00    -0.043 Cl
ENDBRANCH   8   9
TORSDOF 1
ENDMDL
MODEL 2
REMARK VINA RESULT:      -4.9      0.706      1.906
REMARK  1 active torsions:
REMARK  status: ('A' for Active; 'I' for Inactive)
REMARK    1  A    between atoms: C1_1  and  C9_9 
ROOT
HETATM    1  C2  UNL     1     -34.092  15.970  -5.683  1.00 20.00     0.002 C 
HETATM    2  C3  UNL     1     -33.128  16.015  -4.492  1.00 20.00     0.005 C 
HETATM    3  C4  UNL     1     -33.853  13.693  -3.727  1.00 20.00     0.006 C 
HETATM    4  C5  UNL     1     -35.565  15.981  -5.257  1.00 20.00     0.018 C 
HETATM    5  C6  UNL     1     -35.312  13.666  -4.212  1.00 20.00     0.019 C 
HETATM    6  C7  UNL     1     -34.972  15.607  -2.857  1.00 20.00     0.023 C 
HETATM    7  C8  UNL     1     -33.589  15.146  -3.307  1.00 20.00    -0.013 C 
HETATM    8  C9  UNL     1     -35.829  15.104  -4.019  1.00 20.00     0.036 C 
ENDROOT
BRANCH   8   9
HETATM    9  C1  UNL     1     -37.287  15.126  -3.674  1.00 20.00     0.227 C 
HETATM   10  O10 UNL     1     -37.982  14.118  -3.744  1.00 20.00    -0.279 OA
HETATM   11 CL11 UNL     1     -37.818  16.707  -3.187  1.00 20.00    -0.043 Cl
ENDBRANCH   8   9
TORSDOF 1
ENDMDL
MODEL 3
REMARK VINA RESULT:      -4.9      2.226      3.000
REMARK  1 active torsions:
REMARK  status: ('A' for Active; 'I' for Inactive)
REMARK    1  A    between atoms: C1_1  and  C9_9 
ROOT
HETATM    1  C2  UNL     1     -35.832  16.159  -2.533  1.00 20.00     0.002 C 
HETATM    2  C3  UNL     1     -34.417  16.328  -1.971  1.00 20.00     0.005 C 
HETATM    3  C4  UNL     1     -33.498  16.921  -4.274  1.00 20.00     0.006 C 
HETATM    4  C5  UNL     1     -35.956  14.963  -3.485  1.00 20.00     0.018 C 
HETATM    5  C6  UNL     1     -34.442  16.119  -5.183  1.00 20.00     0.019 C 
HETATM    6  C7  UNL     1     -33.476  14.649  -3.563  1.00 20.00     0.023 C 
HETATM    7  C8  UNL     1     -33.316  16.063  -3.015  1.00 20.00    -0.013 C 
HETATM    8  C9  UNL     1     -34.737  14.818  -4.414  1.00 20.00     0.036 C 
ENDROOT
BRANCH   8   9
HETATM    9  C1  UNL     1     -34.931  13.657  -5.341  1.00 20.00     0.227 C 
HETATM   10  O10 UNL     1     -34.844  12.497  -4.951  1.00 20.00    -0.279 OA
HETATM   11 CL11 UNL     1     -35.278  14.170  -6.965  1.00 20.00    -0.043 Cl
ENDBRANCH   8   9
TORSDOF 1
ENDMDL
MODEL 4
REMARK VINA RESULT:      -4.7     10.985     12.116
REMARK  1 active torsions:
REMARK  status: ('A' for Active; 'I' for Inactive)
REMARK    1  A    between atoms: C1_1  and  C9_9 
ROOT
HETATM    1  C2  UNL     1     -40.601   5.702  -0.171  1.00 20.00     0.002 C 
HETATM    2  C3  UNL     1     -40.855   7.151  -0.600  1.00 20.00     0.005 C 
HETATM    3  C4  UNL     1     -43.370   6.752  -0.715  1.00 20.00     0.006 C 
HETATM    4  C5  UNL     1     -40.934   4.688  -1.272  1.00 20.00     0.018 C 
HETATM    5  C6  UNL     1     -43.414   5.263  -1.094  1.00 20.00     0.019 C 
HETATM    6  C7  UNL     1     -42.051   6.434  -2.671  1.00 20.00     0.023 C 
HETATM    7  C8  UNL     1     -42.138   7.320  -1.433  1.00 20.00    -0.013 C 
HETATM    8  C9  UNL     1     -42.218   5.050  -2.041  1.00 20.00     0.036 C 
ENDROOT
BRANCH   8   9
HETATM    9  C1  UNL     1     -42.510   4.008  -3.076  1.00 20.00     0.227 C 
HETATM   10  O10 UNL     1     -43.415   4.145  -3.894  1.00 20.00    -0.279 OA
HETATM   11 CL11 UNL     1     -41.434   2.648  -2.955  1.00 20.00    -0.043 Cl
ENDBRANCH   8   9
TORSDOF 1
ENDMDL
MODEL 5
REMARK VINA RESULT:      -4.6      2.541      3.510
REMARK  1 active torsions:
REMARK  status: ('A' for Active; 'I' for Inactive)
REMARK    1  A    between atoms: C1_1  and  C9_9 
ROOT
HETATM    1  C2  UNL     1     -34.049  17.221  -6.061  1.00 20.00     0.002 C 
HETATM    2  C3  UNL     1     -34.586  16.902  -7.460  1.00 20.00     0.005 C 
HETATM    3  C4  UNL     1     -36.682  15.824  -6.488  1.00 20.00     0.006 C 
HETATM    4  C5  UNL     1     -33.685  15.964  -5.262  1.00 20.00     0.018 C 
HETATM    5  C6  UNL     1     -36.142  15.283  -5.154  1.00 20.00     0.019 C 
HETATM    6  C7  UNL     1     -34.778  14.467  -6.941  1.00 20.00     0.023 C 
HETATM    7  C8  UNL     1     -35.524  15.681  -7.485  1.00 20.00    -0.013 C 
HETATM    8  C9  UNL     1     -34.703  14.825  -5.456  1.00 20.00     0.036 C 
ENDROOT
BRANCH   8   9
HETATM    9  C1  UNL     1     -34.313  13.640  -4.626  1.00 20.00     0.227 C 
HETATM   10  O10 UNL     1     -34.946  12.589  -4.665  1.00 20.00    -0.279 OA
HETATM   11 CL11 UNL     1     -32.909  13.957  -3.653  1.00 20.00    -0.043 Cl
ENDBRANCH   8   9
TORSDOF 1
ENDMDL
MODEL 6
REMARK VINA RESULT:      -4.6      2.447      3.107
REMARK  1 active torsions:
REMARK  status: ('A' for Active; 'I' for Inactive)
REMARK    1  A    between atoms: C1_1  and  C9_9 
ROOT
HETATM    1  C2  UNL     1     -33.990  13.555  -4.360  1.00 20.00     0.002 C 
HETATM    2  C3  UNL     1     -35.115  13.806  -5.371  1.00 20.00     0.005 C 
HETATM    3  C4  UNL     1     -33.979  15.927  -6.214  1.00 20.00     0.006 C 
HETATM    4  C5  UNL     1     -33.939  14.613  -3.251  1.00 20.00     0.018 C 
HETATM    5  C6  UNL     1     -33.252  16.396  -4.944  1.00 20.00     0.019 C 
HETATM    6  C7  UNL     1     -35.570  16.082  -4.449  1.00 20.00     0.023 C 
HETATM    7  C8  UNL     1     -35.289  15.294  -5.725  1.00 20.00    -0.013 C 
HETATM    8  C9  UNL     1     -34.195  16.036  -3.781  1.00 20.00     0.036 C 
ENDROOT
BRANCH   8   9
HETATM    9  C1  UNL     1     -34.097  17.027  -2.661  1.00 20.00     0.227 C 
HETATM   10  O10 UNL     1     -33.685  18.169  -2.844  1.00 20.00    -0.279 OA
HETATM   11 CL11 UNL     1     -34.626  16.357  -1.148  1.00 20.00    -0.043 Cl
ENDBRANCH   8   9
TORSDOF 1
ENDMDL
MODEL 7
REMARK VINA RESULT:      -4.6      2.417      3.418
REMARK  1 active torsions:
REMARK  status: ('A' for Active; 'I' for Inactive)
REMARK    1  A    between atoms: C1_1  and  C9_9 
ROOT
HETATM    1  C2  UNL     1     -33.561  17.372  -4.695  1.00 20.00     0.002 C 
HETATM    2  C3  UNL     1     -34.751  17.856  -3.859  1.00 20.00     0.005 C 
HETATM    3  C4  UNL     1     -34.556  15.853  -2.293  1.00 20.00     0.006 C 
HETATM    4  C5  UNL     1     -33.854  16.070  -5.450  1.00 20.00     0.018 C 
HETATM    5  C6  UNL     1     -33.992  14.788  -3.247  1.00 20.00     0.019 C 
HETATM    6  C7  UNL     1     -35.986  15.710  -4.192  1.00 20.00     0.023 C 
HETATM    7  C8  UNL     1     -35.498  16.711  -3.149  1.00 20.00    -0.013 C 
HETATM    8  C9  UNL     1     -34.662  15.066  -4.606  1.00 20.00     0.036 C 
ENDROOT
BRANCH   8   9
HETATM    9  C1  UNL     1     -34.886  13.804  -5.382  1.00 20.00     0.227 C 
HETATM   10  O10 UNL     1     -34.769  12.698  -4.863  1.00 20.00    -0.279 OA
HETATM   11 CL11 UNL     1     -35.313  14.121  -7.036  1.00 20.00    -0.043 Cl
ENDBRANCH   8   9
TORSDOF 1
ENDMDL
MODEL 8
REMARK VINA RESULT:      -4.6      2.362      3.101
REMARK  1 active torsions:
REMARK  status: ('A' for Active; 'I' for Inactive)
REMARK    1  A    between atoms: C1_1  and  C9_9 
ROOT
HETATM    1  C2  UNL     1     -34.526  15.021  -6.145  1.00 20.00     0.002 C 
HETATM    2  C3  UNL     1     -34.712  13.610  -5.579  1.00 20.00     0.005 C 
HETATM    3  C4  UNL     1     -36.623  14.387  -4.082  1.00 20.00     0.006 C 
HETATM    4  C5  UNL     1     -34.016  16.021  -5.100  1.00 20.00     0.018 C 
HETATM    5  C6  UNL     1     -36.215  15.845  -3.817  1.00 20.00     0.019 C 
HETATM    6  C7  UNL     1     -34.399  14.404  -3.231  1.00 20.00     0.023 C 
HETATM    7  C8  UNL     1     -35.307  13.601  -4.158  1.00 20.00    -0.013 C 
HETATM    8  C9  UNL     1     -34.678  15.825  -3.724  1.00 20.00     0.036 C 
ENDROOT
BRANCH   8   9
HETATM    9  C1  UNL     1     -34.168  16.849  -2.756  1.00 20.00     0.227 C 
HETATM   10  O10 UNL     1     -33.570  17.852  -3.134  1.00 20.00    -0.279 OA
HETATM   11 CL11 UNL     1     -34.531  16.430  -1.110  1.00 20.00    -0.043 Cl
ENDBRANCH   8   9
TORSDOF 1
ENDMDL
MODEL 9
REMARK VINA RESULT:      -4.6     11.712     12.816
REMARK  1 active torsions:
REMARK  status: ('A' for Active; 'I' for Inactive)
REMARK    1  A    between atoms: C1_1  and  C9_9 
ROOT
HETATM    1  C2  UNL     1     -43.263   4.860   0.169  1.00 20.00     0.002 C 
HETATM    2  C3  UNL     1     -41.825   5.234   0.543  1.00 20.00     0.005 C 
HETATM    3  C4  UNL     1     -41.541   6.576  -1.606  1.00 20.00     0.006 C 
HETATM    4  C5  UNL     1     -43.340   3.937  -1.054  1.00 20.00     0.018 C 
HETATM    5  C6  UNL     1     -42.473   5.808  -2.557  1.00 20.00     0.019 C 
HETATM    6  C7  UNL     1     -40.918   4.278  -1.579  1.00 20.00     0.023 C 
HETATM    7  C8  UNL     1     -40.934   5.511  -0.682  1.00 20.00    -0.013 C 
HETATM    8  C9  UNL     1     -42.335   4.329  -2.153  1.00 20.00     0.036 C 
ENDROOT
BRANCH   8   9
HETATM    9  C1  UNL     1     -42.481   3.416  -3.332  1.00 20.00     0.227 C 
HETATM   10  O10 UNL     1     -43.417   3.522  -4.118  1.00 20.00    -0.279 OA
HETATM   11 CL11 UNL     1     -41.197   2.249  -3.418  1.00 20.00    -0.043 Cl
ENDBRANCH   8   9
TORSDOF 1
ENDMDL
