MODEL 1
REMARK VINA RESULT:      -4.2      0.000      0.000
REMARK  3 active torsions:
REMARK  status: ('A' for Active; 'I' for Inactive)
REMARK    1  A    between atoms: C1_1  and  C7_7 
REMARK    2  A    between atoms: C1_1  and  O10_10 
REMARK    3  A    between atoms: C6_6  and  C7_7 
ROOT
HETATM    1  C4  UNL     1     -32.907  15.701  -4.340  1.00 20.00     0.021 A 
HETATM    2  C5  UNL     1     -32.443  14.535  -3.521  1.00 20.00     0.021 A 
HETATM    3  C7  UNL     1     -33.923  14.721  -3.789  1.00 20.00     0.051 A 
ENDROOT
BRANCH   3   4
HETATM    4  C1  UNL     1     -34.540  13.790  -4.768  1.00 20.00     0.267 C 
HETATM    5  O9  UNL     1     -34.939  12.667  -4.490  1.00 20.00    -0.264 OA
BRANCH   4   6
HETATM    6  O10 UNL     1     -34.586  14.383  -5.995  1.00 20.00    -0.326 OA
HETATM    7  C8  UNL     1     -35.881  14.823  -6.417  1.00 20.00     0.213 C 
ENDBRANCH   4   6
ENDBRANCH   3   4
BRANCH   3   8
HETATM    8  C6  UNL     1     -34.868  15.145  -2.648  1.00 20.00     0.004 A 
HETATM    9  C2  UNL     1     -34.614  16.355  -1.792  1.00 20.00     0.006 A 
HETATM   10  C3  UNL     1     -35.775  16.340  -2.748  1.00 20.00     0.006 A 
ENDBRANCH   3   8
TORSDOF 3
ENDMDL
MODEL 2
REMARK VINA RESULT:      -4.0      2.081      3.314
REMARK  3 active torsions:
REMARK  status: ('A' for Active; 'I' for Inactive)
REMARK    1  A    between atoms: C1_1  and  C7_7 
REMARK    2  A    between atoms: C1_1  and  O10_10 
REMARK    3  A    between atoms: C6_6  and  C7_7 
ROOT
HETATM    1  C4  UNL     1     -34.727  13.042  -4.737  1.00 20.00     0.021 A 
HETATM    2  C5  UNL     1     -33.755  13.750  -3.844  1.00 20.00     0.021 A 
HETATM    3  C7  UNL     1     -34.881  14.529  -4.492  1.00 20.00     0.051 A 
ENDROOT
BRANCH   3   4
HETATM    4  C1  UNL     1     -35.998  14.940  -3.605  1.00 20.00     0.267 C 
HETATM    5  O9  UNL     1     -35.945  15.885  -2.829  1.00 20.00    -0.264 OA
BRANCH   4   6
HETATM    6  O10 UNL     1     -37.062  14.109  -3.796  1.00 20.00    -0.326 OA
HETATM    7  C8  UNL     1     -38.313  14.759  -4.042  1.00 20.00     0.213 C 
ENDBRANCH   4   6
ENDBRANCH   3   4
BRANCH   3   8
HETATM    8  C6  UNL     1     -34.576  15.535  -5.620  1.00 20.00     0.004 A 
HETATM    9  C2  UNL     1     -34.374  15.114  -7.049  1.00 20.00     0.006 A 
HETATM   10  C3  UNL     1     -35.588  15.912  -6.666  1.00 20.00     0.006 A 
ENDBRANCH   3   8
TORSDOF 3
ENDMDL
MODEL 3
REMARK VINA RESULT:      -4.0      1.432      3.596
REMARK  3 active torsions:
REMARK  status: ('A' for Active; 'I' for Inactive)
REMARK    1  A    between atoms: C1_1  and  C7_7 
REMARK    2  A    between atoms: C1_1  and  O10_10 
REMARK    3  A    between atoms: C6_6  and  C7_7 
ROOT
HETATM    1  C4  UNL     1     -36.456  15.626  -3.398  1.00 20.00     0.021 A 
HETATM    2  C5  UNL     1     -37.334  14.592  -4.034  1.00 20.00     0.021 A 
HETATM    3  C7  UNL     1     -35.912  14.772  -4.524  1.00 20.00     0.051 A 
ENDROOT
BRANCH   3   4
HETATM    4  C1  UNL     1     -34.941  13.715  -4.142  1.00 20.00     0.267 C 
HETATM    5  O9  UNL     1     -34.922  12.592  -4.629  1.00 20.00    -0.264 OA
BRANCH   4   6
HETATM    6  O10 UNL     1     -34.099  14.194  -3.183  1.00 20.00    -0.326 OA
HETATM    7  C8  UNL     1     -32.841  14.684  -3.659  1.00 20.00     0.213 C 
ENDBRANCH   4   6
ENDBRANCH   3   4
BRANCH   3   8
HETATM    8  C6  UNL     1     -35.644  15.394  -5.909  1.00 20.00     0.004 A 
HETATM    9  C2  UNL     1     -34.596  14.864  -6.847  1.00 20.00     0.006 A 
HETATM   10  C3  UNL     1     -36.053  14.726  -7.192  1.00 20.00     0.006 A 
ENDBRANCH   3   8
TORSDOF 3
ENDMDL
MODEL 4
REMARK VINA RESULT:      -3.9      1.815      2.170
REMARK  3 active torsions:
REMARK  status: ('A' for Active; 'I' for Inactive)
REMARK    1  A    between atoms: C1_1  and  C7_7 
REMARK    2  A    between atoms: C1_1  and  O10_10 
REMARK    3  A    between atoms: C6_6  and  C7_7 
ROOT
HETATM    1  C4  UNL     1     -34.459  14.553  -5.429  1.00 20.00     0.021 A 
HETATM    2  C5  UNL     1     -34.752  13.221  -4.811  1.00 20.00     0.021 A 
HETATM    3  C7  UNL     1     -35.310  14.479  -4.178  1.00 20.00     0.051 A 
ENDROOT
BRANCH   3   4
HETATM    4  C1  UNL     1     -36.765  14.720  -4.355  1.00 20.00     0.267 C 
HETATM    5  O9  UNL     1     -37.637  14.145  -3.717  1.00 20.00    -0.264 OA
BRANCH   4   6
HETATM    6  O10 UNL     1     -36.958  15.663  -5.320  1.00 20.00    -0.326 OA
HETATM    7  C8  UNL     1     -38.023  15.395  -6.238  1.00 20.00     0.213 C 
ENDBRANCH   4   6
ENDBRANCH   3   4
BRANCH   3   8
HETATM    8  C6  UNL     1     -34.753  14.980  -2.831  1.00 20.00     0.004 A 
HETATM    9  C2  UNL     1     -33.703  16.053  -2.737  1.00 20.00     0.006 A 
HETATM   10  C3  UNL     1     -35.102  16.326  -2.258  1.00 20.00     0.006 A 
ENDBRANCH   3   8
TORSDOF 3
ENDMDL
MODEL 5
REMARK VINA RESULT:      -3.9      1.600      1.818
REMARK  3 active torsions:
REMARK  status: ('A' for Active; 'I' for Inactive)
REMARK    1  A    between atoms: C1_1  and  C7_7 
REMARK    2  A    between atoms: C1_1  and  O10_10 
REMARK    3  A    between atoms: C6_6  and  C7_7 
ROOT
HETATM    1  C4  UNL     1     -34.515  16.880  -4.774  1.00 20.00     0.021 A 
HETATM    2  C5  UNL     1     -33.185  16.216  -4.954  1.00 20.00     0.021 A 
HETATM    3  C7  UNL     1     -34.087  15.789  -3.814  1.00 20.00     0.051 A 
ENDROOT
BRANCH   3   4
HETATM    4  C1  UNL     1     -34.765  14.476  -3.962  1.00 20.00     0.267 C 
HETATM    5  O9  UNL     1     -34.324  13.423  -3.520  1.00 20.00    -0.264 OA
BRANCH   4   6
HETATM    6  O10 UNL     1     -35.928  14.638  -4.655  1.00 20.00    -0.326 OA
HETATM    7  C8  UNL     1     -37.121  14.627  -3.864  1.00 20.00     0.213 C 
ENDBRANCH   4   6
ENDBRANCH   3   4
BRANCH   3   8
HETATM    8  C6  UNL     1     -33.715  16.139  -2.360  1.00 20.00     0.004 A 
HETATM    9  C2  UNL     1     -33.868  17.524  -1.795  1.00 20.00     0.006 A 
HETATM   10  C3  UNL     1     -34.748  16.410  -1.301  1.00 20.00     0.006 A 
ENDBRANCH   3   8
TORSDOF 3
ENDMDL
MODEL 6
REMARK VINA RESULT:      -3.9      1.922      3.065
REMARK  3 active torsions:
REMARK  status: ('A' for Active; 'I' for Inactive)
REMARK    1  A    between atoms: C1_1  and  C7_7 
REMARK    2  A    between atoms: C1_1  and  O10_10 
REMARK    3  A    between atoms: C6_6  and  C7_7 
ROOT
HETATM    1  C4  UNL     1     -35.424  16.527  -2.381  1.00 20.00     0.021 A 
HETATM    2  C5  UNL     1     -33.977  16.472  -1.999  1.00 20.00     0.021 A 
HETATM    3  C7  UNL     1     -34.438  15.816  -3.285  1.00 20.00     0.051 A 
ENDROOT
BRANCH   3   4
HETATM    4  C1  UNL     1     -34.081  16.511  -4.548  1.00 20.00     0.267 C 
HETATM    5  O9  UNL     1     -32.934  16.652  -4.952  1.00 20.00    -0.264 OA
BRANCH   4   6
HETATM    6  O10 UNL     1     -35.215  16.953  -5.162  1.00 20.00    -0.326 OA
HETATM    7  C8  UNL     1     -35.282  16.715  -6.572  1.00 20.00     0.213 C 
ENDBRANCH   4   6
ENDBRANCH   3   4
BRANCH   3   8
HETATM    8  C6  UNL     1     -34.465  14.280  -3.403  1.00 20.00     0.004 A 
HETATM    9  C2  UNL     1     -34.339  13.566  -4.720  1.00 20.00     0.006 A 
HETATM   10  C3  UNL     1     -33.236  13.467  -3.704  1.00 20.00     0.006 A 
ENDBRANCH   3   8
TORSDOF 3
ENDMDL
MODEL 7
REMARK VINA RESULT:      -3.9      1.705      2.479
REMARK  3 active torsions:
REMARK  status: ('A' for Active; 'I' for Inactive)
REMARK    1  A    between atoms: C1_1  and  C7_7 
REMARK    2  A    between atoms: C1_1  and  O10_10 
REMARK    3  A    between atoms: C6_6  and  C7_7 
ROOT
HETATM    1  C4  UNL     1     -35.030  16.969  -4.170  1.00 20.00     0.021 A 
HETATM    2  C5  UNL     1     -33.625  17.386  -4.480  1.00 20.00     0.021 A 
HETATM    3  C7  UNL     1     -33.890  16.450  -3.318  1.00 20.00     0.051 A 
ENDROOT
BRANCH   3   4
HETATM    4  C1  UNL     1     -33.513  15.027  -3.516  1.00 20.00     0.267 C 
HETATM    5  O9  UNL     1     -32.359  14.626  -3.579  1.00 20.00    -0.264 OA
BRANCH   4   6
HETATM    6  O10 UNL     1     -34.640  14.266  -3.612  1.00 20.00    -0.326 OA
HETATM    7  C8  UNL     1     -34.628  13.277  -4.646  1.00 20.00     0.213 C 
ENDBRANCH   4   6
ENDBRANCH   3   4
BRANCH   3   8
HETATM    8  C6  UNL     1     -33.718  16.947  -1.869  1.00 20.00     0.004 A 
HETATM    9  C2  UNL     1     -34.609  17.994  -1.260  1.00 20.00     0.006 A 
HETATM   10  C3  UNL     1     -34.669  16.575  -0.766  1.00 20.00     0.006 A 
ENDBRANCH   3   8
TORSDOF 3
ENDMDL
MODEL 8
REMARK VINA RESULT:      -3.9      2.224      2.765
REMARK  3 active torsions:
REMARK  status: ('A' for Active; 'I' for Inactive)
REMARK    1  A    between atoms: C1_1  and  C7_7 
REMARK    2  A    between atoms: C1_1  and  O10_10 
REMARK    3  A    between atoms: C6_6  and  C7_7 
ROOT
HETATM    1  C4  UNL     1     -32.829  14.827  -3.656  1.00 20.00     0.021 A 
HETATM    2  C5  UNL     1     -34.226  14.419  -3.302  1.00 20.00     0.021 A 
HETATM    3  C7  UNL     1     -33.832  15.880  -3.232  1.00 20.00     0.051 A 
ENDROOT
BRANCH   3   4
HETATM    4  C1  UNL     1     -34.359  16.761  -4.305  1.00 20.00     0.267 C 
HETATM    5  O9  UNL     1     -35.550  16.915  -4.543  1.00 20.00    -0.264 OA
BRANCH   4   6
HETATM    6  O10 UNL     1     -33.320  17.351  -4.962  1.00 20.00    -0.326 OA
HETATM    7  C8  UNL     1     -33.615  18.611  -5.572  1.00 20.00     0.213 C 
ENDBRANCH   4   6
ENDBRANCH   3   4
BRANCH   3   8
HETATM    8  C6  UNL     1     -33.690  16.578  -1.864  1.00 20.00     0.004 A 
HETATM    9  C2  UNL     1     -34.293  17.924  -1.575  1.00 20.00     0.006 A 
HETATM   10  C3  UNL     1     -34.831  16.698  -0.893  1.00 20.00     0.006 A 
ENDBRANCH   3   8
TORSDOF 3
ENDMDL
MODEL 9
REMARK VINA RESULT:      -3.9     11.226     12.098
REMARK  3 active torsions:
REMARK  status: ('A' for Active; 'I' for Inactive)
REMARK    1  A    between atoms: C1_1  and  C7_7 
REMARK    2  A    between atoms: C1_1  and  O10_10 
REMARK    3  A    between atoms: C6_6  and  C7_7 
ROOT
HETATM    1  C4  UNL     1     -34.568   4.559   3.825  1.00 20.00     0.021 A 
HETATM    2  C5  UNL     1     -35.301   5.675   3.146  1.00 20.00     0.021 A 
HETATM    3  C7  UNL     1     -34.125   5.990   4.048  1.00 20.00     0.051 A 
ENDROOT
BRANCH   3   4
HETATM    4  C1  UNL     1     -32.867   6.404   3.376  1.00 20.00     0.267 C 
HETATM    5  O9  UNL     1     -31.934   5.647   3.141  1.00 20.00    -0.264 OA
BRANCH   4   6
HETATM    6  O10 UNL     1     -32.927   7.732   3.074  1.00 20.00    -0.326 OA
HETATM    7  C8  UNL     1     -32.057   8.163   2.022  1.00 20.00     0.213 C 
ENDBRANCH   4   6
ENDBRANCH   3   4
BRANCH   3   8
HETATM    8  C6  UNL     1     -34.357   6.669   5.412  1.00 20.00     0.004 A 
HETATM    9  C2  UNL     1     -34.506   5.891   6.690  1.00 20.00     0.006 A 
HETATM   10  C3  UNL     1     -33.292   6.750   6.470  1.00 20.00     0.006 A 
ENDBRANCH   3   8
TORSDOF 3
ENDMDL
