MODEL 1
REMARK VINA RESULT:      -4.7      0.000      0.000
REMARK  1 active torsions:
REMARK  status: ('A' for Active; 'I' for Inactive)
REMARK    1  A    between atoms: C1_1  and  C4_4 
ROOT
HETATM    1  C1  UNL     1     -34.308  16.082  -2.268  1.00 20.00    -0.068 C 
HETATM    2  C2  UNL     1     -34.537  16.587  -1.204  1.00 20.00    -0.108 C 
HETATM    3  C6  UNL     1     -34.817  17.205   0.092  1.00 20.00     0.112 C 
ENDROOT
BRANCH   1   4
HETATM    4  C4  UNL     1     -34.031  15.471  -3.556  1.00 20.00     0.129 C 
HETATM    5  C5  UNL     1     -35.212  14.658  -4.208  1.00 20.00     0.016 C 
HETATM    6  C3  UNL     1     -34.941  15.575  -5.420  1.00 20.00     0.182 C 
HETATM    7  C8  UNL     1     -36.612  14.880  -3.624  1.00 20.00     0.021 C 
HETATM    8  C9  UNL     1     -34.973  13.175  -4.477  1.00 20.00     0.021 C 
HETATM    9  O10 UNL     1     -34.152  16.479  -4.604  1.00 20.00    -0.366 OA
HETATM   10  C7  UNL     1     -32.624  14.879  -3.578  1.00 20.00     0.061 C 
ENDBRANCH   1   4
TORSDOF 1
ENDMDL
MODEL 2
REMARK VINA RESULT:      -4.5      1.324      2.440
REMARK  1 active torsions:
REMARK  status: ('A' for Active; 'I' for Inactive)
REMARK    1  A    between atoms: C1_1  and  C4_4 
ROOT
HETATM    1  C1  UNL     1     -35.018  15.725  -2.408  1.00 20.00    -0.068 C 
HETATM    2  C2  UNL     1     -34.790  16.382  -1.429  1.00 20.00    -0.108 C 
HETATM    3  C6  UNL     1     -34.512  17.181  -0.236  1.00 20.00     0.112 C 
ENDROOT
BRANCH   1   4
HETATM    4  C4  UNL     1     -35.295  14.930  -3.590  1.00 20.00     0.129 C 
HETATM    5  C5  UNL     1     -34.409  15.236  -4.856  1.00 20.00     0.016 C 
HETATM    6  C3  UNL     1     -34.131  13.718  -4.811  1.00 20.00     0.182 C 
HETATM    7  C8  UNL     1     -33.135  16.058  -4.629  1.00 20.00     0.021 C 
HETATM    8  C9  UNL     1     -35.130  15.704  -6.117  1.00 20.00     0.021 C 
HETATM    9  O10 UNL     1     -34.650  13.628  -3.459  1.00 20.00    -0.366 OA
HETATM   10  C7  UNL     1     -36.799  14.738  -3.769  1.00 20.00     0.061 C 
ENDBRANCH   1   4
TORSDOF 1
ENDMDL
MODEL 3
REMARK VINA RESULT:      -4.4      1.820      3.588
REMARK  1 active torsions:
REMARK  status: ('A' for Active; 'I' for Inactive)
REMARK    1  A    between atoms: C1_1  and  C4_4 
ROOT
HETATM    1  C1  UNL     1     -36.645  14.535  -4.319  1.00 20.00    -0.068 C 
HETATM    2  C2  UNL     1     -37.779  14.759  -3.994  1.00 20.00    -0.108 C 
HETATM    3  C6  UNL     1     -39.160  15.033  -3.597  1.00 20.00     0.112 C 
ENDROOT
BRANCH   1   4
HETATM    4  C4  UNL     1     -35.274  14.264  -4.711  1.00 20.00     0.129 C 
HETATM    5  C5  UNL     1     -34.155  14.974  -3.860  1.00 20.00     0.016 C 
HETATM    6  C3  UNL     1     -33.609  13.538  -3.704  1.00 20.00     0.182 C 
HETATM    7  C8  UNL     1     -34.582  15.573  -2.514  1.00 20.00     0.021 C 
HETATM    8  C9  UNL     1     -33.216  15.926  -4.596  1.00 20.00     0.021 C 
HETATM    9  O10 UNL     1     -34.862  12.973  -4.169  1.00 20.00    -0.366 OA
HETATM   10  C7  UNL     1     -35.145  14.242  -6.232  1.00 20.00     0.061 C 
ENDBRANCH   1   4
TORSDOF 1
ENDMDL
MODEL 4
REMARK VINA RESULT:      -4.2     11.745     13.547
REMARK  1 active torsions:
REMARK  status: ('A' for Active; 'I' for Inactive)
REMARK    1  A    between atoms: C1_1  and  C4_4 
ROOT
HETATM    1  C1  UNL     1     -41.883   4.172  -2.293  1.00 20.00    -0.068 C 
HETATM    2  C2  UNL     1     -41.954   3.085  -2.798  1.00 20.00    -0.108 C 
HETATM    3  C6  UNL     1     -42.042   1.761  -3.412  1.00 20.00     0.112 C 
ENDROOT
BRANCH   1   4
HETATM    4  C4  UNL     1     -41.796   5.486  -1.681  1.00 20.00     0.129 C 
HETATM    5  C5  UNL     1     -42.252   5.583  -0.176  1.00 20.00     0.016 C 
HETATM    6  C3  UNL     1     -40.859   6.218   0.022  1.00 20.00     0.182 C 
HETATM    7  C8  UNL     1     -42.393   4.263   0.592  1.00 20.00     0.021 C 
HETATM    8  C9  UNL     1     -43.417   6.515   0.142  1.00 20.00     0.021 C 
HETATM    9  O10 UNL     1     -40.418   5.740  -1.276  1.00 20.00    -0.366 OA
HETATM   10  C7  UNL     1     -42.247   6.566  -2.661  1.00 20.00     0.061 C 
ENDBRANCH   1   4
TORSDOF 1
ENDMDL
MODEL 5
REMARK VINA RESULT:      -4.1      1.459      2.432
REMARK  1 active torsions:
REMARK  status: ('A' for Active; 'I' for Inactive)
REMARK    1  A    between atoms: C1_1  and  C4_4 
ROOT
HETATM    1  C1  UNL     1     -34.625  16.384  -1.845  1.00 20.00    -0.068 C 
HETATM    2  C2  UNL     1     -34.753  16.820  -0.734  1.00 20.00    -0.108 C 
HETATM    3  C6  UNL     1     -34.910  17.351   0.620  1.00 20.00     0.112 C 
ENDROOT
BRANCH   1   4
HETATM    4  C4  UNL     1     -34.471  15.856  -3.188  1.00 20.00     0.129 C 
HETATM    5  C5  UNL     1     -34.239  16.917  -4.329  1.00 20.00     0.016 C 
HETATM    6  C3  UNL     1     -33.004  16.047  -4.646  1.00 20.00     0.182 C 
HETATM    7  C8  UNL     1     -33.843  18.332  -3.890  1.00 20.00     0.021 C 
HETATM    8  C9  UNL     1     -35.271  16.974  -5.451  1.00 20.00     0.021 C 
HETATM    9  O10 UNL     1     -33.104  15.374  -3.364  1.00 20.00    -0.366 OA
HETATM   10  C7  UNL     1     -35.450  14.710  -3.431  1.00 20.00     0.061 C 
ENDBRANCH   1   4
TORSDOF 1
ENDMDL
MODEL 6
REMARK VINA RESULT:      -4.0      1.256      2.993
REMARK  1 active torsions:
REMARK  status: ('A' for Active; 'I' for Inactive)
REMARK    1  A    between atoms: C1_1  and  C4_4 
ROOT
HETATM    1  C1  UNL     1     -36.394  15.356  -3.604  1.00 20.00    -0.068 C 
HETATM    2  C2  UNL     1     -37.567  15.120  -3.711  1.00 20.00    -0.108 C 
HETATM    3  C6  UNL     1     -38.995  14.833  -3.843  1.00 20.00     0.112 C 
ENDROOT
BRANCH   1   4
HETATM    4  C4  UNL     1     -34.977  15.642  -3.475  1.00 20.00     0.129 C 
HETATM    5  C5  UNL     1     -34.005  14.732  -4.316  1.00 20.00     0.016 C 
HETATM    6  C3  UNL     1     -33.472  16.084  -4.836  1.00 20.00     0.182 C 
HETATM    7  C8  UNL     1     -34.634  13.896  -5.437  1.00 20.00     0.021 C 
HETATM    8  C9  UNL     1     -32.978  13.907  -3.545  1.00 20.00     0.021 C 
HETATM    9  O10 UNL     1     -34.636  16.781  -4.321  1.00 20.00    -0.366 OA
HETATM   10  C7  UNL     1     -34.623  15.961  -2.025  1.00 20.00     0.061 C 
ENDBRANCH   1   4
TORSDOF 1
ENDMDL
MODEL 7
REMARK VINA RESULT:      -3.9     11.896     13.727
REMARK  1 active torsions:
REMARK  status: ('A' for Active; 'I' for Inactive)
REMARK    1  A    between atoms: C1_1  and  C4_4 
ROOT
HETATM    1  C1  UNL     1     -41.669   3.648  -2.308  1.00 20.00    -0.068 C 
HETATM    2  C2  UNL     1     -41.562   2.734  -3.078  1.00 20.00    -0.108 C 
HETATM    3  C6  UNL     1     -41.431   1.619  -4.016  1.00 20.00     0.112 C 
ENDROOT
BRANCH   1   4
HETATM    4  C4  UNL     1     -41.799   4.753  -1.375  1.00 20.00     0.129 C 
HETATM    5  C5  UNL     1     -42.577   6.017  -1.900  1.00 20.00     0.016 C 
HETATM    6  C3  UNL     1     -43.417   5.813  -0.621  1.00 20.00     0.182 C 
HETATM    7  C8  UNL     1     -43.417   5.837  -3.170  1.00 20.00     0.021 C 
HETATM    8  C9  UNL     1     -41.814   7.338  -1.945  1.00 20.00     0.021 C 
HETATM    9  O10 UNL     1     -42.887   4.474  -0.444  1.00 20.00    -0.366 OA
HETATM   10  C7  UNL     1     -40.501   4.953  -0.596  1.00 20.00     0.061 C 
ENDBRANCH   1   4
TORSDOF 1
ENDMDL
MODEL 8
REMARK VINA RESULT:      -3.9      1.890      3.248
REMARK  1 active torsions:
REMARK  status: ('A' for Active; 'I' for Inactive)
REMARK    1  A    between atoms: C1_1  and  C4_4 
ROOT
HETATM    1  C1  UNL     1     -33.811  16.958  -4.723  1.00 20.00    -0.068 C 
HETATM    2  C2  UNL     1     -33.665  17.906  -5.445  1.00 20.00    -0.108 C 
HETATM    3  C6  UNL     1     -33.488  19.061  -6.324  1.00 20.00     0.112 C 
ENDROOT
BRANCH   1   4
HETATM    4  C4  UNL     1     -33.988  15.812  -3.849  1.00 20.00     0.129 C 
HETATM    5  C5  UNL     1     -34.613  14.526  -4.509  1.00 20.00     0.016 C 
HETATM    6  C3  UNL     1     -33.360  13.834  -3.931  1.00 20.00     0.182 C 
HETATM    7  C8  UNL     1     -34.638  14.475  -6.041  1.00 20.00     0.021 C 
HETATM    8  C9  UNL     1     -35.933  14.017  -3.935  1.00 20.00     0.021 C 
HETATM    9  O10 UNL     1     -32.715  15.114  -3.704  1.00 20.00    -0.366 OA
HETATM   10  C7  UNL     1     -34.486  16.256  -2.476  1.00 20.00     0.061 C 
ENDBRANCH   1   4
TORSDOF 1
ENDMDL
MODEL 9
REMARK VINA RESULT:      -3.8      1.710      3.446
REMARK  1 active torsions:
REMARK  status: ('A' for Active; 'I' for Inactive)
REMARK    1  A    between atoms: C1_1  and  C4_4 
ROOT
HETATM    1  C1  UNL     1     -36.379  14.986  -3.637  1.00 20.00    -0.068 C 
HETATM    2  C2  UNL     1     -37.554  14.848  -3.841  1.00 20.00    -0.108 C 
HETATM    3  C6  UNL     1     -38.985  14.680  -4.090  1.00 20.00     0.112 C 
ENDROOT
BRANCH   1   4
HETATM    4  C4  UNL     1     -34.958  15.154  -3.390  1.00 20.00     0.129 C 
HETATM    5  C5  UNL     1     -34.314  16.489  -3.922  1.00 20.00     0.016 C 
HETATM    6  C3  UNL     1     -33.827  16.630  -2.464  1.00 20.00     0.182 C 
HETATM    7  C8  UNL     1     -35.277  17.616  -4.314  1.00 20.00     0.021 C 
HETATM    8  C9  UNL     1     -33.192  16.362  -4.949  1.00 20.00     0.021 C 
HETATM    9  O10 UNL     1     -34.758  15.609  -2.018  1.00 20.00    -0.366 OA
HETATM   10  C7  UNL     1     -34.216  13.837  -3.604  1.00 20.00     0.061 C 
ENDBRANCH   1   4
TORSDOF 1
ENDMDL
