MODEL 1
REMARK VINA RESULT:      -4.5      0.000      0.000
REMARK  1 active torsions:
REMARK  status: ('A' for Active; 'I' for Inactive)
REMARK    1  A    between atoms: C3_3  and  C7_7 
ROOT
HETATM    1  C1  UNL     1     -34.287  16.195  -2.326  1.00 20.00    -0.007 C 
HETATM    2  C2  UNL     1     -33.797  17.260  -2.975  1.00 20.00     0.008 C 
HETATM    3  C4  UNL     1     -34.607  14.899  -3.013  1.00 20.00     0.042 C 
HETATM    4  C5  UNL     1     -33.548  17.289  -4.453  1.00 20.00     0.051 C 
HETATM    5  C6  UNL     1     -34.224  16.127  -5.190  1.00 20.00     0.019 C 
HETATM    6  C7  UNL     1     -34.038  14.809  -4.436  1.00 20.00     0.076 C 
HETATM    7 CL9  UNL     1     -33.428  18.716  -2.122  1.00 20.00    -0.089 Cl
ENDROOT
BRANCH   6   8
HETATM    8  C3  UNL     1     -34.696  13.687  -5.182  1.00 20.00     0.223 C 
HETATM    9  O8  UNL     1     -34.797  12.563  -4.700  1.00 20.00    -0.279 OA
HETATM   10 CL10 UNL     1     -35.266  14.187  -6.746  1.00 20.00    -0.043 Cl
ENDBRANCH   6   8
TORSDOF 1
ENDMDL
MODEL 2
REMARK VINA RESULT:      -4.4      0.348      1.628
REMARK  1 active torsions:
REMARK  status: ('A' for Active; 'I' for Inactive)
REMARK    1  A    between atoms: C3_3  and  C7_7 
ROOT
HETATM    1  C1  UNL     1     -33.666  17.292  -4.403  1.00 20.00    -0.007 C 
HETATM    2  C2  UNL     1     -33.820  17.276  -3.071  1.00 20.00     0.008 C 
HETATM    3  C4  UNL     1     -34.040  16.132  -5.279  1.00 20.00     0.042 C 
HETATM    4  C5  UNL     1     -34.345  16.096  -2.310  1.00 20.00     0.051 C 
HETATM    5  C6  UNL     1     -34.358  14.812  -3.146  1.00 20.00     0.019 C 
HETATM    6  C7  UNL     1     -34.887  15.074  -4.557  1.00 20.00     0.076 C 
HETATM    7 CL9  UNL     1     -33.390  18.653  -2.121  1.00 20.00    -0.089 Cl
ENDROOT
BRANCH   6   8
HETATM    8  C3  UNL     1     -34.903  13.801  -5.350  1.00 20.00     0.223 C 
HETATM    9  O8  UNL     1     -34.722  12.709  -4.822  1.00 20.00    -0.279 OA
HETATM   10 CL10 UNL     1     -35.199  14.087  -7.039  1.00 20.00    -0.043 Cl
ENDBRANCH   6   8
TORSDOF 1
ENDMDL
MODEL 3
REMARK VINA RESULT:      -4.2      1.599      2.006
REMARK  1 active torsions:
REMARK  status: ('A' for Active; 'I' for Inactive)
REMARK    1  A    between atoms: C3_3  and  C7_7 
ROOT
HETATM    1  C1  UNL     1     -36.537  16.821  -3.064  1.00 20.00    -0.007 C 
HETATM    2  C2  UNL     1     -35.664  17.095  -2.084  1.00 20.00     0.008 C 
HETATM    3  C4  UNL     1     -36.364  15.667  -4.008  1.00 20.00     0.042 C 
HETATM    4  C5  UNL     1     -34.410  16.308  -1.845  1.00 20.00     0.051 C 
HETATM    5  C6  UNL     1     -34.051  15.396  -3.024  1.00 20.00     0.019 C 
HETATM    6  C7  UNL     1     -35.287  14.669  -3.559  1.00 20.00     0.076 C 
HETATM    7 CL9  UNL     1     -35.931  18.425  -1.015  1.00 20.00    -0.089 Cl
ENDROOT
BRANCH   6   8
HETATM    8  C3  UNL     1     -34.909  13.774  -4.701  1.00 20.00     0.223 C 
HETATM    9  O8  UNL     1     -34.931  12.552  -4.598  1.00 20.00    -0.279 OA
HETATM   10 CL10 UNL     1     -34.459  14.676  -6.118  1.00 20.00    -0.043 Cl
ENDBRANCH   6   8
TORSDOF 1
ENDMDL
MODEL 4
REMARK VINA RESULT:      -4.1      2.605      4.714
REMARK  1 active torsions:
REMARK  status: ('A' for Active; 'I' for Inactive)
REMARK    1  A    between atoms: C3_3  and  C7_7 
ROOT
HETATM    1  C1  UNL     1     -33.982  16.582  -4.944  1.00 20.00    -0.007 C 
HETATM    2  C2  UNL     1     -34.403  15.313  -4.846  1.00 20.00     0.008 C 
HETATM    3  C4  UNL     1     -33.717  17.447  -3.747  1.00 20.00     0.042 C 
HETATM    4  C5  UNL     1     -34.685  14.632  -3.540  1.00 20.00     0.051 C 
HETATM    5  C6  UNL     1     -34.784  15.616  -2.369  1.00 20.00     0.019 C 
HETATM    6  C7  UNL     1     -33.670  16.662  -2.428  1.00 20.00     0.076 C 
HETATM    7 CL9  UNL     1     -34.669  14.363  -6.263  1.00 20.00    -0.089 Cl
ENDROOT
BRANCH   6   8
HETATM    8  C3  UNL     1     -33.780  17.604  -1.267  1.00 20.00     0.223 C 
HETATM    9  O8  UNL     1     -33.179  18.673  -1.244  1.00 20.00    -0.279 OA
HETATM   10 CL10 UNL     1     -34.829  16.990  -0.024  1.00 20.00    -0.043 Cl
ENDBRANCH   6   8
TORSDOF 1
ENDMDL
MODEL 5
REMARK VINA RESULT:      -4.1      2.496      3.172
REMARK  1 active torsions:
REMARK  status: ('A' for Active; 'I' for Inactive)
REMARK    1  A    between atoms: C3_3  and  C7_7 
ROOT
HETATM    1  C1  UNL     1     -34.728  16.663  -0.551  1.00 20.00    -0.007 C 
HETATM    2  C2  UNL     1     -34.119  17.789  -0.151  1.00 20.00     0.008 C 
HETATM    3  C4  UNL     1     -34.664  16.161  -1.964  1.00 20.00     0.042 C 
HETATM    4  C5  UNL     1     -33.342  18.683  -1.070  1.00 20.00     0.051 C 
HETATM    5  C6  UNL     1     -33.601  18.379  -2.550  1.00 20.00     0.019 C 
HETATM    6  C7  UNL     1     -33.602  16.872  -2.814  1.00 20.00     0.076 C 
HETATM    7 CL9  UNL     1     -34.212  18.301   1.496  1.00 20.00    -0.089 Cl
ENDROOT
BRANCH   6   8
HETATM    8  C3  UNL     1     -33.844  16.601  -4.269  1.00 20.00     0.223 C 
HETATM    9  O8  UNL     1     -32.940  16.662  -5.096  1.00 20.00    -0.279 OA
HETATM   10 CL10 UNL     1     -35.506  16.207  -4.593  1.00 20.00    -0.043 Cl
ENDBRANCH   6   8
TORSDOF 1
ENDMDL
MODEL 6
REMARK VINA RESULT:      -4.0      2.376      2.685
REMARK  1 active torsions:
REMARK  status: ('A' for Active; 'I' for Inactive)
REMARK    1  A    between atoms: C3_3  and  C7_7 
ROOT
HETATM    1  C1  UNL     1     -35.277  16.889  -2.156  1.00 20.00    -0.007 C 
HETATM    2  C2  UNL     1     -36.545  17.110  -2.532  1.00 20.00     0.008 C 
HETATM    3  C4  UNL     1     -34.480  15.712  -2.637  1.00 20.00     0.042 C 
HETATM    4  C5  UNL     1     -37.314  16.197  -3.439  1.00 20.00     0.051 C 
HETATM    5  C6  UNL     1     -36.641  14.830  -3.610  1.00 20.00     0.019 C 
HETATM    6  C7  UNL     1     -35.132  14.977  -3.817  1.00 20.00     0.076 C 
HETATM    7 CL9  UNL     1     -37.401  18.497  -1.960  1.00 20.00    -0.089 Cl
ENDROOT
BRANCH   6   8
HETATM    8  C3  UNL     1     -34.499  13.629  -3.995  1.00 20.00     0.223 C 
HETATM    9  O8  UNL     1     -35.138  12.666  -4.406  1.00 20.00    -0.279 OA
HETATM   10 CL10 UNL     1     -32.817  13.633  -3.555  1.00 20.00    -0.043 Cl
ENDBRANCH   6   8
TORSDOF 1
ENDMDL
MODEL 7
REMARK VINA RESULT:      -4.0      2.573      4.106
REMARK  1 active torsions:
REMARK  status: ('A' for Active; 'I' for Inactive)
REMARK    1  A    between atoms: C3_3  and  C7_7 
ROOT
HETATM    1  C1  UNL     1     -36.099  15.006  -6.555  1.00 20.00    -0.007 C 
HETATM    2  C2  UNL     1     -37.233  15.086  -5.844  1.00 20.00     0.008 C 
HETATM    3  C4  UNL     1     -34.788  14.594  -5.953  1.00 20.00     0.042 C 
HETATM    4  C5  UNL     1     -37.310  14.809  -4.372  1.00 20.00     0.051 C 
HETATM    5  C6  UNL     1     -35.932  14.769  -3.705  1.00 20.00     0.019 C 
HETATM    6  C7  UNL     1     -34.928  13.983  -4.551  1.00 20.00     0.076 C 
HETATM    7 CL9  UNL     1     -38.715  15.546  -6.602  1.00 20.00    -0.089 Cl
ENDROOT
BRANCH   6   8
HETATM    8  C3  UNL     1     -33.592  13.947  -3.871  1.00 20.00     0.223 C 
HETATM    9  O8  UNL     1     -32.957  12.904  -3.751  1.00 20.00    -0.279 OA
HETATM   10 CL10 UNL     1     -33.101  15.517  -3.310  1.00 20.00    -0.043 Cl
ENDBRANCH   6   8
TORSDOF 1
ENDMDL
MODEL 8
REMARK VINA RESULT:      -4.0      2.294      2.932
REMARK  1 active torsions:
REMARK  status: ('A' for Active; 'I' for Inactive)
REMARK    1  A    between atoms: C3_3  and  C7_7 
ROOT
HETATM    1  C1  UNL     1     -34.702  16.583  -0.696  1.00 20.00    -0.007 C 
HETATM    2  C2  UNL     1     -34.100  17.732  -0.358  1.00 20.00     0.008 C 
HETATM    3  C4  UNL     1     -34.691  16.040  -2.095  1.00 20.00     0.042 C 
HETATM    4  C5  UNL     1     -33.384  18.614  -1.337  1.00 20.00     0.051 C 
HETATM    5  C6  UNL     1     -33.702  18.260  -2.794  1.00 20.00     0.019 C 
HETATM    6  C7  UNL     1     -33.683  16.746  -3.013  1.00 20.00     0.076 C 
HETATM    7 CL9  UNL     1     -34.131  18.292   1.276  1.00 20.00    -0.089 Cl
ENDROOT
BRANCH   6   8
HETATM    8  C3  UNL     1     -33.983  16.425  -4.447  1.00 20.00     0.223 C 
HETATM    9  O8  UNL     1     -34.506  15.365  -4.776  1.00 20.00    -0.279 OA
HETATM   10 CL10 UNL     1     -33.508  17.709  -5.518  1.00 20.00    -0.043 Cl
ENDBRANCH   6   8
TORSDOF 1
ENDMDL
MODEL 9
REMARK VINA RESULT:      -3.9     12.364     13.666
REMARK  1 active torsions:
REMARK  status: ('A' for Active; 'I' for Inactive)
REMARK    1  A    between atoms: C3_3  and  C7_7 
ROOT
HETATM    1  C1  UNL     1     -40.832   5.336  -0.940  1.00 20.00    -0.007 C 
HETATM    2  C2  UNL     1     -41.492   6.363  -1.495  1.00 20.00     0.008 C 
HETATM    3  C4  UNL     1     -41.005   3.916  -1.394  1.00 20.00     0.042 C 
HETATM    4  C5  UNL     1     -42.496   6.204  -2.599  1.00 20.00     0.051 C 
HETATM    5  C6  UNL     1     -42.944   4.751  -2.786  1.00 20.00     0.019 C 
HETATM    6  C7  UNL     1     -41.753   3.792  -2.729  1.00 20.00     0.076 C 
HETATM    7 CL9  UNL     1     -41.232   7.978  -0.941  1.00 20.00    -0.089 Cl
ENDROOT
BRANCH   6   8
HETATM    8  C3  UNL     1     -42.214   2.379  -2.929  1.00 20.00     0.223 C 
HETATM    9  O8  UNL     1     -43.175   1.922  -2.317  1.00 20.00    -0.279 OA
HETATM   10 CL10 UNL     1     -41.240   1.530  -4.092  1.00 20.00    -0.043 Cl
ENDBRANCH   6   8
TORSDOF 1
ENDMDL
