MODEL 1
REMARK VINA RESULT:      -5.5      0.000      0.000
REMARK  0 active torsions:
REMARK  status: ('A' for Active; 'I' for Inactive)
ROOT
HETATM    1  C1  UNL     1     -34.415   5.825   6.644  1.00 20.00     0.047 A 
HETATM    2  C2  UNL     1     -35.173   4.887   6.051  1.00 20.00     0.052 A 
HETATM    3  C3  UNL     1     -33.496   6.621   5.862  1.00 20.00     0.153 A 
HETATM    4  C4  UNL     1     -33.373   6.449   4.536  1.00 20.00     0.167 A 
HETATM    5  C5  UNL     1     -34.142   5.442   3.783  1.00 20.00     0.262 A 
HETATM    6  C6  UNL     1     -35.119   4.598   4.605  1.00 20.00     0.258 A 
HETATM    7  O7  UNL     1     -35.565   5.524   3.605  1.00 20.00    -0.327 OA
HETATM    8  F8  UNL     1     -32.763   7.556   6.501  1.00 20.00    -0.203 F 
HETATM    9  F9  UNL     1     -32.501   7.229   3.860  1.00 20.00    -0.204 F 
HETATM   10  F10 UNL     1     -35.189   3.252   4.259  1.00 20.00    -0.203 F 
ENDROOT
TORSDOF 0
ENDMDL
MODEL 2
REMARK VINA RESULT:      -5.3      1.633      2.803
REMARK  0 active torsions:
REMARK  status: ('A' for Active; 'I' for Inactive)
ROOT
HETATM    1  C1  UNL     1     -35.118   4.785   4.444  1.00 20.00     0.047 A 
HETATM    2  C2  UNL     1     -34.440   5.042   3.312  1.00 20.00     0.052 A 
HETATM    3  C3  UNL     1     -34.773   5.466   5.672  1.00 20.00     0.153 A 
HETATM    4  C4  UNL     1     -33.777   6.365   5.717  1.00 20.00     0.167 A 
HETATM    5  C5  UNL     1     -32.958   6.715   4.543  1.00 20.00     0.262 A 
HETATM    6  C6  UNL     1     -33.320   5.999   3.241  1.00 20.00     0.258 A 
HETATM    7  O7  UNL     1     -33.487   7.414   3.405  1.00 20.00    -0.327 OA
HETATM    8  F8  UNL     1     -35.488   5.181   6.779  1.00 20.00    -0.203 F 
HETATM    9  F9  UNL     1     -33.508   6.974   6.894  1.00 20.00    -0.204 F 
HETATM   10  F10 UNL     1     -32.243   5.605   2.452  1.00 20.00    -0.203 F 
ENDROOT
TORSDOF 0
ENDMDL
MODEL 3
REMARK VINA RESULT:      -5.0      1.296      2.385
REMARK  0 active torsions:
REMARK  status: ('A' for Active; 'I' for Inactive)
ROOT
HETATM    1  C1  UNL     1     -33.148   6.151   3.051  1.00 20.00     0.047 A 
HETATM    2  C2  UNL     1     -34.250   5.381   3.033  1.00 20.00     0.052 A 
HETATM    3  C3  UNL     1     -32.710   6.768   4.283  1.00 20.00     0.153 A 
HETATM    4  C4  UNL     1     -33.383   6.593   5.432  1.00 20.00     0.167 A 
HETATM    5  C5  UNL     1     -34.610   5.783   5.528  1.00 20.00     0.262 A 
HETATM    6  C6  UNL     1     -35.077   5.125   4.227  1.00 20.00     0.258 A 
HETATM    7  O7  UNL     1     -34.618   4.358   5.348  1.00 20.00    -0.327 OA
HETATM    8  F8  UNL     1     -31.594   7.524   4.253  1.00 20.00    -0.203 F 
HETATM    9  F9  UNL     1     -32.918   7.191   6.552  1.00 20.00    -0.204 F 
HETATM   10  F10 UNL     1     -36.453   5.123   4.015  1.00 20.00    -0.203 F 
ENDROOT
TORSDOF 0
ENDMDL
MODEL 4
REMARK VINA RESULT:      -4.7      1.558      3.149
REMARK  0 active torsions:
REMARK  status: ('A' for Active; 'I' for Inactive)
ROOT
HETATM    1  C1  UNL     1     -34.053   6.343   6.301  1.00 20.00     0.047 A 
HETATM    2  C2  UNL     1     -33.337   7.064   5.420  1.00 20.00     0.052 A 
HETATM    3  C3  UNL     1     -34.780   5.172   5.865  1.00 20.00     0.153 A 
HETATM    4  C4  UNL     1     -34.762   4.774   4.583  1.00 20.00     0.167 A 
HETATM    5  C5  UNL     1     -34.025   5.494   3.529  1.00 20.00     0.262 A 
HETATM    6  C6  UNL     1     -33.252   6.733   3.985  1.00 20.00     0.258 A 
HETATM    7  O7  UNL     1     -32.591   5.561   3.490  1.00 20.00    -0.327 OA
HETATM    8  F8  UNL     1     -35.475   4.477   6.788  1.00 20.00    -0.203 F 
HETATM    9  F9  UNL     1     -35.456   3.666   4.240  1.00 20.00    -0.204 F 
HETATM   10  F10 UNL     1     -33.290   7.819   3.115  1.00 20.00    -0.203 F 
ENDROOT
TORSDOF 0
ENDMDL
MODEL 5
REMARK VINA RESULT:      -4.6     12.275     13.368
REMARK  0 active torsions:
REMARK  status: ('A' for Active; 'I' for Inactive)
ROOT
HETATM    1  C1  UNL     1     -35.319  15.874  -3.578  1.00 20.00     0.047 A 
HETATM    2  C2  UNL     1     -34.516  14.919  -3.076  1.00 20.00     0.052 A 
HETATM    3  C3  UNL     1     -35.833  15.760  -4.925  1.00 20.00     0.153 A 
HETATM    4  C4  UNL     1     -35.527  14.711  -5.705  1.00 20.00     0.167 A 
HETATM    5  C5  UNL     1     -34.646  13.614  -5.266  1.00 20.00     0.262 A 
HETATM    6  C6  UNL     1     -34.102  13.728  -3.840  1.00 20.00     0.258 A 
HETATM    7  O7  UNL     1     -35.013  12.690  -4.229  1.00 20.00    -0.327 OA
HETATM    8  F8  UNL     1     -36.641  16.739  -5.380  1.00 20.00    -0.203 F 
HETATM    9  F9  UNL     1     -36.045  14.660  -6.952  1.00 20.00    -0.204 F 
HETATM   10  F10 UNL     1     -32.777  13.337  -3.670  1.00 20.00    -0.203 F 
ENDROOT
TORSDOF 0
ENDMDL
MODEL 6
REMARK VINA RESULT:      -4.6     12.213     13.314
REMARK  0 active torsions:
REMARK  status: ('A' for Active; 'I' for Inactive)
ROOT
HETATM    1  C1  UNL     1     -34.041  15.741  -5.801  1.00 20.00     0.047 A 
HETATM    2  C2  UNL     1     -34.464  14.465  -5.762  1.00 20.00     0.052 A 
HETATM    3  C3  UNL     1     -33.599  16.399  -4.592  1.00 20.00     0.153 A 
HETATM    4  C4  UNL     1     -33.597  15.763  -3.409  1.00 20.00     0.167 A 
HETATM    5  C5  UNL     1     -34.051  14.371  -3.246  1.00 20.00     0.262 A 
HETATM    6  C6  UNL     1     -34.518  13.669  -4.523  1.00 20.00     0.258 A 
HETATM    7  O7  UNL     1     -33.347  13.252  -3.808  1.00 20.00    -0.327 OA
HETATM    8  F8  UNL     1     -33.176  17.676  -4.683  1.00 20.00    -0.203 F 
HETATM    9  F9  UNL     1     -33.164  16.431  -2.316  1.00 20.00    -0.204 F 
HETATM   10  F10 UNL     1     -35.635  12.850  -4.384  1.00 20.00    -0.203 F 
ENDROOT
TORSDOF 0
ENDMDL
MODEL 7
REMARK VINA RESULT:      -4.6      8.859      9.816
REMARK  0 active torsions:
REMARK  status: ('A' for Active; 'I' for Inactive)
ROOT
HETATM    1  C1  UNL     1     -42.167   6.771  -2.314  1.00 20.00     0.047 A 
HETATM    2  C2  UNL     1     -42.403   5.502  -2.690  1.00 20.00     0.052 A 
HETATM    3  C3  UNL     1     -41.364   7.048  -1.144  1.00 20.00     0.153 A 
HETATM    4  C4  UNL     1     -40.838   6.057  -0.406  1.00 20.00     0.167 A 
HETATM    5  C5  UNL     1     -41.042   4.630  -0.715  1.00 20.00     0.262 A 
HETATM    6  C6  UNL     1     -41.888   4.332  -1.954  1.00 20.00     0.258 A 
HETATM    7  O7  UNL     1     -40.494   4.002  -1.885  1.00 20.00    -0.327 OA
HETATM    8  F8  UNL     1     -41.149   8.337  -0.812  1.00 20.00    -0.203 F 
HETATM    9  F9  UNL     1     -40.091   6.381   0.673  1.00 20.00    -0.204 F 
HETATM   10  F10 UNL     1     -42.770   3.262  -1.837  1.00 20.00    -0.203 F 
ENDROOT
TORSDOF 0
ENDMDL
MODEL 8
REMARK VINA RESULT:      -4.6     12.654     13.860
REMARK  0 active torsions:
REMARK  status: ('A' for Active; 'I' for Inactive)
ROOT
HETATM    1  C1  UNL     1     -33.402  16.249  -5.150  1.00 20.00     0.047 A 
HETATM    2  C2  UNL     1     -33.100  15.497  -4.077  1.00 20.00     0.052 A 
HETATM    3  C3  UNL     1     -34.224  15.709  -6.210  1.00 20.00     0.153 A 
HETATM    4  C4  UNL     1     -34.704  14.456  -6.155  1.00 20.00     0.167 A 
HETATM    5  C5  UNL     1     -34.426  13.539  -5.036  1.00 20.00     0.262 A 
HETATM    6  C6  UNL     1     -33.559  14.106  -3.910  1.00 20.00     0.258 A 
HETATM    7  O7  UNL     1     -34.934  13.753  -3.710  1.00 20.00    -0.327 OA
HETATM    8  F8  UNL     1     -34.507  16.504  -7.262  1.00 20.00    -0.203 F 
HETATM    9  F9  UNL     1     -35.473  14.012  -7.174  1.00 20.00    -0.204 F 
HETATM   10  F10 UNL     1     -32.624  13.227  -3.370  1.00 20.00    -0.203 F 
ENDROOT
TORSDOF 0
ENDMDL
MODEL 9
REMARK VINA RESULT:      -4.5     12.598     13.806
REMARK  0 active torsions:
REMARK  status: ('A' for Active; 'I' for Inactive)
ROOT
HETATM    1  C1  UNL     1     -34.960  13.378  -5.014  1.00 20.00     0.047 A 
HETATM    2  C2  UNL     1     -34.557  13.665  -3.764  1.00 20.00     0.052 A 
HETATM    3  C3  UNL     1     -34.771  14.337  -6.080  1.00 20.00     0.153 A 
HETATM    4  C4  UNL     1     -34.194  15.529  -5.854  1.00 20.00     0.167 A 
HETATM    5  C5  UNL     1     -33.727  15.955  -4.523  1.00 20.00     0.262 A 
HETATM    6  C6  UNL     1     -33.922  14.943  -3.393  1.00 20.00     0.258 A 
HETATM    7  O7  UNL     1     -32.621  15.334  -3.851  1.00 20.00    -0.327 OA
HETATM    8  F8  UNL     1     -35.184  14.000  -7.318  1.00 20.00    -0.203 F 
HETATM    9  F9  UNL     1     -34.039  16.379  -6.893  1.00 20.00    -0.204 F 
HETATM   10  F10 UNL     1     -34.319  15.477  -2.170  1.00 20.00    -0.203 F 
ENDROOT
TORSDOF 0
ENDMDL
