MODEL 1
REMARK VINA RESULT:      -5.7      0.000      0.000
REMARK  2 active torsions:
REMARK  status: ('A' for Active; 'I' for Inactive)
REMARK    1  A    between atoms: C1_1  and  C4_4 
REMARK    2  A    between atoms: C2_2  and  N10_10 
ROOT
HETATM    1  C5  UNL     1     -35.293   4.836   6.013  1.00 20.00     0.003 C 
HETATM    2  C6  UNL     1     -35.028   4.200   4.652  1.00 20.00     0.029 C 
HETATM    3  C7  UNL     1     -34.077   5.611   6.510  1.00 20.00     0.029 C 
HETATM    4  C8  UNL     1     -34.550   5.226   3.633  1.00 20.00     0.251 C 
HETATM    5  C9  UNL     1     -33.603   6.633   5.484  1.00 20.00     0.251 C 
HETATM    6  N10 UNL     1     -33.338   5.936   4.176  1.00 20.00    -0.006 N 
HETATM    7  H24 UNL     1     -32.602   5.232   4.333  1.00 20.00     0.297 HD
ENDROOT
BRANCH   6   8
HETATM    8  C2  UNL     1     -32.785   6.874   3.180  1.00 20.00     0.118 C 
HETATM    9  C1  UNL     1     -32.334   7.638   2.371  1.00 20.00    -0.049 C 
BRANCH   9  10
HETATM   10  C4  UNL     1     -31.807   8.542   1.412  1.00 20.00     0.056 C 
HETATM   11  C3  UNL     1     -32.375   9.728   1.175  1.00 20.00     0.021 C 
ENDBRANCH   9  10
ENDBRANCH   6   8
TORSDOF 2
ENDMDL
MODEL 2
REMARK VINA RESULT:      -4.4     11.287     12.455
REMARK  2 active torsions:
REMARK  status: ('A' for Active; 'I' for Inactive)
REMARK    1  A    between atoms: C1_1  and  C4_4 
REMARK    2  A    between atoms: C2_2  and  N10_10 
ROOT
HETATM    1  C5  UNL     1     -34.900  14.388  -6.339  1.00 20.00     0.003 C 
HETATM    2  C6  UNL     1     -34.043  15.632  -6.125  1.00 20.00     0.029 C 
HETATM    3  C7  UNL     1     -34.790  13.428  -5.158  1.00 20.00     0.029 C 
HETATM    4  C8  UNL     1     -34.362  16.315  -4.802  1.00 20.00     0.251 C 
HETATM    5  C9  UNL     1     -35.107  14.121  -3.839  1.00 20.00     0.251 C 
HETATM    6  N10 UNL     1     -34.212  15.321  -3.681  1.00 20.00    -0.006 N 
HETATM    7  H24 UNL     1     -33.236  14.993  -3.677  1.00 20.00     0.297 HD
ENDROOT
BRANCH   6   8
HETATM    8  C2  UNL     1     -34.419  15.966  -2.371  1.00 20.00     0.118 C 
HETATM    9  C1  UNL     1     -34.587  16.490  -1.303  1.00 20.00    -0.049 C 
BRANCH   9  10
HETATM   10  C4  UNL     1     -34.793  17.111  -0.043  1.00 20.00     0.056 C 
HETATM   11  C3  UNL     1     -34.043  18.138   0.368  1.00 20.00     0.021 C 
ENDBRANCH   9  10
ENDBRANCH   6   8
TORSDOF 2
ENDMDL
MODEL 3
REMARK VINA RESULT:      -4.3      9.744     11.191
REMARK  2 active torsions:
REMARK  status: ('A' for Active; 'I' for Inactive)
REMARK    1  A    between atoms: C1_1  and  C4_4 
REMARK    2  A    between atoms: C2_2  and  N10_10 
ROOT
HETATM    1  C5  UNL     1     -41.242   7.248  -0.876  1.00 20.00     0.003 C 
HETATM    2  C6  UNL     1     -42.458   6.981  -1.759  1.00 20.00     0.029 C 
HETATM    3  C7  UNL     1     -40.857   6.009  -0.073  1.00 20.00     0.029 C 
HETATM    4  C8  UNL     1     -42.251   5.765  -2.651  1.00 20.00     0.251 C 
HETATM    5  C9  UNL     1     -40.656   4.796  -0.972  1.00 20.00     0.251 C 
HETATM    6  N10 UNL     1     -41.898   4.578  -1.796  1.00 20.00    -0.006 N 
HETATM    7  H24 UNL     1     -42.682   4.407  -1.150  1.00 20.00     0.297 HD
ENDROOT
BRANCH   6   8
HETATM    8  C2  UNL     1     -41.781   3.354  -2.611  1.00 20.00     0.118 C 
HETATM    9  C1  UNL     1     -41.687   2.357  -3.274  1.00 20.00    -0.049 C 
BRANCH   9  10
HETATM   10  C4  UNL     1     -41.570   1.181  -4.062  1.00 20.00     0.056 C 
HETATM   11  C3  UNL     1     -42.082   0.013  -3.665  1.00 20.00     0.021 C 
ENDBRANCH   9  10
ENDBRANCH   6   8
TORSDOF 2
ENDMDL
MODEL 4
REMARK VINA RESULT:      -4.3     11.051     12.160
REMARK  2 active torsions:
REMARK  status: ('A' for Active; 'I' for Inactive)
REMARK    1  A    between atoms: C1_1  and  C4_4 
REMARK    2  A    between atoms: C2_2  and  N10_10 
ROOT
HETATM    1  C5  UNL     1     -34.920  14.042  -5.965  1.00 20.00     0.003 C 
HETATM    2  C6  UNL     1     -34.573  13.233  -4.718  1.00 20.00     0.029 C 
HETATM    3  C7  UNL     1     -35.972  15.105  -5.662  1.00 20.00     0.029 C 
HETATM    4  C8  UNL     1     -34.160  14.132  -3.561  1.00 20.00     0.251 C 
HETATM    5  C9  UNL     1     -35.552  15.997  -4.501  1.00 20.00     0.251 C 
HETATM    6  N10 UNL     1     -35.248  15.139  -3.301  1.00 20.00    -0.006 N 
HETATM    7  H24 UNL     1     -36.105  14.623  -3.053  1.00 20.00     0.297 HD
ENDROOT
BRANCH   6   8
HETATM    8  C2  UNL     1     -34.930  15.970  -2.125  1.00 20.00     0.118 C 
HETATM    9  C1  UNL     1     -34.671  16.645  -1.165  1.00 20.00    -0.049 C 
BRANCH   9  10
HETATM   10  C4  UNL     1     -34.370  17.447  -0.034  1.00 20.00     0.056 C 
HETATM   11  C3  UNL     1     -35.218  17.565   0.992  1.00 20.00     0.021 C 
ENDBRANCH   9  10
ENDBRANCH   6   8
TORSDOF 2
ENDMDL
MODEL 5
REMARK VINA RESULT:      -3.8     11.604     13.059
REMARK  2 active torsions:
REMARK  status: ('A' for Active; 'I' for Inactive)
REMARK    1  A    between atoms: C1_1  and  C4_4 
REMARK    2  A    between atoms: C2_2  and  N10_10 
ROOT
HETATM    1  C5  UNL     1     -33.743  17.672  -0.844  1.00 20.00     0.003 C 
HETATM    2  C6  UNL     1     -33.865  18.654  -2.005  1.00 20.00     0.029 C 
HETATM    3  C7  UNL     1     -34.688  16.487  -1.017  1.00 20.00     0.029 C 
HETATM    4  C8  UNL     1     -33.675  17.964  -3.349  1.00 20.00     0.251 C 
HETATM    5  C9  UNL     1     -34.494  15.805  -2.365  1.00 20.00     0.251 C 
HETATM    6  N10 UNL     1     -34.651  16.823  -3.463  1.00 20.00    -0.006 N 
HETATM    7  H24 UNL     1     -35.603  17.213  -3.403  1.00 20.00     0.297 HD
ENDROOT
BRANCH   6   8
HETATM    8  C2  UNL     1     -34.566  16.186  -4.791  1.00 20.00     0.118 C 
HETATM    9  C1  UNL     1     -34.499  15.666  -5.872  1.00 20.00    -0.049 C 
BRANCH   9  10
HETATM   10  C4  UNL     1     -34.412  15.050  -7.148  1.00 20.00     0.056 C 
HETATM   11  C3  UNL     1     -35.472  14.481  -7.729  1.00 20.00     0.021 C 
ENDBRANCH   9  10
ENDBRANCH   6   8
TORSDOF 2
ENDMDL
MODEL 6
REMARK VINA RESULT:      -3.8     10.903     12.432
REMARK  2 active torsions:
REMARK  status: ('A' for Active; 'I' for Inactive)
REMARK    1  A    between atoms: C1_1  and  C4_4 
REMARK    2  A    between atoms: C2_2  and  N10_10 
ROOT
HETATM    1  C5  UNL     1     -32.978  14.969  -3.735  1.00 20.00     0.003 C 
HETATM    2  C6  UNL     1     -33.779  15.904  -2.834  1.00 20.00     0.029 C 
HETATM    3  C7  UNL     1     -33.662  13.613  -3.878  1.00 20.00     0.029 C 
HETATM    4  C8  UNL     1     -35.221  16.039  -3.303  1.00 20.00     0.251 C 
HETATM    5  C9  UNL     1     -35.105  13.758  -4.344  1.00 20.00     0.251 C 
HETATM    6  N10 UNL     1     -35.842  14.671  -3.400  1.00 20.00    -0.006 N 
HETATM    7  H24 UNL     1     -35.819  14.245  -2.462  1.00 20.00     0.297 HD
ENDROOT
BRANCH   6   8
HETATM    8  C2  UNL     1     -37.269  14.762  -3.760  1.00 20.00     0.118 C 
HETATM    9  C1  UNL     1     -38.431  14.837  -4.055  1.00 20.00    -0.049 C 
BRANCH   9  10
HETATM   10  C4  UNL     1     -39.806  14.928  -4.397  1.00 20.00     0.056 C 
HETATM   11  C3  UNL     1     -40.437  13.946  -5.049  1.00 20.00     0.021 C 
ENDBRANCH   9  10
ENDBRANCH   6   8
TORSDOF 2
ENDMDL
MODEL 7
REMARK VINA RESULT:      -3.8     11.617     13.067
REMARK  2 active torsions:
REMARK  status: ('A' for Active; 'I' for Inactive)
REMARK    1  A    between atoms: C1_1  and  C4_4 
REMARK    2  A    between atoms: C2_2  and  N10_10 
ROOT
HETATM    1  C5  UNL     1     -36.028  15.161  -7.328  1.00 20.00     0.003 C 
HETATM    2  C6  UNL     1     -34.865  14.418  -6.676  1.00 20.00     0.029 C 
HETATM    3  C7  UNL     1     -37.200  15.312  -6.364  1.00 20.00     0.029 C 
HETATM    4  C8  UNL     1     -34.446  15.067  -5.364  1.00 20.00     0.251 C 
HETATM    5  C9  UNL     1     -36.772  15.959  -5.053  1.00 20.00     0.251 C 
HETATM    6  N10 UNL     1     -35.642  15.164  -4.455  1.00 20.00    -0.006 N 
HETATM    7  H24 UNL     1     -35.984  14.209  -4.277  1.00 20.00     0.297 HD
ENDROOT
BRANCH   6   8
HETATM    8  C2  UNL     1     -35.261  15.701  -3.135  1.00 20.00     0.118 C 
HETATM    9  C1  UNL     1     -34.952  16.139  -2.060  1.00 20.00    -0.049 C 
BRANCH   9  10
HETATM   10  C4  UNL     1     -34.580  16.658  -0.792  1.00 20.00     0.056 C 
HETATM   11  C3  UNL     1     -33.705  17.660  -0.670  1.00 20.00     0.021 C 
ENDBRANCH   9  10
ENDBRANCH   6   8
TORSDOF 2
ENDMDL
MODEL 8
REMARK VINA RESULT:      -3.7     10.527     11.683
REMARK  2 active torsions:
REMARK  status: ('A' for Active; 'I' for Inactive)
REMARK    1  A    between atoms: C1_1  and  C4_4 
REMARK    2  A    between atoms: C2_2  and  N10_10 
ROOT
HETATM    1  C5  UNL     1     -42.796  -0.059  -3.816  1.00 20.00     0.003 C 
HETATM    2  C6  UNL     1     -41.388   0.499  -3.994  1.00 20.00     0.029 C 
HETATM    3  C7  UNL     1     -43.416   0.406  -2.502  1.00 20.00     0.029 C 
HETATM    4  C8  UNL     1     -41.360   2.015  -3.855  1.00 20.00     0.251 C 
HETATM    5  C9  UNL     1     -43.381   1.923  -2.369  1.00 20.00     0.251 C 
HETATM    6  N10 UNL     1     -41.963   2.402  -2.531  1.00 20.00    -0.006 N 
HETATM    7  H24 UNL     1     -41.395   1.974  -1.786  1.00 20.00     0.297 HD
ENDROOT
BRANCH   6   8
HETATM    8  C2  UNL     1     -41.870   3.858  -2.313  1.00 20.00     0.118 C 
HETATM    9  C1  UNL     1     -41.794   5.044  -2.138  1.00 20.00    -0.049 C 
BRANCH   9  10
HETATM   10  C4  UNL     1     -41.700   6.445  -1.925  1.00 20.00     0.056 C 
HETATM   11  C3  UNL     1     -41.094   6.954  -0.849  1.00 20.00     0.021 C 
ENDBRANCH   9  10
ENDBRANCH   6   8
TORSDOF 2
ENDMDL
MODEL 9
REMARK VINA RESULT:      -3.7     11.146     12.101
REMARK  2 active torsions:
REMARK  status: ('A' for Active; 'I' for Inactive)
REMARK    1  A    between atoms: C1_1  and  C4_4 
REMARK    2  A    between atoms: C2_2  and  N10_10 
ROOT
HETATM    1  C5  UNL     1     -33.759  19.263   1.375  1.00 20.00     0.003 C 
HETATM    2  C6  UNL     1     -34.639  18.067   1.727  1.00 20.00     0.029 C 
HETATM    3  C7  UNL     1     -32.657  18.872   0.395  1.00 20.00     0.029 C 
HETATM    4  C8  UNL     1     -35.196  17.391   0.482  1.00 20.00     0.251 C 
HETATM    5  C9  UNL     1     -33.222  18.193  -0.846  1.00 20.00     0.251 C 
HETATM    6  N10 UNL     1     -34.058  17.012  -0.428  1.00 20.00    -0.006 N 
HETATM    7  H24 UNL     1     -33.449  16.356   0.082  1.00 20.00     0.297 HD
ENDROOT
BRANCH   6   8
HETATM    8  C2  UNL     1     -34.546  16.268  -1.604  1.00 20.00     0.118 C 
HETATM    9  C1  UNL     1     -34.942  15.663  -2.563  1.00 20.00    -0.049 C 
BRANCH   9  10
HETATM   10  C4  UNL     1     -35.417  14.950  -3.696  1.00 20.00     0.056 C 
HETATM   11  C3  UNL     1     -34.967  13.729  -3.999  1.00 20.00     0.021 C 
ENDBRANCH   9  10
ENDBRANCH   6   8
TORSDOF 2
ENDMDL
