MODEL 1
REMARK VINA RESULT:      -4.6      0.000      0.000
REMARK  1 active torsions:
REMARK  status: ('A' for Active; 'I' for Inactive)
REMARK    1  A    between atoms: C1_1  and  C6_6 
ROOT
HETATM    1  C2  UNL     1     -34.818  16.074  -1.897  1.00 20.00     0.002 C 
HETATM    2  C3  UNL     1     -35.178  15.087  -3.007  1.00 20.00     0.013 C 
HETATM    3  C4  UNL     1     -33.711  17.061  -2.278  1.00 20.00     0.020 C 
HETATM    4  C5  UNL     1     -33.423  16.061  -4.585  1.00 20.00     0.033 C 
HETATM    5  C6  UNL     1     -33.999  14.797  -3.929  1.00 20.00     0.073 C 
HETATM    6  C7  UNL     1     -33.636  17.347  -3.775  1.00 20.00     0.083 C 
HETATM    7 CL10 UNL     1     -35.115  18.201  -4.321  1.00 20.00    -0.125 Cl
ENDROOT
BRANCH   5   8
HETATM    8  C1  UNL     1     -34.415  13.829  -4.994  1.00 20.00     0.223 C 
HETATM    9  O8  UNL     1     -34.640  12.649  -4.741  1.00 20.00    -0.279 OA
HETATM   10 CL9  UNL     1     -34.525  14.580  -6.557  1.00 20.00    -0.043 Cl
ENDBRANCH   5   8
TORSDOF 1
ENDMDL
MODEL 2
REMARK VINA RESULT:      -4.5      2.436      4.070
REMARK  1 active torsions:
REMARK  status: ('A' for Active; 'I' for Inactive)
REMARK    1  A    between atoms: C1_1  and  C6_6 
ROOT
HETATM    1  C2  UNL     1     -33.679  13.665  -4.157  1.00 20.00     0.002 C 
HETATM    2  C3  UNL     1     -33.427  15.042  -3.543  1.00 20.00     0.013 C 
HETATM    3  C4  UNL     1     -35.159  13.283  -4.243  1.00 20.00     0.020 C 
HETATM    4  C5  UNL     1     -35.921  15.444  -3.168  1.00 20.00     0.033 C 
HETATM    5  C6  UNL     1     -34.514  15.441  -2.551  1.00 20.00     0.073 C 
HETATM    6  C7  UNL     1     -36.094  14.485  -4.353  1.00 20.00     0.083 C 
HETATM    7 CL10 UNL     1     -35.827  15.342  -5.905  1.00 20.00    -0.125 Cl
ENDROOT
BRANCH   5   8
HETATM    8  C1  UNL     1     -34.213  16.796  -1.989  1.00 20.00     0.223 C 
HETATM    9  O8  UNL     1     -33.730  17.689  -2.680  1.00 20.00    -0.279 OA
HETATM   10 CL9  UNL     1     -34.625  16.914  -0.305  1.00 20.00    -0.043 Cl
ENDBRANCH   5   8
TORSDOF 1
ENDMDL
MODEL 3
REMARK VINA RESULT:      -4.4      2.387      3.959
REMARK  1 active torsions:
REMARK  status: ('A' for Active; 'I' for Inactive)
REMARK    1  A    between atoms: C1_1  and  C6_6 
ROOT
HETATM    1  C2  UNL     1     -33.543  13.601  -3.902  1.00 20.00     0.002 C 
HETATM    2  C3  UNL     1     -33.742  14.947  -3.206  1.00 20.00     0.013 C 
HETATM    3  C4  UNL     1     -34.677  13.220  -4.857  1.00 20.00     0.020 C 
HETATM    4  C5  UNL     1     -35.991  15.325  -4.355  1.00 20.00     0.033 C 
HETATM    5  C6  UNL     1     -35.216  15.295  -3.029  1.00 20.00     0.073 C 
HETATM    6  C7  UNL     1     -35.405  14.424  -5.450  1.00 20.00     0.083 C 
HETATM    7 CL10 UNL     1     -34.303  15.356  -6.515  1.00 20.00    -0.125 Cl
ENDROOT
BRANCH   5   8
HETATM    8  C1  UNL     1     -35.344  16.622  -2.347  1.00 20.00     0.223 C 
HETATM    9  O8  UNL     1     -35.886  17.579  -2.893  1.00 20.00    -0.279 OA
HETATM   10 CL9  UNL     1     -34.652  16.610  -0.753  1.00 20.00    -0.043 Cl
ENDBRANCH   5   8
TORSDOF 1
ENDMDL
MODEL 4
REMARK VINA RESULT:      -4.4      1.837      2.450
REMARK  1 active torsions:
REMARK  status: ('A' for Active; 'I' for Inactive)
REMARK    1  A    between atoms: C1_1  and  C6_6 
ROOT
HETATM    1  C2  UNL     1     -33.698  17.417  -4.307  1.00 20.00     0.002 C 
HETATM    2  C3  UNL     1     -33.384  15.922  -4.253  1.00 20.00     0.013 C 
HETATM    3  C4  UNL     1     -34.951  17.818  -3.523  1.00 20.00     0.020 C 
HETATM    4  C5  UNL     1     -35.437  15.437  -2.814  1.00 20.00     0.033 C 
HETATM    5  C6  UNL     1     -34.638  15.073  -4.075  1.00 20.00     0.073 C 
HETATM    6  C7  UNL     1     -35.262  16.890  -2.352  1.00 20.00     0.083 C 
HETATM    7 CL10 UNL     1     -33.977  17.006  -1.107  1.00 20.00    -0.125 Cl
ENDROOT
BRANCH   5   8
HETATM    8  C1  UNL     1     -34.265  13.623  -4.027  1.00 20.00     0.223 C 
HETATM    9  O8  UNL     1     -35.046  12.744  -4.381  1.00 20.00    -0.279 OA
HETATM   10 CL9  UNL     1     -32.652  13.381  -3.430  1.00 20.00    -0.043 Cl
ENDBRANCH   5   8
TORSDOF 1
ENDMDL
MODEL 5
REMARK VINA RESULT:      -4.4      1.317      1.396
REMARK  1 active torsions:
REMARK  status: ('A' for Active; 'I' for Inactive)
REMARK    1  A    between atoms: C1_1  and  C6_6 
ROOT
HETATM    1  C2  UNL     1     -34.450  17.136  -1.336  1.00 20.00     0.002 C 
HETATM    2  C3  UNL     1     -34.769  15.797  -2.002  1.00 20.00     0.013 C 
HETATM    3  C4  UNL     1     -33.647  18.094  -2.220  1.00 20.00     0.020 C 
HETATM    4  C5  UNL     1     -33.528  16.446  -4.137  1.00 20.00     0.033 C 
HETATM    5  C6  UNL     1     -33.717  15.397  -3.031  1.00 20.00     0.073 C 
HETATM    6  C7  UNL     1     -33.872  17.880  -3.714  1.00 20.00     0.083 C 
HETATM    7 CL10 UNL     1     -35.564  18.281  -4.153  1.00 20.00    -0.125 Cl
ENDROOT
BRANCH   5   8
HETATM    8  C1  UNL     1     -34.086  14.083  -3.647  1.00 20.00     0.223 C 
HETATM    9  O8  UNL     1     -33.262  13.185  -3.796  1.00 20.00    -0.279 OA
HETATM   10 CL9  UNL     1     -35.763  14.019  -4.098  1.00 20.00    -0.043 Cl
ENDBRANCH   5   8
TORSDOF 1
ENDMDL
MODEL 6
REMARK VINA RESULT:      -4.1      2.040      2.369
REMARK  1 active torsions:
REMARK  status: ('A' for Active; 'I' for Inactive)
REMARK    1  A    between atoms: C1_1  and  C6_6 
ROOT
HETATM    1  C2  UNL     1     -34.156  15.931  -2.381  1.00 20.00     0.002 C 
HETATM    2  C3  UNL     1     -35.606  15.859  -2.858  1.00 20.00     0.013 C 
HETATM    3  C4  UNL     1     -33.136  15.444  -3.414  1.00 20.00     0.020 C 
HETATM    4  C5  UNL     1     -34.923  14.876  -5.114  1.00 20.00     0.033 C 
HETATM    5  C6  UNL     1     -35.826  14.747  -3.878  1.00 20.00     0.073 C 
HETATM    6  C7  UNL     1     -33.601  15.612  -4.858  1.00 20.00     0.083 C 
HETATM    7 CL10 UNL     1     -33.757  17.352  -5.263  1.00 20.00    -0.125 Cl
ENDROOT
BRANCH   5   8
HETATM    8  C1  UNL     1     -37.260  14.730  -4.308  1.00 20.00     0.223 C 
HETATM    9  O8  UNL     1     -38.143  14.261  -3.594  1.00 20.00    -0.279 OA
HETATM   10 CL9  UNL     1     -37.481  15.434  -5.881  1.00 20.00    -0.043 Cl
ENDBRANCH   5   8
TORSDOF 1
ENDMDL
MODEL 7
REMARK VINA RESULT:      -4.1      2.475      3.198
REMARK  1 active torsions:
REMARK  status: ('A' for Active; 'I' for Inactive)
REMARK    1  A    between atoms: C1_1  and  C6_6 
ROOT
HETATM    1  C2  UNL     1     -34.703  13.445  -4.649  1.00 20.00     0.002 C 
HETATM    2  C3  UNL     1     -35.170  14.620  -5.508  1.00 20.00     0.013 C 
HETATM    3  C4  UNL     1     -33.441  13.735  -3.831  1.00 20.00     0.020 C 
HETATM    4  C5  UNL     1     -33.225  16.087  -4.742  1.00 20.00     0.033 C 
HETATM    5  C6  UNL     1     -34.016  15.522  -5.932  1.00 20.00     0.073 C 
HETATM    6  C7  UNL     1     -33.265  15.211  -3.483  1.00 20.00     0.083 C 
HETATM    7 CL10 UNL     1     -34.571  15.750  -2.378  1.00 20.00    -0.125 Cl
ENDROOT
BRANCH   5   8
HETATM    8  C1  UNL     1     -34.537  16.652  -6.765  1.00 20.00     0.223 C 
HETATM    9  O8  UNL     1     -35.347  16.468  -7.669  1.00 20.00    -0.279 OA
HETATM   10 CL9  UNL     1     -33.862  18.182  -6.291  1.00 20.00    -0.043 Cl
ENDBRANCH   5   8
TORSDOF 1
ENDMDL
MODEL 8
REMARK VINA RESULT:      -4.1      1.930      2.287
REMARK  1 active torsions:
REMARK  status: ('A' for Active; 'I' for Inactive)
REMARK    1  A    between atoms: C1_1  and  C6_6 
ROOT
HETATM    1  C2  UNL     1     -36.413  16.858  -4.745  1.00 20.00     0.002 C 
HETATM    2  C3  UNL     1     -35.563  15.610  -4.986  1.00 20.00     0.013 C 
HETATM    3  C4  UNL     1     -36.358  17.380  -3.307  1.00 20.00     0.020 C 
HETATM    4  C5  UNL     1     -34.807  15.529  -2.548  1.00 20.00     0.033 C 
HETATM    5  C6  UNL     1     -35.416  14.759  -3.729  1.00 20.00     0.073 C 
HETATM    6  C7  UNL     1     -35.057  17.043  -2.584  1.00 20.00     0.083 C 
HETATM    7 CL10 UNL     1     -33.678  17.893  -3.354  1.00 20.00    -0.125 Cl
ENDROOT
BRANCH   5   8
HETATM    8  C1  UNL     1     -34.573  13.557  -4.028  1.00 20.00     0.223 C 
HETATM    9  O8  UNL     1     -35.045  12.552  -4.553  1.00 20.00    -0.279 OA
HETATM   10 CL9  UNL     1     -32.919  13.781  -3.549  1.00 20.00    -0.043 Cl
ENDBRANCH   5   8
TORSDOF 1
ENDMDL
MODEL 9
REMARK VINA RESULT:      -4.1      2.268      3.498
REMARK  1 active torsions:
REMARK  status: ('A' for Active; 'I' for Inactive)
REMARK    1  A    between atoms: C1_1  and  C6_6 
ROOT
HETATM    1  C2  UNL     1     -34.143  15.893  -5.799  1.00 20.00     0.002 C 
HETATM    2  C3  UNL     1     -35.521  15.370  -5.396  1.00 20.00     0.013 C 
HETATM    3  C4  UNL     1     -33.217  16.184  -4.615  1.00 20.00     0.020 C 
HETATM    4  C5  UNL     1     -34.962  15.514  -2.908  1.00 20.00     0.033 C 
HETATM    5  C6  UNL     1     -35.954  15.876  -4.025  1.00 20.00     0.073 C 
HETATM    6  C7  UNL     1     -33.515  15.333  -3.383  1.00 20.00     0.083 C 
HETATM    7 CL10 UNL     1     -33.172  13.605  -3.723  1.00 20.00    -0.125 Cl
ENDROOT
BRANCH   5   8
HETATM    8  C1  UNL     1     -37.307  15.328  -3.687  1.00 20.00     0.223 C 
HETATM    9  O8  UNL     1     -37.554  14.127  -3.762  1.00 20.00    -0.279 OA
HETATM   10 CL9  UNL     1     -38.416  16.573  -3.199  1.00 20.00    -0.043 Cl
ENDBRANCH   5   8
TORSDOF 1
ENDMDL
