MODEL 1
REMARK VINA RESULT:      -5.0      0.000      0.000
REMARK  1 active torsions:
REMARK  status: ('A' for Active; 'I' for Inactive)
REMARK    1  A    between atoms: C2_2  and  C3_3 
ROOT
HETATM    1  C1  UNL     1     -33.786   6.186   4.963  1.00 20.00    -0.043 C 
HETATM    2  C2  UNL     1     -32.697   6.789   4.485  1.00 20.00     0.055 C 
HETATM    3  C4  UNL     1     -34.359   6.034   6.353  1.00 20.00     0.040 C 
HETATM    4  C5  UNL     1     -35.147   4.863   5.734  1.00 20.00     0.046 C 
HETATM    5  C6  UNL     1     -34.911   5.407   4.304  1.00 20.00     0.199 C 
HETATM    6  F9  UNL     1     -34.609   4.471   3.375  1.00 20.00    -0.245 F 
ENDROOT
BRANCH   2   7
HETATM    7  C3  UNL     1     -32.389   6.768   3.029  1.00 20.00     0.145 C 
HETATM    8  C7  UNL     1     -32.304   8.101   2.335  1.00 20.00     0.096 C 
HETATM    9  O8  UNL     1     -32.187   5.720   2.420  1.00 20.00    -0.294 OA
ENDBRANCH   2   7
TORSDOF 1
ENDMDL
MODEL 2
REMARK VINA RESULT:      -4.8      1.683      1.960
REMARK  1 active torsions:
REMARK  status: ('A' for Active; 'I' for Inactive)
REMARK    1  A    between atoms: C2_2  and  C3_3 
ROOT
HETATM    1  C1  UNL     1     -33.993   5.580   4.282  1.00 20.00    -0.043 C 
HETATM    2  C2  UNL     1     -33.489   6.070   3.149  1.00 20.00     0.055 C 
HETATM    3  C4  UNL     1     -35.066   4.559   4.580  1.00 20.00     0.040 C 
HETATM    4  C5  UNL     1     -35.088   5.216   5.975  1.00 20.00     0.046 C 
HETATM    5  C6  UNL     1     -33.689   5.840   5.747  1.00 20.00     0.199 C 
HETATM    6  F9  UNL     1     -33.551   7.116   6.177  1.00 20.00    -0.245 F 
ENDROOT
BRANCH   2   7
HETATM    7  C3  UNL     1     -32.409   7.094   3.173  1.00 20.00     0.145 C 
HETATM    8  C7  UNL     1     -32.485   8.184   2.137  1.00 20.00     0.096 C 
HETATM    9  O8  UNL     1     -31.509   7.073   4.010  1.00 20.00    -0.294 OA
ENDBRANCH   2   7
TORSDOF 1
ENDMDL
MODEL 3
REMARK VINA RESULT:      -4.7      1.679      3.629
REMARK  1 active torsions:
REMARK  status: ('A' for Active; 'I' for Inactive)
REMARK    1  A    between atoms: C2_2  and  C3_3 
ROOT
HETATM    1  C1  UNL     1     -33.075   6.509   4.185  1.00 20.00    -0.043 C 
HETATM    2  C2  UNL     1     -33.970   6.281   5.148  1.00 20.00     0.055 C 
HETATM    3  C4  UNL     1     -31.992   7.547   4.006  1.00 20.00     0.040 C 
HETATM    4  C5  UNL     1     -32.071   7.149   2.518  1.00 20.00     0.046 C 
HETATM    5  C6  UNL     1     -32.767   5.812   2.872  1.00 20.00     0.199 C 
HETATM    6  F9  UNL     1     -33.788   5.461   2.056  1.00 20.00    -0.245 F 
ENDROOT
BRANCH   2   7
HETATM    7  C3  UNL     1     -34.934   5.151   5.042  1.00 20.00     0.145 C 
HETATM    8  C7  UNL     1     -34.737   4.001   5.992  1.00 20.00     0.096 C 
HETATM    9  O8  UNL     1     -35.863   5.160   4.237  1.00 20.00    -0.294 OA
ENDBRANCH   2   7
TORSDOF 1
ENDMDL
MODEL 4
REMARK VINA RESULT:      -4.7     11.926     12.313
REMARK  1 active torsions:
REMARK  status: ('A' for Active; 'I' for Inactive)
REMARK    1  A    between atoms: C2_2  and  C3_3 
ROOT
HETATM    1  C1  UNL     1     -34.749  15.251  -3.071  1.00 20.00    -0.043 C 
HETATM    2  C2  UNL     1     -35.584  14.477  -3.766  1.00 20.00     0.055 C 
HETATM    3  C4  UNL     1     -34.927  16.137  -1.861  1.00 20.00     0.040 C 
HETATM    4  C5  UNL     1     -33.613  16.790  -2.337  1.00 20.00     0.046 C 
HETATM    5  C6  UNL     1     -33.267  15.554  -3.203  1.00 20.00     0.199 C 
HETATM    6  F9  UNL     1     -32.757  15.832  -4.425  1.00 20.00    -0.245 F 
ENDROOT
BRANCH   2   7
HETATM    7  C3  UNL     1     -35.106  13.701  -4.943  1.00 20.00     0.145 C 
HETATM    8  C7  UNL     1     -35.150  14.397  -6.277  1.00 20.00     0.096 C 
HETATM    9  O8  UNL     1     -34.672  12.556  -4.836  1.00 20.00    -0.294 OA
ENDBRANCH   2   7
TORSDOF 1
ENDMDL
MODEL 5
REMARK VINA RESULT:      -4.6     11.778     12.073
REMARK  1 active torsions:
REMARK  status: ('A' for Active; 'I' for Inactive)
REMARK    1  A    between atoms: C2_2  and  C3_3 
ROOT
HETATM    1  C1  UNL     1     -34.234  15.447  -3.192  1.00 20.00    -0.043 C 
HETATM    2  C2  UNL     1     -33.668  14.512  -3.957  1.00 20.00     0.055 C 
HETATM    3  C4  UNL     1     -33.685  16.424  -2.178  1.00 20.00     0.040 C 
HETATM    4  C5  UNL     1     -35.146  16.501  -1.690  1.00 20.00     0.046 C 
HETATM    5  C6  UNL     1     -35.665  15.927  -3.031  1.00 20.00     0.199 C 
HETATM    6  F9  UNL     1     -36.658  15.014  -2.920  1.00 20.00    -0.245 F 
ENDROOT
BRANCH   2   7
HETATM    7  C3  UNL     1     -34.489  13.686  -4.884  1.00 20.00     0.145 C 
HETATM    8  C7  UNL     1     -34.827  14.296  -6.218  1.00 20.00     0.096 C 
HETATM    9  O8  UNL     1     -34.856  12.549  -4.593  1.00 20.00    -0.294 OA
ENDBRANCH   2   7
TORSDOF 1
ENDMDL
MODEL 6
REMARK VINA RESULT:      -4.3     11.610     13.118
REMARK  1 active torsions:
REMARK  status: ('A' for Active; 'I' for Inactive)
REMARK    1  A    between atoms: C2_2  and  C3_3 
ROOT
HETATM    1  C1  UNL     1     -33.776  16.333  -3.788  1.00 20.00    -0.043 C 
HETATM    2  C2  UNL     1     -34.178  15.259  -3.106  1.00 20.00     0.055 C 
HETATM    3  C4  UNL     1     -33.763  17.811  -3.474  1.00 20.00     0.040 C 
HETATM    4  C5  UNL     1     -33.634  17.976  -5.002  1.00 20.00     0.046 C 
HETATM    5  C6  UNL     1     -33.152  16.514  -5.160  1.00 20.00     0.199 C 
HETATM    6  F9  UNL     1     -33.674  15.846  -6.215  1.00 20.00    -0.245 F 
ENDROOT
BRANCH   2   7
HETATM    7  C3  UNL     1     -34.061  13.895  -3.691  1.00 20.00     0.145 C 
HETATM    8  C7  UNL     1     -35.290  13.336  -4.357  1.00 20.00     0.096 C 
HETATM    9  O8  UNL     1     -33.010  13.260  -3.658  1.00 20.00    -0.294 OA
ENDBRANCH   2   7
TORSDOF 1
ENDMDL
MODEL 7
REMARK VINA RESULT:      -4.2     11.512     12.412
REMARK  1 active torsions:
REMARK  status: ('A' for Active; 'I' for Inactive)
REMARK    1  A    between atoms: C2_2  and  C3_3 
ROOT
HETATM    1  C1  UNL     1     -35.119  15.013  -3.511  1.00 20.00    -0.043 C 
HETATM    2  C2  UNL     1     -36.282  15.653  -3.638  1.00 20.00     0.055 C 
HETATM    3  C4  UNL     1     -33.789  15.398  -2.907  1.00 20.00     0.040 C 
HETATM    4  C5  UNL     1     -33.239  14.241  -3.765  1.00 20.00     0.046 C 
HETATM    5  C6  UNL     1     -34.652  13.625  -3.912  1.00 20.00     0.199 C 
HETATM    6  F9  UNL     1     -34.951  13.160  -5.147  1.00 20.00    -0.245 F 
ENDROOT
BRANCH   2   7
HETATM    7  C3  UNL     1     -37.446  14.998  -4.296  1.00 20.00     0.145 C 
HETATM    8  C7  UNL     1     -37.691  15.344  -5.741  1.00 20.00     0.096 C 
HETATM    9  O8  UNL     1     -38.162  14.194  -3.704  1.00 20.00    -0.294 OA
ENDBRANCH   2   7
TORSDOF 1
ENDMDL
MODEL 8
REMARK VINA RESULT:      -4.2     11.685     13.395
REMARK  1 active torsions:
REMARK  status: ('A' for Active; 'I' for Inactive)
REMARK    1  A    between atoms: C2_2  and  C3_3 
ROOT
HETATM    1  C1  UNL     1     -34.933  14.414  -6.132  1.00 20.00    -0.043 C 
HETATM    2  C2  UNL     1     -34.800  13.487  -5.182  1.00 20.00     0.055 C 
HETATM    3  C4  UNL     1     -35.606  14.418  -7.485  1.00 20.00     0.040 C 
HETATM    4  C5  UNL     1     -34.704  15.639  -7.758  1.00 20.00     0.046 C 
HETATM    5  C6  UNL     1     -34.472  15.856  -6.243  1.00 20.00     0.199 C 
HETATM    6  F9  UNL     1     -33.203  16.172  -5.895  1.00 20.00    -0.245 F 
ENDROOT
BRANCH   2   7
HETATM    7  C3  UNL     1     -34.063  13.784  -3.923  1.00 20.00     0.145 C 
HETATM    8  C7  UNL     1     -34.667  14.820  -3.013  1.00 20.00     0.096 C 
HETATM    9  O8  UNL     1     -33.025  13.199  -3.621  1.00 20.00    -0.294 OA
ENDBRANCH   2   7
TORSDOF 1
ENDMDL
MODEL 9
REMARK VINA RESULT:      -4.1     11.817     12.321
REMARK  1 active torsions:
REMARK  status: ('A' for Active; 'I' for Inactive)
REMARK    1  A    between atoms: C2_2  and  C3_3 
ROOT
HETATM    1  C1  UNL     1     -35.004  14.929  -3.503  1.00 20.00    -0.043 C 
HETATM    2  C2  UNL     1     -35.629  15.781  -2.691  1.00 20.00     0.055 C 
HETATM    3  C4  UNL     1     -35.449  13.685  -4.237  1.00 20.00     0.040 C 
HETATM    4  C5  UNL     1     -33.940  13.380  -4.319  1.00 20.00     0.046 C 
HETATM    5  C6  UNL     1     -33.585  14.860  -4.039  1.00 20.00     0.199 C 
HETATM    6  F9  UNL     1     -32.549  15.052  -3.188  1.00 20.00    -0.245 F 
ENDROOT
BRANCH   2   7
HETATM    7  C3  UNL     1     -34.910  16.946  -2.106  1.00 20.00     0.145 C 
HETATM    8  C7  UNL     1     -34.496  16.832  -0.663  1.00 20.00     0.096 C 
HETATM    9  O8  UNL     1     -34.641  17.946  -2.768  1.00 20.00    -0.294 OA
ENDBRANCH   2   7
TORSDOF 1
ENDMDL
