MODEL 1
REMARK VINA RESULT:      -4.5      0.000      0.000
REMARK  3 active torsions:
REMARK  status: ('A' for Active; 'I' for Inactive)
REMARK    1  A    between atoms: C1_1  and  C4_4 
REMARK    2  A    between atoms: C3_3  and  C10_10 
REMARK    3  A    between atoms: C5_5  and  C10_10 
ROOT
HETATM    1  C1  UNL     1     -33.725  17.369  -4.034  1.00 20.00    -0.101 C 
HETATM    2  C2  UNL     1     -33.745  17.878  -5.123  1.00 20.00    -0.111 C 
HETATM    3  C7  UNL     1     -33.770  18.497  -6.447  1.00 20.00     0.112 C 
ENDROOT
BRANCH   1   4
HETATM    4  C4  UNL     1     -33.703  16.763  -2.735  1.00 20.00     0.078 A 
HETATM    5  C5  UNL     1     -34.475  15.491  -2.462  1.00 20.00     0.017 A 
HETATM    6  C6  UNL     1     -34.934  16.798  -1.838  1.00 20.00    -0.028 A 
HETATM    7  C8  UNL     1     -36.210  17.454  -2.310  1.00 20.00     0.016 C 
HETATM    8  C9  UNL     1     -34.699  16.966  -0.355  1.00 20.00     0.016 C 
BRANCH   5   9
HETATM    9  C10 UNL     1     -35.260  14.777  -3.511  1.00 20.00     0.076 C 
BRANCH   9  10
HETATM   10  C3  UNL     1     -34.510  13.622  -4.151  1.00 20.00     0.231 C 
HETATM   11  O11 UNL     1     -35.039  12.571  -4.497  1.00 20.00    -0.307 OA
ENDBRANCH   9  10
ENDBRANCH   5   9
ENDBRANCH   1   4
TORSDOF 3
ENDMDL
MODEL 2
REMARK VINA RESULT:      -4.5      2.246      4.304
REMARK  3 active torsions:
REMARK  status: ('A' for Active; 'I' for Inactive)
REMARK    1  A    between atoms: C1_1  and  C4_4 
REMARK    2  A    between atoms: C3_3  and  C10_10 
REMARK    3  A    between atoms: C5_5  and  C10_10 
ROOT
HETATM    1  C1  UNL     1     -34.292  15.911  -2.096  1.00 20.00    -0.101 C 
HETATM    2  C2  UNL     1     -34.581  16.540  -1.115  1.00 20.00    -0.111 C 
HETATM    3  C7  UNL     1     -34.935  17.304   0.080  1.00 20.00     0.112 C 
ENDROOT
BRANCH   1   4
HETATM    4  C4  UNL     1     -33.947  15.161  -3.269  1.00 20.00     0.078 A 
HETATM    5  C5  UNL     1     -34.214  15.718  -4.650  1.00 20.00     0.017 A 
HETATM    6  C6  UNL     1     -35.031  14.541  -4.144  1.00 20.00    -0.028 A 
HETATM    7  C8  UNL     1     -36.490  14.725  -3.803  1.00 20.00     0.016 C 
HETATM    8  C9  UNL     1     -34.734  13.191  -4.753  1.00 20.00     0.016 C 
BRANCH   5   9
HETATM    9  C10 UNL     1     -34.802  17.070  -4.880  1.00 20.00     0.076 C 
BRANCH   9  10
HETATM   10  C3  UNL     1     -33.762  18.168  -5.022  1.00 20.00     0.231 C 
HETATM   11  O11 UNL     1     -33.395  18.886  -4.098  1.00 20.00    -0.307 OA
ENDBRANCH   9  10
ENDBRANCH   5   9
ENDBRANCH   1   4
TORSDOF 3
ENDMDL
MODEL 3
REMARK VINA RESULT:      -4.2      1.630      3.236
REMARK  3 active torsions:
REMARK  status: ('A' for Active; 'I' for Inactive)
REMARK    1  A    between atoms: C1_1  and  C4_4 
REMARK    2  A    between atoms: C3_3  and  C10_10 
REMARK    3  A    between atoms: C5_5  and  C10_10 
ROOT
HETATM    1  C1  UNL     1     -33.926  17.643  -0.691  1.00 20.00    -0.101 C 
HETATM    2  C2  UNL     1     -33.000  18.262  -0.240  1.00 20.00    -0.111 C 
HETATM    3  C7  UNL     1     -31.873  19.014   0.309  1.00 20.00     0.112 C 
ENDROOT
BRANCH   1   4
HETATM    4  C4  UNL     1     -35.032  16.906  -1.228  1.00 20.00     0.078 A 
HETATM    5  C5  UNL     1     -34.827  15.909  -2.347  1.00 20.00     0.017 A 
HETATM    6  C6  UNL     1     -35.565  17.207  -2.624  1.00 20.00    -0.028 A 
HETATM    7  C8  UNL     1     -34.922  18.275  -3.477  1.00 20.00     0.016 C 
HETATM    8  C9  UNL     1     -37.060  17.115  -2.824  1.00 20.00     0.016 C 
BRANCH   5   9
HETATM    9  C10 UNL     1     -33.486  15.602  -2.926  1.00 20.00     0.076 C 
BRANCH   9  10
HETATM   10  C3  UNL     1     -33.495  14.430  -3.892  1.00 20.00     0.231 C 
HETATM   11  O11 UNL     1     -33.777  13.280  -3.569  1.00 20.00    -0.307 OA
ENDBRANCH   9  10
ENDBRANCH   5   9
ENDBRANCH   1   4
TORSDOF 3
ENDMDL
MODEL 4
REMARK VINA RESULT:      -4.1      1.714      3.770
REMARK  3 active torsions:
REMARK  status: ('A' for Active; 'I' for Inactive)
REMARK    1  A    between atoms: C1_1  and  C4_4 
REMARK    2  A    between atoms: C3_3  and  C10_10 
REMARK    3  A    between atoms: C5_5  and  C10_10 
ROOT
HETATM    1  C1  UNL     1     -34.659  16.484  -1.156  1.00 20.00    -0.101 C 
HETATM    2  C2  UNL     1     -34.411  17.293  -0.304  1.00 20.00    -0.111 C 
HETATM    3  C7  UNL     1     -34.107  18.277   0.734  1.00 20.00     0.112 C 
ENDROOT
BRANCH   1   4
HETATM    4  C4  UNL     1     -34.956  15.517  -2.173  1.00 20.00     0.078 A 
HETATM    5  C5  UNL     1     -34.447  15.699  -3.586  1.00 20.00     0.017 A 
HETATM    6  C6  UNL     1     -35.931  15.844  -3.298  1.00 20.00    -0.028 A 
HETATM    7  C8  UNL     1     -36.587  17.202  -3.375  1.00 20.00     0.016 C 
HETATM    8  C9  UNL     1     -36.832  14.728  -3.773  1.00 20.00     0.016 C 
BRANCH   5   9
HETATM    9  C10 UNL     1     -33.588  16.847  -3.998  1.00 20.00     0.076 C 
BRANCH   9  10
HETATM   10  C3  UNL     1     -33.472  17.010  -5.503  1.00 20.00     0.231 C 
HETATM   11  O11 UNL     1     -33.787  16.142  -6.311  1.00 20.00    -0.307 OA
ENDBRANCH   9  10
ENDBRANCH   5   9
ENDBRANCH   1   4
TORSDOF 3
ENDMDL
MODEL 5
REMARK VINA RESULT:      -4.1      1.660      2.959
REMARK  3 active torsions:
REMARK  status: ('A' for Active; 'I' for Inactive)
REMARK    1  A    between atoms: C1_1  and  C4_4 
REMARK    2  A    between atoms: C3_3  and  C10_10 
REMARK    3  A    between atoms: C5_5  and  C10_10 
ROOT
HETATM    1  C1  UNL     1     -36.379  15.964  -3.792  1.00 20.00    -0.101 C 
HETATM    2  C2  UNL     1     -37.454  15.427  -3.770  1.00 20.00    -0.111 C 
HETATM    3  C7  UNL     1     -38.761  14.773  -3.743  1.00 20.00     0.112 C 
ENDROOT
BRANCH   1   4
HETATM    4  C4  UNL     1     -35.097  16.605  -3.821  1.00 20.00     0.078 A 
HETATM    5  C5  UNL     1     -33.833  15.819  -3.549  1.00 20.00     0.017 A 
HETATM    6  C6  UNL     1     -34.316  16.842  -2.534  1.00 20.00    -0.028 A 
HETATM    7  C8  UNL     1     -34.869  16.385  -1.205  1.00 20.00     0.016 C 
HETATM    8  C9  UNL     1     -33.530  18.128  -2.434  1.00 20.00     0.016 C 
BRANCH   5   9
HETATM    9  C10 UNL     1     -33.832  14.351  -3.279  1.00 20.00     0.076 C 
BRANCH   9  10
HETATM   10  C3  UNL     1     -34.083  13.506  -4.515  1.00 20.00     0.231 C 
HETATM   11  O11 UNL     1     -34.946  12.637  -4.586  1.00 20.00    -0.307 OA
ENDBRANCH   9  10
ENDBRANCH   5   9
ENDBRANCH   1   4
TORSDOF 3
ENDMDL
MODEL 6
REMARK VINA RESULT:      -4.1      1.183      3.549
REMARK  3 active torsions:
REMARK  status: ('A' for Active; 'I' for Inactive)
REMARK    1  A    between atoms: C1_1  and  C4_4 
REMARK    2  A    between atoms: C3_3  and  C10_10 
REMARK    3  A    between atoms: C5_5  and  C10_10 
ROOT
HETATM    1  C1  UNL     1     -34.988  17.309  -2.019  1.00 20.00    -0.101 C 
HETATM    2  C2  UNL     1     -34.968  17.321  -0.818  1.00 20.00    -0.111 C 
HETATM    3  C7  UNL     1     -34.946  17.337   0.644  1.00 20.00     0.112 C 
ENDROOT
BRANCH   1   4
HETATM    4  C4  UNL     1     -35.009  17.295  -3.452  1.00 20.00     0.078 A 
HETATM    5  C5  UNL     1     -35.473  16.070  -4.208  1.00 20.00     0.017 A 
HETATM    6  C6  UNL     1     -34.005  16.461  -4.239  1.00 20.00    -0.028 A 
HETATM    7  C8  UNL     1     -32.982  15.614  -3.521  1.00 20.00     0.016 C 
HETATM    8  C9  UNL     1     -33.482  17.049  -5.528  1.00 20.00     0.016 C 
BRANCH   5   9
HETATM    9  C10 UNL     1     -35.966  14.836  -3.529  1.00 20.00     0.076 C 
BRANCH   9  10
HETATM   10  C3  UNL     1     -35.817  13.579  -4.369  1.00 20.00     0.231 C 
HETATM   11  O11 UNL     1     -34.899  12.776  -4.241  1.00 20.00    -0.307 OA
ENDBRANCH   9  10
ENDBRANCH   5   9
ENDBRANCH   1   4
TORSDOF 3
ENDMDL
MODEL 7
REMARK VINA RESULT:      -4.0      2.285      3.226
REMARK  3 active torsions:
REMARK  status: ('A' for Active; 'I' for Inactive)
REMARK    1  A    between atoms: C1_1  and  C4_4 
REMARK    2  A    between atoms: C3_3  and  C10_10 
REMARK    3  A    between atoms: C5_5  and  C10_10 
ROOT
HETATM    1  C1  UNL     1     -34.612  15.708  -6.325  1.00 20.00    -0.101 C 
HETATM    2  C2  UNL     1     -34.616  16.671  -7.044  1.00 20.00    -0.111 C 
HETATM    3  C7  UNL     1     -34.620  17.844  -7.918  1.00 20.00     0.112 C 
ENDROOT
BRANCH   1   4
HETATM    4  C4  UNL     1     -34.608  14.560  -5.467  1.00 20.00     0.078 A 
HETATM    5  C5  UNL     1     -35.445  14.533  -4.207  1.00 20.00     0.017 A 
HETATM    6  C6  UNL     1     -33.931  14.611  -4.102  1.00 20.00    -0.028 A 
HETATM    7  C8  UNL     1     -33.271  15.880  -3.619  1.00 20.00     0.016 C 
HETATM    8  C9  UNL     1     -33.213  13.363  -3.644  1.00 20.00     0.016 C 
BRANCH   5   9
HETATM    9  C10 UNL     1     -36.341  15.655  -3.804  1.00 20.00     0.076 C 
BRANCH   9  10
HETATM   10  C3  UNL     1     -37.806  15.262  -3.719  1.00 20.00     0.231 C 
HETATM   11  O11 UNL     1     -38.210  14.108  -3.807  1.00 20.00    -0.307 OA
ENDBRANCH   9  10
ENDBRANCH   5   9
ENDBRANCH   1   4
TORSDOF 3
ENDMDL
MODEL 8
REMARK VINA RESULT:      -4.0      2.357      4.273
REMARK  3 active torsions:
REMARK  status: ('A' for Active; 'I' for Inactive)
REMARK    1  A    between atoms: C1_1  and  C4_4 
REMARK    2  A    between atoms: C3_3  and  C10_10 
REMARK    3  A    between atoms: C5_5  and  C10_10 
ROOT
HETATM    1  C1  UNL     1     -35.031  16.358  -3.213  1.00 20.00    -0.101 C 
HETATM    2  C2  UNL     1     -34.798  16.533  -2.047  1.00 20.00    -0.111 C 
HETATM    3  C7  UNL     1     -34.514  16.745  -0.629  1.00 20.00     0.112 C 
ENDROOT
BRANCH   1   4
HETATM    4  C4  UNL     1     -35.308  16.147  -4.603  1.00 20.00     0.078 A 
HETATM    5  C5  UNL     1     -36.426  15.226  -5.039  1.00 20.00     0.017 A 
HETATM    6  C6  UNL     1     -34.982  14.816  -5.271  1.00 20.00    -0.028 A 
HETATM    7  C8  UNL     1     -34.379  13.685  -4.472  1.00 20.00     0.016 C 
HETATM    8  C9  UNL     1     -34.478  14.867  -6.694  1.00 20.00     0.016 C 
BRANCH   5   9
HETATM    9  C10 UNL     1     -37.320  14.522  -4.073  1.00 20.00     0.076 C 
BRANCH   9  10
HETATM   10  C3  UNL     1     -38.789  14.870  -4.240  1.00 20.00     0.231 C 
HETATM   11  O11 UNL     1     -39.658  14.052  -4.521  1.00 20.00    -0.307 OA
ENDBRANCH   9  10
ENDBRANCH   5   9
ENDBRANCH   1   4
TORSDOF 3
ENDMDL
MODEL 9
REMARK VINA RESULT:      -4.0      1.191      3.580
REMARK  3 active torsions:
REMARK  status: ('A' for Active; 'I' for Inactive)
REMARK    1  A    between atoms: C1_1  and  C4_4 
REMARK    2  A    between atoms: C3_3  and  C10_10 
REMARK    3  A    between atoms: C5_5  and  C10_10 
ROOT
HETATM    1  C1  UNL     1     -35.375  16.757  -2.661  1.00 20.00    -0.101 C 
HETATM    2  C2  UNL     1     -35.061  16.911  -1.512  1.00 20.00    -0.111 C 
HETATM    3  C7  UNL     1     -34.680  17.101  -0.113  1.00 20.00     0.112 C 
ENDROOT
BRANCH   1   4
HETATM    4  C4  UNL     1     -35.748  16.573  -4.033  1.00 20.00     0.078 A 
HETATM    5  C5  UNL     1     -34.985  15.615  -4.921  1.00 20.00     0.017 A 
HETATM    6  C6  UNL     1     -34.871  17.112  -5.158  1.00 20.00    -0.028 A 
HETATM    7  C8  UNL     1     -33.580  17.831  -4.847  1.00 20.00     0.016 C 
HETATM    8  C9  UNL     1     -35.576  17.667  -6.374  1.00 20.00     0.016 C 
BRANCH   5   9
HETATM    9  C10 UNL     1     -33.845  14.786  -4.430  1.00 20.00     0.076 C 
BRANCH   9  10
HETATM   10  C3  UNL     1     -34.274  13.463  -3.822  1.00 20.00     0.231 C 
HETATM   11  O11 UNL     1     -35.028  12.669  -4.375  1.00 20.00    -0.307 OA
ENDBRANCH   9  10
ENDBRANCH   5   9
ENDBRANCH   1   4
TORSDOF 3
ENDMDL
