MODEL 1
REMARK VINA RESULT:      -4.9      0.000      0.000
REMARK  2 active torsions:
REMARK  status: ('A' for Active; 'I' for Inactive)
REMARK    1  A    between atoms: C1_1  and  C8_8 
REMARK    2  A    between atoms: C2_2  and  C9_9 
ROOT
HETATM    1  C3  UNL     1     -34.027   6.362   5.599  1.00 20.00     0.082 C 
HETATM    2  C6  UNL     1     -35.436   5.539   3.670  1.00 20.00     0.040 A 
HETATM    3  C7  UNL     1     -34.303   4.571   3.838  1.00 20.00     0.040 A 
HETATM    4  C9  UNL     1     -34.110   6.022   4.208  1.00 20.00     0.112 A 
HETATM    5  N10 UNL     1     -33.959   6.637   6.725  1.00 20.00    -0.195 NA
ENDROOT
BRANCH   4   6
HETATM    6  C2  UNL     1     -33.289   6.836   3.359  1.00 20.00    -0.081 C 
HETATM    7  C1  UNL     1     -32.603   7.519   2.648  1.00 20.00    -0.100 C 
BRANCH   7   8
HETATM    8  C8  UNL     1     -31.767   8.349   1.782  1.00 20.00     0.065 A 
HETATM    9  C4  UNL     1     -32.285   9.694   1.396  1.00 20.00     0.018 A 
HETATM   10  C5  UNL     1     -32.231   8.587   0.385  1.00 20.00     0.018 A 
ENDBRANCH   7   8
ENDBRANCH   4   6
TORSDOF 2
ENDMDL
MODEL 2
REMARK VINA RESULT:      -4.8     10.351     11.245
REMARK  2 active torsions:
REMARK  status: ('A' for Active; 'I' for Inactive)
REMARK    1  A    between atoms: C1_1  and  C8_8 
REMARK    2  A    between atoms: C2_2  and  C9_9 
ROOT
HETATM    1  C3  UNL     1     -36.797  14.488  -3.794  1.00 20.00     0.082 C 
HETATM    2  C6  UNL     1     -34.590  14.622  -5.019  1.00 20.00     0.040 A 
HETATM    3  C7  UNL     1     -34.507  13.458  -4.077  1.00 20.00     0.040 A 
HETATM    4  C9  UNL     1     -35.373  14.644  -3.727  1.00 20.00     0.112 A 
HETATM    5  N10 UNL     1     -37.949  14.362  -3.849  1.00 20.00    -0.195 NA
ENDROOT
BRANCH   4   6
HETATM    6  C2  UNL     1     -34.931  15.521  -2.682  1.00 20.00    -0.081 C 
HETATM    7  C1  UNL     1     -34.561  16.257  -1.808  1.00 20.00    -0.100 C 
BRANCH   7   8
HETATM    8  C8  UNL     1     -34.112  17.153  -0.743  1.00 20.00     0.065 A 
HETATM    9  C4  UNL     1     -35.009  17.343   0.433  1.00 20.00     0.018 A 
HETATM   10  C5  UNL     1     -34.834  18.446  -0.569  1.00 20.00     0.018 A 
ENDBRANCH   7   8
ENDBRANCH   4   6
TORSDOF 2
ENDMDL
MODEL 3
REMARK VINA RESULT:      -4.7     10.578     11.354
REMARK  2 active torsions:
REMARK  status: ('A' for Active; 'I' for Inactive)
REMARK    1  A    between atoms: C1_1  and  C8_8 
REMARK    2  A    between atoms: C2_2  and  C9_9 
ROOT
HETATM    1  C3  UNL     1     -35.353  13.638  -4.287  1.00 20.00     0.082 C 
HETATM    2  C6  UNL     1     -37.570  14.773  -3.861  1.00 20.00     0.040 A 
HETATM    3  C7  UNL     1     -36.846  15.584  -4.894  1.00 20.00     0.040 A 
HETATM    4  C9  UNL     1     -36.061  14.811  -3.863  1.00 20.00     0.112 A 
HETATM    5  N10 UNL     1     -34.781  12.689  -4.630  1.00 20.00    -0.195 NA
ENDROOT
BRANCH   4   6
HETATM    6  C2  UNL     1     -35.400  15.546  -2.823  1.00 20.00    -0.081 C 
HETATM    7  C1  UNL     1     -34.848  16.161  -1.951  1.00 20.00    -0.100 C 
BRANCH   7   8
HETATM    8  C8  UNL     1     -34.176  16.909  -0.890  1.00 20.00     0.065 A 
HETATM    9  C4  UNL     1     -34.982  17.306   0.301  1.00 20.00     0.018 A 
HETATM   10  C5  UNL     1     -34.553  18.339  -0.699  1.00 20.00     0.018 A 
ENDBRANCH   7   8
ENDBRANCH   4   6
TORSDOF 2
ENDMDL
MODEL 4
REMARK VINA RESULT:      -4.6     10.505     11.606
REMARK  2 active torsions:
REMARK  status: ('A' for Active; 'I' for Inactive)
REMARK    1  A    between atoms: C1_1  and  C8_8 
REMARK    2  A    between atoms: C2_2  and  C9_9 
ROOT
HETATM    1  C3  UNL     1     -33.901  15.797  -4.919  1.00 20.00     0.082 C 
HETATM    2  C6  UNL     1     -33.349  13.646  -3.712  1.00 20.00     0.040 A 
HETATM    3  C7  UNL     1     -34.822  13.636  -3.989  1.00 20.00     0.040 A 
HETATM    4  C9  UNL     1     -34.109  14.949  -3.781  1.00 20.00     0.112 A 
HETATM    5  N10 UNL     1     -33.733  16.482  -5.840  1.00 20.00    -0.195 NA
ENDROOT
BRANCH   4   6
HETATM    6  C2  UNL     1     -34.343  15.663  -2.558  1.00 20.00    -0.081 C 
HETATM    7  C1  UNL     1     -34.538  16.261  -1.536  1.00 20.00    -0.100 C 
BRANCH   7   8
HETATM    8  C8  UNL     1     -34.777  16.989  -0.290  1.00 20.00     0.065 A 
HETATM    9  C4  UNL     1     -35.239  18.403  -0.387  1.00 20.00     0.018 A 
HETATM   10  C5  UNL     1     -33.841  18.096   0.060  1.00 20.00     0.018 A 
ENDBRANCH   7   8
ENDBRANCH   4   6
TORSDOF 2
ENDMDL
MODEL 5
REMARK VINA RESULT:      -4.6     10.351     11.499
REMARK  2 active torsions:
REMARK  status: ('A' for Active; 'I' for Inactive)
REMARK    1  A    between atoms: C1_1  and  C8_8 
REMARK    2  A    between atoms: C2_2  and  C9_9 
ROOT
HETATM    1  C3  UNL     1     -32.706  18.555  -0.312  1.00 20.00     0.082 C 
HETATM    2  C6  UNL     1     -35.233  18.520  -0.299  1.00 20.00     0.040 A 
HETATM    3  C7  UNL     1     -34.768  17.430   0.620  1.00 20.00     0.040 A 
HETATM    4  C9  UNL     1     -33.917  17.827  -0.562  1.00 20.00     0.112 A 
HETATM    5  N10 UNL     1     -31.727  19.143  -0.109  1.00 20.00    -0.195 NA
ENDROOT
BRANCH   4   6
HETATM    6  C2  UNL     1     -33.835  16.924  -1.673  1.00 20.00    -0.081 C 
HETATM    7  C1  UNL     1     -33.766  16.170  -2.605  1.00 20.00    -0.100 C 
BRANCH   7   8
HETATM    8  C8  UNL     1     -33.682  15.250  -3.739  1.00 20.00     0.065 A 
HETATM    9  C4  UNL     1     -34.469  13.985  -3.670  1.00 20.00     0.018 A 
HETATM   10  C5  UNL     1     -32.976  13.954  -3.534  1.00 20.00     0.018 A 
ENDBRANCH   7   8
ENDBRANCH   4   6
TORSDOF 2
ENDMDL
MODEL 6
REMARK VINA RESULT:      -4.6     10.652     11.690
REMARK  2 active torsions:
REMARK  status: ('A' for Active; 'I' for Inactive)
REMARK    1  A    between atoms: C1_1  and  C8_8 
REMARK    2  A    between atoms: C2_2  and  C9_9 
ROOT
HETATM    1  C3  UNL     1     -34.750  13.807  -4.475  1.00 20.00     0.082 C 
HETATM    2  C6  UNL     1     -35.326  16.059  -5.468  1.00 20.00     0.040 A 
HETATM    3  C7  UNL     1     -33.831  15.958  -5.432  1.00 20.00     0.040 A 
HETATM    4  C9  UNL     1     -34.655  15.236  -4.394  1.00 20.00     0.112 A 
HETATM    5  N10 UNL     1     -34.826  12.652  -4.541  1.00 20.00    -0.195 NA
ENDROOT
BRANCH   4   6
HETATM    6  C2  UNL     1     -34.654  15.745  -3.052  1.00 20.00    -0.081 C 
HETATM    7  C1  UNL     1     -34.651  16.171  -1.929  1.00 20.00    -0.100 C 
BRANCH   7   8
HETATM    8  C8  UNL     1     -34.648  16.690  -0.562  1.00 20.00     0.065 A 
HETATM    9  C4  UNL     1     -35.283  18.018  -0.320  1.00 20.00     0.018 A 
HETATM   10  C5  UNL     1     -33.791  17.874  -0.268  1.00 20.00     0.018 A 
ENDBRANCH   7   8
ENDBRANCH   4   6
TORSDOF 2
ENDMDL
MODEL 7
REMARK VINA RESULT:      -4.3     10.674     11.630
REMARK  2 active torsions:
REMARK  status: ('A' for Active; 'I' for Inactive)
REMARK    1  A    between atoms: C1_1  and  C8_8 
REMARK    2  A    between atoms: C2_2  and  C9_9 
ROOT
HETATM    1  C3  UNL     1     -35.551  18.282  -2.083  1.00 20.00     0.082 C 
HETATM    2  C6  UNL     1     -34.815  17.099   0.025  1.00 20.00     0.040 A 
HETATM    3  C7  UNL     1     -33.606  17.772  -0.552  1.00 20.00     0.040 A 
HETATM    4  C9  UNL     1     -34.708  17.298  -1.468  1.00 20.00     0.112 A 
HETATM    5  N10 UNL     1     -36.232  19.079  -2.580  1.00 20.00    -0.195 NA
ENDROOT
BRANCH   4   6
HETATM    6  C2  UNL     1     -34.461  16.148  -2.289  1.00 20.00    -0.081 C 
HETATM    7  C1  UNL     1     -34.252  15.186  -2.977  1.00 20.00    -0.100 C 
BRANCH   7   8
HETATM    8  C8  UNL     1     -33.998  14.014  -3.815  1.00 20.00     0.065 A 
HETATM    9  C4  UNL     1     -34.393  14.086  -5.251  1.00 20.00     0.018 A 
HETATM   10  C5  UNL     1     -35.174  13.234  -4.295  1.00 20.00     0.018 A 
ENDBRANCH   7   8
ENDBRANCH   4   6
TORSDOF 2
ENDMDL
MODEL 8
REMARK VINA RESULT:      -4.3     10.496     11.695
REMARK  2 active torsions:
REMARK  status: ('A' for Active; 'I' for Inactive)
REMARK    1  A    between atoms: C1_1  and  C8_8 
REMARK    2  A    between atoms: C2_2  and  C9_9 
ROOT
HETATM    1  C3  UNL     1     -35.361  16.008  -4.324  1.00 20.00     0.082 C 
HETATM    2  C6  UNL     1     -33.099  15.024  -3.775  1.00 20.00     0.040 A 
HETATM    3  C7  UNL     1     -34.132  14.006  -3.393  1.00 20.00     0.040 A 
HETATM    4  C9  UNL     1     -34.471  15.476  -3.333  1.00 20.00     0.112 A 
HETATM    5  N10 UNL     1     -36.081  16.439  -5.125  1.00 20.00    -0.195 NA
ENDROOT
BRANCH   4   6
HETATM    6  C2  UNL     1     -34.600  16.090  -2.043  1.00 20.00    -0.081 C 
HETATM    7  C1  UNL     1     -34.706  16.604  -0.963  1.00 20.00    -0.100 C 
BRANCH   7   8
HETATM    8  C8  UNL     1     -34.836  17.231   0.352  1.00 20.00     0.065 A 
HETATM    9  C4  UNL     1     -35.327  18.638   0.408  1.00 20.00     0.018 A 
HETATM   10  C5  UNL     1     -33.888  18.328   0.698  1.00 20.00     0.018 A 
ENDBRANCH   7   8
ENDBRANCH   4   6
TORSDOF 2
ENDMDL
MODEL 9
REMARK VINA RESULT:      -4.2     10.156     11.349
REMARK  2 active torsions:
REMARK  status: ('A' for Active; 'I' for Inactive)
REMARK    1  A    between atoms: C1_1  and  C8_8 
REMARK    2  A    between atoms: C2_2  and  C9_9 
ROOT
HETATM    1  C3  UNL     1     -34.882  17.580   0.678  1.00 20.00     0.082 C 
HETATM    2  C6  UNL     1     -32.742  18.371  -0.408  1.00 20.00     0.040 A 
HETATM    3  C7  UNL     1     -33.868  19.142  -1.029  1.00 20.00     0.040 A 
HETATM    4  C9  UNL     1     -34.111  17.742  -0.520  1.00 20.00     0.112 A 
HETATM    5  N10 UNL     1     -35.507  17.449   1.647  1.00 20.00    -0.195 NA
ENDROOT
BRANCH   4   6
HETATM    6  C2  UNL     1     -34.298  16.693  -1.480  1.00 20.00    -0.081 C 
HETATM    7  C1  UNL     1     -34.454  15.816  -2.286  1.00 20.00    -0.100 C 
BRANCH   7   8
HETATM    8  C8  UNL     1     -34.644  14.748  -3.266  1.00 20.00     0.065 A 
HETATM    9  C4  UNL     1     -33.443  13.974  -3.694  1.00 20.00     0.018 A 
HETATM   10  C5  UNL     1     -34.086  14.950  -4.634  1.00 20.00     0.018 A 
ENDBRANCH   7   8
ENDBRANCH   4   6
TORSDOF 2
ENDMDL
