MODEL 1
REMARK VINA RESULT:      -4.8      0.000      0.000
REMARK  2 active torsions:
REMARK  status: ('A' for Active; 'I' for Inactive)
REMARK    1  A    between atoms: C1_1  and  C4_4 
REMARK    2  A    between atoms: C3_3  and  C5_5 
ROOT
HETATM    1  C4  UNL     1     -33.397   6.827   3.731  1.00 20.00     0.029 A 
HETATM    2  C5  UNL     1     -33.564   5.624   4.631  1.00 20.00     0.089 A 
HETATM    3  C6  UNL     1     -34.361   5.720   3.343  1.00 20.00    -0.028 A 
HETATM    4  C8  UNL     1     -34.008   4.747   2.243  1.00 20.00     0.016 C 
HETATM    5  C9  UNL     1     -35.834   6.048   3.396  1.00 20.00     0.016 C 
ENDROOT
BRANCH   1   6
HETATM    6  C1  UNL     1     -32.138   7.007   3.022  1.00 20.00    -0.025 C 
HETATM    7  C2  UNL     1     -31.873   8.049   2.222  1.00 20.00    -0.034 C 
HETATM    8  C7  UNL     1     -32.836   9.159   1.958  1.00 20.00     0.036 C 
ENDBRANCH   1   6
BRANCH   2   9
HETATM    9  C3  UNL     1     -34.218   5.790   5.936  1.00 20.00     0.224 C 
HETATM   10  O10 UNL     1     -34.073   6.808   6.605  1.00 20.00    -0.279 OA
HETATM   11 CL11 UNL     1     -35.175   4.406   6.370  1.00 20.00    -0.043 Cl
ENDBRANCH   2   9
TORSDOF 2
ENDMDL
MODEL 2
REMARK VINA RESULT:      -4.6     11.365     12.160
REMARK  2 active torsions:
REMARK  status: ('A' for Active; 'I' for Inactive)
REMARK    1  A    between atoms: C1_1  and  C4_4 
REMARK    2  A    between atoms: C3_3  and  C5_5 
ROOT
HETATM    1  C4  UNL     1     -34.517  15.837  -2.448  1.00 20.00     0.029 A 
HETATM    2  C5  UNL     1     -34.322  15.383  -3.876  1.00 20.00     0.089 A 
HETATM    3  C6  UNL     1     -35.577  16.145  -3.490  1.00 20.00    -0.028 A 
HETATM    4  C8  UNL     1     -35.727  17.544  -4.042  1.00 20.00     0.016 C 
HETATM    5  C9  UNL     1     -36.891  15.411  -3.366  1.00 20.00     0.016 C 
ENDROOT
BRANCH   1   6
HETATM    6  C1  UNL     1     -33.659  16.888  -1.919  1.00 20.00    -0.025 C 
HETATM    7  C2  UNL     1     -33.864  17.501  -0.745  1.00 20.00    -0.034 C 
HETATM    8  C7  UNL     1     -34.999  17.183   0.170  1.00 20.00     0.036 C 
ENDBRANCH   1   6
BRANCH   2   9
HETATM    9  C3  UNL     1     -34.377  13.947  -4.185  1.00 20.00     0.224 C 
HETATM   10  O10 UNL     1     -34.056  13.097  -3.361  1.00 20.00    -0.279 OA
HETATM   11 CL11 UNL     1     -34.934  13.647  -5.804  1.00 20.00    -0.043 Cl
ENDBRANCH   2   9
TORSDOF 2
ENDMDL
MODEL 3
REMARK VINA RESULT:      -4.6     11.342     12.206
REMARK  2 active torsions:
REMARK  status: ('A' for Active; 'I' for Inactive)
REMARK    1  A    between atoms: C1_1  and  C4_4 
REMARK    2  A    between atoms: C3_3  and  C5_5 
ROOT
HETATM    1  C4  UNL     1     -34.682  15.996  -3.420  1.00 20.00     0.029 A 
HETATM    2  C5  UNL     1     -35.699  14.894  -3.230  1.00 20.00     0.089 A 
HETATM    3  C6  UNL     1     -34.561  14.709  -4.217  1.00 20.00    -0.028 A 
HETATM    4  C8  UNL     1     -33.506  13.686  -3.865  1.00 20.00     0.016 C 
HETATM    5  C9  UNL     1     -34.833  14.796  -5.700  1.00 20.00     0.016 C 
ENDROOT
BRANCH   1   6
HETATM    6  C1  UNL     1     -33.758  16.296  -2.336  1.00 20.00    -0.025 C 
HETATM    7  C2  UNL     1     -34.080  17.027  -1.260  1.00 20.00    -0.034 C 
HETATM    8  C7  UNL     1     -35.429  17.626  -1.037  1.00 20.00     0.036 C 
ENDBRANCH   1   6
BRANCH   2   9
HETATM    9  C3  UNL     1     -37.076  15.101  -3.698  1.00 20.00     0.224 C 
HETATM   10  O10 UNL     1     -37.875  14.173  -3.785  1.00 20.00    -0.279 OA
HETATM   11 CL11 UNL     1     -37.391  16.764  -4.091  1.00 20.00    -0.043 Cl
ENDBRANCH   2   9
TORSDOF 2
ENDMDL
MODEL 4
REMARK VINA RESULT:      -4.5     11.919     12.654
REMARK  2 active torsions:
REMARK  status: ('A' for Active; 'I' for Inactive)
REMARK    1  A    between atoms: C1_1  and  C4_4 
REMARK    2  A    between atoms: C3_3  and  C5_5 
ROOT
HETATM    1  C4  UNL     1     -34.671  15.397  -2.969  1.00 20.00     0.029 A 
HETATM    2  C5  UNL     1     -34.863  15.951  -4.362  1.00 20.00     0.089 A 
HETATM    3  C6  UNL     1     -35.451  14.600  -3.999  1.00 20.00    -0.028 A 
HETATM    4  C8  UNL     1     -36.957  14.507  -3.916  1.00 20.00     0.016 C 
HETATM    5  C9  UNL     1     -34.805  13.338  -4.518  1.00 20.00     0.016 C 
ENDROOT
BRANCH   1   6
HETATM    6  C1  UNL     1     -35.346  16.045  -1.854  1.00 20.00    -0.025 C 
HETATM    7  C2  UNL     1     -34.787  16.995  -1.092  1.00 20.00    -0.034 C 
HETATM    8  C7  UNL     1     -33.400  17.510  -1.291  1.00 20.00     0.036 C 
ENDBRANCH   1   6
BRANCH   2   9
HETATM    9  C3  UNL     1     -33.704  16.052  -5.260  1.00 20.00     0.224 C 
HETATM   10  O10 UNL     1     -32.562  16.178  -4.828  1.00 20.00    -0.279 OA
HETATM   11 CL11 UNL     1     -34.163  15.972  -6.934  1.00 20.00    -0.043 Cl
ENDBRANCH   2   9
TORSDOF 2
ENDMDL
MODEL 5
REMARK VINA RESULT:      -4.3     11.689     12.925
REMARK  2 active torsions:
REMARK  status: ('A' for Active; 'I' for Inactive)
REMARK    1  A    between atoms: C1_1  and  C4_4 
REMARK    2  A    between atoms: C3_3  and  C5_5 
ROOT
HETATM    1  C4  UNL     1     -34.804  16.272  -4.502  1.00 20.00     0.029 A 
HETATM    2  C5  UNL     1     -35.343  14.952  -3.999  1.00 20.00     0.089 A 
HETATM    3  C6  UNL     1     -34.147  15.590  -3.315  1.00 20.00    -0.028 A 
HETATM    4  C8  UNL     1     -34.358  16.117  -1.915  1.00 20.00     0.016 C 
HETATM    5  C9  UNL     1     -32.767  15.019  -3.534  1.00 20.00     0.016 C 
ENDROOT
BRANCH   1   6
HETATM    6  C1  UNL     1     -35.607  17.474  -4.326  1.00 20.00    -0.025 C 
HETATM    7  C2  UNL     1     -35.148  18.716  -4.535  1.00 20.00    -0.034 C 
HETATM    8  C7  UNL     1     -33.756  19.024  -4.976  1.00 20.00     0.036 C 
ENDBRANCH   1   6
BRANCH   2   9
HETATM    9  C3  UNL     1     -35.184  13.750  -4.829  1.00 20.00     0.224 C 
HETATM   10  O10 UNL     1     -35.108  12.630  -4.334  1.00 20.00    -0.279 OA
HETATM   11 CL11 UNL     1     -35.124  14.129  -6.524  1.00 20.00    -0.043 Cl
ENDBRANCH   2   9
TORSDOF 2
ENDMDL
MODEL 6
REMARK VINA RESULT:      -4.3     11.675     12.896
REMARK  2 active torsions:
REMARK  status: ('A' for Active; 'I' for Inactive)
REMARK    1  A    between atoms: C1_1  and  C4_4 
REMARK    2  A    between atoms: C3_3  and  C5_5 
ROOT
HETATM    1  C4  UNL     1     -35.350  16.247  -4.302  1.00 20.00     0.029 A 
HETATM    2  C5  UNL     1     -35.555  14.828  -3.822  1.00 20.00     0.089 A 
HETATM    3  C6  UNL     1     -34.464  15.685  -3.205  1.00 20.00    -0.028 A 
HETATM    4  C8  UNL     1     -34.658  16.112  -1.769  1.00 20.00     0.016 C 
HETATM    5  C9  UNL     1     -33.019  15.427  -3.559  1.00 20.00     0.016 C 
ENDROOT
BRANCH   1   6
HETATM    6  C1  UNL     1     -36.368  17.244  -4.006  1.00 20.00    -0.025 C 
HETATM    7  C2  UNL     1     -37.378  17.550  -4.832  1.00 20.00    -0.034 C 
HETATM    8  C7  UNL     1     -37.588  16.904  -6.161  1.00 20.00     0.036 C 
ENDBRANCH   1   6
BRANCH   2   9
HETATM    9  C3  UNL     1     -35.221  13.713  -4.718  1.00 20.00     0.224 C 
HETATM   10  O10 UNL     1     -35.037  12.576  -4.294  1.00 20.00    -0.279 OA
HETATM   11 CL11 UNL     1     -35.131  14.214  -6.380  1.00 20.00    -0.043 Cl
ENDBRANCH   2   9
TORSDOF 2
ENDMDL
MODEL 7
REMARK VINA RESULT:      -4.3     11.986     12.619
REMARK  2 active torsions:
REMARK  status: ('A' for Active; 'I' for Inactive)
REMARK    1  A    between atoms: C1_1  and  C4_4 
REMARK    2  A    between atoms: C3_3  and  C5_5 
ROOT
HETATM    1  C4  UNL     1     -35.338  16.089  -4.152  1.00 20.00     0.029 A 
HETATM    2  C5  UNL     1     -36.228  14.877  -4.000  1.00 20.00     0.089 A 
HETATM    3  C6  UNL     1     -35.680  15.245  -5.367  1.00 20.00    -0.028 A 
HETATM    4  C8  UNL     1     -34.653  14.314  -5.968  1.00 20.00     0.016 C 
HETATM    5  C9  UNL     1     -36.591  15.869  -6.397  1.00 20.00     0.016 C 
ENDROOT
BRANCH   1   6
HETATM    6  C1  UNL     1     -34.003  16.060  -3.572  1.00 20.00    -0.025 C 
HETATM    7  C2  UNL     1     -33.745  16.305  -2.279  1.00 20.00    -0.034 C 
HETATM    8  C7  UNL     1     -34.794  16.637  -1.271  1.00 20.00     0.036 C 
ENDBRANCH   1   6
BRANCH   2   9
HETATM    9  C3  UNL     1     -37.650  15.068  -3.682  1.00 20.00     0.224 C 
HETATM   10  O10 UNL     1     -38.466  14.160  -3.805  1.00 20.00    -0.279 OA
HETATM   11 CL11 UNL     1     -37.987  16.682  -3.134  1.00 20.00    -0.043 Cl
ENDBRANCH   2   9
TORSDOF 2
ENDMDL
MODEL 8
REMARK VINA RESULT:      -4.2     11.331     12.734
REMARK  2 active torsions:
REMARK  status: ('A' for Active; 'I' for Inactive)
REMARK    1  A    between atoms: C1_1  and  C4_4 
REMARK    2  A    between atoms: C3_3  and  C5_5 
ROOT
HETATM    1  C4  UNL     1     -35.049  15.730  -5.157  1.00 20.00     0.029 A 
HETATM    2  C5  UNL     1     -34.485  15.726  -3.754  1.00 20.00     0.089 A 
HETATM    3  C6  UNL     1     -35.521  14.691  -4.155  1.00 20.00    -0.028 A 
HETATM    4  C8  UNL     1     -35.054  13.258  -4.260  1.00 20.00     0.016 C 
HETATM    5  C9  UNL     1     -36.940  14.819  -3.656  1.00 20.00     0.016 C 
ENDROOT
BRANCH   1   6
HETATM    6  C1  UNL     1     -34.181  15.362  -6.266  1.00 20.00    -0.025 C 
HETATM    7  C2  UNL     1     -34.628  14.942  -7.457  1.00 20.00    -0.034 C 
HETATM    8  C7  UNL     1     -36.074  14.800  -7.799  1.00 20.00     0.036 C 
ENDBRANCH   1   6
BRANCH   2   9
HETATM    9  C3  UNL     1     -34.831  16.823  -2.840  1.00 20.00     0.224 C 
HETATM   10  O10 UNL     1     -35.190  17.920  -3.255  1.00 20.00    -0.279 OA
HETATM   11 CL11 UNL     1     -34.664  16.362  -1.172  1.00 20.00    -0.043 Cl
ENDBRANCH   2   9
TORSDOF 2
ENDMDL
MODEL 9
REMARK VINA RESULT:      -4.2     11.623     13.054
REMARK  2 active torsions:
REMARK  status: ('A' for Active; 'I' for Inactive)
REMARK    1  A    between atoms: C1_1  and  C4_4 
REMARK    2  A    between atoms: C3_3  and  C5_5 
ROOT
HETATM    1  C4  UNL     1     -34.668  15.987  -4.771  1.00 20.00     0.029 A 
HETATM    2  C5  UNL     1     -36.123  15.752  -4.432  1.00 20.00     0.089 A 
HETATM    3  C6  UNL     1     -35.258  16.592  -3.510  1.00 20.00    -0.028 A 
HETATM    4  C8  UNL     1     -35.564  18.070  -3.440  1.00 20.00     0.016 C 
HETATM    5  C9  UNL     1     -34.790  16.020  -2.193  1.00 20.00     0.016 C 
ENDROOT
BRANCH   1   6
HETATM    6  C1  UNL     1     -34.338  16.819  -5.918  1.00 20.00    -0.025 C 
HETATM    7  C2  UNL     1     -34.350  16.383  -7.186  1.00 20.00    -0.034 C 
HETATM    8  C7  UNL     1     -34.704  14.988  -7.581  1.00 20.00     0.036 C 
ENDBRANCH   1   6
BRANCH   2   9
HETATM    9  C3  UNL     1     -36.558  14.405  -4.037  1.00 20.00     0.224 C 
HETATM   10  O10 UNL     1     -37.689  14.192  -3.612  1.00 20.00    -0.279 OA
HETATM   11 CL11 UNL     1     -35.303  13.223  -4.250  1.00 20.00    -0.043 Cl
ENDBRANCH   2   9
TORSDOF 2
ENDMDL
