MODEL 1
REMARK VINA RESULT:      -4.9      0.000      0.000
REMARK  2 active torsions:
REMARK  status: ('A' for Active; 'I' for Inactive)
REMARK    1  A    between atoms: C1_1  and  C3_3 
REMARK    2  A    between atoms: C2_2  and  C7_7 
ROOT
HETATM    1  C4  UNL     1     -34.315   3.977   6.308  1.00 20.00     0.002 C 
HETATM    2  C5  UNL     1     -34.504   3.754   4.797  1.00 20.00     0.013 C 
HETATM    3  C6  UNL     1     -35.083   5.302   6.160  1.00 20.00     0.013 C 
HETATM    4  C7  UNL     1     -34.737   5.291   4.637  1.00 20.00    -0.026 C 
HETATM    5  C9  UNL     1     -35.903   5.687   3.689  1.00 20.00     0.019 C 
ENDROOT
BRANCH   4   6
HETATM    6  C2  UNL     1     -33.465   6.068   4.295  1.00 20.00    -0.014 C 
HETATM    7  C1  UNL     1     -33.333   6.819   3.194  1.00 20.00     0.046 C 
BRANCH   7   8
HETATM    8  C3  UNL     1     -32.066   7.552   2.920  1.00 20.00     0.145 C 
HETATM    9  C8  UNL     1     -31.975   8.286   1.608  1.00 20.00     0.096 C 
HETATM   10  O10 UNL     1     -31.127   7.554   3.713  1.00 20.00    -0.294 OA
ENDBRANCH   7   8
ENDBRANCH   4   6
TORSDOF 2
ENDMDL
MODEL 2
REMARK VINA RESULT:      -4.6     11.196     12.368
REMARK  2 active torsions:
REMARK  status: ('A' for Active; 'I' for Inactive)
REMARK    1  A    between atoms: C1_1  and  C3_3 
REMARK    2  A    between atoms: C2_2  and  C7_7 
ROOT
HETATM    1  C4  UNL     1     -33.465  17.839  -0.404  1.00 20.00     0.002 C 
HETATM    2  C5  UNL     1     -34.815  17.120  -0.240  1.00 20.00     0.013 C 
HETATM    3  C6  UNL     1     -33.897  18.222  -1.830  1.00 20.00     0.013 C 
HETATM    4  C7  UNL     1     -34.923  17.045  -1.797  1.00 20.00    -0.026 C 
HETATM    5  C9  UNL     1     -36.326  17.374  -2.379  1.00 20.00     0.019 C 
ENDROOT
BRANCH   4   6
HETATM    6  C2  UNL     1     -34.377  15.743  -2.385  1.00 20.00    -0.014 C 
HETATM    7  C1  UNL     1     -35.074  14.962  -3.220  1.00 20.00     0.046 C 
BRANCH   7   8
HETATM    8  C3  UNL     1     -34.482  13.706  -3.757  1.00 20.00     0.145 C 
HETATM    9  C8  UNL     1     -32.984  13.569  -3.675  1.00 20.00     0.096 C 
HETATM   10  O10 UNL     1     -35.172  12.820  -4.258  1.00 20.00    -0.294 OA
ENDBRANCH   7   8
ENDBRANCH   4   6
TORSDOF 2
ENDMDL
MODEL 3
REMARK VINA RESULT:      -4.5     11.385     12.434
REMARK  2 active torsions:
REMARK  status: ('A' for Active; 'I' for Inactive)
REMARK    1  A    between atoms: C1_1  and  C3_3 
REMARK    2  A    between atoms: C2_2  and  C7_7 
ROOT
HETATM    1  C4  UNL     1     -35.139  13.322  -4.169  1.00 20.00     0.002 C 
HETATM    2  C5  UNL     1     -33.664  13.714  -3.978  1.00 20.00     0.013 C 
HETATM    3  C6  UNL     1     -35.399  14.745  -4.693  1.00 20.00     0.013 C 
HETATM    4  C7  UNL     1     -34.102  15.213  -3.960  1.00 20.00    -0.026 C 
HETATM    5  C9  UNL     1     -33.193  16.177  -4.772  1.00 20.00     0.019 C 
ENDROOT
BRANCH   4   6
HETATM    6  C2  UNL     1     -34.359  15.757  -2.553  1.00 20.00    -0.014 C 
HETATM    7  C1  UNL     1     -33.736  16.831  -2.053  1.00 20.00     0.046 C 
BRANCH   7   8
HETATM    8  C3  UNL     1     -34.034  17.309  -0.674  1.00 20.00     0.145 C 
HETATM    9  C8  UNL     1     -33.145  18.394  -0.124  1.00 20.00     0.096 C 
HETATM   10  O10 UNL     1     -34.949  16.840  -0.002  1.00 20.00    -0.294 OA
ENDBRANCH   7   8
ENDBRANCH   4   6
TORSDOF 2
ENDMDL
MODEL 4
REMARK VINA RESULT:      -4.1     11.494     12.676
REMARK  2 active torsions:
REMARK  status: ('A' for Active; 'I' for Inactive)
REMARK    1  A    between atoms: C1_1  and  C3_3 
REMARK    2  A    between atoms: C2_2  and  C7_7 
ROOT
HETATM    1  C4  UNL     1     -35.902  14.798  -5.662  1.00 20.00     0.002 C 
HETATM    2  C5  UNL     1     -35.728  13.853  -4.461  1.00 20.00     0.013 C 
HETATM    3  C6  UNL     1     -34.398  15.110  -5.574  1.00 20.00     0.013 C 
HETATM    4  C7  UNL     1     -34.422  14.625  -4.089  1.00 20.00    -0.026 C 
HETATM    5  C9  UNL     1     -33.224  13.732  -3.665  1.00 20.00     0.019 C 
ENDROOT
BRANCH   4   6
HETATM    6  C2  UNL     1     -34.647  15.755  -3.083  1.00 20.00    -0.014 C 
HETATM    7  C1  UNL     1     -33.666  16.291  -2.345  1.00 20.00     0.046 C 
BRANCH   7   8
HETATM    8  C3  UNL     1     -33.952  17.390  -1.382  1.00 20.00     0.145 C 
HETATM    9  C8  UNL     1     -34.785  17.038  -0.177  1.00 20.00     0.096 C 
HETATM   10  O10 UNL     1     -33.546  18.536  -1.558  1.00 20.00    -0.294 OA
ENDBRANCH   7   8
ENDBRANCH   4   6
TORSDOF 2
ENDMDL
MODEL 5
REMARK VINA RESULT:      -4.1     11.711     12.540
REMARK  2 active torsions:
REMARK  status: ('A' for Active; 'I' for Inactive)
REMARK    1  A    between atoms: C1_1  and  C3_3 
REMARK    2  A    between atoms: C2_2  and  C7_7 
ROOT
HETATM    1  C4  UNL     1     -36.379  18.239   0.719  1.00 20.00     0.002 C 
HETATM    2  C5  UNL     1     -35.573  18.861  -0.434  1.00 20.00     0.013 C 
HETATM    3  C6  UNL     1     -35.096  17.513   1.159  1.00 20.00     0.013 C 
HETATM    4  C7  UNL     1     -34.535  17.704  -0.286  1.00 20.00    -0.026 C 
HETATM    5  C9  UNL     1     -33.045  18.137  -0.367  1.00 20.00     0.019 C 
ENDROOT
BRANCH   4   6
HETATM    6  C2  UNL     1     -34.811  16.515  -1.209  1.00 20.00    -0.014 C 
HETATM    7  C1  UNL     1     -34.057  16.219  -2.275  1.00 20.00     0.046 C 
BRANCH   7   8
HETATM    8  C3  UNL     1     -34.380  15.046  -3.133  1.00 20.00     0.145 C 
HETATM    9  C8  UNL     1     -33.217  14.297  -3.728  1.00 20.00     0.096 C 
HETATM   10  O10 UNL     1     -35.538  14.703  -3.363  1.00 20.00    -0.294 OA
ENDBRANCH   7   8
ENDBRANCH   4   6
TORSDOF 2
ENDMDL
MODEL 6
REMARK VINA RESULT:      -4.1     11.623     12.615
REMARK  2 active torsions:
REMARK  status: ('A' for Active; 'I' for Inactive)
REMARK    1  A    between atoms: C1_1  and  C3_3 
REMARK    2  A    between atoms: C2_2  and  C7_7 
ROOT
HETATM    1  C4  UNL     1     -32.956  15.121  -3.683  1.00 20.00     0.002 C 
HETATM    2  C5  UNL     1     -33.554  16.525  -3.877  1.00 20.00     0.013 C 
HETATM    3  C6  UNL     1     -34.325  14.664  -3.151  1.00 20.00     0.013 C 
HETATM    4  C7  UNL     1     -34.662  16.157  -2.840  1.00 20.00    -0.026 C 
HETATM    5  C9  UNL     1     -36.100  16.604  -3.221  1.00 20.00     0.019 C 
ENDROOT
BRANCH   4   6
HETATM    6  C2  UNL     1     -34.320  16.573  -1.408  1.00 20.00    -0.014 C 
HETATM    7  C1  UNL     1     -35.136  17.304  -0.638  1.00 20.00     0.046 C 
BRANCH   7   8
HETATM    8  C3  UNL     1     -34.742  17.675   0.749  1.00 20.00     0.145 C 
HETATM    9  C8  UNL     1     -33.498  18.510   0.902  1.00 20.00     0.096 C 
HETATM   10  O10 UNL     1     -35.386  17.314   1.732  1.00 20.00    -0.294 OA
ENDBRANCH   7   8
ENDBRANCH   4   6
TORSDOF 2
ENDMDL
MODEL 7
REMARK VINA RESULT:      -4.0     11.341     12.902
REMARK  2 active torsions:
REMARK  status: ('A' for Active; 'I' for Inactive)
REMARK    1  A    between atoms: C1_1  and  C3_3 
REMARK    2  A    between atoms: C2_2  and  C7_7 
ROOT
HETATM    1  C4  UNL     1     -34.359  19.024  -3.201  1.00 20.00     0.002 C 
HETATM    2  C5  UNL     1     -33.457  18.511  -2.066  1.00 20.00     0.013 C 
HETATM    3  C6  UNL     1     -35.465  18.091  -2.679  1.00 20.00     0.013 C 
HETATM    4  C7  UNL     1     -34.362  17.243  -1.968  1.00 20.00    -0.026 C 
HETATM    5  C9  UNL     1     -34.707  16.786  -0.523  1.00 20.00     0.019 C 
ENDROOT
BRANCH   4   6
HETATM    6  C2  UNL     1     -33.860  16.067  -2.809  1.00 20.00    -0.014 C 
HETATM    7  C1  UNL     1     -34.552  14.934  -2.978  1.00 20.00     0.046 C 
BRANCH   7   8
HETATM    8  C3  UNL     1     -34.005  13.827  -3.810  1.00 20.00     0.145 C 
HETATM    9  C8  UNL     1     -34.864  13.345  -4.950  1.00 20.00     0.096 C 
HETATM   10  O10 UNL     1     -32.913  13.313  -3.581  1.00 20.00    -0.294 OA
ENDBRANCH   7   8
ENDBRANCH   4   6
TORSDOF 2
ENDMDL
MODEL 8
REMARK VINA RESULT:      -4.0      1.793      5.120
REMARK  2 active torsions:
REMARK  status: ('A' for Active; 'I' for Inactive)
REMARK    1  A    between atoms: C1_1  and  C3_3 
REMARK    2  A    between atoms: C2_2  and  C7_7 
ROOT
HETATM    1  C4  UNL     1     -32.581   9.148   0.744  1.00 20.00     0.002 C 
HETATM    2  C5  UNL     1     -31.654   7.966   1.074  1.00 20.00     0.013 C 
HETATM    3  C6  UNL     1     -32.565   9.515   2.238  1.00 20.00     0.013 C 
HETATM    4  C7  UNL     1     -32.137   8.047   2.557  1.00 20.00    -0.026 C 
HETATM    5  C9  UNL     1     -31.019   7.901   3.626  1.00 20.00     0.019 C 
ENDROOT
BRANCH   4   6
HETATM    6  C2  UNL     1     -33.316   7.122   2.866  1.00 20.00    -0.014 C 
HETATM    7  C1  UNL     1     -33.417   6.410   3.995  1.00 20.00     0.046 C 
BRANCH   7   8
HETATM    8  C3  UNL     1     -34.592   5.527   4.234  1.00 20.00     0.145 C 
HETATM    9  C8  UNL     1     -34.597   4.733   5.514  1.00 20.00     0.096 C 
HETATM   10  O10 UNL     1     -35.515   5.433   3.428  1.00 20.00    -0.294 OA
ENDBRANCH   7   8
ENDBRANCH   4   6
TORSDOF 2
ENDMDL
MODEL 9
REMARK VINA RESULT:      -3.9      9.639     11.192
REMARK  2 active torsions:
REMARK  status: ('A' for Active; 'I' for Inactive)
REMARK    1  A    between atoms: C1_1  and  C3_3 
REMARK    2  A    between atoms: C2_2  and  C7_7 
ROOT
HETATM    1  C4  UNL     1     -41.660   7.635  -1.118  1.00 20.00     0.002 C 
HETATM    2  C5  UNL     1     -40.878   6.396  -0.649  1.00 20.00     0.013 C 
HETATM    3  C6  UNL     1     -42.939   6.972  -0.579  1.00 20.00     0.013 C 
HETATM    4  C7  UNL     1     -42.216   5.590  -0.665  1.00 20.00    -0.026 C 
HETATM    5  C9  UNL     1     -42.437   4.650   0.553  1.00 20.00     0.019 C 
ENDROOT
BRANCH   4   6
HETATM    6  C2  UNL     1     -42.468   4.851  -1.980  1.00 20.00    -0.014 C 
HETATM    7  C1  UNL     1     -42.187   3.555  -2.163  1.00 20.00     0.046 C 
BRANCH   7   8
HETATM    8  C3  UNL     1     -42.457   2.895  -3.470  1.00 20.00     0.145 C 
HETATM    9  C8  UNL     1     -41.524   1.785  -3.877  1.00 20.00     0.096 C 
HETATM   10  O10 UNL     1     -43.387   3.238  -4.196  1.00 20.00    -0.294 OA
ENDBRANCH   7   8
ENDBRANCH   4   6
TORSDOF 2
ENDMDL
