MODEL 1
REMARK VINA RESULT:      -5.2      0.000      0.000
REMARK  1 active torsions:
REMARK  status: ('A' for Active; 'I' for Inactive)
REMARK    1  A    between atoms: C8_8  and  C10_10 
ROOT
HETATM    1  C1  UNL     1     -33.877  17.263  -4.903  1.00 20.00     0.028 A 
HETATM    2  C2  UNL     1     -34.032  17.558  -6.250  1.00 20.00     0.120 A 
HETATM    3  C3  UNL     1     -34.301  14.968  -5.522  1.00 20.00     0.029 A 
HETATM    4  C4  UNL     1     -34.022  15.936  -4.554  1.00 20.00    -0.034 A 
HETATM    5  C5  UNL     1     -34.437  15.354  -6.834  1.00 20.00     0.220 A 
HETATM    6  C6  UNL     1     -34.397  13.665  -4.895  1.00 20.00     0.013 A 
HETATM    7  C7  UNL     1     -34.180  13.832  -3.580  1.00 20.00    -0.016 A 
HETATM    8  C8  UNL     1     -33.913  15.278  -3.206  1.00 20.00     0.042 A 
HETATM    9  N11 UNL     1     -34.308  16.645  -7.221  1.00 20.00    -0.232 NA
HETATM   10  F12 UNL     1     -34.706  14.437  -7.776  1.00 20.00    -0.183 F 
ENDROOT
BRANCH   8  11
HETATM   11  C10 UNL     1     -34.924  15.807  -2.199  1.00 20.00     0.009 C 
HETATM   12  C9  UNL     1     -34.288  16.714  -1.195  1.00 20.00     0.006 C 
ENDBRANCH   8  11
TORSDOF 1
ENDMDL
MODEL 2
REMARK VINA RESULT:      -5.0      1.413      2.658
REMARK  1 active torsions:
REMARK  status: ('A' for Active; 'I' for Inactive)
REMARK    1  A    between atoms: C8_8  and  C10_10 
ROOT
HETATM    1  C1  UNL     1     -35.461  14.660  -3.482  1.00 20.00     0.028 A 
HETATM    2  C2  UNL     1     -35.533  13.655  -4.437  1.00 20.00     0.120 A 
HETATM    3  C3  UNL     1     -34.245  15.927  -5.138  1.00 20.00     0.029 A 
HETATM    4  C4  UNL     1     -34.796  15.808  -3.861  1.00 20.00    -0.034 A 
HETATM    5  C5  UNL     1     -34.365  14.879  -6.020  1.00 20.00     0.220 A 
HETATM    6  C6  UNL     1     -33.613  17.224  -5.278  1.00 20.00     0.013 A 
HETATM    7  C7  UNL     1     -33.777  17.881  -4.118  1.00 20.00    -0.016 A 
HETATM    8  C8  UNL     1     -34.545  17.073  -3.088  1.00 20.00     0.042 A 
HETATM    9  N11 UNL     1     -35.004  13.732  -5.690  1.00 20.00    -0.232 NA
HETATM   10  F12 UNL     1     -33.840  14.977  -7.250  1.00 20.00    -0.183 F 
ENDROOT
BRANCH   8  11
HETATM   11  C10 UNL     1     -33.738  16.848  -1.818  1.00 20.00     0.009 C 
HETATM   12  C9  UNL     1     -34.608  16.824  -0.602  1.00 20.00     0.006 C 
ENDBRANCH   8  11
TORSDOF 1
ENDMDL
MODEL 3
REMARK VINA RESULT:      -4.9      5.980      8.042
REMARK  1 active torsions:
REMARK  status: ('A' for Active; 'I' for Inactive)
REMARK    1  A    between atoms: C8_8  and  C10_10 
ROOT
HETATM    1  C1  UNL     1     -31.996  19.095   1.132  1.00 20.00     0.028 A 
HETATM    2  C2  UNL     1     -31.387  19.181   2.377  1.00 20.00     0.120 A 
HETATM    3  C3  UNL     1     -33.909  18.208   2.307  1.00 20.00     0.029 A 
HETATM    4  C4  UNL     1     -33.281  18.593   1.121  1.00 20.00    -0.034 A 
HETATM    5  C5  UNL     1     -33.228  18.328   3.495  1.00 20.00     0.220 A 
HETATM    6  C6  UNL     1     -35.244  17.724   2.017  1.00 20.00     0.013 A 
HETATM    7  C7  UNL     1     -35.428  17.815   0.691  1.00 20.00    -0.016 A 
HETATM    8  C8  UNL     1     -34.219  18.377  -0.034  1.00 20.00     0.042 A 
HETATM    9  N11 UNL     1     -31.965  18.811   3.554  1.00 20.00    -0.232 NA
HETATM   10  F12 UNL     1     -33.816  17.961   4.644  1.00 20.00    -0.183 F 
ENDROOT
BRANCH   8  11
HETATM   11  C10 UNL     1     -33.673  17.409  -1.075  1.00 20.00     0.009 C 
HETATM   12  C9  UNL     1     -34.662  16.340  -1.414  1.00 20.00     0.006 C 
ENDBRANCH   8  11
TORSDOF 1
ENDMDL
MODEL 4
REMARK VINA RESULT:      -4.9      2.841      4.166
REMARK  1 active torsions:
REMARK  status: ('A' for Active; 'I' for Inactive)
REMARK    1  A    between atoms: C8_8  and  C10_10 
ROOT
HETATM    1  C1  UNL     1     -36.499  16.384  -4.726  1.00 20.00     0.028 A 
HETATM    2  C2  UNL     1     -36.636  17.262  -3.659  1.00 20.00     0.120 A 
HETATM    3  C3  UNL     1     -34.965  15.163  -3.318  1.00 20.00     0.029 A 
HETATM    4  C4  UNL     1     -35.639  15.323  -4.530  1.00 20.00    -0.034 A 
HETATM    5  C5  UNL     1     -35.162  16.084  -2.315  1.00 20.00     0.220 A 
HETATM    6  C6  UNL     1     -34.137  13.976  -3.374  1.00 20.00     0.013 A 
HETATM    7  C7  UNL     1     -34.303  13.423  -4.586  1.00 20.00    -0.016 A 
HETATM    8  C8  UNL     1     -35.271  14.200  -5.459  1.00 20.00     0.042 A 
HETATM    9  N11 UNL     1     -35.992  17.142  -2.465  1.00 20.00    -0.232 NA
HETATM   10  F12 UNL     1     -34.521  15.945  -1.145  1.00 20.00    -0.183 F 
ENDROOT
BRANCH   8  11
HETATM   11  C10 UNL     1     -34.623  14.679  -6.750  1.00 20.00     0.009 C 
HETATM   12  C9  UNL     1     -35.550  14.557  -7.917  1.00 20.00     0.006 C 
ENDBRANCH   8  11
TORSDOF 1
ENDMDL
MODEL 5
REMARK VINA RESULT:      -4.6      2.012      2.893
REMARK  1 active torsions:
REMARK  status: ('A' for Active; 'I' for Inactive)
REMARK    1  A    between atoms: C8_8  and  C10_10 
ROOT
HETATM    1  C1  UNL     1     -34.182  14.110  -3.421  1.00 20.00     0.028 A 
HETATM    2  C2  UNL     1     -34.291  13.419  -4.621  1.00 20.00     0.120 A 
HETATM    3  C3  UNL     1     -35.876  15.586  -4.303  1.00 20.00     0.029 A 
HETATM    4  C4  UNL     1     -34.998  15.214  -3.283  1.00 20.00    -0.034 A 
HETATM    5  C5  UNL     1     -35.916  14.841  -5.457  1.00 20.00     0.220 A 
HETATM    6  C6  UNL     1     -36.615  16.767  -3.903  1.00 20.00     0.013 A 
HETATM    7  C7  UNL     1     -36.201  17.105  -2.671  1.00 20.00    -0.016 A 
HETATM    8  C8  UNL     1     -35.139  16.167  -2.129  1.00 20.00     0.042 A 
HETATM    9  N11 UNL     1     -35.131  13.754  -5.639  1.00 20.00    -0.232 NA
HETATM   10  F12 UNL     1     -36.753  15.186  -6.447  1.00 20.00    -0.183 F 
ENDROOT
BRANCH   8  11
HETATM   11  C10 UNL     1     -33.845  16.897  -1.795  1.00 20.00     0.009 C 
HETATM   12  C9  UNL     1     -33.897  17.531  -0.441  1.00 20.00     0.006 C 
ENDBRANCH   8  11
TORSDOF 1
ENDMDL
MODEL 6
REMARK VINA RESULT:      -4.6      2.731      3.341
REMARK  1 active torsions:
REMARK  status: ('A' for Active; 'I' for Inactive)
REMARK    1  A    between atoms: C8_8  and  C10_10 
ROOT
HETATM    1  C1  UNL     1     -37.320  16.390  -3.336  1.00 20.00     0.028 A 
HETATM    2  C2  UNL     1     -37.927  15.233  -3.806  1.00 20.00     0.120 A 
HETATM    3  C3  UNL     1     -35.252  15.147  -3.420  1.00 20.00     0.029 A 
HETATM    4  C4  UNL     1     -35.956  16.321  -3.143  1.00 20.00    -0.034 A 
HETATM    5  C5  UNL     1     -35.938  14.049  -3.883  1.00 20.00     0.220 A 
HETATM    6  C6  UNL     1     -33.844  15.344  -3.139  1.00 20.00     0.013 A 
HETATM    7  C7  UNL     1     -33.691  16.605  -2.705  1.00 20.00    -0.016 A 
HETATM    8  C8  UNL     1     -34.998  17.375  -2.659  1.00 20.00     0.042 A 
HETATM    9  N11 UNL     1     -37.277  14.069  -4.083  1.00 20.00    -0.232 NA
HETATM   10  F12 UNL     1     -35.277  12.913  -4.153  1.00 20.00    -0.183 F 
ENDROOT
BRANCH   8  11
HETATM   11  C10 UNL     1     -35.320  17.878  -1.259  1.00 20.00     0.009 C 
HETATM   12  C9  UNL     1     -34.704  17.017  -0.203  1.00 20.00     0.006 C 
ENDBRANCH   8  11
TORSDOF 1
ENDMDL
MODEL 7
REMARK VINA RESULT:      -4.6     12.296     13.869
REMARK  1 active torsions:
REMARK  status: ('A' for Active; 'I' for Inactive)
REMARK    1  A    between atoms: C8_8  and  C10_10 
ROOT
HETATM    1  C1  UNL     1     -33.649   7.118   5.646  1.00 20.00     0.028 A 
HETATM    2  C2  UNL     1     -34.066   6.410   6.765  1.00 20.00     0.120 A 
HETATM    3  C3  UNL     1     -34.358   5.200   4.364  1.00 20.00     0.029 A 
HETATM    4  C4  UNL     1     -33.805   6.480   4.433  1.00 20.00    -0.034 A 
HETATM    5  C5  UNL     1     -34.744   4.573   5.526  1.00 20.00     0.220 A 
HETATM    6  C6  UNL     1     -34.413   4.766   2.982  1.00 20.00     0.013 A 
HETATM    7  C7  UNL     1     -33.910   5.756   2.227  1.00 20.00    -0.016 A 
HETATM    8  C8  UNL     1     -33.471   6.956   3.046  1.00 20.00     0.042 A 
HETATM    9  N11 UNL     1     -34.605   5.159   6.738  1.00 20.00    -0.232 NA
HETATM   10  F12 UNL     1     -35.275   3.343   5.477  1.00 20.00    -0.183 F 
ENDROOT
BRANCH   8  11
HETATM   11  C10 UNL     1     -31.993   7.268   2.860  1.00 20.00     0.009 C 
HETATM   12  C9  UNL     1     -31.771   8.310   1.811  1.00 20.00     0.006 C 
ENDBRANCH   8  11
TORSDOF 1
ENDMDL
MODEL 8
REMARK VINA RESULT:      -4.5     11.952     13.399
REMARK  1 active torsions:
REMARK  status: ('A' for Active; 'I' for Inactive)
REMARK    1  A    between atoms: C8_8  and  C10_10 
ROOT
HETATM    1  C1  UNL     1     -43.151   5.720  -3.203  1.00 20.00     0.028 A 
HETATM    2  C2  UNL     1     -43.267   7.099  -3.315  1.00 20.00     0.120 A 
HETATM    3  C3  UNL     1     -41.558   6.156  -1.443  1.00 20.00     0.029 A 
HETATM    4  C4  UNL     1     -42.271   5.262  -2.245  1.00 20.00    -0.034 A 
HETATM    5  C5  UNL     1     -41.736   7.507  -1.625  1.00 20.00     0.220 A 
HETATM    6  C6  UNL     1     -40.715   5.420  -0.522  1.00 20.00     0.013 A 
HETATM    7  C7  UNL     1     -40.911   4.112  -0.752  1.00 20.00    -0.016 A 
HETATM    8  C8  UNL     1     -41.917   3.853  -1.859  1.00 20.00     0.042 A 
HETATM    9  N11 UNL     1     -42.585   8.001  -2.556  1.00 20.00    -0.232 NA
HETATM   10  F12 UNL     1     -41.057   8.379  -0.865  1.00 20.00    -0.183 F 
ENDROOT
BRANCH   8  11
HETATM   11  C10 UNL     1     -41.315   3.052  -3.005  1.00 20.00     0.009 C 
HETATM   12  C9  UNL     1     -42.115   1.825  -3.307  1.00 20.00     0.006 C 
ENDBRANCH   8  11
TORSDOF 1
ENDMDL
MODEL 9
REMARK VINA RESULT:      -4.5      2.638      3.631
REMARK  1 active torsions:
REMARK  status: ('A' for Active; 'I' for Inactive)
REMARK    1  A    between atoms: C8_8  and  C10_10 
ROOT
HETATM    1  C1  UNL     1     -35.900  14.254  -4.414  1.00 20.00     0.028 A 
HETATM    2  C2  UNL     1     -35.037  13.167  -4.357  1.00 20.00     0.120 A 
HETATM    3  C3  UNL     1     -33.997  15.594  -3.774  1.00 20.00     0.029 A 
HETATM    4  C4  UNL     1     -35.348  15.481  -4.110  1.00 20.00    -0.034 A 
HETATM    5  C5  UNL     1     -33.217  14.462  -3.744  1.00 20.00     0.220 A 
HETATM    6  C6  UNL     1     -33.675  16.982  -3.508  1.00 20.00     0.013 A 
HETATM    7  C7  UNL     1     -34.799  17.697  -3.679  1.00 20.00    -0.016 A 
HETATM    8  C8  UNL     1     -35.985  16.843  -4.083  1.00 20.00     0.042 A 
HETATM    9  N11 UNL     1     -33.717  13.237  -4.030  1.00 20.00    -0.232 NA
HETATM   10  F12 UNL     1     -31.918  14.554  -3.422  1.00 20.00    -0.183 F 
ENDROOT
BRANCH   8  11
HETATM   11  C10 UNL     1     -37.133  16.946  -3.088  1.00 20.00     0.009 C 
HETATM   12  C9  UNL     1     -37.074  18.216  -2.300  1.00 20.00     0.006 C 
ENDBRANCH   8  11
TORSDOF 1
ENDMDL
