MODEL 1
REMARK VINA RESULT:      -4.3      0.000      0.000
REMARK  0 active torsions:
REMARK  status: ('A' for Active; 'I' for Inactive)
ROOT
HETATM    1  C1  UNL     1     -33.061  15.453  -3.535  1.00 20.00     0.459 C 
HETATM    2  C2  UNL     1     -34.988  14.552  -4.341  1.00 20.00     0.090 C 
HETATM    3  C3  UNL     1     -34.544  15.727  -5.238  1.00 20.00     0.090 C 
HETATM    4  C4  UNL     1     -34.544  13.169  -4.851  1.00 20.00     0.049 C 
HETATM    5  C5  UNL     1     -36.482  14.509  -4.027  1.00 20.00     0.049 C 
HETATM    6  C6  UNL     1     -34.659  15.471  -6.741  1.00 20.00     0.049 C 
HETATM    7  C7  UNL     1     -35.227  17.064  -4.904  1.00 20.00     0.049 C 
HETATM    8  O8  UNL     1     -34.267  14.809  -3.122  1.00 20.00    -0.322 OA
HETATM    9  O9  UNL     1     -33.152  15.870  -4.898  1.00 20.00    -0.322 OA
HETATM   10  F10 UNL     1     -32.051  14.551  -3.443  1.00 20.00    -0.189 F 
ENDROOT
TORSDOF 0
ENDMDL
MODEL 2
REMARK VINA RESULT:      -4.2      2.025      2.788
REMARK  0 active torsions:
REMARK  status: ('A' for Active; 'I' for Inactive)
ROOT
HETATM    1  C1  UNL     1     -33.540  17.375  -4.587  1.00 20.00     0.459 C 
HETATM    2  C2  UNL     1     -33.866  15.135  -4.365  1.00 20.00     0.090 C 
HETATM    3  C3  UNL     1     -34.870  15.900  -3.478  1.00 20.00     0.090 C 
HETATM    4  C4  UNL     1     -34.426  14.722  -5.737  1.00 20.00     0.049 C 
HETATM    5  C5  UNL     1     -33.220  13.917  -3.706  1.00 20.00     0.049 C 
HETATM    6  C6  UNL     1     -36.300  15.362  -3.511  1.00 20.00     0.049 C 
HETATM    7  C7  UNL     1     -34.425  16.051  -2.013  1.00 20.00     0.049 C 
HETATM    8  O8  UNL     1     -32.848  16.125  -4.600  1.00 20.00    -0.322 OA
HETATM    9  O9  UNL     1     -34.858  17.218  -4.059  1.00 20.00    -0.322 OA
HETATM   10  F10 UNL     1     -33.656  17.803  -5.870  1.00 20.00    -0.189 F 
ENDROOT
TORSDOF 0
ENDMDL
MODEL 3
REMARK VINA RESULT:      -4.2      1.899      3.083
REMARK  0 active torsions:
REMARK  status: ('A' for Active; 'I' for Inactive)
ROOT
HETATM    1  C1  UNL     1     -35.676  14.143  -4.405  1.00 20.00     0.459 C 
HETATM    2  C2  UNL     1     -33.923  15.584  -4.259  1.00 20.00     0.090 C 
HETATM    3  C3  UNL     1     -35.021  15.993  -3.255  1.00 20.00     0.090 C 
HETATM    4  C4  UNL     1     -32.805  14.719  -3.651  1.00 20.00     0.049 C 
HETATM    5  C5  UNL     1     -33.290  16.742  -5.030  1.00 20.00     0.049 C 
HETATM    6  C6  UNL     1     -34.513  16.388  -1.869  1.00 20.00     0.049 C 
HETATM    7  C7  UNL     1     -35.968  17.089  -3.774  1.00 20.00     0.049 C 
HETATM    8  O8  UNL     1     -34.647  14.755  -5.186  1.00 20.00    -0.322 OA
HETATM    9  O9  UNL     1     -35.798  14.786  -3.137  1.00 20.00    -0.322 OA
HETATM   10  F10 UNL     1     -35.321  12.852  -4.184  1.00 20.00    -0.189 F 
ENDROOT
TORSDOF 0
ENDMDL
MODEL 4
REMARK VINA RESULT:      -4.2      1.723      2.303
REMARK  0 active torsions:
REMARK  status: ('A' for Active; 'I' for Inactive)
ROOT
HETATM    1  C1  UNL     1     -34.159  13.574  -4.704  1.00 20.00     0.459 C 
HETATM    2  C2  UNL     1     -35.152  15.198  -3.460  1.00 20.00     0.090 C 
HETATM    3  C3  UNL     1     -34.562  15.812  -4.746  1.00 20.00     0.090 C 
HETATM    4  C4  UNL     1     -36.649  14.852  -3.558  1.00 20.00     0.049 C 
HETATM    5  C5  UNL     1     -34.913  16.010  -2.188  1.00 20.00     0.049 C 
HETATM    6  C6  UNL     1     -35.464  16.825  -5.451  1.00 20.00     0.049 C 
HETATM    7  C7  UNL     1     -33.164  16.429  -4.562  1.00 20.00     0.049 C 
HETATM    8  O8  UNL     1     -34.433  13.956  -3.355  1.00 20.00    -0.322 OA
HETATM    9  O9  UNL     1     -34.405  14.661  -5.597  1.00 20.00    -0.322 OA
HETATM   10  F10 UNL     1     -35.007  12.566  -5.035  1.00 20.00    -0.189 F 
ENDROOT
TORSDOF 0
ENDMDL
MODEL 5
REMARK VINA RESULT:      -4.1      1.891      2.595
REMARK  0 active torsions:
REMARK  status: ('A' for Active; 'I' for Inactive)
ROOT
HETATM    1  C1  UNL     1     -33.982  17.217  -4.708  1.00 20.00     0.459 C 
HETATM    2  C2  UNL     1     -35.166  15.656  -3.551  1.00 20.00     0.090 C 
HETATM    3  C3  UNL     1     -34.092  14.964  -4.417  1.00 20.00     0.090 C 
HETATM    4  C4  UNL     1     -34.737  15.898  -2.093  1.00 20.00     0.049 C 
HETATM    5  C5  UNL     1     -36.536  14.981  -3.560  1.00 20.00     0.049 C 
HETATM    6  C6  UNL     1     -33.330  13.836  -3.721  1.00 20.00     0.049 C 
HETATM    7  C7  UNL     1     -34.613  14.455  -5.772  1.00 20.00     0.049 C 
HETATM    8  O8  UNL     1     -35.282  16.945  -4.181  1.00 20.00    -0.322 OA
HETATM    9  O9  UNL     1     -33.175  16.039  -4.695  1.00 20.00    -0.322 OA
HETATM   10  F10 UNL     1     -33.388  18.135  -3.903  1.00 20.00    -0.189 F 
ENDROOT
TORSDOF 0
ENDMDL
MODEL 6
REMARK VINA RESULT:      -4.1      1.286      2.578
REMARK  0 active torsions:
REMARK  status: ('A' for Active; 'I' for Inactive)
ROOT
HETATM    1  C1  UNL     1     -34.001  13.600  -3.897  1.00 20.00     0.459 C 
HETATM    2  C2  UNL     1     -34.641  15.399  -5.133  1.00 20.00     0.090 C 
HETATM    3  C3  UNL     1     -35.398  15.391  -3.789  1.00 20.00     0.090 C 
HETATM    4  C4  UNL     1     -33.384  16.287  -5.141  1.00 20.00     0.049 C 
HETATM    5  C5  UNL     1     -35.495  15.737  -6.354  1.00 20.00     0.049 C 
HETATM    6  C6  UNL     1     -35.504  16.751  -3.100  1.00 20.00     0.049 C 
HETATM    7  C7  UNL     1     -36.797  14.755  -3.862  1.00 20.00     0.049 C 
HETATM    8  O8  UNL     1     -34.200  14.033  -5.244  1.00 20.00    -0.322 OA
HETATM    9  O9  UNL     1     -34.584  14.523  -2.978  1.00 20.00    -0.322 OA
HETATM   10  F10 UNL     1     -32.664  13.568  -3.661  1.00 20.00    -0.189 F 
ENDROOT
TORSDOF 0
ENDMDL
MODEL 7
REMARK VINA RESULT:      -4.1      0.860      2.781
REMARK  0 active torsions:
REMARK  status: ('A' for Active; 'I' for Inactive)
ROOT
HETATM    1  C1  UNL     1     -33.310  15.514  -3.239  1.00 20.00     0.459 C 
HETATM    2  C2  UNL     1     -34.520  15.723  -5.153  1.00 20.00     0.090 C 
HETATM    3  C3  UNL     1     -35.057  14.539  -4.321  1.00 20.00     0.090 C 
HETATM    4  C4  UNL     1     -35.290  17.040  -4.941  1.00 20.00     0.049 C 
HETATM    5  C5  UNL     1     -34.398  15.456  -6.652  1.00 20.00     0.049 C 
HETATM    6  C6  UNL     1     -36.580  14.448  -4.236  1.00 20.00     0.049 C 
HETATM    7  C7  UNL     1     -34.495  13.171  -4.744  1.00 20.00     0.049 C 
HETATM    8  O8  UNL     1     -33.201  15.908  -4.608  1.00 20.00    -0.322 OA
HETATM    9  O9  UNL     1     -34.536  14.820  -3.008  1.00 20.00    -0.322 OA
HETATM   10  F10 UNL     1     -33.320  16.639  -2.479  1.00 20.00    -0.189 F 
ENDROOT
TORSDOF 0
ENDMDL
MODEL 8
REMARK VINA RESULT:      -4.1     11.931     13.028
REMARK  0 active torsions:
REMARK  status: ('A' for Active; 'I' for Inactive)
ROOT
HETATM    1  C1  UNL     1     -40.417   5.739  -0.430  1.00 20.00     0.459 C 
HETATM    2  C2  UNL     1     -42.348   5.977  -1.608  1.00 20.00     0.090 C 
HETATM    3  C3  UNL     1     -42.158   4.499  -1.207  1.00 20.00     0.090 C 
HETATM    4  C4  UNL     1     -43.249   6.777  -0.650  1.00 20.00     0.049 C 
HETATM    5  C5  UNL     1     -42.826   6.201  -3.041  1.00 20.00     0.049 C 
HETATM    6  C6  UNL     1     -43.417   3.802  -0.694  1.00 20.00     0.049 C 
HETATM    7  C7  UNL     1     -41.515   3.631  -2.302  1.00 20.00     0.049 C 
HETATM    8  O8  UNL     1     -41.015   6.503  -1.478  1.00 20.00    -0.322 OA
HETATM    9  O9  UNL     1     -41.207   4.588  -0.129  1.00 20.00    -0.322 OA
HETATM   10  F10 UNL     1     -40.376   6.516   0.683  1.00 20.00    -0.189 F 
ENDROOT
TORSDOF 0
ENDMDL
MODEL 9
REMARK VINA RESULT:      -4.1      1.680      2.217
REMARK  0 active torsions:
REMARK  status: ('A' for Active; 'I' for Inactive)
ROOT
HETATM    1  C1  UNL     1     -34.187  13.653  -3.797  1.00 20.00     0.459 C 
HETATM    2  C2  UNL     1     -35.495  15.459  -4.248  1.00 20.00     0.090 C 
HETATM    3  C3  UNL     1     -34.095  15.926  -3.798  1.00 20.00     0.090 C 
HETATM    4  C4  UNL     1     -35.674  15.392  -5.776  1.00 20.00     0.049 C 
HETATM    5  C5  UNL     1     -36.661  16.240  -3.646  1.00 20.00     0.049 C 
HETATM    6  C6  UNL     1     -33.502  17.072  -4.617  1.00 20.00     0.049 C 
HETATM    7  C7  UNL     1     -34.003  16.279  -2.303  1.00 20.00     0.049 C 
HETATM    8  O8  UNL     1     -35.540  14.108  -3.754  1.00 20.00    -0.322 OA
HETATM    9  O9  UNL     1     -33.292  14.748  -4.002  1.00 20.00    -0.322 OA
HETATM   10  F10 UNL     1     -34.061  12.812  -4.855  1.00 20.00    -0.189 F 
ENDROOT
TORSDOF 0
ENDMDL
