MODEL 1
REMARK VINA RESULT:      -3.9      0.000      0.000
REMARK  1 active torsions:
REMARK  status: ('A' for Active; 'I' for Inactive)
REMARK    1  A    between atoms: C1_1  and  C4_4 
ROOT
HETATM    1  C2  UNL     1     -36.108  16.231  -3.995  1.00 20.00     0.180 C 
HETATM    2  C3  UNL     1     -35.056  17.283  -4.293  1.00 20.00     0.103 C 
HETATM    3  C4  UNL     1     -34.711  14.935  -5.341  1.00 20.00     0.165 C 
HETATM    4  C6  UNL     1     -34.590  14.706  -6.840  1.00 20.00     0.067 C 
HETATM    5  O8  UNL     1     -36.073  15.241  -5.032  1.00 20.00    -0.362 OA
HETATM    6  S9  UNL     1     -33.644  16.290  -4.797  1.00 20.00    -0.122 SA
ENDROOT
BRANCH   3   7
HETATM    7  C1  UNL     1     -34.326  13.697  -4.589  1.00 20.00     0.167 C 
HETATM    8  C5  UNL     1     -33.147  13.810  -3.661  1.00 20.00     0.095 C 
HETATM    9  O7  UNL     1     -34.944  12.642  -4.722  1.00 20.00    -0.294 OA
ENDBRANCH   3   7
TORSDOF 1
ENDMDL
MODEL 2
REMARK VINA RESULT:      -3.8      1.813      2.386
REMARK  1 active torsions:
REMARK  status: ('A' for Active; 'I' for Inactive)
REMARK    1  A    between atoms: C1_1  and  C4_4 
ROOT
HETATM    1  C2  UNL     1     -35.597  15.998  -5.814  1.00 20.00     0.180 C 
HETATM    2  C3  UNL     1     -37.010  16.043  -5.267  1.00 20.00     0.103 C 
HETATM    3  C4  UNL     1     -35.169  15.085  -3.710  1.00 20.00     0.165 C 
HETATM    4  C6  UNL     1     -34.855  15.669  -2.341  1.00 20.00     0.067 C 
HETATM    5  O8  UNL     1     -34.678  15.978  -4.713  1.00 20.00    -0.362 OA
HETATM    6  S9  UNL     1     -36.948  14.845  -3.928  1.00 20.00    -0.122 SA
ENDROOT
BRANCH   3   7
HETATM    7  C1  UNL     1     -34.487  13.762  -3.886  1.00 20.00     0.167 C 
HETATM    8  C5  UNL     1     -33.007  13.724  -3.621  1.00 20.00     0.095 C 
HETATM    9  O7  UNL     1     -35.108  12.757  -4.228  1.00 20.00    -0.294 OA
ENDBRANCH   3   7
TORSDOF 1
ENDMDL
MODEL 3
REMARK VINA RESULT:      -3.8      1.474      2.379
REMARK  1 active torsions:
REMARK  status: ('A' for Active; 'I' for Inactive)
REMARK    1  A    between atoms: C1_1  and  C4_4 
ROOT
HETATM    1  C2  UNL     1     -33.103  15.522  -3.442  1.00 20.00     0.180 C 
HETATM    2  C3  UNL     1     -33.591  16.881  -3.905  1.00 20.00     0.103 C 
HETATM    3  C4  UNL     1     -35.200  14.871  -4.229  1.00 20.00     0.165 C 
HETATM    4  C6  UNL     1     -36.595  14.821  -3.624  1.00 20.00     0.067 C 
HETATM    5  O8  UNL     1     -34.241  14.688  -3.185  1.00 20.00    -0.362 OA
HETATM    6  S9  UNL     1     -34.902  16.451  -5.058  1.00 20.00    -0.122 SA
ENDROOT
BRANCH   3   7
HETATM    7  C1  UNL     1     -35.022  13.770  -5.229  1.00 20.00     0.167 C 
HETATM    8  C5  UNL     1     -35.112  14.155  -6.681  1.00 20.00     0.095 C 
HETATM    9  O7  UNL     1     -34.810  12.610  -4.881  1.00 20.00    -0.294 OA
ENDBRANCH   3   7
TORSDOF 1
ENDMDL
MODEL 4
REMARK VINA RESULT:      -3.7      2.060      2.667
REMARK  1 active torsions:
REMARK  status: ('A' for Active; 'I' for Inactive)
REMARK    1  A    between atoms: C1_1  and  C4_4 
ROOT
HETATM    1  C2  UNL     1     -33.471  16.584  -5.592  1.00 20.00     0.180 C 
HETATM    2  C3  UNL     1     -34.862  17.187  -5.552  1.00 20.00     0.103 C 
HETATM    3  C4  UNL     1     -34.247  15.506  -3.674  1.00 20.00     0.165 C 
HETATM    4  C6  UNL     1     -34.289  15.862  -2.196  1.00 20.00     0.067 C 
HETATM    5  O8  UNL     1     -33.120  16.152  -4.270  1.00 20.00    -0.362 OA
HETATM    6  S9  UNL     1     -35.761  16.024  -4.517  1.00 20.00    -0.122 SA
ENDROOT
BRANCH   3   7
HETATM    7  C1  UNL     1     -34.088  14.026  -3.852  1.00 20.00     0.167 C 
HETATM    8  C5  UNL     1     -35.288  13.275  -4.362  1.00 20.00     0.095 C 
HETATM    9  O7  UNL     1     -33.029  13.456  -3.597  1.00 20.00    -0.294 OA
ENDBRANCH   3   7
TORSDOF 1
ENDMDL
MODEL 5
REMARK VINA RESULT:      -3.6      2.050      3.407
REMARK  1 active torsions:
REMARK  status: ('A' for Active; 'I' for Inactive)
REMARK    1  A    between atoms: C1_1  and  C4_4 
ROOT
HETATM    1  C2  UNL     1     -35.926  14.650  -4.832  1.00 20.00     0.180 C 
HETATM    2  C3  UNL     1     -35.237  13.414  -4.287  1.00 20.00     0.103 C 
HETATM    3  C4  UNL     1     -34.421  15.712  -3.400  1.00 20.00     0.165 C 
HETATM    4  C6  UNL     1     -34.438  16.084  -1.925  1.00 20.00     0.067 C 
HETATM    5  O8  UNL     1     -35.764  15.719  -3.890  1.00 20.00    -0.362 OA
HETATM    6  S9  UNL     1     -33.690  14.077  -3.655  1.00 20.00    -0.122 SA
ENDROOT
BRANCH   3   7
HETATM    7  C1  UNL     1     -33.629  16.713  -4.186  1.00 20.00     0.167 C 
HETATM    8  C5  UNL     1     -33.896  18.164  -3.894  1.00 20.00     0.095 C 
HETATM    9  O7  UNL     1     -32.801  16.364  -5.025  1.00 20.00    -0.294 OA
ENDBRANCH   3   7
TORSDOF 1
ENDMDL
MODEL 6
REMARK VINA RESULT:      -3.6      1.455      2.321
REMARK  1 active torsions:
REMARK  status: ('A' for Active; 'I' for Inactive)
REMARK    1  A    between atoms: C1_1  and  C4_4 
ROOT
HETATM    1  C2  UNL     1     -34.739  15.781  -6.775  1.00 20.00     0.180 C 
HETATM    2  C3  UNL     1     -34.779  17.111  -6.046  1.00 20.00     0.103 C 
HETATM    3  C4  UNL     1     -34.375  14.986  -4.613  1.00 20.00     0.165 C 
HETATM    4  C6  UNL     1     -33.143  14.796  -3.741  1.00 20.00     0.067 C 
HETATM    5  O8  UNL     1     -33.995  14.845  -5.983  1.00 20.00    -0.362 OA
HETATM    6  S9  UNL     1     -35.117  16.615  -4.351  1.00 20.00    -0.122 SA
ENDROOT
BRANCH   3   7
HETATM    7  C1  UNL     1     -35.404  13.942  -4.301  1.00 20.00     0.167 C 
HETATM    8  C5  UNL     1     -36.790  14.432  -3.983  1.00 20.00     0.095 C 
HETATM    9  O7  UNL     1     -35.128  12.743  -4.308  1.00 20.00    -0.294 OA
ENDBRANCH   3   7
TORSDOF 1
ENDMDL
MODEL 7
REMARK VINA RESULT:      -3.5      1.921      2.547
REMARK  1 active torsions:
REMARK  status: ('A' for Active; 'I' for Inactive)
REMARK    1  A    between atoms: C1_1  and  C4_4 
ROOT
HETATM    1  C2  UNL     1     -36.623  15.785  -5.249  1.00 20.00     0.180 C 
HETATM    2  C3  UNL     1     -36.367  15.224  -6.635  1.00 20.00     0.103 C 
HETATM    3  C4  UNL     1     -34.556  14.788  -4.829  1.00 20.00     0.165 C 
HETATM    4  C6  UNL     1     -34.111  13.391  -4.422  1.00 20.00     0.067 C 
HETATM    5  O8  UNL     1     -35.863  15.026  -4.299  1.00 20.00    -0.362 OA
HETATM    6  S9  UNL     1     -34.588  14.967  -6.629  1.00 20.00    -0.122 SA
ENDROOT
BRANCH   3   7
HETATM    7  C1  UNL     1     -33.627  15.820  -4.266  1.00 20.00     0.167 C 
HETATM    8  C5  UNL     1     -33.707  16.066  -2.784  1.00 20.00     0.095 C 
HETATM    9  O7  UNL     1     -32.836  16.433  -4.981  1.00 20.00    -0.294 OA
ENDBRANCH   3   7
TORSDOF 1
ENDMDL
MODEL 8
REMARK VINA RESULT:      -3.5      1.464      1.989
REMARK  1 active torsions:
REMARK  status: ('A' for Active; 'I' for Inactive)
REMARK    1  A    between atoms: C1_1  and  C4_4 
ROOT
HETATM    1  C2  UNL     1     -35.819  15.618  -3.041  1.00 20.00     0.180 C 
HETATM    2  C3  UNL     1     -34.462  15.713  -2.370  1.00 20.00     0.103 C 
HETATM    3  C4  UNL     1     -34.491  15.383  -4.944  1.00 20.00     0.165 C 
HETATM    4  C6  UNL     1     -33.835  16.357  -5.911  1.00 20.00     0.067 C 
HETATM    5  O8  UNL     1     -35.677  15.985  -4.420  1.00 20.00    -0.362 OA
HETATM    6  S9  UNL     1     -33.374  14.957  -3.586  1.00 20.00    -0.122 SA
ENDROOT
BRANCH   3   7
HETATM    7  C1  UNL     1     -34.878  14.121  -5.652  1.00 20.00     0.167 C 
HETATM    8  C5  UNL     1     -35.398  14.266  -7.056  1.00 20.00     0.095 C 
HETATM    9  O7  UNL     1     -34.775  13.021  -5.112  1.00 20.00    -0.294 OA
ENDBRANCH   3   7
TORSDOF 1
ENDMDL
MODEL 9
REMARK VINA RESULT:      -3.4      2.062      2.898
REMARK  1 active torsions:
REMARK  status: ('A' for Active; 'I' for Inactive)
REMARK    1  A    between atoms: C1_1  and  C4_4 
ROOT
HETATM    1  C2  UNL     1     -34.502  15.914  -6.278  1.00 20.00     0.180 C 
HETATM    2  C3  UNL     1     -34.822  14.478  -6.650  1.00 20.00     0.103 C 
HETATM    3  C4  UNL     1     -35.161  15.162  -4.171  1.00 20.00     0.165 C 
HETATM    4  C6  UNL     1     -36.498  15.043  -3.454  1.00 20.00     0.067 C 
HETATM    5  O8  UNL     1     -35.231  16.254  -5.091  1.00 20.00    -0.362 OA
HETATM    6  S9  UNL     1     -34.757  13.640  -5.061  1.00 20.00    -0.122 SA
ENDROOT
BRANCH   3   7
HETATM    7  C1  UNL     1     -34.063  15.443  -3.191  1.00 20.00     0.167 C 
HETATM    8  C5  UNL     1     -34.456  16.143  -1.918  1.00 20.00     0.095 C 
HETATM    9  O7  UNL     1     -32.899  15.117  -3.415  1.00 20.00    -0.294 OA
ENDBRANCH   3   7
TORSDOF 1
ENDMDL
