MODEL 1
REMARK VINA RESULT:      -5.0      0.000      0.000
REMARK  1 active torsions:
REMARK  status: ('A' for Active; 'I' for Inactive)
REMARK    1  A    between atoms: C1_1  and  C5_5 
ROOT
HETATM    1  C2  UNL     1     -32.081   6.119   3.586  1.00 20.00     0.011 A 
HETATM    2  C3  UNL     1     -32.752   7.279   2.843  1.00 20.00     0.011 A 
HETATM    3  C4  UNL     1     -34.362   5.131   2.508  1.00 20.00     0.023 A 
HETATM    4  C5  UNL     1     -34.764   5.769   3.850  1.00 20.00     0.064 A 
HETATM    5  C6  UNL     1     -33.488   6.071   3.203  1.00 20.00    -0.029 A 
ENDROOT
BRANCH   4   6
HETATM    6  C1  UNL     1     -34.804   4.923   5.045  1.00 20.00     0.128 C 
HETATM    7  C7  UNL     1     -34.453   5.581   6.353  1.00 20.00     0.091 C 
HETATM    8  O8  UNL     1     -35.112   3.733   4.984  1.00 20.00    -0.298 OA
ENDBRANCH   4   6
TORSDOF 1
ENDMDL
MODEL 2
REMARK VINA RESULT:      -5.0      1.650      3.427
REMARK  1 active torsions:
REMARK  status: ('A' for Active; 'I' for Inactive)
REMARK    1  A    between atoms: C1_1  and  C5_5 
ROOT
HETATM    1  C2  UNL     1     -34.757   5.252   6.252  1.00 20.00     0.011 A 
HETATM    2  C3  UNL     1     -34.956   3.880   5.600  1.00 20.00     0.011 A 
HETATM    3  C4  UNL     1     -35.371   5.711   3.654  1.00 20.00     0.023 A 
HETATM    4  C5  UNL     1     -33.853   5.460   3.697  1.00 20.00     0.064 A 
HETATM    5  C6  UNL     1     -34.730   5.081   4.803  1.00 20.00    -0.029 A 
ENDROOT
BRANCH   4   6
HETATM    6  C1  UNL     1     -32.955   6.611   3.827  1.00 20.00     0.128 C 
HETATM    7  C7  UNL     1     -32.361   7.153   2.555  1.00 20.00     0.091 C 
HETATM    8  O8  UNL     1     -32.701   7.110   4.922  1.00 20.00    -0.298 OA
ENDBRANCH   4   6
TORSDOF 1
ENDMDL
MODEL 3
REMARK VINA RESULT:      -4.9      1.394      1.452
REMARK  1 active torsions:
REMARK  status: ('A' for Active; 'I' for Inactive)
REMARK    1  A    between atoms: C1_1  and  C5_5 
ROOT
HETATM    1  C2  UNL     1     -31.743   6.862   3.593  1.00 20.00     0.011 A 
HETATM    2  C3  UNL     1     -32.552   7.640   2.550  1.00 20.00     0.011 A 
HETATM    3  C4  UNL     1     -33.884   5.324   2.969  1.00 20.00     0.023 A 
HETATM    4  C5  UNL     1     -34.363   6.301   4.057  1.00 20.00     0.064 A 
HETATM    5  C6  UNL     1     -33.134   6.530   3.300  1.00 20.00    -0.029 A 
ENDROOT
BRANCH   4   6
HETATM    6  C1  UNL     1     -34.299   5.878   5.458  1.00 20.00     0.128 C 
HETATM    7  C7  UNL     1     -34.901   4.539   5.789  1.00 20.00     0.091 C 
HETATM    8  O8  UNL     1     -33.777   6.582   6.321  1.00 20.00    -0.298 OA
ENDBRANCH   4   6
TORSDOF 1
ENDMDL
MODEL 4
REMARK VINA RESULT:      -4.1     11.761     12.254
REMARK  1 active torsions:
REMARK  status: ('A' for Active; 'I' for Inactive)
REMARK    1  A    between atoms: C1_1  and  C5_5 
ROOT
HETATM    1  C2  UNL     1     -34.527  16.079  -1.840  1.00 20.00     0.011 A 
HETATM    2  C3  UNL     1     -33.835  17.110  -2.738  1.00 20.00     0.011 A 
HETATM    3  C4  UNL     1     -32.945  14.685  -3.541  1.00 20.00     0.023 A 
HETATM    4  C5  UNL     1     -34.266  14.932  -4.291  1.00 20.00     0.064 A 
HETATM    5  C6  UNL     1     -33.899  15.697  -3.101  1.00 20.00    -0.029 A 
ENDROOT
BRANCH   4   6
HETATM    6  C1  UNL     1     -35.315  13.912  -4.219  1.00 20.00     0.128 C 
HETATM    7  C7  UNL     1     -36.727  14.404  -4.046  1.00 20.00     0.091 C 
HETATM    8  O8  UNL     1     -35.055  12.712  -4.297  1.00 20.00    -0.298 OA
ENDBRANCH   4   6
TORSDOF 1
ENDMDL
MODEL 5
REMARK VINA RESULT:      -4.0      1.793      3.031
REMARK  1 active torsions:
REMARK  status: ('A' for Active; 'I' for Inactive)
REMARK    1  A    between atoms: C1_1  and  C5_5 
ROOT
HETATM    1  C2  UNL     1     -32.904   8.987   2.009  1.00 20.00     0.011 A 
HETATM    2  C3  UNL     1     -31.760   8.434   1.154  1.00 20.00     0.011 A 
HETATM    3  C4  UNL     1     -31.292   7.598   3.683  1.00 20.00     0.023 A 
HETATM    4  C5  UNL     1     -32.246   6.567   3.056  1.00 20.00     0.064 A 
HETATM    5  C6  UNL     1     -32.058   7.896   2.478  1.00 20.00    -0.029 A 
ENDROOT
BRANCH   4   6
HETATM    6  C1  UNL     1     -33.487   6.238   3.762  1.00 20.00     0.128 C 
HETATM    7  C7  UNL     1     -34.538   5.498   2.978  1.00 20.00     0.091 C 
HETATM    8  O8  UNL     1     -33.661   6.550   4.940  1.00 20.00    -0.298 OA
ENDBRANCH   4   6
TORSDOF 1
ENDMDL
MODEL 6
REMARK VINA RESULT:      -3.9     11.826     12.380
REMARK  1 active torsions:
REMARK  status: ('A' for Active; 'I' for Inactive)
REMARK    1  A    between atoms: C1_1  and  C5_5 
ROOT
HETATM    1  C2  UNL     1     -33.602  17.097  -1.705  1.00 20.00     0.011 A 
HETATM    2  C3  UNL     1     -34.667  16.674  -0.688  1.00 20.00     0.011 A 
HETATM    3  C4  UNL     1     -35.703  16.153  -3.132  1.00 20.00     0.023 A 
HETATM    4  C5  UNL     1     -34.861  14.924  -2.747  1.00 20.00     0.064 A 
HETATM    5  C6  UNL     1     -34.702  16.210  -2.072  1.00 20.00    -0.029 A 
ENDROOT
BRANCH   4   6
HETATM    6  C1  UNL     1     -33.839  14.452  -3.686  1.00 20.00     0.128 C 
HETATM    7  C7  UNL     1     -34.275  13.432  -4.704  1.00 20.00     0.091 C 
HETATM    8  O8  UNL     1     -32.683  14.869  -3.645  1.00 20.00    -0.298 OA
ENDBRANCH   4   6
TORSDOF 1
ENDMDL
MODEL 7
REMARK VINA RESULT:      -3.8     12.004     13.373
REMARK  1 active torsions:
REMARK  status: ('A' for Active; 'I' for Inactive)
REMARK    1  A    between atoms: C1_1  and  C5_5 
ROOT
HETATM    1  C2  UNL     1     -33.306  16.624  -5.369  1.00 20.00     0.011 A 
HETATM    2  C3  UNL     1     -34.513  17.324  -6.000  1.00 20.00     0.011 A 
HETATM    3  C4  UNL     1     -34.472  14.819  -7.019  1.00 20.00     0.023 A 
HETATM    4  C5  UNL     1     -35.232  14.731  -5.684  1.00 20.00     0.064 A 
HETATM    5  C6  UNL     1     -34.378  15.871  -6.012  1.00 20.00    -0.029 A 
ENDROOT
BRANCH   4   6
HETATM    6  C1  UNL     1     -34.797  13.744  -4.692  1.00 20.00     0.128 C 
HETATM    7  C7  UNL     1     -34.409  14.271  -3.337  1.00 20.00     0.091 C 
HETATM    8  O8  UNL     1     -34.752  12.543  -4.954  1.00 20.00    -0.298 OA
ENDBRANCH   4   6
TORSDOF 1
ENDMDL
MODEL 8
REMARK VINA RESULT:      -3.7     11.904     12.784
REMARK  1 active torsions:
REMARK  status: ('A' for Active; 'I' for Inactive)
REMARK    1  A    between atoms: C1_1  and  C5_5 
ROOT
HETATM    1  C2  UNL     1     -35.773  14.680  -3.762  1.00 20.00     0.011 A 
HETATM    2  C3  UNL     1     -34.719  13.574  -3.868  1.00 20.00     0.011 A 
HETATM    3  C4  UNL     1     -33.466  15.880  -4.522  1.00 20.00     0.023 A 
HETATM    4  C5  UNL     1     -33.409  15.776  -2.987  1.00 20.00     0.064 A 
HETATM    5  C6  UNL     1     -34.346  14.982  -3.780  1.00 20.00    -0.029 A 
ENDROOT
BRANCH   4   6
HETATM    6  C1  UNL     1     -33.891  16.906  -2.189  1.00 20.00     0.128 C 
HETATM    7  C7  UNL     1     -34.636  16.573  -0.924  1.00 20.00     0.091 C 
HETATM    8  O8  UNL     1     -33.694  18.070  -2.534  1.00 20.00    -0.298 OA
ENDBRANCH   4   6
TORSDOF 1
ENDMDL
MODEL 9
REMARK VINA RESULT:      -3.7      9.239     10.443
REMARK  1 active torsions:
REMARK  status: ('A' for Active; 'I' for Inactive)
REMARK    1  A    between atoms: C1_1  and  C5_5 
ROOT
HETATM    1  C2  UNL     1     -40.917   4.559  -1.234  1.00 20.00     0.011 A 
HETATM    2  C3  UNL     1     -41.552   4.846   0.130  1.00 20.00     0.011 A 
HETATM    3  C4  UNL     1     -41.134   7.251  -1.033  1.00 20.00     0.023 A 
HETATM    4  C5  UNL     1     -42.494   6.750  -1.551  1.00 20.00     0.064 A 
HETATM    5  C6  UNL     1     -41.525   5.850  -0.929  1.00 20.00    -0.029 A 
ENDROOT
BRANCH   4   6
HETATM    6  C1  UNL     1     -42.722   6.705  -2.998  1.00 20.00     0.128 C 
HETATM    7  C7  UNL     1     -42.462   7.975  -3.764  1.00 20.00     0.091 C 
HETATM    8  O8  UNL     1     -43.105   5.680  -3.559  1.00 20.00    -0.298 OA
ENDBRANCH   4   6
TORSDOF 1
ENDMDL
