MODEL 1
REMARK VINA RESULT:      -4.9      0.000      0.000
REMARK  3 active torsions:
REMARK  status: ('A' for Active; 'I' for Inactive)
REMARK    1  A    between atoms: C7_7  and  C8_8 
REMARK    2  A    between atoms: C8_8  and  C9_9 
REMARK    3  A    between atoms: C9_9  and  N10_10 
ROOT
HETATM    1  C1  UNL     1     -32.065   9.020   1.287  1.00 20.00     0.012 C 
HETATM    2  C3  UNL     1     -32.046   8.173   2.139  1.00 20.00    -0.117 C 
HETATM    3  C7  UNL     1     -32.015   7.138   3.181  1.00 20.00     0.096 C 
ENDROOT
BRANCH   3   4
HETATM    4  C8  UNL     1     -33.308   6.311   3.220  1.00 20.00     0.061 C 
BRANCH   4   5
HETATM    5  C9  UNL     1     -33.524   5.521   4.525  1.00 20.00     0.300 C 
HETATM    6  C4  UNL     1     -33.669   6.419   5.684  1.00 20.00    -0.081 C 
HETATM    7  C2  UNL     1     -33.783   7.147   6.632  1.00 20.00     0.014 C 
BRANCH   5   8
HETATM    8  N10 UNL     1     -34.732   4.703   4.391  1.00 20.00     0.095 N 
HETATM    9  C5  UNL     1     -35.831   5.504   3.856  1.00 20.00     0.310 C 
HETATM   10  C6  UNL     1     -35.100   4.123   5.681  1.00 20.00     0.310 C 
ENDBRANCH   5   8
ENDBRANCH   4   5
ENDBRANCH   3   4
TORSDOF 3
ENDMDL
MODEL 2
REMARK VINA RESULT:      -4.3     11.440     12.893
REMARK  3 active torsions:
REMARK  status: ('A' for Active; 'I' for Inactive)
REMARK    1  A    between atoms: C7_7  and  C8_8 
REMARK    2  A    between atoms: C8_8  and  C9_9 
REMARK    3  A    between atoms: C9_9  and  N10_10 
ROOT
HETATM    1  C1  UNL     1     -34.723  17.364   0.237  1.00 20.00     0.012 C 
HETATM    2  C3  UNL     1     -34.732  16.720  -0.776  1.00 20.00    -0.117 C 
HETATM    3  C7  UNL     1     -34.748  15.928  -2.013  1.00 20.00     0.096 C 
ENDROOT
BRANCH   3   4
HETATM    4  C8  UNL     1     -33.487  16.145  -2.862  1.00 20.00     0.061 C 
BRANCH   4   5
HETATM    5  C9  UNL     1     -33.544  15.512  -4.265  1.00 20.00     0.300 C 
HETATM    6  C4  UNL     1     -34.309  14.254  -4.262  1.00 20.00    -0.081 C 
HETATM    7  C2  UNL     1     -34.928  13.225  -4.263  1.00 20.00     0.014 C 
BRANCH   5   8
HETATM    8  N10 UNL     1     -34.174  16.461  -5.187  1.00 20.00     0.095 N 
HETATM    9  C5  UNL     1     -34.150  15.937  -6.551  1.00 20.00     0.310 C 
HETATM   10  C6  UNL     1     -33.499  17.756  -5.124  1.00 20.00     0.310 C 
ENDBRANCH   5   8
ENDBRANCH   4   5
ENDBRANCH   3   4
TORSDOF 3
ENDMDL
MODEL 3
REMARK VINA RESULT:      -4.3     11.465     12.135
REMARK  3 active torsions:
REMARK  status: ('A' for Active; 'I' for Inactive)
REMARK    1  A    between atoms: C7_7  and  C8_8 
REMARK    2  A    between atoms: C8_8  and  C9_9 
REMARK    3  A    between atoms: C9_9  and  N10_10 
ROOT
HETATM    1  C1  UNL     1     -34.726  13.079  -4.796  1.00 20.00     0.012 C 
HETATM    2  C3  UNL     1     -33.952  13.828  -4.266  1.00 20.00    -0.117 C 
HETATM    3  C7  UNL     1     -32.999  14.740  -3.618  1.00 20.00     0.096 C 
ENDROOT
BRANCH   3   4
HETATM    4  C8  UNL     1     -33.636  16.091  -3.259  1.00 20.00     0.061 C 
BRANCH   4   5
HETATM    5  C9  UNL     1     -34.937  15.988  -2.441  1.00 20.00     0.300 C 
HETATM    6  C4  UNL     1     -34.797  16.621  -1.119  1.00 20.00    -0.081 C 
HETATM    7  C2  UNL     1     -34.686  17.132  -0.037  1.00 20.00     0.014 C 
BRANCH   5   8
HETATM    8  N10 UNL     1     -36.016  16.646  -3.182  1.00 20.00     0.095 N 
HETATM    9  C5  UNL     1     -37.062  15.683  -3.521  1.00 20.00     0.310 C 
HETATM   10  C6  UNL     1     -35.491  17.279  -4.391  1.00 20.00     0.310 C 
ENDBRANCH   5   8
ENDBRANCH   4   5
ENDBRANCH   3   4
TORSDOF 3
ENDMDL
MODEL 4
REMARK VINA RESULT:      -4.2     11.543     12.894
REMARK  3 active torsions:
REMARK  status: ('A' for Active; 'I' for Inactive)
REMARK    1  A    between atoms: C7_7  and  C8_8 
REMARK    2  A    between atoms: C8_8  and  C9_9 
REMARK    3  A    between atoms: C9_9  and  N10_10 
ROOT
HETATM    1  C1  UNL     1     -33.414  17.849  -0.781  1.00 20.00     0.012 C 
HETATM    2  C3  UNL     1     -34.055  16.992  -1.326  1.00 20.00    -0.117 C 
HETATM    3  C7  UNL     1     -34.844  15.944  -1.988  1.00 20.00     0.096 C 
ENDROOT
BRANCH   3   4
HETATM    4  C8  UNL     1     -34.076  15.272  -3.135  1.00 20.00     0.061 C 
BRANCH   4   5
HETATM    5  C9  UNL     1     -34.608  15.602  -4.542  1.00 20.00     0.300 C 
HETATM    6  C4  UNL     1     -34.016  16.844  -5.068  1.00 20.00    -0.081 C 
HETATM    7  C2  UNL     1     -33.540  17.859  -5.498  1.00 20.00     0.014 C 
BRANCH   5   8
HETATM    8  N10 UNL     1     -34.286  14.492  -5.443  1.00 20.00     0.095 N 
HETATM    9  C5  UNL     1     -35.052  14.604  -6.682  1.00 20.00     0.310 C 
HETATM   10  C6  UNL     1     -34.552  13.212  -4.789  1.00 20.00     0.310 C 
ENDBRANCH   5   8
ENDBRANCH   4   5
ENDBRANCH   3   4
TORSDOF 3
ENDMDL
MODEL 5
REMARK VINA RESULT:      -4.1     11.066     12.428
REMARK  3 active torsions:
REMARK  status: ('A' for Active; 'I' for Inactive)
REMARK    1  A    between atoms: C7_7  and  C8_8 
REMARK    2  A    between atoms: C8_8  and  C9_9 
REMARK    3  A    between atoms: C9_9  and  N10_10 
ROOT
HETATM    1  C1  UNL     1     -34.420  15.234  -7.416  1.00 20.00     0.012 C 
HETATM    2  C3  UNL     1     -34.049  15.887  -6.479  1.00 20.00    -0.117 C 
HETATM    3  C7  UNL     1     -33.589  16.686  -5.335  1.00 20.00     0.096 C 
ENDROOT
BRANCH   3   4
HETATM    4  C8  UNL     1     -34.613  16.712  -4.191  1.00 20.00     0.061 C 
BRANCH   4   5
HETATM    5  C9  UNL     1     -34.349  15.687  -3.072  1.00 20.00     0.300 C 
HETATM    6  C4  UNL     1     -34.485  16.296  -1.737  1.00 20.00    -0.081 C 
HETATM    7  C2  UNL     1     -34.589  16.790  -0.647  1.00 20.00     0.014 C 
BRANCH   5   8
HETATM    8  N10 UNL     1     -35.307  14.586  -3.202  1.00 20.00     0.095 N 
HETATM    9  C5  UNL     1     -34.725  13.495  -3.981  1.00 20.00     0.310 C 
HETATM   10  C6  UNL     1     -36.543  15.057  -3.823  1.00 20.00     0.310 C 
ENDBRANCH   5   8
ENDBRANCH   4   5
ENDBRANCH   3   4
TORSDOF 3
ENDMDL
MODEL 6
REMARK VINA RESULT:      -4.1     11.505     12.640
REMARK  3 active torsions:
REMARK  status: ('A' for Active; 'I' for Inactive)
REMARK    1  A    between atoms: C7_7  and  C8_8 
REMARK    2  A    between atoms: C8_8  and  C9_9 
REMARK    3  A    between atoms: C9_9  and  N10_10 
ROOT
HETATM    1  C1  UNL     1     -37.719  14.897  -3.907  1.00 20.00     0.012 C 
HETATM    2  C3  UNL     1     -36.620  14.424  -4.014  1.00 20.00    -0.117 C 
HETATM    3  C7  UNL     1     -35.279  13.841  -4.147  1.00 20.00     0.096 C 
ENDROOT
BRANCH   3   4
HETATM    4  C8  UNL     1     -34.228  14.599  -3.324  1.00 20.00     0.061 C 
BRANCH   4   5
HETATM    5  C9  UNL     1     -34.534  16.094  -3.116  1.00 20.00     0.300 C 
HETATM    6  C4  UNL     1     -34.591  16.442  -1.686  1.00 20.00    -0.081 C 
HETATM    7  C2  UNL     1     -34.644  16.728  -0.520  1.00 20.00     0.014 C 
BRANCH   5   8
HETATM    8  N10 UNL     1     -33.489  16.888  -3.767  1.00 20.00     0.095 N 
HETATM    9  C5  UNL     1     -33.839  18.306  -3.747  1.00 20.00     0.310 C 
HETATM   10  C6  UNL     1     -33.282  16.430  -5.139  1.00 20.00     0.310 C 
ENDBRANCH   5   8
ENDBRANCH   4   5
ENDBRANCH   3   4
TORSDOF 3
ENDMDL
MODEL 7
REMARK VINA RESULT:      -4.0     11.466     12.207
REMARK  3 active torsions:
REMARK  status: ('A' for Active; 'I' for Inactive)
REMARK    1  A    between atoms: C7_7  and  C8_8 
REMARK    2  A    between atoms: C8_8  and  C9_9 
REMARK    3  A    between atoms: C9_9  and  N10_10 
ROOT
HETATM    1  C1  UNL     1     -32.978  18.549  -0.177  1.00 20.00     0.012 C 
HETATM    2  C3  UNL     1     -33.676  17.676  -0.617  1.00 20.00    -0.117 C 
HETATM    3  C7  UNL     1     -34.532  16.607  -1.150  1.00 20.00     0.096 C 
ENDROOT
BRANCH   3   4
HETATM    4  C8  UNL     1     -34.220  16.288  -2.619  1.00 20.00     0.061 C 
BRANCH   4   5
HETATM    5  C9  UNL     1     -34.746  14.923  -3.103  1.00 20.00     0.300 C 
HETATM    6  C4  UNL     1     -36.181  14.981  -3.432  1.00 20.00    -0.081 C 
HETATM    7  C2  UNL     1     -37.352  15.022  -3.696  1.00 20.00     0.014 C 
BRANCH   5   8
HETATM    8  N10 UNL     1     -33.992  14.519  -4.292  1.00 20.00     0.095 N 
HETATM    9  C5  UNL     1     -34.064  15.557  -5.318  1.00 20.00     0.310 C 
HETATM   10  C6  UNL     1     -34.500  13.250  -4.810  1.00 20.00     0.310 C 
ENDBRANCH   5   8
ENDBRANCH   4   5
ENDBRANCH   3   4
TORSDOF 3
ENDMDL
MODEL 8
REMARK VINA RESULT:      -4.0     11.586     12.350
REMARK  3 active torsions:
REMARK  status: ('A' for Active; 'I' for Inactive)
REMARK    1  A    between atoms: C7_7  and  C8_8 
REMARK    2  A    between atoms: C8_8  and  C9_9 
REMARK    3  A    between atoms: C9_9  and  N10_10 
ROOT
HETATM    1  C1  UNL     1     -34.817  17.199  -0.048  1.00 20.00     0.012 C 
HETATM    2  C3  UNL     1     -34.612  16.557  -1.042  1.00 20.00    -0.117 C 
HETATM    3  C7  UNL     1     -34.354  15.770  -2.255  1.00 20.00     0.096 C 
ENDROOT
BRANCH   3   4
HETATM    4  C8  UNL     1     -35.452  15.952  -3.314  1.00 20.00     0.061 C 
BRANCH   4   5
HETATM    5  C9  UNL     1     -36.131  14.645  -3.763  1.00 20.00     0.300 C 
HETATM    6  C4  UNL     1     -37.598  14.781  -3.796  1.00 20.00    -0.081 C 
HETATM    7  C2  UNL     1     -38.794  14.885  -3.818  1.00 20.00     0.014 C 
BRANCH   5   8
HETATM    8  N10 UNL     1     -35.647  14.295  -5.101  1.00 20.00     0.095 N 
HETATM    9  C5  UNL     1     -34.606  13.273  -5.014  1.00 20.00     0.310 C 
HETATM   10  C6  UNL     1     -35.144  15.483  -5.787  1.00 20.00     0.310 C 
ENDBRANCH   5   8
ENDBRANCH   4   5
ENDBRANCH   3   4
TORSDOF 3
ENDMDL
MODEL 9
REMARK VINA RESULT:      -4.0     11.391     12.590
REMARK  3 active torsions:
REMARK  status: ('A' for Active; 'I' for Inactive)
REMARK    1  A    between atoms: C7_7  and  C8_8 
REMARK    2  A    between atoms: C8_8  and  C9_9 
REMARK    3  A    between atoms: C9_9  and  N10_10 
ROOT
HETATM    1  C1  UNL     1     -35.097  17.419   0.724  1.00 20.00     0.012 C 
HETATM    2  C3  UNL     1     -34.644  17.077  -0.334  1.00 20.00    -0.117 C 
HETATM    3  C7  UNL     1     -34.084  16.664  -1.628  1.00 20.00     0.096 C 
ENDROOT
BRANCH   3   4
HETATM    4  C8  UNL     1     -34.929  15.579  -2.310  1.00 20.00     0.061 C 
BRANCH   4   5
HETATM    5  C9  UNL     1     -35.376  15.922  -3.744  1.00 20.00     0.300 C 
HETATM    6  C4  UNL     1     -34.229  16.269  -4.600  1.00 20.00    -0.081 C 
HETATM    7  C2  UNL     1     -33.297  16.557  -5.301  1.00 20.00     0.014 C 
BRANCH   5   8
HETATM    8  N10 UNL     1     -36.074  14.766  -4.312  1.00 20.00     0.095 N 
HETATM    9  C5  UNL     1     -35.212  13.586  -4.283  1.00 20.00     0.310 C 
HETATM   10  C6  UNL     1     -36.504  15.053  -5.680  1.00 20.00     0.310 C 
ENDBRANCH   5   8
ENDBRANCH   4   5
ENDBRANCH   3   4
TORSDOF 3
ENDMDL
