MODEL 1
REMARK VINA RESULT:      -5.5      0.000      0.000
REMARK  2 active torsions:
REMARK  status: ('A' for Active; 'I' for Inactive)
REMARK    1  A    between atoms: C3_3  and  C10_10 
REMARK    2  A    between atoms: C7_7  and  O11_11 
ROOT
HETATM    1  C1  UNL     1     -34.952  17.140   0.117  1.00 20.00     0.012 C 
HETATM    2  C2  UNL     1     -34.398  16.884  -0.918  1.00 20.00    -0.113 C 
HETATM    3  C10 UNL     1     -33.714  16.579  -2.176  1.00 20.00     0.127 C 
ENDROOT
BRANCH   3   4
HETATM    4  C3  UNL     1     -34.543  15.651  -2.995  1.00 20.00    -0.060 C 
HETATM    5  C4  UNL     1     -34.188  14.487  -3.565  1.00 20.00    -0.052 C 
HETATM    6  C7  UNL     1     -35.340  13.877  -4.314  1.00 20.00     0.147 C 
HETATM    7  C8  UNL     1     -32.852  13.826  -3.576  1.00 20.00     0.046 C 
HETATM    8  C5  UNL     1     -36.542  14.650  -3.774  1.00 20.00     0.045 C 
HETATM    9  C6  UNL     1     -35.987  15.990  -3.275  1.00 20.00     0.014 C 
HETATM   10  C9  UNL     1     -36.134  17.097  -4.313  1.00 20.00     0.015 C 
BRANCH   6  11
HETATM   11  O11 UNL     1     -35.500  12.498  -4.027  1.00 20.00    -0.391 OA
HETATM   12  H25 UNL     1     -36.155  12.433  -3.313  1.00 20.00     0.210 HD
ENDBRANCH   6  11
ENDBRANCH   3   4
TORSDOF 2
ENDMDL
MODEL 2
REMARK VINA RESULT:      -4.8      0.959      1.074
REMARK  2 active torsions:
REMARK  status: ('A' for Active; 'I' for Inactive)
REMARK    1  A    between atoms: C3_3  and  C10_10 
REMARK    2  A    between atoms: C7_7  and  O11_11 
ROOT
HETATM    1  C1  UNL     1     -34.346  16.964  -0.716  1.00 20.00     0.012 C 
HETATM    2  C2  UNL     1     -34.087  16.966  -1.889  1.00 20.00    -0.113 C 
HETATM    3  C10 UNL     1     -33.765  16.979  -3.317  1.00 20.00     0.127 C 
ENDROOT
BRANCH   3   4
HETATM    4  C3  UNL     1     -34.443  15.843  -4.003  1.00 20.00    -0.060 C 
HETATM    5  C4  UNL     1     -34.062  14.556  -4.073  1.00 20.00    -0.052 C 
HETATM    6  C7  UNL     1     -35.040  13.745  -4.878  1.00 20.00     0.147 C 
HETATM    7  C8  UNL     1     -32.831  13.918  -3.526  1.00 20.00     0.046 C 
HETATM    8  C5  UNL     1     -36.265  14.658  -4.941  1.00 20.00     0.045 C 
HETATM    9  C6  UNL     1     -35.734  16.083  -4.746  1.00 20.00     0.014 C 
HETATM   10  C9  UNL     1     -35.516  16.803  -6.074  1.00 20.00     0.015 C 
BRANCH   6  11
HETATM   11  O11 UNL     1     -35.390  12.531  -4.237  1.00 20.00    -0.391 OA
HETATM   12  H25 UNL     1     -34.576  12.176  -3.843  1.00 20.00     0.210 HD
ENDBRANCH   6  11
ENDBRANCH   3   4
TORSDOF 2
ENDMDL
MODEL 3
REMARK VINA RESULT:      -4.7     10.426     12.135
REMARK  2 active torsions:
REMARK  status: ('A' for Active; 'I' for Inactive)
REMARK    1  A    between atoms: C3_3  and  C10_10 
REMARK    2  A    between atoms: C7_7  and  O11_11 
ROOT
HETATM    1  C1  UNL     1     -42.293   8.784  -4.557  1.00 20.00     0.012 C 
HETATM    2  C2  UNL     1     -42.751   7.774  -4.095  1.00 20.00    -0.113 C 
HETATM    3  C10 UNL     1     -43.320   6.543  -3.541  1.00 20.00     0.127 C 
ENDROOT
BRANCH   3   4
HETATM    4  C3  UNL     1     -42.467   6.047  -2.424  1.00 20.00    -0.060 C 
HETATM    5  C4  UNL     1     -42.064   4.790  -2.170  1.00 20.00    -0.052 C 
HETATM    6  C7  UNL     1     -41.218   4.734  -0.928  1.00 20.00     0.147 C 
HETATM    7  C8  UNL     1     -42.397   3.538  -2.906  1.00 20.00     0.046 C 
HETATM    8  C5  UNL     1     -40.848   6.200  -0.704  1.00 20.00     0.045 C 
HETATM    9  C6  UNL     1     -41.947   7.018  -1.393  1.00 20.00     0.014 C 
HETATM   10  C9  UNL     1     -43.030   7.465  -0.416  1.00 20.00     0.015 C 
BRANCH   6  11
HETATM   11  O11 UNL     1     -40.036   3.974  -1.114  1.00 20.00    -0.391 OA
HETATM   12  H25 UNL     1     -39.569   4.361  -1.873  1.00 20.00     0.210 HD
ENDBRANCH   6  11
ENDBRANCH   3   4
TORSDOF 2
ENDMDL
MODEL 4
REMARK VINA RESULT:      -4.6     11.184     12.196
REMARK  2 active torsions:
REMARK  status: ('A' for Active; 'I' for Inactive)
REMARK    1  A    between atoms: C3_3  and  C10_10 
REMARK    2  A    between atoms: C7_7  and  O11_11 
ROOT
HETATM    1  C1  UNL     1     -32.561   8.454   2.023  1.00 20.00     0.012 C 
HETATM    2  C2  UNL     1     -32.282   7.641   2.863  1.00 20.00    -0.113 C 
HETATM    3  C10 UNL     1     -31.929   6.653   3.884  1.00 20.00     0.127 C 
ENDROOT
BRANCH   3   4
HETATM    4  C3  UNL     1     -33.165   6.070   4.477  1.00 20.00    -0.060 C 
HETATM    5  C4  UNL     1     -34.204   5.491   3.853  1.00 20.00    -0.052 C 
HETATM    6  C7  UNL     1     -35.250   5.048   4.839  1.00 20.00     0.147 C 
HETATM    7  C8  UNL     1     -34.431   5.313   2.391  1.00 20.00     0.046 C 
HETATM    8  C5  UNL     1     -34.500   5.091   6.170  1.00 20.00     0.045 C 
HETATM    9  C6  UNL     1     -33.359   6.097   5.974  1.00 20.00     0.014 C 
HETATM   10  C9  UNL     1     -33.722   7.486   6.489  1.00 20.00     0.015 C 
BRANCH   6  11
HETATM   11  O11 UNL     1     -35.697   3.726   4.593  1.00 20.00    -0.391 OA
HETATM   12  H25 UNL     1     -34.984   3.130   4.878  1.00 20.00     0.210 HD
ENDBRANCH   6  11
ENDBRANCH   3   4
TORSDOF 2
ENDMDL
MODEL 5
REMARK VINA RESULT:      -4.5      1.728      3.282
REMARK  2 active torsions:
REMARK  status: ('A' for Active; 'I' for Inactive)
REMARK    1  A    between atoms: C3_3  and  C10_10 
REMARK    2  A    between atoms: C7_7  and  O11_11 
ROOT
HETATM    1  C1  UNL     1     -35.462  18.882  -5.104  1.00 20.00     0.012 C 
HETATM    2  C2  UNL     1     -34.628  18.052  -5.346  1.00 20.00    -0.113 C 
HETATM    3  C10 UNL     1     -33.605  17.049  -5.649  1.00 20.00     0.127 C 
ENDROOT
BRANCH   3   4
HETATM    4  C3  UNL     1     -33.936  15.764  -4.972  1.00 20.00    -0.060 C 
HETATM    5  C4  UNL     1     -34.801  14.810  -5.357  1.00 20.00    -0.052 C 
HETATM    6  C7  UNL     1     -34.833  13.677  -4.368  1.00 20.00     0.147 C 
HETATM    7  C8  UNL     1     -35.704  14.795  -6.542  1.00 20.00     0.046 C 
HETATM    8  C5  UNL     1     -33.568  13.913  -3.543  1.00 20.00     0.045 C 
HETATM    9  C6  UNL     1     -33.258  15.409  -3.671  1.00 20.00     0.014 C 
HETATM   10  C9  UNL     1     -33.801  16.212  -2.494  1.00 20.00     0.015 C 
BRANCH   6  11
HETATM   11  O11 UNL     1     -34.756  12.410  -4.998  1.00 20.00    -0.391 OA
HETATM   12  H25 UNL     1     -35.615  11.976  -4.865  1.00 20.00     0.210 HD
ENDBRANCH   6  11
ENDBRANCH   3   4
TORSDOF 2
ENDMDL
MODEL 6
REMARK VINA RESULT:      -4.4      2.747      4.253
REMARK  2 active torsions:
REMARK  status: ('A' for Active; 'I' for Inactive)
REMARK    1  A    between atoms: C3_3  and  C10_10 
REMARK    2  A    between atoms: C7_7  and  O11_11 
ROOT
HETATM    1  C1  UNL     1     -34.832  13.086  -4.517  1.00 20.00     0.012 C 
HETATM    2  C2  UNL     1     -33.995  13.863  -4.144  1.00 20.00    -0.113 C 
HETATM    3  C10 UNL     1     -32.968  14.801  -3.687  1.00 20.00     0.127 C 
ENDROOT
BRANCH   3   4
HETATM    4  C3  UNL     1     -33.494  16.194  -3.731  1.00 20.00    -0.060 C 
HETATM    5  C4  UNL     1     -34.137  16.881  -2.772  1.00 20.00    -0.052 C 
HETATM    6  C7  UNL     1     -34.502  18.260  -3.245  1.00 20.00     0.147 C 
HETATM    7  C8  UNL     1     -34.545  16.423  -1.413  1.00 20.00     0.046 C 
HETATM    8  C5  UNL     1     -33.631  18.433  -4.489  1.00 20.00     0.045 C 
HETATM    9  C6  UNL     1     -33.330  17.014  -4.988  1.00 20.00     0.014 C 
HETATM   10  C9  UNL     1     -34.283  16.578  -6.096  1.00 20.00     0.015 C 
BRANCH   6  11
HETATM   11  O11 UNL     1     -34.171  19.261  -2.298  1.00 20.00    -0.391 OA
HETATM   12  H25 UNL     1     -34.373  18.895  -1.420  1.00 20.00     0.210 HD
ENDBRANCH   6  11
ENDBRANCH   3   4
TORSDOF 2
ENDMDL
MODEL 7
REMARK VINA RESULT:      -4.4      2.390      3.473
REMARK  2 active torsions:
REMARK  status: ('A' for Active; 'I' for Inactive)
REMARK    1  A    between atoms: C3_3  and  C10_10 
REMARK    2  A    between atoms: C7_7  and  O11_11 
ROOT
HETATM    1  C1  UNL     1     -33.501  18.224   0.169  1.00 20.00     0.012 C 
HETATM    2  C2  UNL     1     -34.083  17.411  -0.498  1.00 20.00    -0.113 C 
HETATM    3  C10 UNL     1     -34.799  16.417  -1.299  1.00 20.00     0.127 C 
ENDROOT
BRANCH   3   4
HETATM    4  C3  UNL     1     -34.340  16.479  -2.716  1.00 20.00    -0.060 C 
HETATM    5  C4  UNL     1     -34.579  17.429  -3.636  1.00 20.00    -0.052 C 
HETATM    6  C7  UNL     1     -33.931  17.087  -4.949  1.00 20.00     0.147 C 
HETATM    7  C8  UNL     1     -35.410  18.660  -3.509  1.00 20.00     0.046 C 
HETATM    8  C5  UNL     1     -32.939  15.991  -4.560  1.00 20.00     0.045 C 
HETATM    9  C6  UNL     1     -33.492  15.363  -3.275  1.00 20.00     0.014 C 
HETATM   10  C9  UNL     1     -34.301  14.100  -3.553  1.00 20.00     0.015 C 
BRANCH   6  11
HETATM   11  O11 UNL     1     -33.226  18.184  -5.503  1.00 20.00    -0.391 OA
HETATM   12  H25 UNL     1     -33.865  18.691  -6.032  1.00 20.00     0.210 HD
ENDBRANCH   6  11
ENDBRANCH   3   4
TORSDOF 2
ENDMDL
MODEL 8
REMARK VINA RESULT:      -4.3      2.513      3.279
REMARK  2 active torsions:
REMARK  status: ('A' for Active; 'I' for Inactive)
REMARK    1  A    between atoms: C3_3  and  C10_10 
REMARK    2  A    between atoms: C7_7  and  O11_11 
ROOT
HETATM    1  C1  UNL     1     -34.420  16.636  -1.430  1.00 20.00     0.012 C 
HETATM    2  C2  UNL     1     -33.803  16.132  -2.330  1.00 20.00    -0.113 C 
HETATM    3  C10 UNL     1     -33.041  15.515  -3.418  1.00 20.00     0.127 C 
ENDROOT
BRANCH   3   4
HETATM    4  C3  UNL     1     -33.824  15.574  -4.684  1.00 20.00    -0.060 C 
HETATM    5  C4  UNL     1     -34.076  16.636  -5.468  1.00 20.00    -0.052 C 
HETATM    6  C7  UNL     1     -34.921  16.248  -6.651  1.00 20.00     0.147 C 
HETATM    7  C8  UNL     1     -33.683  18.058  -5.263  1.00 20.00     0.046 C 
HETATM    8  C5  UNL     1     -34.801  14.724  -6.666  1.00 20.00     0.045 C 
HETATM    9  C6  UNL     1     -34.459  14.317  -5.228  1.00 20.00     0.014 C 
HETATM   10  C9  UNL     1     -35.696  13.901  -4.438  1.00 20.00     0.015 C 
BRANCH   6  11
HETATM   11  O11 UNL     1     -34.418  16.772  -7.867  1.00 20.00    -0.391 OA
HETATM   12  H25 UNL     1     -34.051  16.023  -8.367  1.00 20.00     0.210 HD
ENDBRANCH   6  11
ENDBRANCH   3   4
TORSDOF 2
ENDMDL
MODEL 9
REMARK VINA RESULT:      -4.3      1.885      3.682
REMARK  2 active torsions:
REMARK  status: ('A' for Active; 'I' for Inactive)
REMARK    1  A    between atoms: C3_3  and  C10_10 
REMARK    2  A    between atoms: C7_7  and  O11_11 
ROOT
HETATM    1  C1  UNL     1     -38.016  15.493  -5.762  1.00 20.00     0.012 C 
HETATM    2  C2  UNL     1     -37.495  15.253  -4.706  1.00 20.00    -0.113 C 
HETATM    3  C10 UNL     1     -36.871  14.956  -3.415  1.00 20.00     0.127 C 
ENDROOT
BRANCH   3   4
HETATM    4  C3  UNL     1     -35.452  15.409  -3.420  1.00 20.00    -0.060 C 
HETATM    5  C4  UNL     1     -34.387  14.830  -3.999  1.00 20.00    -0.052 C 
HETATM    6  C7  UNL     1     -33.134  15.622  -3.744  1.00 20.00     0.147 C 
HETATM    7  C8  UNL     1     -34.321  13.550  -4.759  1.00 20.00     0.046 C 
HETATM    8  C5  UNL     1     -33.677  16.968  -3.263  1.00 20.00     0.045 C 
HETATM    9  C6  UNL     1     -35.071  16.676  -2.694  1.00 20.00     0.014 C 
HETATM   10  C9  UNL     1     -35.048  16.495  -1.179  1.00 20.00     0.015 C 
BRANCH   6  11
HETATM   11  O11 UNL     1     -32.370  15.817  -4.921  1.00 20.00    -0.391 OA
HETATM   12  H25 UNL     1     -32.833  15.352  -5.638  1.00 20.00     0.210 HD
ENDBRANCH   6  11
ENDBRANCH   3   4
TORSDOF 2
ENDMDL
