MODEL 1
REMARK VINA RESULT:      -5.1      0.000      0.000
REMARK  1 active torsions:
REMARK  status: ('A' for Active; 'I' for Inactive)
REMARK    1  A    between atoms: C5_5  and  C10_10 
ROOT
HETATM    1  C1  UNL     1     -33.555  17.325  -5.227  1.00 20.00     0.003 C 
HETATM    2  C2  UNL     1     -33.833  16.407  -6.166  1.00 20.00    -0.025 C 
HETATM    3  C3  UNL     1     -33.726  17.872  -2.796  1.00 20.00    -0.019 C 
HETATM    4  C4  UNL     1     -33.760  17.034  -3.837  1.00 20.00    -0.057 C 
HETATM    5  C6  UNL     1     -34.407  15.048  -5.853  1.00 20.00     0.039 C 
HETATM    6  C7  UNL     1     -34.071  17.163  -1.526  1.00 20.00     0.028 C 
HETATM    7  C8  UNL     1     -34.701  15.859  -2.030  1.00 20.00     0.014 C 
HETATM    8  C9  UNL     1     -34.083  15.628  -3.414  1.00 20.00     0.029 C 
HETATM    9  C10 UNL     1     -35.001  14.948  -4.433  1.00 20.00     0.059 C 
ENDROOT
BRANCH   9  10
HETATM   10  C5  UNL     1     -35.193  13.504  -4.083  1.00 20.00     0.236 C 
HETATM   11  O11 UNL     1     -34.781  12.579  -4.776  1.00 20.00    -0.306 OA
ENDBRANCH   9  10
TORSDOF 1
ENDMDL
MODEL 2
REMARK VINA RESULT:      -4.8      2.117      2.413
REMARK  1 active torsions:
REMARK  status: ('A' for Active; 'I' for Inactive)
REMARK    1  A    between atoms: C5_5  and  C10_10 
ROOT
HETATM    1  C1  UNL     1     -33.373  14.542  -3.379  1.00 20.00     0.003 C 
HETATM    2  C2  UNL     1     -33.891  13.667  -4.255  1.00 20.00    -0.025 C 
HETATM    3  C3  UNL     1     -33.829  16.598  -2.036  1.00 20.00    -0.019 C 
HETATM    4  C4  UNL     1     -34.201  15.541  -2.766  1.00 20.00    -0.057 C 
HETATM    5  C6  UNL     1     -35.336  13.687  -4.689  1.00 20.00     0.039 C 
HETATM    6  C7  UNL     1     -35.013  17.427  -1.654  1.00 20.00     0.028 C 
HETATM    7  C8  UNL     1     -36.103  16.914  -2.602  1.00 20.00     0.014 C 
HETATM    8  C9  UNL     1     -35.693  15.476  -2.939  1.00 20.00     0.029 C 
HETATM    9  C10 UNL     1     -36.059  15.006  -4.349  1.00 20.00     0.059 C 
ENDROOT
BRANCH   9  10
HETATM   10  C5  UNL     1     -37.538  14.798  -4.464  1.00 20.00     0.236 C 
HETATM   11  O11 UNL     1     -38.220  14.290  -3.580  1.00 20.00    -0.306 OA
ENDBRANCH   9  10
TORSDOF 1
ENDMDL
MODEL 3
REMARK VINA RESULT:      -4.6      1.036      3.038
REMARK  1 active torsions:
REMARK  status: ('A' for Active; 'I' for Inactive)
REMARK    1  A    between atoms: C5_5  and  C10_10 
ROOT
HETATM    1  C1  UNL     1     -33.721  17.391  -3.773  1.00 20.00     0.003 C 
HETATM    2  C2  UNL     1     -33.723  16.368  -2.904  1.00 20.00    -0.025 C 
HETATM    3  C3  UNL     1     -33.963  18.028  -6.176  1.00 20.00    -0.019 C 
HETATM    4  C4  UNL     1     -34.091  17.187  -5.144  1.00 20.00    -0.057 C 
HETATM    5  C6  UNL     1     -34.062  14.951  -3.294  1.00 20.00     0.039 C 
HETATM    6  C7  UNL     1     -34.407  17.384  -7.450  1.00 20.00     0.028 C 
HETATM    7  C8  UNL     1     -34.449  15.898  -7.078  1.00 20.00     0.014 C 
HETATM    8  C9  UNL     1     -34.688  15.873  -5.563  1.00 20.00     0.029 C 
HETATM    9  C10 UNL     1     -34.027  14.710  -4.818  1.00 20.00     0.059 C 
ENDROOT
BRANCH   9  10
HETATM   10  C5  UNL     1     -34.728  13.424  -5.126  1.00 20.00     0.236 C 
HETATM   11  O11 UNL     1     -35.113  12.639  -4.265  1.00 20.00    -0.306 OA
ENDBRANCH   9  10
TORSDOF 1
ENDMDL
MODEL 4
REMARK VINA RESULT:      -4.6      1.842      3.622
REMARK  1 active torsions:
REMARK  status: ('A' for Active; 'I' for Inactive)
REMARK    1  A    between atoms: C5_5  and  C10_10 
ROOT
HETATM    1  C1  UNL     1     -33.282  15.864  -4.464  1.00 20.00     0.003 C 
HETATM    2  C2  UNL     1     -33.684  15.830  -3.184  1.00 20.00    -0.025 C 
HETATM    3  C3  UNL     1     -33.981  15.486  -6.832  1.00 20.00    -0.019 C 
HETATM    4  C4  UNL     1     -34.223  15.676  -5.531  1.00 20.00    -0.057 C 
HETATM    5  C6  UNL     1     -35.108  15.556  -2.769  1.00 20.00     0.039 C 
HETATM    6  C7  UNL     1     -35.252  15.258  -7.585  1.00 20.00     0.028 C 
HETATM    7  C8  UNL     1     -36.254  14.949  -6.467  1.00 20.00     0.014 C 
HETATM    8  C9  UNL     1     -35.695  15.655  -5.226  1.00 20.00     0.029 C 
HETATM    9  C10 UNL     1     -35.967  14.946  -3.896  1.00 20.00     0.059 C 
ENDROOT
BRANCH   9  10
HETATM   10  C5  UNL     1     -37.413  15.063  -3.526  1.00 20.00     0.236 C 
HETATM   11  O11 UNL     1     -38.235  14.172  -3.720  1.00 20.00    -0.306 OA
ENDBRANCH   9  10
TORSDOF 1
ENDMDL
MODEL 5
REMARK VINA RESULT:      -4.5      1.995      3.528
REMARK  1 active torsions:
REMARK  status: ('A' for Active; 'I' for Inactive)
REMARK    1  A    between atoms: C5_5  and  C10_10 
ROOT
HETATM    1  C1  UNL     1     -33.818  16.897  -5.697  1.00 20.00     0.003 C 
HETATM    2  C2  UNL     1     -33.611  17.901  -4.830  1.00 20.00    -0.025 C 
HETATM    3  C3  UNL     1     -34.395  14.477  -5.916  1.00 20.00    -0.019 C 
HETATM    4  C4  UNL     1     -34.314  15.630  -5.243  1.00 20.00    -0.057 C 
HETATM    5  C6  UNL     1     -33.833  17.771  -3.344  1.00 20.00     0.039 C 
HETATM    6  C7  UNL     1     -34.904  13.379  -5.038  1.00 20.00     0.028 C 
HETATM    7  C8  UNL     1     -34.740  13.969  -3.633  1.00 20.00     0.014 C 
HETATM    8  C9  UNL     1     -34.805  15.489  -3.829  1.00 20.00     0.029 C 
HETATM    9  C10 UNL     1     -33.941  16.308  -2.866  1.00 20.00     0.059 C 
ENDROOT
BRANCH   9  10
HETATM   10  C5  UNL     1     -34.526  16.285  -1.488  1.00 20.00     0.236 C 
HETATM   11  O11 UNL     1     -34.175  17.045  -0.591  1.00 20.00    -0.306 OA
ENDBRANCH   9  10
TORSDOF 1
ENDMDL
MODEL 6
REMARK VINA RESULT:      -4.5      2.040      3.393
REMARK  1 active torsions:
REMARK  status: ('A' for Active; 'I' for Inactive)
REMARK    1  A    between atoms: C5_5  and  C10_10 
ROOT
HETATM    1  C1  UNL     1     -33.867  16.482  -2.558  1.00 20.00     0.003 C 
HETATM    2  C2  UNL     1     -34.945  17.239  -2.303  1.00 20.00    -0.025 C 
HETATM    3  C3  UNL     1     -33.077  14.307  -3.498  1.00 20.00    -0.019 C 
HETATM    4  C4  UNL     1     -33.987  15.270  -3.316  1.00 20.00    -0.057 C 
HETATM    5  C6  UNL     1     -36.340  16.869  -2.741  1.00 20.00     0.039 C 
HETATM    6  C7  UNL     1     -33.645  13.179  -4.298  1.00 20.00     0.028 C 
HETATM    7  C8  UNL     1     -35.153  13.442  -4.227  1.00 20.00     0.014 C 
HETATM    8  C9  UNL     1     -35.283  14.954  -4.009  1.00 20.00     0.029 C 
HETATM    9  C10 UNL     1     -36.478  15.390  -3.157  1.00 20.00     0.059 C 
ENDROOT
BRANCH   9  10
HETATM   10  C5  UNL     1     -37.756  15.212  -3.917  1.00 20.00     0.236 C 
HETATM   11  O11 UNL     1     -38.504  14.251  -3.768  1.00 20.00    -0.306 OA
ENDBRANCH   9  10
TORSDOF 1
ENDMDL
MODEL 7
REMARK VINA RESULT:      -4.5      2.147      4.378
REMARK  1 active torsions:
REMARK  status: ('A' for Active; 'I' for Inactive)
REMARK    1  A    between atoms: C5_5  and  C10_10 
ROOT
HETATM    1  C1  UNL     1     -34.719  13.382  -4.959  1.00 20.00     0.003 C 
HETATM    2  C2  UNL     1     -34.353  13.678  -3.703  1.00 20.00    -0.025 C 
HETATM    3  C3  UNL     1     -35.234  14.332  -7.211  1.00 20.00    -0.019 C 
HETATM    4  C4  UNL     1     -34.723  14.394  -5.977  1.00 20.00    -0.057 C 
HETATM    5  C6  UNL     1     -33.968  15.066  -3.256  1.00 20.00     0.039 C 
HETATM    6  C7  UNL     1     -35.087  15.642  -7.917  1.00 20.00     0.028 C 
HETATM    7  C8  UNL     1     -34.765  16.607  -6.770  1.00 20.00     0.014 C 
HETATM    8  C9  UNL     1     -34.113  15.737  -5.689  1.00 20.00     0.029 C 
HETATM    9  C10 UNL     1     -34.396  16.168  -4.247  1.00 20.00     0.059 C 
ENDROOT
BRANCH   9  10
HETATM   10  C5  UNL     1     -33.659  17.431  -3.924  1.00 20.00     0.236 C 
HETATM   11  O11 UNL     1     -33.735  18.000  -2.839  1.00 20.00    -0.306 OA
ENDBRANCH   9  10
TORSDOF 1
ENDMDL
MODEL 8
REMARK VINA RESULT:      -4.5     11.281     12.906
REMARK  1 active torsions:
REMARK  status: ('A' for Active; 'I' for Inactive)
REMARK    1  A    between atoms: C5_5  and  C10_10 
ROOT
HETATM    1  C1  UNL     1     -34.937   4.790   4.029  1.00 20.00     0.003 C 
HETATM    2  C2  UNL     1     -34.436   4.833   2.785  1.00 20.00    -0.025 C 
HETATM    3  C3  UNL     1     -34.710   5.680   6.352  1.00 20.00    -0.019 C 
HETATM    4  C4  UNL     1     -34.475   5.701   5.035  1.00 20.00    -0.057 C 
HETATM    5  C6  UNL     1     -33.346   5.786   2.363  1.00 20.00     0.039 C 
HETATM    6  C7  UNL     1     -33.971   6.778   7.046  1.00 20.00     0.028 C 
HETATM    7  C8  UNL     1     -32.948   7.213   5.992  1.00 20.00     0.014 C 
HETATM    8  C9  UNL     1     -33.584   6.848   4.645  1.00 20.00     0.029 C 
HETATM    9  C10 UNL     1     -32.599   6.425   3.552  1.00 20.00     0.059 C 
ENDROOT
BRANCH   9  10
HETATM   10  C5  UNL     1     -31.821   7.608   3.062  1.00 20.00     0.236 C 
HETATM   11  O11 UNL     1     -32.192   8.327   2.139  1.00 20.00    -0.306 OA
ENDBRANCH   9  10
TORSDOF 1
ENDMDL
MODEL 9
REMARK VINA RESULT:      -4.5      1.480      2.252
REMARK  1 active torsions:
REMARK  status: ('A' for Active; 'I' for Inactive)
REMARK    1  A    between atoms: C5_5  and  C10_10 
ROOT
HETATM    1  C1  UNL     1     -34.599  15.978  -7.336  1.00 20.00     0.003 C 
HETATM    2  C2  UNL     1     -34.900  14.672  -7.275  1.00 20.00    -0.025 C 
HETATM    3  C3  UNL     1     -33.930  17.983  -6.004  1.00 20.00    -0.019 C 
HETATM    4  C4  UNL     1     -34.096  16.667  -6.183  1.00 20.00    -0.057 C 
HETATM    5  C6  UNL     1     -34.779  13.852  -6.014  1.00 20.00     0.039 C 
HETATM    6  C7  UNL     1     -33.449  18.278  -4.620  1.00 20.00     0.028 C 
HETATM    7  C8  UNL     1     -33.732  16.967  -3.879  1.00 20.00     0.014 C 
HETATM    8  C9  UNL     1     -33.702  15.882  -4.963  1.00 20.00     0.029 C 
HETATM    9  C10 UNL     1     -34.658  14.708  -4.737  1.00 20.00     0.059 C 
ENDROOT
BRANCH   9  10
HETATM   10  C5  UNL     1     -34.172  13.846  -3.614  1.00 20.00     0.236 C 
HETATM   11  O11 UNL     1     -33.138  13.186  -3.666  1.00 20.00    -0.306 OA
ENDBRANCH   9  10
TORSDOF 1
ENDMDL
