MODEL 1
REMARK VINA RESULT:      -4.9      0.000      0.000
REMARK  1 active torsions:
REMARK  status: ('A' for Active; 'I' for Inactive)
REMARK    1  A    between atoms: C1_1  and  C2_2 
ROOT
HETATM    1  C2  UNL     1     -33.540   5.582   4.547  1.00 20.00     0.154 A 
HETATM    2  C3  UNL     1     -34.309   6.539   5.440  1.00 20.00     0.073 A 
HETATM    3  C4  UNL     1     -34.850   5.189   5.139  1.00 20.00     0.259 A 
HETATM    4  C5  UNL     1     -33.802   6.860   6.804  1.00 20.00     0.017 C 
HETATM    5  F7  UNL     1     -35.970   5.047   4.351  1.00 20.00    -0.205 F 
HETATM    6  F8  UNL     1     -34.908   4.215   6.111  1.00 20.00    -0.205 F 
ENDROOT
BRANCH   1   7
HETATM    7  C1  UNL     1     -33.449   5.868   3.111  1.00 20.00     0.229 C 
HETATM    8  O6  UNL     1     -34.098   5.234   2.286  1.00 20.00    -0.279 OA
HETATM    9 CL9  UNL     1     -32.347   7.169   2.771  1.00 20.00    -0.043 Cl
ENDBRANCH   1   7
TORSDOF 1
ENDMDL
MODEL 2
REMARK VINA RESULT:      -4.9      2.338      3.170
REMARK  1 active torsions:
REMARK  status: ('A' for Active; 'I' for Inactive)
REMARK    1  A    between atoms: C1_1  and  C2_2 
ROOT
HETATM    1  C2  UNL     1     -34.268   6.464   4.735  1.00 20.00     0.154 A 
HETATM    2  C3  UNL     1     -33.201   5.807   3.878  1.00 20.00     0.073 A 
HETATM    3  C4  UNL     1     -34.612   5.347   3.810  1.00 20.00     0.259 A 
HETATM    4  C5  UNL     1     -32.596   6.550   2.737  1.00 20.00     0.017 C 
HETATM    5  F7  UNL     1     -34.964   4.108   4.296  1.00 20.00    -0.205 F 
HETATM    6  F8  UNL     1     -35.382   5.583   2.694  1.00 20.00    -0.205 F 
ENDROOT
BRANCH   1   7
HETATM    7  C1  UNL     1     -34.259   6.230   6.183  1.00 20.00     0.229 C 
HETATM    8  O6  UNL     1     -34.885   5.306   6.691  1.00 20.00    -0.279 OA
HETATM    9 CL9  UNL     1     -33.282   7.394   7.028  1.00 20.00    -0.043 Cl
ENDBRANCH   1   7
TORSDOF 1
ENDMDL
MODEL 3
REMARK VINA RESULT:      -4.4     11.950     12.414
REMARK  1 active torsions:
REMARK  status: ('A' for Active; 'I' for Inactive)
REMARK    1  A    between atoms: C1_1  and  C2_2 
ROOT
HETATM    1  C2  UNL     1     -34.598  14.996  -4.041  1.00 20.00     0.154 A 
HETATM    2  C3  UNL     1     -34.081  15.335  -2.654  1.00 20.00     0.073 A 
HETATM    3  C4  UNL     1     -33.181  14.724  -3.666  1.00 20.00     0.259 A 
HETATM    4  C5  UNL     1     -33.903  16.758  -2.250  1.00 20.00     0.017 C 
HETATM    5  F7  UNL     1     -32.726  13.435  -3.504  1.00 20.00    -0.205 F 
HETATM    6  F8  UNL     1     -32.161  15.450  -4.238  1.00 20.00    -0.205 F 
ENDROOT
BRANCH   1   7
HETATM    7  C1  UNL     1     -35.535  13.878  -4.195  1.00 20.00     0.229 C 
HETATM    8  O6  UNL     1     -35.145  12.737  -4.421  1.00 20.00    -0.279 OA
HETATM    9 CL9  UNL     1     -37.189  14.381  -4.021  1.00 20.00    -0.043 Cl
ENDBRANCH   1   7
TORSDOF 1
ENDMDL
MODEL 4
REMARK VINA RESULT:      -4.3      2.152      2.544
REMARK  1 active torsions:
REMARK  status: ('A' for Active; 'I' for Inactive)
REMARK    1  A    between atoms: C1_1  and  C2_2 
ROOT
HETATM    1  C2  UNL     1     -34.355   6.160   4.714  1.00 20.00     0.154 A 
HETATM    2  C3  UNL     1     -34.066   5.076   5.737  1.00 20.00     0.073 A 
HETATM    3  C4  UNL     1     -33.848   6.507   6.073  1.00 20.00     0.259 A 
HETATM    4  C5  UNL     1     -35.187   4.319   6.361  1.00 20.00     0.017 C 
HETATM    5  F7  UNL     1     -32.573   6.994   6.250  1.00 20.00    -0.205 F 
HETATM    6  F8  UNL     1     -34.664   7.157   6.972  1.00 20.00    -0.205 F 
ENDROOT
BRANCH   1   7
HETATM    7  C1  UNL     1     -33.469   6.296   3.553  1.00 20.00     0.229 C 
HETATM    8  O6  UNL     1     -32.556   7.115   3.531  1.00 20.00    -0.279 OA
HETATM    9 CL9  UNL     1     -33.881   5.183   2.283  1.00 20.00    -0.043 Cl
ENDBRANCH   1   7
TORSDOF 1
ENDMDL
MODEL 5
REMARK VINA RESULT:      -4.1     12.473     13.241
REMARK  1 active torsions:
REMARK  status: ('A' for Active; 'I' for Inactive)
REMARK    1  A    between atoms: C1_1  and  C2_2 
ROOT
HETATM    1  C2  UNL     1     -34.689  15.287  -4.632  1.00 20.00     0.154 A 
HETATM    2  C3  UNL     1     -34.393  14.534  -5.917  1.00 20.00     0.073 A 
HETATM    3  C4  UNL     1     -34.425  13.820  -4.614  1.00 20.00     0.259 A 
HETATM    4  C5  UNL     1     -35.472  14.317  -6.921  1.00 20.00     0.017 C 
HETATM    5  F7  UNL     1     -33.267  13.315  -4.069  1.00 20.00    -0.205 F 
HETATM    6  F8  UNL     1     -35.439  12.936  -4.315  1.00 20.00    -0.205 F 
ENDROOT
BRANCH   1   7
HETATM    7  C1  UNL     1     -33.681  16.211  -4.102  1.00 20.00     0.229 C 
HETATM    8  O6  UNL     1     -32.942  16.852  -4.842  1.00 20.00    -0.279 OA
HETATM    9 CL9  UNL     1     -33.689  16.261  -2.364  1.00 20.00    -0.043 Cl
ENDBRANCH   1   7
TORSDOF 1
ENDMDL
MODEL 6
REMARK VINA RESULT:      -4.1     12.777     13.134
REMARK  1 active torsions:
REMARK  status: ('A' for Active; 'I' for Inactive)
REMARK    1  A    between atoms: C1_1  and  C2_2 
ROOT
HETATM    1  C2  UNL     1     -35.082  15.215  -3.972  1.00 20.00     0.154 A 
HETATM    2  C3  UNL     1     -34.133  15.504  -2.823  1.00 20.00     0.073 A 
HETATM    3  C4  UNL     1     -34.012  16.245  -4.105  1.00 20.00     0.259 A 
HETATM    4  C5  UNL     1     -34.630  16.194  -1.599  1.00 20.00     0.017 C 
HETATM    5  F7  UNL     1     -32.928  16.039  -4.928  1.00 20.00    -0.205 F 
HETATM    6  F8  UNL     1     -34.341  17.579  -4.187  1.00 20.00    -0.205 F 
ENDROOT
BRANCH   1   7
HETATM    7  C1  UNL     1     -34.957  13.943  -4.693  1.00 20.00     0.229 C 
HETATM    8  O6  UNL     1     -34.887  12.871  -4.101  1.00 20.00    -0.279 OA
HETATM    9 CL9  UNL     1     -34.924  14.168  -6.416  1.00 20.00    -0.043 Cl
ENDBRANCH   1   7
TORSDOF 1
ENDMDL
MODEL 7
REMARK VINA RESULT:      -4.0     12.145     12.905
REMARK  1 active torsions:
REMARK  status: ('A' for Active; 'I' for Inactive)
REMARK    1  A    between atoms: C1_1  and  C2_2 
ROOT
HETATM    1  C2  UNL     1     -33.437  15.499  -3.668  1.00 20.00     0.154 A 
HETATM    2  C3  UNL     1     -34.294  16.739  -3.844  1.00 20.00     0.073 A 
HETATM    3  C4  UNL     1     -34.054  16.175  -2.491  1.00 20.00     0.259 A 
HETATM    4  C5  UNL     1     -33.667  18.031  -4.243  1.00 20.00     0.017 C 
HETATM    5  F7  UNL     1     -35.081  15.583  -1.791  1.00 20.00    -0.205 F 
HETATM    6  F8  UNL     1     -33.263  16.836  -1.577  1.00 20.00    -0.205 F 
ENDROOT
BRANCH   1   7
HETATM    7  C1  UNL     1     -33.960  14.204  -4.116  1.00 20.00     0.229 C 
HETATM    8  O6  UNL     1     -34.003  13.232  -3.370  1.00 20.00    -0.279 OA
HETATM    9 CL9  UNL     1     -34.484  14.250  -5.774  1.00 20.00    -0.043 Cl
ENDBRANCH   1   7
TORSDOF 1
ENDMDL
MODEL 8
REMARK VINA RESULT:      -4.0     12.719     13.718
REMARK  1 active torsions:
REMARK  status: ('A' for Active; 'I' for Inactive)
REMARK    1  A    between atoms: C1_1  and  C2_2 
ROOT
HETATM    1  C2  UNL     1     -34.914  14.900  -4.898  1.00 20.00     0.154 A 
HETATM    2  C3  UNL     1     -34.086  15.612  -5.953  1.00 20.00     0.073 A 
HETATM    3  C4  UNL     1     -35.383  14.983  -6.311  1.00 20.00     0.259 A 
HETATM    4  C5  UNL     1     -33.952  17.096  -5.922  1.00 20.00     0.017 C 
HETATM    5  F7  UNL     1     -35.416  13.865  -7.113  1.00 20.00    -0.205 F 
HETATM    6  F8  UNL     1     -36.479  15.752  -6.634  1.00 20.00    -0.205 F 
ENDROOT
BRANCH   1   7
HETATM    7  C1  UNL     1     -34.437  13.619  -4.366  1.00 20.00     0.229 C 
HETATM    8  O6  UNL     1     -35.094  12.589  -4.481  1.00 20.00    -0.279 OA
HETATM    9 CL9  UNL     1     -32.888  13.768  -3.592  1.00 20.00    -0.043 Cl
ENDBRANCH   1   7
TORSDOF 1
ENDMDL
MODEL 9
REMARK VINA RESULT:      -4.0     12.544     12.985
REMARK  1 active torsions:
REMARK  status: ('A' for Active; 'I' for Inactive)
REMARK    1  A    between atoms: C1_1  and  C2_2 
ROOT
HETATM    1  C2  UNL     1     -34.244  15.644  -4.505  1.00 20.00     0.154 A 
HETATM    2  C3  UNL     1     -34.605  15.178  -3.106  1.00 20.00     0.073 A 
HETATM    3  C4  UNL     1     -33.473  14.555  -3.840  1.00 20.00     0.259 A 
HETATM    4  C5  UNL     1     -34.347  16.061  -1.934  1.00 20.00     0.017 C 
HETATM    5  F7  UNL     1     -33.562  13.254  -4.280  1.00 20.00    -0.205 F 
HETATM    6  F8  UNL     1     -32.171  14.767  -3.447  1.00 20.00    -0.205 F 
ENDROOT
BRANCH   1   7
HETATM    7  C1  UNL     1     -35.145  15.320  -5.616  1.00 20.00     0.229 C 
HETATM    8  O6  UNL     1     -36.364  15.349  -5.486  1.00 20.00    -0.279 OA
HETATM    9 CL9  UNL     1     -34.276  14.912  -7.065  1.00 20.00    -0.043 Cl
ENDBRANCH   1   7
TORSDOF 1
ENDMDL
