MODEL 1
REMARK VINA RESULT:      -4.8      0.000      0.000
REMARK  1 active torsions:
REMARK  status: ('A' for Active; 'I' for Inactive)
REMARK    1  A    between atoms: C1_1  and  C5_5 
ROOT
HETATM    1  C2  UNL     1     -37.094  15.980  -5.120  1.00 20.00     0.002 C 
HETATM    2  C3  UNL     1     -36.611  14.780  -4.302  1.00 20.00     0.017 C 
HETATM    3  C4  UNL     1     -35.852  16.787  -5.485  1.00 20.00     0.010 C 
HETATM    4  C5  UNL     1     -35.092  14.962  -4.113  1.00 20.00     0.023 C 
HETATM    5  C6  UNL     1     -34.672  15.803  -5.359  1.00 20.00    -0.034 C 
HETATM    6  C8  UNL     1     -34.813  15.642  -2.762  1.00 20.00     0.024 C 
HETATM    7  C9  UNL     1     -34.583  14.956  -6.650  1.00 20.00     0.016 C 
HETATM    8  C10 UNL     1     -33.349  16.563  -5.199  1.00 20.00     0.016 C 
ENDROOT
BRANCH   4   9
HETATM    9  C1  UNL     1     -34.407  13.621  -4.062  1.00 20.00     0.132 C 
HETATM   10  C7  UNL     1     -32.998  13.601  -3.532  1.00 20.00     0.091 C 
HETATM   11  O11 UNL     1     -34.971  12.594  -4.434  1.00 20.00    -0.298 OA
ENDBRANCH   4   9
TORSDOF 1
ENDMDL
MODEL 2
REMARK VINA RESULT:      -4.8      1.172      3.319
REMARK  1 active torsions:
REMARK  status: ('A' for Active; 'I' for Inactive)
REMARK    1  A    between atoms: C1_1  and  C5_5 
ROOT
HETATM    1  C2  UNL     1     -33.194  13.626  -3.656  1.00 20.00     0.002 C 
HETATM    2  C3  UNL     1     -34.603  13.399  -4.205  1.00 20.00     0.017 C 
HETATM    3  C4  UNL     1     -32.935  15.129  -3.729  1.00 20.00     0.010 C 
HETATM    4  C5  UNL     1     -35.112  14.771  -4.691  1.00 20.00     0.023 C 
HETATM    5  C6  UNL     1     -34.329  15.782  -3.795  1.00 20.00    -0.034 C 
HETATM    6  C8  UNL     1     -34.849  14.920  -6.198  1.00 20.00     0.024 C 
HETATM    7  C9  UNL     1     -34.906  15.882  -2.363  1.00 20.00     0.016 C 
HETATM    8  C10 UNL     1     -34.235  17.201  -4.369  1.00 20.00     0.016 C 
ENDROOT
BRANCH   4   9
HETATM    9  C1  UNL     1     -36.604  14.870  -4.508  1.00 20.00     0.132 C 
HETATM   10  C7  UNL     1     -37.306  15.965  -5.265  1.00 20.00     0.091 C 
HETATM   11  O11 UNL     1     -37.218  14.093  -3.779  1.00 20.00    -0.298 OA
ENDBRANCH   4   9
TORSDOF 1
ENDMDL
MODEL 3
REMARK VINA RESULT:      -4.7      0.765      2.618
REMARK  1 active torsions:
REMARK  status: ('A' for Active; 'I' for Inactive)
REMARK    1  A    between atoms: C1_1  and  C5_5 
ROOT
HETATM    1  C2  UNL     1     -33.981  17.411  -4.735  1.00 20.00     0.002 C 
HETATM    2  C3  UNL     1     -33.327  16.030  -4.819  1.00 20.00     0.017 C 
HETATM    3  C4  UNL     1     -35.479  17.196  -4.930  1.00 20.00     0.010 C 
HETATM    4  C5  UNL     1     -34.451  15.033  -5.166  1.00 20.00     0.023 C 
HETATM    5  C6  UNL     1     -35.729  15.715  -4.585  1.00 20.00    -0.034 C 
HETATM    6  C8  UNL     1     -34.488  14.801  -6.686  1.00 20.00     0.024 C 
HETATM    7  C9  UNL     1     -35.839  15.567  -3.049  1.00 20.00     0.016 C 
HETATM    8  C10 UNL     1     -37.047  15.231  -5.204  1.00 20.00     0.016 C 
ENDROOT
BRANCH   4   9
HETATM    9  C1  UNL     1     -34.173  13.692  -4.539  1.00 20.00     0.132 C 
HETATM   10  C7  UNL     1     -33.018  13.622  -3.576  1.00 20.00     0.091 C 
HETATM   11  O11 UNL     1     -34.858  12.704  -4.798  1.00 20.00    -0.298 OA
ENDBRANCH   4   9
TORSDOF 1
ENDMDL
MODEL 4
REMARK VINA RESULT:      -4.6      1.951      3.496
REMARK  1 active torsions:
REMARK  status: ('A' for Active; 'I' for Inactive)
REMARK    1  A    between atoms: C1_1  and  C5_5 
ROOT
HETATM    1  C2  UNL     1     -33.266  13.775  -3.853  1.00 20.00     0.002 C 
HETATM    2  C3  UNL     1     -33.119  15.292  -3.715  1.00 20.00     0.017 C 
HETATM    3  C4  UNL     1     -34.763  13.479  -3.832  1.00 20.00     0.010 C 
HETATM    4  C5  UNL     1     -34.540  15.854  -3.511  1.00 20.00     0.023 C 
HETATM    5  C6  UNL     1     -35.448  14.803  -4.224  1.00 20.00    -0.034 C 
HETATM    6  C8  UNL     1     -34.821  16.024  -2.008  1.00 20.00     0.024 C 
HETATM    7  C9  UNL     1     -35.428  14.944  -5.764  1.00 20.00     0.016 C 
HETATM    8  C10 UNL     1     -36.911  14.810  -3.766  1.00 20.00     0.016 C 
ENDROOT
BRANCH   4   9
HETATM    9  C1  UNL     1     -34.652  17.226  -4.121  1.00 20.00     0.132 C 
HETATM   10  C7  UNL     1     -33.496  17.686  -4.969  1.00 20.00     0.091 C 
HETATM   11  O11 UNL     1     -35.641  17.935  -3.938  1.00 20.00    -0.298 OA
ENDBRANCH   4   9
TORSDOF 1
ENDMDL
MODEL 5
REMARK VINA RESULT:      -4.5      1.836      3.624
REMARK  1 active torsions:
REMARK  status: ('A' for Active; 'I' for Inactive)
REMARK    1  A    between atoms: C1_1  and  C5_5 
ROOT
HETATM    1  C2  UNL     1     -34.437  13.261  -4.946  1.00 20.00     0.002 C 
HETATM    2  C3  UNL     1     -34.630  14.494  -5.831  1.00 20.00     0.017 C 
HETATM    3  C4  UNL     1     -34.390  13.762  -3.505  1.00 20.00     0.010 C 
HETATM    4  C5  UNL     1     -34.590  15.717  -4.893  1.00 20.00     0.023 C 
HETATM    5  C6  UNL     1     -35.079  15.140  -3.528  1.00 20.00    -0.034 C 
HETATM    6  C8  UNL     1     -33.169  16.305  -4.864  1.00 20.00     0.024 C 
HETATM    7  C9  UNL     1     -36.612  14.937  -3.479  1.00 20.00     0.016 C 
HETATM    8  C10 UNL     1     -34.671  15.968  -2.303  1.00 20.00     0.016 C 
ENDROOT
BRANCH   4   9
HETATM    9  C1  UNL     1     -35.489  16.807  -5.416  1.00 20.00     0.132 C 
HETATM   10  C7  UNL     1     -36.322  16.474  -6.625  1.00 20.00     0.091 C 
HETATM   11  O11 UNL     1     -35.541  17.913  -4.881  1.00 20.00    -0.298 OA
ENDBRANCH   4   9
TORSDOF 1
ENDMDL
MODEL 6
REMARK VINA RESULT:      -4.5      0.969      2.744
REMARK  1 active torsions:
REMARK  status: ('A' for Active; 'I' for Inactive)
REMARK    1  A    between atoms: C1_1  and  C5_5 
ROOT
HETATM    1  C2  UNL     1     -34.750  15.878  -2.151  1.00 20.00     0.002 C 
HETATM    2  C3  UNL     1     -34.138  14.859  -3.114  1.00 20.00     0.017 C 
HETATM    3  C4  UNL     1     -35.745  16.703  -2.964  1.00 20.00     0.010 C 
HETATM    4  C5  UNL     1     -34.714  15.173  -4.510  1.00 20.00     0.023 C 
HETATM    5  C6  UNL     1     -36.090  15.836  -4.190  1.00 20.00    -0.034 C 
HETATM    6  C8  UNL     1     -33.738  16.075  -5.284  1.00 20.00     0.024 C 
HETATM    7  C9  UNL     1     -37.171  14.804  -3.788  1.00 20.00     0.016 C 
HETATM    8  C10 UNL     1     -36.659  16.702  -5.321  1.00 20.00     0.016 C 
ENDROOT
BRANCH   4   9
HETATM    9  C1  UNL     1     -34.852  13.908  -5.315  1.00 20.00     0.132 C 
HETATM   10  C7  UNL     1     -35.089  14.070  -6.793  1.00 20.00     0.091 C 
HETATM   11  O11 UNL     1     -34.774  12.798  -4.792  1.00 20.00    -0.298 OA
ENDBRANCH   4   9
TORSDOF 1
ENDMDL
MODEL 7
REMARK VINA RESULT:      -4.5      1.117      2.815
REMARK  1 active torsions:
REMARK  status: ('A' for Active; 'I' for Inactive)
REMARK    1  A    between atoms: C1_1  and  C5_5 
ROOT
HETATM    1  C2  UNL     1     -33.717  17.346  -4.904  1.00 20.00     0.002 C 
HETATM    2  C3  UNL     1     -35.178  17.175  -4.485  1.00 20.00     0.017 C 
HETATM    3  C4  UNL     1     -33.036  15.999  -4.674  1.00 20.00     0.010 C 
HETATM    4  C5  UNL     1     -35.306  15.748  -3.914  1.00 20.00     0.023 C 
HETATM    5  C6  UNL     1     -34.177  14.963  -4.651  1.00 20.00    -0.034 C 
HETATM    6  C8  UNL     1     -35.161  15.785  -2.383  1.00 20.00     0.024 C 
HETATM    7  C9  UNL     1     -34.554  14.599  -6.107  1.00 20.00     0.016 C 
HETATM    8  C10 UNL     1     -33.726  13.679  -3.943  1.00 20.00     0.016 C 
ENDROOT
BRANCH   4   9
HETATM    9  C1  UNL     1     -36.678  15.193  -4.197  1.00 20.00     0.132 C 
HETATM   10  C7  UNL     1     -37.597  16.050  -5.025  1.00 20.00     0.091 C 
HETATM   11  O11 UNL     1     -37.028  14.093  -3.773  1.00 20.00    -0.298 OA
ENDBRANCH   4   9
TORSDOF 1
ENDMDL
MODEL 8
REMARK VINA RESULT:      -4.4      1.817      2.972
REMARK  1 active torsions:
REMARK  status: ('A' for Active; 'I' for Inactive)
REMARK    1  A    between atoms: C1_1  and  C5_5 
ROOT
HETATM    1  C2  UNL     1     -34.225  13.379  -4.762  1.00 20.00     0.002 C 
HETATM    2  C3  UNL     1     -34.687  14.056  -3.469  1.00 20.00     0.017 C 
HETATM    3  C4  UNL     1     -34.785  14.210  -5.913  1.00 20.00     0.010 C 
HETATM    4  C5  UNL     1     -35.602  15.223  -3.888  1.00 20.00     0.023 C 
HETATM    5  C6  UNL     1     -35.079  15.598  -5.310  1.00 20.00    -0.034 C 
HETATM    6  C8  UNL     1     -37.072  14.772  -3.849  1.00 20.00     0.024 C 
HETATM    7  C9  UNL     1     -33.767  16.417  -5.268  1.00 20.00     0.016 C 
HETATM    8  C10 UNL     1     -36.087  16.361  -6.180  1.00 20.00     0.016 C 
ENDROOT
BRANCH   4   9
HETATM    9  C1  UNL     1     -35.482  16.361  -2.908  1.00 20.00     0.132 C 
HETATM   10  C7  UNL     1     -34.499  16.182  -1.782  1.00 20.00     0.091 C 
HETATM   11  O11 UNL     1     -36.152  17.385  -3.024  1.00 20.00    -0.298 OA
ENDBRANCH   4   9
TORSDOF 1
ENDMDL
MODEL 9
REMARK VINA RESULT:      -4.4      1.435      3.207
REMARK  1 active torsions:
REMARK  status: ('A' for Active; 'I' for Inactive)
REMARK    1  A    between atoms: C1_1  and  C5_5 
ROOT
HETATM    1  C2  UNL     1     -37.260  15.560  -4.821  1.00 20.00     0.002 C 
HETATM    2  C3  UNL     1     -36.134  16.382  -5.451  1.00 20.00     0.017 C 
HETATM    3  C4  UNL     1     -36.598  14.375  -4.123  1.00 20.00     0.010 C 
HETATM    4  C5  UNL     1     -34.828  15.603  -5.197  1.00 20.00     0.023 C 
HETATM    5  C6  UNL     1     -35.135  14.801  -3.893  1.00 20.00    -0.034 C 
HETATM    6  C8  UNL     1     -34.497  14.729  -6.418  1.00 20.00     0.024 C 
HETATM    7  C9  UNL     1     -35.061  15.678  -2.621  1.00 20.00     0.016 C 
HETATM    8  C10 UNL     1     -34.243  13.573  -3.674  1.00 20.00     0.016 C 
ENDROOT
BRANCH   4   9
HETATM    9  C1  UNL     1     -33.673  16.556  -5.032  1.00 20.00     0.132 C 
HETATM   10  C7  UNL     1     -33.974  18.020  -5.211  1.00 20.00     0.091 C 
HETATM   11  O11 UNL     1     -32.541  16.158  -4.763  1.00 20.00    -0.298 OA
ENDBRANCH   4   9
TORSDOF 1
ENDMDL
