MODEL 1
REMARK VINA RESULT:      -4.1      0.000      0.000
REMARK  1 active torsions:
REMARK  status: ('A' for Active; 'I' for Inactive)
REMARK    1  A    between atoms: C1_1  and  C3_3 
ROOT
HETATM    1  C2  UNL     1     -33.265  14.961  -3.431  1.00 20.00     0.080 C 
HETATM    2  C3  UNL     1     -34.080  15.089  -4.738  1.00 20.00     0.310 C 
HETATM    3  C4  UNL     1     -34.009  16.245  -2.996  1.00 20.00     0.222 C 
HETATM    4  C5  UNL     1     -34.505  16.283  -1.564  1.00 20.00     0.043 C 
HETATM    5  C6  UNL     1     -35.537  17.029  -4.708  1.00 20.00     0.311 C 
HETATM    6  N7  UNL     1     -35.083  15.865  -3.954  1.00 20.00     0.101 N 
ENDROOT
BRANCH   2   7
HETATM    7  C1  UNL     1     -34.716  13.832  -5.335  1.00 20.00     0.252 C 
HETATM    8  O8  UNL     1     -34.762  12.773  -4.715  1.00 20.00    -0.277 OA
HETATM    9 CL9  UNL     1     -35.333  14.111  -6.937  1.00 20.00    -0.042 Cl
ENDBRANCH   2   7
TORSDOF 1
ENDMDL
MODEL 2
REMARK VINA RESULT:      -4.0      1.906      2.288
REMARK  1 active torsions:
REMARK  status: ('A' for Active; 'I' for Inactive)
REMARK    1  A    between atoms: C1_1  and  C3_3 
ROOT
HETATM    1  C2  UNL     1     -33.211  15.627  -3.813  1.00 20.00     0.080 C 
HETATM    2  C3  UNL     1     -33.914  14.612  -4.742  1.00 20.00     0.310 C 
HETATM    3  C4  UNL     1     -33.238  16.568  -5.040  1.00 20.00     0.222 C 
HETATM    4  C5  UNL     1     -33.603  18.015  -4.771  1.00 20.00     0.043 C 
HETATM    5  C6  UNL     1     -34.271  15.517  -6.966  1.00 20.00     0.311 C 
HETATM    6  N7  UNL     1     -34.398  15.778  -5.536  1.00 20.00     0.101 N 
ENDROOT
BRANCH   2   7
HETATM    7  C1  UNL     1     -35.094  13.806  -4.194  1.00 20.00     0.252 C 
HETATM    8  O8  UNL     1     -35.138  12.582  -4.284  1.00 20.00    -0.277 OA
HETATM    9 CL9  UNL     1     -36.298  14.825  -3.464  1.00 20.00    -0.042 Cl
ENDBRANCH   2   7
TORSDOF 1
ENDMDL
MODEL 3
REMARK VINA RESULT:      -3.9     12.122     12.672
REMARK  1 active torsions:
REMARK  status: ('A' for Active; 'I' for Inactive)
REMARK    1  A    between atoms: C1_1  and  C3_3 
ROOT
HETATM    1  C2  UNL     1     -33.508   6.415   5.636  1.00 20.00     0.080 C 
HETATM    2  C3  UNL     1     -33.727   6.711   4.135  1.00 20.00     0.310 C 
HETATM    3  C4  UNL     1     -34.810   5.587   5.527  1.00 20.00     0.222 C 
HETATM    4  C5  UNL     1     -34.819   4.248   6.238  1.00 20.00     0.043 C 
HETATM    5  C6  UNL     1     -35.735   5.645   3.286  1.00 20.00     0.311 C 
HETATM    6  N7  UNL     1     -34.521   5.451   4.073  1.00 20.00     0.101 N 
ENDROOT
BRANCH   2   7
HETATM    7  C1  UNL     1     -32.527   6.639   3.188  1.00 20.00     0.252 C 
HETATM    8  O8  UNL     1     -31.888   5.603   3.032  1.00 20.00    -0.277 OA
HETATM    9 CL9  UNL     1     -32.220   8.162   2.408  1.00 20.00    -0.042 Cl
ENDBRANCH   2   7
TORSDOF 1
ENDMDL
MODEL 4
REMARK VINA RESULT:      -3.9      1.612      1.978
REMARK  1 active torsions:
REMARK  status: ('A' for Active; 'I' for Inactive)
REMARK    1  A    between atoms: C1_1  and  C3_3 
ROOT
HETATM    1  C2  UNL     1     -34.396  15.932  -2.229  1.00 20.00     0.080 C 
HETATM    2  C3  UNL     1     -33.575  15.317  -3.384  1.00 20.00     0.310 C 
HETATM    3  C4  UNL     1     -34.542  17.157  -3.161  1.00 20.00     0.222 C 
HETATM    4  C5  UNL     1     -35.913  17.803  -3.214  1.00 20.00     0.043 C 
HETATM    5  C6  UNL     1     -33.403  16.827  -5.276  1.00 20.00     0.311 C 
HETATM    6  N7  UNL     1     -34.312  16.231  -4.303  1.00 20.00     0.101 N 
ENDROOT
BRANCH   2   7
HETATM    7  C1  UNL     1     -33.820  13.855  -3.766  1.00 20.00     0.252 C 
HETATM    8  O8  UNL     1     -32.917  13.023  -3.752  1.00 20.00    -0.277 OA
HETATM    9 CL9  UNL     1     -35.478  13.562  -4.198  1.00 20.00    -0.042 Cl
ENDBRANCH   2   7
TORSDOF 1
ENDMDL
MODEL 5
REMARK VINA RESULT:      -3.8      2.059      2.553
REMARK  1 active torsions:
REMARK  status: ('A' for Active; 'I' for Inactive)
REMARK    1  A    between atoms: C1_1  and  C3_3 
ROOT
HETATM    1  C2  UNL     1     -34.182  15.468  -6.400  1.00 20.00     0.080 C 
HETATM    2  C3  UNL     1     -35.048  14.819  -5.297  1.00 20.00     0.310 C 
HETATM    3  C4  UNL     1     -34.662  16.811  -5.801  1.00 20.00     0.222 C 
HETATM    4  C5  UNL     1     -33.615  17.899  -5.664  1.00 20.00     0.043 C 
HETATM    5  C6  UNL     1     -36.154  16.482  -3.918  1.00 20.00     0.311 C 
HETATM    6  N7  UNL     1     -34.887  16.083  -4.523  1.00 20.00     0.101 N 
ENDROOT
BRANCH   2   7
HETATM    7  C1  UNL     1     -34.479  13.632  -4.517  1.00 20.00     0.252 C 
HETATM    8  O8  UNL     1     -35.036  12.538  -4.506  1.00 20.00    -0.277 OA
HETATM    9 CL9  UNL     1     -33.005  14.040  -3.691  1.00 20.00    -0.042 Cl
ENDBRANCH   2   7
TORSDOF 1
ENDMDL
MODEL 6
REMARK VINA RESULT:      -3.7      3.027      3.846
REMARK  1 active torsions:
REMARK  status: ('A' for Active; 'I' for Inactive)
REMARK    1  A    between atoms: C1_1  and  C3_3 
ROOT
HETATM    1  C2  UNL     1     -33.787  14.227  -3.838  1.00 20.00     0.080 C 
HETATM    2  C3  UNL     1     -34.701  15.018  -2.874  1.00 20.00     0.310 C 
HETATM    3  C4  UNL     1     -35.081  13.977  -4.648  1.00 20.00     0.222 C 
HETATM    4  C5  UNL     1     -34.965  14.097  -6.154  1.00 20.00     0.043 C 
HETATM    5  C6  UNL     1     -37.014  15.009  -3.609  1.00 20.00     0.311 C 
HETATM    6  N7  UNL     1     -35.629  15.212  -4.025  1.00 20.00     0.101 N 
ENDROOT
BRANCH   2   7
HETATM    7  C1  UNL     1     -34.215  16.367  -2.339  1.00 20.00     0.252 C 
HETATM    8  O8  UNL     1     -33.608  17.164  -3.050  1.00 20.00    -0.277 OA
HETATM    9 CL9  UNL     1     -34.627  16.593  -0.666  1.00 20.00    -0.042 Cl
ENDBRANCH   2   7
TORSDOF 1
ENDMDL
MODEL 7
REMARK VINA RESULT:      -3.6      2.374      3.313
REMARK  1 active torsions:
REMARK  status: ('A' for Active; 'I' for Inactive)
REMARK    1  A    between atoms: C1_1  and  C3_3 
ROOT
HETATM    1  C2  UNL     1     -35.908  15.706  -4.582  1.00 20.00     0.080 C 
HETATM    2  C3  UNL     1     -34.723  14.891  -5.148  1.00 20.00     0.310 C 
HETATM    3  C4  UNL     1     -36.326  15.875  -6.061  1.00 20.00     0.222 C 
HETATM    4  C5  UNL     1     -37.805  15.729  -6.364  1.00 20.00     0.043 C 
HETATM    5  C6  UNL     1     -34.783  14.770  -7.571  1.00 20.00     0.311 C 
HETATM    6  N7  UNL     1     -35.567  14.627  -6.348  1.00 20.00     0.101 N 
ENDROOT
BRANCH   2   7
HETATM    7  C1  UNL     1     -34.336  13.579  -4.461  1.00 20.00     0.252 C 
HETATM    8  O8  UNL     1     -35.025  12.569  -4.563  1.00 20.00    -0.277 OA
HETATM    9 CL9  UNL     1     -32.856  13.725  -3.562  1.00 20.00    -0.042 Cl
ENDBRANCH   2   7
TORSDOF 1
ENDMDL
MODEL 8
REMARK VINA RESULT:      -3.6      1.426      2.144
REMARK  1 active torsions:
REMARK  status: ('A' for Active; 'I' for Inactive)
REMARK    1  A    between atoms: C1_1  and  C3_3 
ROOT
HETATM    1  C2  UNL     1     -36.817  14.982  -3.703  1.00 20.00     0.080 C 
HETATM    2  C3  UNL     1     -35.358  14.472  -3.693  1.00 20.00     0.310 C 
HETATM    3  C4  UNL     1     -36.222  16.294  -3.140  1.00 20.00     0.222 C 
HETATM    4  C5  UNL     1     -36.769  17.584  -3.718  1.00 20.00     0.043 C 
HETATM    5  C6  UNL     1     -33.818  16.152  -2.858  1.00 20.00     0.311 C 
HETATM    6  N7  UNL     1     -34.931  15.899  -3.767  1.00 20.00     0.101 N 
ENDROOT
BRANCH   2   7
HETATM    7  C1  UNL     1     -34.842  13.692  -4.905  1.00 20.00     0.252 C 
HETATM    8  O8  UNL     1     -34.726  12.470  -4.884  1.00 20.00    -0.277 OA
HETATM    9 CL9  UNL     1     -34.466  14.736  -6.243  1.00 20.00    -0.042 Cl
ENDBRANCH   2   7
TORSDOF 1
ENDMDL
MODEL 9
REMARK VINA RESULT:      -3.6      2.121      2.312
REMARK  1 active torsions:
REMARK  status: ('A' for Active; 'I' for Inactive)
REMARK    1  A    between atoms: C1_1  and  C3_3 
ROOT
HETATM    1  C2  UNL     1     -34.833  16.272  -4.293  1.00 20.00     0.080 C 
HETATM    2  C3  UNL     1     -35.450  14.886  -4.587  1.00 20.00     0.310 C 
HETATM    3  C4  UNL     1     -36.223  16.621  -3.711  1.00 20.00     0.222 C 
HETATM    4  C5  UNL     1     -36.231  17.404  -2.413  1.00 20.00     0.043 C 
HETATM    5  C6  UNL     1     -37.768  14.760  -3.879  1.00 20.00     0.311 C 
HETATM    6  N7  UNL     1     -36.421  15.162  -3.489  1.00 20.00     0.101 N 
ENDROOT
BRANCH   2   7
HETATM    7  C1  UNL     1     -34.628  13.632  -4.278  1.00 20.00     0.252 C 
HETATM    8  O8  UNL     1     -35.073  12.504  -4.469  1.00 20.00    -0.277 OA
HETATM    9 CL9  UNL     1     -33.056  14.022  -3.649  1.00 20.00    -0.042 Cl
ENDBRANCH   2   7
TORSDOF 1
ENDMDL
