MODEL 1
REMARK VINA RESULT:      -5.2      0.000      0.000
REMARK  1 active torsions:
REMARK  status: ('A' for Active; 'I' for Inactive)
REMARK    1  A    between atoms: C3_3  and  C5_5 
ROOT
HETATM    1  C1  UNL     1     -33.353   5.910   2.688  1.00 20.00     0.050 A 
HETATM    2  C2  UNL     1     -33.922   5.475   3.907  1.00 20.00    -0.026 A 
HETATM    3  C3  UNL     1     -32.656   7.063   2.984  1.00 20.00     0.113 A 
HETATM    4  C4  UNL     1     -33.522   6.392   4.852  1.00 20.00     0.060 A 
HETATM    5  C6  UNL     1     -34.762   4.300   4.251  1.00 20.00     0.041 C 
HETATM    6  C7  UNL     1     -33.863   6.418   6.290  1.00 20.00     0.066 C 
HETATM    7  C8  UNL     1     -35.426   4.488   5.634  1.00 20.00     0.005 C 
HETATM    8  C9  UNL     1     -34.447   5.046   6.690  1.00 20.00     0.007 C 
HETATM    9  O11 UNL     1     -32.756   7.367   4.309  1.00 20.00    -0.311 OA
ENDROOT
BRANCH   3  10
HETATM   10  C5  UNL     1     -31.889   7.934   2.161  1.00 20.00     0.295 C 
HETATM   11  O10 UNL     1     -32.303   9.028   1.716  1.00 20.00    -0.299 OA
ENDBRANCH   3  10
TORSDOF 1
ENDMDL
MODEL 2
REMARK VINA RESULT:      -4.9     10.928     11.869
REMARK  1 active torsions:
REMARK  status: ('A' for Active; 'I' for Inactive)
REMARK    1  A    between atoms: C3_3  and  C5_5 
ROOT
HETATM    1  C1  UNL     1     -41.800   2.811  -2.852  1.00 20.00     0.050 A 
HETATM    2  C2  UNL     1     -41.604   4.050  -2.201  1.00 20.00    -0.026 A 
HETATM    3  C3  UNL     1     -42.801   3.022  -3.778  1.00 20.00     0.113 A 
HETATM    4  C4  UNL     1     -42.496   4.922  -2.784  1.00 20.00     0.060 A 
HETATM    5  C6  UNL     1     -40.668   4.476  -1.130  1.00 20.00     0.041 C 
HETATM    6  C7  UNL     1     -42.720   6.344  -2.453  1.00 20.00     0.066 C 
HETATM    7  C8  UNL     1     -41.113   5.823  -0.518  1.00 20.00     0.005 C 
HETATM    8  C9  UNL     1     -41.543   6.848  -1.590  1.00 20.00     0.007 C 
HETATM    9  O11 UNL     1     -43.235   4.314  -3.741  1.00 20.00    -0.311 OA
ENDROOT
BRANCH   3  10
HETATM   10  C5  UNL     1     -43.416   2.144  -4.714  1.00 20.00     0.295 C 
HETATM   11  O10 UNL     1     -43.079   2.047  -5.915  1.00 20.00    -0.299 OA
ENDBRANCH   3  10
TORSDOF 1
ENDMDL
MODEL 3
REMARK VINA RESULT:      -4.7     11.236     12.417
REMARK  1 active torsions:
REMARK  status: ('A' for Active; 'I' for Inactive)
REMARK    1  A    between atoms: C3_3  and  C5_5 
ROOT
HETATM    1  C1  UNL     1     -36.707  15.912  -3.118  1.00 20.00     0.050 A 
HETATM    2  C2  UNL     1     -35.399  15.406  -3.289  1.00 20.00    -0.026 A 
HETATM    3  C3  UNL     1     -37.551  14.991  -3.703  1.00 20.00     0.113 A 
HETATM    4  C4  UNL     1     -35.546  14.214  -3.959  1.00 20.00     0.060 A 
HETATM    5  C6  UNL     1     -34.069  15.920  -2.872  1.00 20.00     0.041 C 
HETATM    6  C7  UNL     1     -34.483  13.291  -4.410  1.00 20.00     0.066 C 
HETATM    7  C8  UNL     1     -32.938  15.187  -3.626  1.00 20.00     0.005 C 
HETATM    8  C9  UNL     1     -33.164  13.660  -3.698  1.00 20.00     0.007 C 
HETATM    9  O11 UNL     1     -36.846  13.946  -4.224  1.00 20.00    -0.311 OA
ENDROOT
BRANCH   3  10
HETATM   10  C5  UNL     1     -38.967  14.967  -3.838  1.00 20.00     0.295 C 
HETATM   11  O10 UNL     1     -39.600  14.091  -4.469  1.00 20.00    -0.299 OA
ENDBRANCH   3  10
TORSDOF 1
ENDMDL
MODEL 4
REMARK VINA RESULT:      -4.6     11.567     12.671
REMARK  1 active torsions:
REMARK  status: ('A' for Active; 'I' for Inactive)
REMARK    1  A    between atoms: C3_3  and  C5_5 
ROOT
HETATM    1  C1  UNL     1     -33.903  16.166  -4.565  1.00 20.00     0.050 A 
HETATM    2  C2  UNL     1     -33.955  16.991  -3.419  1.00 20.00    -0.026 A 
HETATM    3  C3  UNL     1     -34.295  14.911  -4.148  1.00 20.00     0.113 A 
HETATM    4  C4  UNL     1     -34.380  16.177  -2.394  1.00 20.00     0.060 A 
HETATM    5  C6  UNL     1     -33.668  18.434  -3.216  1.00 20.00     0.041 C 
HETATM    6  C7  UNL     1     -34.578  16.538  -0.975  1.00 20.00     0.066 C 
HETATM    7  C8  UNL     1     -33.513  18.756  -1.713  1.00 20.00     0.005 C 
HETATM    8  C9  UNL     1     -34.597  18.076  -0.847  1.00 20.00     0.007 C 
HETATM    9  O11 UNL     1     -34.588  14.909  -2.817  1.00 20.00    -0.311 OA
ENDROOT
BRANCH   3  10
HETATM   10  C5  UNL     1     -34.434  13.685  -4.859  1.00 20.00     0.295 C 
HETATM   11  O10 UNL     1     -34.963  12.654  -4.387  1.00 20.00    -0.299 OA
ENDBRANCH   3  10
TORSDOF 1
ENDMDL
MODEL 5
REMARK VINA RESULT:      -4.5     11.472     12.429
REMARK  1 active torsions:
REMARK  status: ('A' for Active; 'I' for Inactive)
REMARK    1  A    between atoms: C3_3  and  C5_5 
ROOT
HETATM    1  C1  UNL     1     -34.067  15.026  -2.907  1.00 20.00     0.050 A 
HETATM    2  C2  UNL     1     -34.654  16.102  -2.203  1.00 20.00    -0.026 A 
HETATM    3  C3  UNL     1     -34.915  14.753  -3.960  1.00 20.00     0.113 A 
HETATM    4  C4  UNL     1     -35.811  16.405  -2.883  1.00 20.00     0.060 A 
HETATM    5  C6  UNL     1     -34.224  16.857  -0.998  1.00 20.00     0.041 C 
HETATM    6  C7  UNL     1     -36.813  17.439  -2.551  1.00 20.00     0.066 C 
HETATM    7  C8  UNL     1     -35.397  17.680  -0.421  1.00 20.00     0.005 C 
HETATM    8  C9  UNL     1     -36.205  18.411  -1.517  1.00 20.00     0.007 C 
HETATM    9  O11 UNL     1     -35.989  15.593  -3.952  1.00 20.00    -0.311 OA
ENDROOT
BRANCH   3  10
HETATM   10  C5  UNL     1     -34.843  13.781  -4.997  1.00 20.00     0.295 C 
HETATM   11  O10 UNL     1     -34.877  12.545  -4.806  1.00 20.00    -0.299 OA
ENDBRANCH   3  10
TORSDOF 1
ENDMDL
MODEL 6
REMARK VINA RESULT:      -4.4     11.376     12.635
REMARK  1 active torsions:
REMARK  status: ('A' for Active; 'I' for Inactive)
REMARK    1  A    between atoms: C3_3  and  C5_5 
ROOT
HETATM    1  C1  UNL     1     -33.731  17.053  -3.434  1.00 20.00     0.050 A 
HETATM    2  C2  UNL     1     -34.067  16.015  -4.333  1.00 20.00    -0.026 A 
HETATM    3  C3  UNL     1     -34.142  16.625  -2.188  1.00 20.00     0.113 A 
HETATM    4  C4  UNL     1     -34.652  15.033  -3.565  1.00 20.00     0.060 A 
HETATM    5  C6  UNL     1     -33.875  15.864  -5.797  1.00 20.00     0.041 C 
HETATM    6  C7  UNL     1     -35.208  13.741  -4.018  1.00 20.00     0.066 C 
HETATM    7  C8  UNL     1     -34.751  14.718  -6.350  1.00 20.00     0.005 C 
HETATM    8  C9  UNL     1     -34.716  13.460  -5.454  1.00 20.00     0.007 C 
HETATM    9  O11 UNL     1     -34.710  15.387  -2.260  1.00 20.00    -0.311 OA
ENDROOT
BRANCH   3  10
HETATM   10  C5  UNL     1     -34.067  17.245  -0.909  1.00 20.00     0.295 C 
HETATM   11  O10 UNL     1     -34.798  16.948   0.062  1.00 20.00    -0.299 OA
ENDBRANCH   3  10
TORSDOF 1
ENDMDL
MODEL 7
REMARK VINA RESULT:      -4.3     11.473     13.594
REMARK  1 active torsions:
REMARK  status: ('A' for Active; 'I' for Inactive)
REMARK    1  A    between atoms: C3_3  and  C5_5 
ROOT
HETATM    1  C1  UNL     1     -34.057  15.332  -3.011  1.00 20.00     0.050 A 
HETATM    2  C2  UNL     1     -33.901  16.720  -3.229  1.00 20.00    -0.026 A 
HETATM    3  C3  UNL     1     -34.041  14.748  -4.261  1.00 20.00     0.113 A 
HETATM    4  C4  UNL     1     -33.796  16.873  -4.592  1.00 20.00     0.060 A 
HETATM    5  C6  UNL     1     -33.824  17.872  -2.295  1.00 20.00     0.041 C 
HETATM    6  C7  UNL     1     -33.642  18.131  -5.353  1.00 20.00     0.066 C 
HETATM    7  C8  UNL     1     -34.027  19.204  -3.051  1.00 20.00     0.005 C 
HETATM    8  C9  UNL     1     -33.240  19.259  -4.379  1.00 20.00     0.007 C 
HETATM    9  O11 UNL     1     -33.883  15.686  -5.237  1.00 20.00    -0.311 OA
ENDROOT
BRANCH   3  10
HETATM   10  C5  UNL     1     -34.158  13.387  -4.664  1.00 20.00     0.295 C 
HETATM   11  O10 UNL     1     -35.097  12.632  -4.329  1.00 20.00    -0.299 OA
ENDBRANCH   3  10
TORSDOF 1
ENDMDL
MODEL 8
REMARK VINA RESULT:      -4.2     11.654     12.400
REMARK  1 active torsions:
REMARK  status: ('A' for Active; 'I' for Inactive)
REMARK    1  A    between atoms: C3_3  and  C5_5 
ROOT
HETATM    1  C1  UNL     1     -34.839  16.384  -1.216  1.00 20.00     0.050 A 
HETATM    2  C2  UNL     1     -34.622  17.232  -0.106  1.00 20.00    -0.026 A 
HETATM    3  C3  UNL     1     -33.880  16.724  -2.147  1.00 20.00     0.113 A 
HETATM    4  C4  UNL     1     -33.544  18.018  -0.444  1.00 20.00     0.060 A 
HETATM    5  C6  UNL     1     -35.304  17.348   1.208  1.00 20.00     0.041 C 
HETATM    6  C7  UNL     1     -32.920  19.092   0.356  1.00 20.00     0.066 C 
HETATM    7  C8  UNL     1     -34.925  18.673   1.906  1.00 20.00     0.005 C 
HETATM    8  C9  UNL     1     -33.415  18.981   1.815  1.00 20.00     0.007 C 
HETATM    9  O11 UNL     1     -33.082  17.727  -1.682  1.00 20.00    -0.311 OA
ENDROOT
BRANCH   3  10
HETATM   10  C5  UNL     1     -33.611  16.213  -3.448  1.00 20.00     0.295 C 
HETATM   11  O10 UNL     1     -32.894  15.214  -3.679  1.00 20.00    -0.299 OA
ENDBRANCH   3  10
TORSDOF 1
ENDMDL
MODEL 9
REMARK VINA RESULT:      -4.2     11.333     12.463
REMARK  1 active torsions:
REMARK  status: ('A' for Active; 'I' for Inactive)
REMARK    1  A    between atoms: C3_3  and  C5_5 
ROOT
HETATM    1  C1  UNL     1     -37.114  14.532  -4.084  1.00 20.00     0.050 A 
HETATM    2  C2  UNL     1     -35.708  14.450  -3.964  1.00 20.00    -0.026 A 
HETATM    3  C3  UNL     1     -37.482  15.699  -3.446  1.00 20.00     0.113 A 
HETATM    4  C4  UNL     1     -35.327  15.574  -3.268  1.00 20.00     0.060 A 
HETATM    5  C6  UNL     1     -34.723  13.449  -4.449  1.00 20.00     0.041 C 
HETATM    6  C7  UNL     1     -33.964  15.963  -2.851  1.00 20.00     0.066 C 
HETATM    7  C8  UNL     1     -33.365  13.627  -3.735  1.00 20.00     0.005 C 
HETATM    8  C9  UNL     1     -32.940  15.108  -3.628  1.00 20.00     0.007 C 
HETATM    9  O11 UNL     1     -36.392  16.343  -2.940  1.00 20.00    -0.311 OA
ENDROOT
BRANCH   3  10
HETATM   10  C5  UNL     1     -38.757  16.298  -3.246  1.00 20.00     0.295 C 
HETATM   11  O10 UNL     1     -39.819  15.657  -3.082  1.00 20.00    -0.299 OA
ENDBRANCH   3  10
TORSDOF 1
ENDMDL
