MODEL 1
REMARK VINA RESULT:      -5.0      0.000      0.000
REMARK  2 active torsions:
REMARK  status: ('A' for Active; 'I' for Inactive)
REMARK    1  A    between atoms: C4_4  and  C10_10 
REMARK    2  A    between atoms: C5_5  and  C10_10 
ROOT
HETATM    1  C1  UNL     1     -33.891  16.627  -2.238  1.00 20.00    -0.026 C 
HETATM    2  C2  UNL     1     -34.972  15.835  -2.243  1.00 20.00    -0.024 C 
HETATM    3  C6  UNL     1     -35.222  17.310  -3.998  1.00 20.00     0.018 C 
HETATM    4  C7  UNL     1     -33.291  16.032  -4.567  1.00 20.00     0.030 C 
HETATM    5  C8  UNL     1     -33.739  17.184  -3.633  1.00 20.00     0.010 C 
HETATM    6  C9  UNL     1     -35.531  15.845  -3.652  1.00 20.00     0.028 C 
HETATM    7  C10 UNL     1     -34.543  15.097  -4.595  1.00 20.00     0.044 C 
ENDROOT
BRANCH   7   8
HETATM    8  C4  UNL     1     -35.089  14.905  -5.976  1.00 20.00    -0.019 C 
HETATM    9  C3  UNL     1     -34.378  15.086  -7.094  1.00 20.00     0.008 C 
ENDBRANCH   7   8
BRANCH   7  10
HETATM   10  C5  UNL     1     -34.229  13.706  -4.120  1.00 20.00     0.136 C 
HETATM   11  C11 UNL     1     -32.851  13.479  -3.557  1.00 20.00     0.092 C 
HETATM   12  O12 UNL     1     -35.056  12.798  -4.186  1.00 20.00    -0.297 OA
ENDBRANCH   7  10
TORSDOF 2
ENDMDL
MODEL 2
REMARK VINA RESULT:      -4.9      1.633      3.775
REMARK  2 active torsions:
REMARK  status: ('A' for Active; 'I' for Inactive)
REMARK    1  A    between atoms: C4_4  and  C10_10 
REMARK    2  A    between atoms: C5_5  and  C10_10 
ROOT
HETATM    1  C1  UNL     1     -35.022  13.752  -5.665  1.00 20.00    -0.026 C 
HETATM    2  C2  UNL     1     -35.402  15.003  -5.964  1.00 20.00    -0.024 C 
HETATM    3  C6  UNL     1     -36.561  14.392  -4.067  1.00 20.00     0.018 C 
HETATM    4  C7  UNL     1     -34.275  14.388  -3.391  1.00 20.00     0.030 C 
HETATM    5  C8  UNL     1     -35.293  13.543  -4.195  1.00 20.00     0.010 C 
HETATM    6  C9  UNL     1     -35.905  15.638  -4.683  1.00 20.00     0.028 C 
HETATM    7  C10 UNL     1     -34.704  15.856  -3.718  1.00 20.00     0.044 C 
ENDROOT
BRANCH   7   8
HETATM    8  C4  UNL     1     -35.075  16.635  -2.493  1.00 20.00    -0.019 C 
HETATM    9  C3  UNL     1     -34.588  16.388  -1.273  1.00 20.00     0.008 C 
ENDBRANCH   7   8
BRANCH   7  10
HETATM   10  C5  UNL     1     -33.593  16.651  -4.345  1.00 20.00     0.136 C 
HETATM   11  C11 UNL     1     -33.837  18.124  -4.529  1.00 20.00     0.092 C 
HETATM   12  O12 UNL     1     -32.536  16.124  -4.688  1.00 20.00    -0.297 OA
ENDBRANCH   7  10
TORSDOF 2
ENDMDL
MODEL 3
REMARK VINA RESULT:      -4.8      0.931      3.071
REMARK  2 active torsions:
REMARK  status: ('A' for Active; 'I' for Inactive)
REMARK    1  A    between atoms: C4_4  and  C10_10 
REMARK    2  A    between atoms: C5_5  and  C10_10 
ROOT
HETATM    1  C1  UNL     1     -35.742  15.265  -6.671  1.00 20.00    -0.026 C 
HETATM    2  C2  UNL     1     -34.423  15.061  -6.542  1.00 20.00    -0.024 C 
HETATM    3  C6  UNL     1     -34.891  17.064  -5.501  1.00 20.00     0.018 C 
HETATM    4  C7  UNL     1     -36.080  15.440  -4.223  1.00 20.00     0.030 C 
HETATM    5  C8  UNL     1     -36.158  16.206  -5.567  1.00 20.00     0.010 C 
HETATM    6  C9  UNL     1     -33.962  15.851  -5.334  1.00 20.00     0.028 C 
HETATM    7  C10 UNL     1     -34.544  15.198  -4.047  1.00 20.00     0.044 C 
ENDROOT
BRANCH   7   8
HETATM    8  C4  UNL     1     -34.005  15.807  -2.790  1.00 20.00    -0.019 C 
HETATM    9  C3  UNL     1     -34.766  16.199  -1.762  1.00 20.00     0.008 C 
ENDBRANCH   7   8
BRANCH   7  10
HETATM   10  C5  UNL     1     -34.205  13.738  -3.932  1.00 20.00     0.136 C 
HETATM   11  C11 UNL     1     -32.810  13.403  -3.478  1.00 20.00     0.092 C 
HETATM   12  O12 UNL     1     -35.027  12.861  -4.194  1.00 20.00    -0.297 OA
ENDBRANCH   7  10
TORSDOF 2
ENDMDL
MODEL 4
REMARK VINA RESULT:      -4.7      1.356      2.383
REMARK  2 active torsions:
REMARK  status: ('A' for Active; 'I' for Inactive)
REMARK    1  A    between atoms: C4_4  and  C10_10 
REMARK    2  A    between atoms: C5_5  and  C10_10 
ROOT
HETATM    1  C1  UNL     1     -33.181  16.511  -4.172  1.00 20.00    -0.026 C 
HETATM    2  C2  UNL     1     -33.162  15.294  -3.610  1.00 20.00    -0.024 C 
HETATM    3  C6  UNL     1     -34.882  16.460  -2.613  1.00 20.00     0.018 C 
HETATM    4  C7  UNL     1     -35.537  16.276  -4.898  1.00 20.00     0.030 C 
HETATM    5  C8  UNL     1     -34.570  17.068  -3.983  1.00 20.00     0.010 C 
HETATM    6  C9  UNL     1     -34.551  15.029  -3.065  1.00 20.00     0.028 C 
HETATM    7  C10 UNL     1     -35.538  14.851  -4.255  1.00 20.00     0.044 C 
ENDROOT
BRANCH   7   8
HETATM    8  C4  UNL     1     -36.903  14.416  -3.819  1.00 20.00    -0.019 C 
HETATM    9  C3  UNL     1     -38.041  14.947  -4.279  1.00 20.00     0.008 C 
ENDBRANCH   7   8
BRANCH   7  10
HETATM   10  C5  UNL     1     -35.097  13.787  -5.221  1.00 20.00     0.136 C 
HETATM   11  C11 UNL     1     -34.932  14.205  -6.657  1.00 20.00     0.092 C 
HETATM   12  O12 UNL     1     -34.879  12.633  -4.856  1.00 20.00    -0.297 OA
ENDBRANCH   7  10
TORSDOF 2
ENDMDL
MODEL 5
REMARK VINA RESULT:      -4.7      1.345      2.766
REMARK  2 active torsions:
REMARK  status: ('A' for Active; 'I' for Inactive)
REMARK    1  A    between atoms: C4_4  and  C10_10 
REMARK    2  A    between atoms: C5_5  and  C10_10 
ROOT
HETATM    1  C1  UNL     1     -33.469  13.736  -3.811  1.00 20.00    -0.026 C 
HETATM    2  C2  UNL     1     -34.803  13.626  -3.876  1.00 20.00    -0.024 C 
HETATM    3  C6  UNL     1     -34.352  15.535  -2.665  1.00 20.00     0.018 C 
HETATM    4  C7  UNL     1     -33.481  15.991  -4.837  1.00 20.00     0.030 C 
HETATM    5  C8  UNL     1     -33.153  15.189  -3.553  1.00 20.00     0.010 C 
HETATM    6  C9  UNL     1     -35.379  15.014  -3.683  1.00 20.00     0.028 C 
HETATM    7  C10 UNL     1     -35.039  15.883  -4.928  1.00 20.00     0.044 C 
ENDROOT
BRANCH   7   8
HETATM    8  C4  UNL     1     -35.712  17.221  -4.907  1.00 20.00    -0.019 C 
HETATM    9  C3  UNL     1     -35.072  18.383  -5.074  1.00 20.00     0.008 C 
ENDBRANCH   7   8
BRANCH   7  10
HETATM   10  C5  UNL     1     -35.494  15.255  -6.216  1.00 20.00     0.136 C 
HETATM   11  C11 UNL     1     -34.432  14.980  -7.246  1.00 20.00     0.092 C 
HETATM   12  O12 UNL     1     -36.675  14.977  -6.417  1.00 20.00    -0.297 OA
ENDBRANCH   7  10
TORSDOF 2
ENDMDL
MODEL 6
REMARK VINA RESULT:      -4.7      1.556      3.417
REMARK  2 active torsions:
REMARK  status: ('A' for Active; 'I' for Inactive)
REMARK    1  A    between atoms: C4_4  and  C10_10 
REMARK    2  A    between atoms: C5_5  and  C10_10 
ROOT
HETATM    1  C1  UNL     1     -35.826  16.709  -6.924  1.00 20.00    -0.026 C 
HETATM    2  C2  UNL     1     -36.600  15.618  -6.829  1.00 20.00    -0.024 C 
HETATM    3  C6  UNL     1     -34.445  14.876  -7.174  1.00 20.00     0.018 C 
HETATM    4  C7  UNL     1     -34.359  15.983  -5.064  1.00 20.00     0.030 C 
HETATM    5  C8  UNL     1     -34.418  16.288  -6.582  1.00 20.00     0.010 C 
HETATM    6  C9  UNL     1     -35.708  14.470  -6.399  1.00 20.00     0.028 C 
HETATM    7  C10 UNL     1     -35.250  14.705  -4.930  1.00 20.00     0.044 C 
ENDROOT
BRANCH   7   8
HETATM    8  C4  UNL     1     -34.504  13.539  -4.359  1.00 20.00    -0.019 C 
HETATM    9  C3  UNL     1     -33.326  13.638  -3.734  1.00 20.00     0.008 C 
ENDBRANCH   7   8
BRANCH   7  10
HETATM   10  C5  UNL     1     -36.404  14.909  -3.988  1.00 20.00     0.136 C 
HETATM   11  C11 UNL     1     -36.417  16.194  -3.204  1.00 20.00     0.092 C 
HETATM   12  O12 UNL     1     -37.294  14.069  -3.866  1.00 20.00    -0.297 OA
ENDBRANCH   7  10
TORSDOF 2
ENDMDL
MODEL 7
REMARK VINA RESULT:      -4.7      1.332      3.597
REMARK  2 active torsions:
REMARK  status: ('A' for Active; 'I' for Inactive)
REMARK    1  A    between atoms: C4_4  and  C10_10 
REMARK    2  A    between atoms: C5_5  and  C10_10 
ROOT
HETATM    1  C1  UNL     1     -33.957  15.584  -5.924  1.00 20.00    -0.026 C 
HETATM    2  C2  UNL     1     -34.523  14.538  -5.306  1.00 20.00    -0.024 C 
HETATM    3  C6  UNL     1     -32.778  15.234  -3.970  1.00 20.00     0.018 C 
HETATM    4  C7  UNL     1     -34.292  17.076  -3.975  1.00 20.00     0.030 C 
HETATM    5  C8  UNL     1     -33.233  16.387  -4.871  1.00 20.00     0.010 C 
HETATM    6  C9  UNL     1     -34.194  14.655  -3.831  1.00 20.00     0.028 C 
HETATM    7  C10 UNL     1     -34.961  15.872  -3.235  1.00 20.00     0.044 C 
ENDROOT
BRANCH   7   8
HETATM    8  C4  UNL     1     -34.835  15.967  -1.746  1.00 20.00    -0.019 C 
HETATM    9  C3  UNL     1     -34.325  17.024  -1.104  1.00 20.00     0.008 C 
ENDBRANCH   7   8
BRANCH   7  10
HETATM   10  C5  UNL     1     -36.442  15.801  -3.481  1.00 20.00     0.136 C 
HETATM   11  C11 UNL     1     -37.089  17.028  -4.066  1.00 20.00     0.092 C 
HETATM   12  O12 UNL     1     -37.093  14.791  -3.220  1.00 20.00    -0.297 OA
ENDBRANCH   7  10
TORSDOF 2
ENDMDL
MODEL 8
REMARK VINA RESULT:      -4.7      1.014      1.230
REMARK  2 active torsions:
REMARK  status: ('A' for Active; 'I' for Inactive)
REMARK    1  A    between atoms: C4_4  and  C10_10 
REMARK    2  A    between atoms: C5_5  and  C10_10 
ROOT
HETATM    1  C1  UNL     1     -35.648  16.538  -2.918  1.00 20.00    -0.026 C 
HETATM    2  C2  UNL     1     -36.376  15.426  -3.095  1.00 20.00    -0.024 C 
HETATM    3  C6  UNL     1     -36.581  16.671  -5.025  1.00 20.00     0.018 C 
HETATM    4  C7  UNL     1     -34.267  16.105  -4.928  1.00 20.00     0.030 C 
HETATM    5  C8  UNL     1     -35.299  17.067  -4.287  1.00 20.00     0.010 C 
HETATM    6  C9  UNL     1     -36.493  15.200  -4.589  1.00 20.00     0.028 C 
HETATM    7  C10 UNL     1     -35.099  14.800  -5.153  1.00 20.00     0.044 C 
ENDROOT
BRANCH   7   8
HETATM    8  C4  UNL     1     -35.148  14.389  -6.593  1.00 20.00    -0.019 C 
HETATM    9  C3  UNL     1     -34.508  15.030  -7.576  1.00 20.00     0.008 C 
ENDBRANCH   7   8
BRANCH   7  10
HETATM   10  C5  UNL     1     -34.504  13.614  -4.446  1.00 20.00     0.136 C 
HETATM   11  C11 UNL     1     -33.201  13.840  -3.727  1.00 20.00     0.092 C 
HETATM   12  O12 UNL     1     -35.056  12.515  -4.452  1.00 20.00    -0.297 OA
ENDBRANCH   7  10
TORSDOF 2
ENDMDL
MODEL 9
REMARK VINA RESULT:      -4.6      1.857      3.057
REMARK  2 active torsions:
REMARK  status: ('A' for Active; 'I' for Inactive)
REMARK    1  A    between atoms: C4_4  and  C10_10 
REMARK    2  A    between atoms: C5_5  and  C10_10 
ROOT
HETATM    1  C1  UNL     1     -34.721  15.526  -2.415  1.00 20.00    -0.026 C 
HETATM    2  C2  UNL     1     -33.696  16.251  -2.884  1.00 20.00    -0.024 C 
HETATM    3  C6  UNL     1     -33.552  14.176  -3.878  1.00 20.00     0.018 C 
HETATM    4  C7  UNL     1     -35.607  15.078  -4.685  1.00 20.00     0.030 C 
HETATM    5  C8  UNL     1     -34.991  14.432  -3.419  1.00 20.00     0.010 C 
HETATM    6  C9  UNL     1     -33.295  15.652  -4.217  1.00 20.00     0.028 C 
HETATM    7  C10 UNL     1     -34.422  15.925  -5.256  1.00 20.00     0.044 C 
ENDROOT
BRANCH   7   8
HETATM    8  C4  UNL     1     -34.042  15.520  -6.647  1.00 20.00    -0.019 C 
HETATM    9  C3  UNL     1     -34.807  14.763  -7.441  1.00 20.00     0.008 C 
ENDBRANCH   7   8
BRANCH   7  10
HETATM   10  C5  UNL     1     -34.765  17.384  -5.371  1.00 20.00     0.136 C 
HETATM   11  C11 UNL     1     -33.667  18.301  -5.838  1.00 20.00     0.092 C 
HETATM   12  O12 UNL     1     -35.888  17.807  -5.098  1.00 20.00    -0.297 OA
ENDBRANCH   7  10
TORSDOF 2
ENDMDL
