MODEL 1
REMARK VINA RESULT:      -5.7      0.000      0.000
REMARK  4 active torsions:
REMARK  status: ('A' for Active; 'I' for Inactive)
REMARK    1  A    between atoms: C2_2  and  C5_5 
REMARK    2  A    between atoms: C4_4  and  C8_8 
REMARK    3  A    between atoms: C7_7  and  C9_9 
REMARK    4  A    between atoms: C8_8  and  C9_9 
ROOT
HETATM    1  C1  UNL     1     -33.775   6.932   6.759  1.00 20.00     0.012 C 
HETATM    2  C3  UNL     1     -34.397   5.936   6.508  1.00 20.00    -0.117 C 
HETATM    3  C7  UNL     1     -35.159   4.716   6.205  1.00 20.00     0.094 C 
ENDROOT
BRANCH   3   4
HETATM    4  C9  UNL     1     -34.801   4.173   4.819  1.00 20.00     0.024 C 
BRANCH   4   5
HETATM    5  C8  UNL     1     -35.116   5.161   3.693  1.00 20.00     0.095 C 
BRANCH   5   6
HETATM    6  C4  UNL     1     -33.980   6.044   3.395  1.00 20.00    -0.098 C 
HETATM    7  C2  UNL     1     -33.052   6.767   3.152  1.00 20.00    -0.029 C 
BRANCH   7   8
HETATM    8  C5  UNL     1     -31.937   7.637   2.867  1.00 20.00     0.198 C 
HETATM    9  C6  UNL     1     -31.955   8.324   1.533  1.00 20.00     0.106 C 
HETATM   10  O10 UNL     1     -31.048   7.780   3.697  1.00 20.00    -0.284 OA
ENDBRANCH   7   8
ENDBRANCH   5   6
ENDBRANCH   4   5
ENDBRANCH   3   4
TORSDOF 4
ENDMDL
MODEL 2
REMARK VINA RESULT:      -5.2      1.381      1.769
REMARK  4 active torsions:
REMARK  status: ('A' for Active; 'I' for Inactive)
REMARK    1  A    between atoms: C2_2  and  C5_5 
REMARK    2  A    between atoms: C4_4  and  C8_8 
REMARK    3  A    between atoms: C7_7  and  C9_9 
REMARK    4  A    between atoms: C8_8  and  C9_9 
ROOT
HETATM    1  C1  UNL     1     -33.648   7.234   6.964  1.00 20.00     0.012 C 
HETATM    2  C3  UNL     1     -34.190   6.386   6.309  1.00 20.00    -0.117 C 
HETATM    3  C7  UNL     1     -34.854   5.345   5.511  1.00 20.00     0.094 C 
ENDROOT
BRANCH   3   4
HETATM    4  C9  UNL     1     -34.480   5.465   4.031  1.00 20.00     0.024 C 
BRANCH   4   5
HETATM    5  C8  UNL     1     -32.970   5.574   3.805  1.00 20.00     0.095 C 
BRANCH   5   6
HETATM    6  C4  UNL     1     -32.618   6.713   2.946  1.00 20.00    -0.098 C 
HETATM    7  C2  UNL     1     -32.332   7.644   2.243  1.00 20.00    -0.029 C 
BRANCH   7   8
HETATM    8  C5  UNL     1     -31.992   8.767   1.403  1.00 20.00     0.198 C 
HETATM    9  C6  UNL     1     -32.654  10.070   1.738  1.00 20.00     0.106 C 
HETATM   10  O10 UNL     1     -31.201   8.620   0.480  1.00 20.00    -0.284 OA
ENDBRANCH   7   8
ENDBRANCH   5   6
ENDBRANCH   4   5
ENDBRANCH   3   4
TORSDOF 4
ENDMDL
MODEL 3
REMARK VINA RESULT:      -5.0      1.414      2.379
REMARK  4 active torsions:
REMARK  status: ('A' for Active; 'I' for Inactive)
REMARK    1  A    between atoms: C2_2  and  C5_5 
REMARK    2  A    between atoms: C4_4  and  C8_8 
REMARK    3  A    between atoms: C7_7  and  C9_9 
REMARK    4  A    between atoms: C8_8  and  C9_9 
ROOT
HETATM    1  C1  UNL     1     -35.213   3.785   5.223  1.00 20.00     0.012 C 
HETATM    2  C3  UNL     1     -34.853   4.793   5.768  1.00 20.00    -0.117 C 
HETATM    3  C7  UNL     1     -34.417   6.027   6.438  1.00 20.00     0.094 C 
ENDROOT
BRANCH   3   4
HETATM    4  C9  UNL     1     -33.385   6.777   5.591  1.00 20.00     0.024 C 
BRANCH   4   5
HETATM    5  C8  UNL     1     -33.083   6.079   4.263  1.00 20.00     0.095 C 
BRANCH   5   6
HETATM    6  C4  UNL     1     -32.679   7.026   3.216  1.00 20.00    -0.098 C 
HETATM    7  C2  UNL     1     -32.350   7.800   2.358  1.00 20.00    -0.029 C 
BRANCH   7   8
HETATM    8  C5  UNL     1     -31.962   8.731   1.325  1.00 20.00     0.198 C 
HETATM    9  C6  UNL     1     -32.478  10.132   1.466  1.00 20.00     0.106 C 
HETATM   10  O10 UNL     1     -31.247   8.355   0.405  1.00 20.00    -0.284 OA
ENDBRANCH   7   8
ENDBRANCH   5   6
ENDBRANCH   4   5
ENDBRANCH   3   4
TORSDOF 4
ENDMDL
MODEL 4
REMARK VINA RESULT:      -4.8      1.943      5.345
REMARK  4 active torsions:
REMARK  status: ('A' for Active; 'I' for Inactive)
REMARK    1  A    between atoms: C2_2  and  C5_5 
REMARK    2  A    between atoms: C4_4  and  C8_8 
REMARK    3  A    between atoms: C7_7  and  C9_9 
REMARK    4  A    between atoms: C8_8  and  C9_9 
ROOT
HETATM    1  C1  UNL     1     -32.536   8.895  -0.480  1.00 20.00     0.012 C 
HETATM    2  C3  UNL     1     -32.452   9.055   0.707  1.00 20.00    -0.117 C 
HETATM    3  C7  UNL     1     -32.351   9.256   2.160  1.00 20.00     0.094 C 
ENDROOT
BRANCH   3   4
HETATM    4  C9  UNL     1     -31.671   8.061   2.834  1.00 20.00     0.024 C 
BRANCH   4   5
HETATM    5  C8  UNL     1     -32.386   6.736   2.560  1.00 20.00     0.095 C 
BRANCH   5   6
HETATM    6  C4  UNL     1     -33.147   6.264   3.725  1.00 20.00    -0.098 C 
HETATM    7  C2  UNL     1     -33.769   5.877   4.677  1.00 20.00    -0.029 C 
BRANCH   7   8
HETATM    8  C5  UNL     1     -34.512   5.407   5.821  1.00 20.00     0.198 C 
HETATM    9  C6  UNL     1     -35.116   4.039   5.703  1.00 20.00     0.106 C 
HETATM   10  O10 UNL     1     -34.617   6.116   6.813  1.00 20.00    -0.284 OA
ENDBRANCH   7   8
ENDBRANCH   5   6
ENDBRANCH   4   5
ENDBRANCH   3   4
TORSDOF 4
ENDMDL
MODEL 5
REMARK VINA RESULT:      -4.8     11.121     12.018
REMARK  4 active torsions:
REMARK  status: ('A' for Active; 'I' for Inactive)
REMARK    1  A    between atoms: C2_2  and  C5_5 
REMARK    2  A    between atoms: C4_4  and  C8_8 
REMARK    3  A    between atoms: C7_7  and  C9_9 
REMARK    4  A    between atoms: C8_8  and  C9_9 
ROOT
HETATM    1  C1  UNL     1     -31.889  18.952   0.672  1.00 20.00     0.012 C 
HETATM    2  C3  UNL     1     -33.046  18.632   0.701  1.00 20.00    -0.117 C 
HETATM    3  C7  UNL     1     -34.463  18.242   0.741  1.00 20.00     0.094 C 
ENDROOT
BRANCH   3   4
HETATM    4  C9  UNL     1     -34.733  17.055  -0.188  1.00 20.00     0.024 C 
BRANCH   4   5
HETATM    5  C8  UNL     1     -34.165  17.258  -1.594  1.00 20.00     0.095 C 
BRANCH   5   6
HETATM    6  C4  UNL     1     -34.103  16.003  -2.356  1.00 20.00    -0.098 C 
HETATM    7  C2  UNL     1     -34.054  14.978  -2.979  1.00 20.00    -0.029 C 
BRANCH   7   8
HETATM    8  C5  UNL     1     -33.996  13.749  -3.734  1.00 20.00     0.198 C 
HETATM    9  C6  UNL     1     -35.258  13.340  -4.434  1.00 20.00     0.106 C 
HETATM   10  O10 UNL     1     -32.954  13.108  -3.776  1.00 20.00    -0.284 OA
ENDBRANCH   7   8
ENDBRANCH   5   6
ENDBRANCH   4   5
ENDBRANCH   3   4
TORSDOF 4
ENDMDL
MODEL 6
REMARK VINA RESULT:      -4.6     11.618     12.144
REMARK  4 active torsions:
REMARK  status: ('A' for Active; 'I' for Inactive)
REMARK    1  A    between atoms: C2_2  and  C5_5 
REMARK    2  A    between atoms: C4_4  and  C8_8 
REMARK    3  A    between atoms: C7_7  and  C9_9 
REMARK    4  A    between atoms: C8_8  and  C9_9 
ROOT
HETATM    1  C1  UNL     1     -35.247  17.777   1.447  1.00 20.00     0.012 C 
HETATM    2  C3  UNL     1     -34.390  17.919   0.618  1.00 20.00    -0.117 C 
HETATM    3  C7  UNL     1     -33.338  18.097  -0.394  1.00 20.00     0.094 C 
ENDROOT
BRANCH   3   4
HETATM    4  C9  UNL     1     -33.730  17.431  -1.716  1.00 20.00     0.024 C 
BRANCH   4   5
HETATM    5  C8  UNL     1     -34.678  16.245  -1.527  1.00 20.00     0.095 C 
BRANCH   5   6
HETATM    6  C4  UNL     1     -34.711  15.367  -2.705  1.00 20.00    -0.098 C 
HETATM    7  C2  UNL     1     -34.739  14.649  -3.667  1.00 20.00    -0.029 C 
BRANCH   7   8
HETATM    8  C5  UNL     1     -34.777  13.781  -4.820  1.00 20.00     0.198 C 
HETATM    9  C6  UNL     1     -34.720  14.455  -6.159  1.00 20.00     0.106 C 
HETATM   10  O10 UNL     1     -34.849  12.568  -4.668  1.00 20.00    -0.284 OA
ENDBRANCH   7   8
ENDBRANCH   5   6
ENDBRANCH   4   5
ENDBRANCH   3   4
TORSDOF 4
ENDMDL
MODEL 7
REMARK VINA RESULT:      -4.5     11.659     12.628
REMARK  4 active torsions:
REMARK  status: ('A' for Active; 'I' for Inactive)
REMARK    1  A    between atoms: C2_2  and  C5_5 
REMARK    2  A    between atoms: C4_4  and  C8_8 
REMARK    3  A    between atoms: C7_7  and  C9_9 
REMARK    4  A    between atoms: C8_8  and  C9_9 
ROOT
HETATM    1  C1  UNL     1     -31.700  18.885   2.709  1.00 20.00     0.012 C 
HETATM    2  C3  UNL     1     -31.971  18.884   1.539  1.00 20.00    -0.117 C 
HETATM    3  C7  UNL     1     -32.297  18.884   0.106  1.00 20.00     0.094 C 
ENDROOT
BRANCH   3   4
HETATM    4  C9  UNL     1     -33.812  18.854  -0.113  1.00 20.00     0.024 C 
BRANCH   4   5
HETATM    5  C8  UNL     1     -34.370  17.432  -0.217  1.00 20.00     0.095 C 
BRANCH   5   6
HETATM    6  C4  UNL     1     -33.994  16.778  -1.477  1.00 20.00    -0.098 C 
HETATM    7  C2  UNL     1     -33.685  16.243  -2.507  1.00 20.00    -0.029 C 
BRANCH   7   8
HETATM    8  C5  UNL     1     -33.308  15.598  -3.742  1.00 20.00     0.198 C 
HETATM    9  C6  UNL     1     -33.563  14.122  -3.824  1.00 20.00     0.106 C 
HETATM   10  O10 UNL     1     -32.814  16.257  -4.648  1.00 20.00    -0.284 OA
ENDBRANCH   7   8
ENDBRANCH   5   6
ENDBRANCH   4   5
ENDBRANCH   3   4
TORSDOF 4
ENDMDL
MODEL 8
REMARK VINA RESULT:      -4.5     11.615     12.441
REMARK  4 active torsions:
REMARK  status: ('A' for Active; 'I' for Inactive)
REMARK    1  A    between atoms: C2_2  and  C5_5 
REMARK    2  A    between atoms: C4_4  and  C8_8 
REMARK    3  A    between atoms: C7_7  and  C9_9 
REMARK    4  A    between atoms: C8_8  and  C9_9 
ROOT
HETATM    1  C1  UNL     1     -34.187  16.658  -1.532  1.00 20.00     0.012 C 
HETATM    2  C3  UNL     1     -33.748  16.171  -2.537  1.00 20.00    -0.117 C 
HETATM    3  C7  UNL     1     -33.211  15.579  -3.771  1.00 20.00     0.094 C 
ENDROOT
BRANCH   3   4
HETATM    4  C9  UNL     1     -33.151  14.053  -3.668  1.00 20.00     0.024 C 
BRANCH   4   5
HETATM    5  C8  UNL     1     -34.224  13.357  -4.509  1.00 20.00     0.095 C 
BRANCH   5   6
HETATM    6  C4  UNL     1     -35.563  13.911  -4.270  1.00 20.00    -0.098 C 
HETATM    7  C2  UNL     1     -36.659  14.363  -4.074  1.00 20.00    -0.029 C 
BRANCH   7   8
HETATM    8  C5  UNL     1     -37.974  14.906  -3.831  1.00 20.00     0.198 C 
HETATM    9  C6  UNL     1     -38.034  16.360  -3.466  1.00 20.00     0.106 C 
HETATM   10  O10 UNL     1     -38.958  14.186  -3.931  1.00 20.00    -0.284 OA
ENDBRANCH   7   8
ENDBRANCH   5   6
ENDBRANCH   4   5
ENDBRANCH   3   4
TORSDOF 4
ENDMDL
MODEL 9
REMARK VINA RESULT:      -4.4     11.451     12.760
REMARK  4 active torsions:
REMARK  status: ('A' for Active; 'I' for Inactive)
REMARK    1  A    between atoms: C2_2  and  C5_5 
REMARK    2  A    between atoms: C4_4  and  C8_8 
REMARK    3  A    between atoms: C7_7  and  C9_9 
REMARK    4  A    between atoms: C8_8  and  C9_9 
ROOT
HETATM    1  C1  UNL     1     -34.545  14.815  -7.041  1.00 20.00     0.012 C 
HETATM    2  C3  UNL     1     -34.679  14.281  -5.974  1.00 20.00    -0.117 C 
HETATM    3  C7  UNL     1     -34.849  13.628  -4.668  1.00 20.00     0.094 C 
ENDROOT
BRANCH   3   4
HETATM    4  C9  UNL     1     -33.552  13.679  -3.855  1.00 20.00     0.024 C 
BRANCH   4   5
HETATM    5  C8  UNL     1     -33.011  15.100  -3.685  1.00 20.00     0.095 C 
BRANCH   5   6
HETATM    6  C4  UNL     1     -33.819  15.894  -2.750  1.00 20.00    -0.098 C 
HETATM    7  C2  UNL     1     -34.478  16.544  -1.985  1.00 20.00    -0.029 C 
BRANCH   7   8
HETATM    8  C5  UNL     1     -35.265  17.329  -1.064  1.00 20.00     0.198 C 
HETATM    9  C6  UNL     1     -34.798  17.345   0.361  1.00 20.00     0.106 C 
HETATM   10  O10 UNL     1     -36.250  17.934  -1.467  1.00 20.00    -0.284 OA
ENDBRANCH   7   8
ENDBRANCH   5   6
ENDBRANCH   4   5
ENDBRANCH   3   4
TORSDOF 4
ENDMDL
