MODEL 1
REMARK VINA RESULT:      -4.5      0.000      0.000
REMARK  3 active torsions:
REMARK  status: ('A' for Active; 'I' for Inactive)
REMARK    1  A    between atoms: C3_3  and  C7_7 
REMARK    2  A    between atoms: C4_4  and  C6_6 
REMARK    3  A    between atoms: C4_4  and  O11_11 
ROOT
HETATM    1  C1  UNL     1     -37.010  14.457  -4.079  1.00 20.00     0.074 C 
HETATM    2  C5  UNL     1     -34.754  13.352  -4.146  1.00 20.00     0.046 A 
HETATM    3  C6  UNL     1     -34.642  14.540  -3.235  1.00 20.00     0.114 A 
HETATM    4  C7  UNL     1     -35.609  14.579  -4.417  1.00 20.00     0.079 A 
HETATM    5  N9  UNL     1     -38.134  14.359  -3.807  1.00 20.00    -0.196 NA
ENDROOT
BRANCH   4   6
HETATM    6  C3  UNL     1     -35.215  15.376  -5.590  1.00 20.00    -0.012 C 
HETATM    7  C2  UNL     1     -34.822  14.851  -6.756  1.00 20.00     0.008 C 
ENDBRANCH   4   6
BRANCH   3   8
HETATM    8  C4  UNL     1     -33.403  15.331  -3.234  1.00 20.00     0.264 C 
HETATM    9  O10 UNL     1     -32.349  14.954  -3.728  1.00 20.00    -0.265 OA
BRANCH   8  10
HETATM   10  O11 UNL     1     -33.622  16.522  -2.607  1.00 20.00    -0.326 OA
HETATM   11  C8  UNL     1     -34.464  16.463  -1.452  1.00 20.00     0.213 C 
ENDBRANCH   8  10
ENDBRANCH   3   8
TORSDOF 3
ENDMDL
MODEL 2
REMARK VINA RESULT:      -4.4      2.694      4.052
REMARK  3 active torsions:
REMARK  status: ('A' for Active; 'I' for Inactive)
REMARK    1  A    between atoms: C3_3  and  C7_7 
REMARK    2  A    between atoms: C4_4  and  C6_6 
REMARK    3  A    between atoms: C4_4  and  O11_11 
ROOT
HETATM    1  C1  UNL     1     -33.731  17.409  -3.865  1.00 20.00     0.074 C 
HETATM    2  C5  UNL     1     -32.936  15.028  -3.751  1.00 20.00     0.046 A 
HETATM    3  C6  UNL     1     -34.203  15.037  -4.557  1.00 20.00     0.114 A 
HETATM    4  C7  UNL     1     -34.010  16.056  -3.435  1.00 20.00     0.079 A 
HETATM    5  N9  UNL     1     -33.508  18.494  -4.210  1.00 20.00    -0.196 NA
ENDROOT
BRANCH   4   6
HETATM    6  C3  UNL     1     -34.749  15.833  -2.182  1.00 20.00    -0.012 C 
HETATM    7  C2  UNL     1     -34.578  16.561  -1.072  1.00 20.00     0.008 C 
ENDBRANCH   4   6
BRANCH   3   8
HETATM    8  C4  UNL     1     -35.150  13.921  -4.422  1.00 20.00     0.264 C 
HETATM    9  O10 UNL     1     -34.837  12.799  -4.047  1.00 20.00    -0.265 OA
BRANCH   8  10
HETATM   10  O11 UNL     1     -36.399  14.337  -4.776  1.00 20.00    -0.326 OA
HETATM   11  C8  UNL     1     -36.474  15.106  -5.979  1.00 20.00     0.213 C 
ENDBRANCH   8  10
ENDBRANCH   3   8
TORSDOF 3
ENDMDL
MODEL 3
REMARK VINA RESULT:      -4.3      2.551      3.683
REMARK  3 active torsions:
REMARK  status: ('A' for Active; 'I' for Inactive)
REMARK    1  A    between atoms: C3_3  and  C7_7 
REMARK    2  A    between atoms: C4_4  and  C6_6 
REMARK    3  A    between atoms: C4_4  and  O11_11 
ROOT
HETATM    1  C1  UNL     1     -34.668  16.326  -1.642  1.00 20.00     0.074 C 
HETATM    2  C5  UNL     1     -36.021  16.327  -3.760  1.00 20.00     0.046 A 
HETATM    3  C6  UNL     1     -35.791  14.893  -3.378  1.00 20.00     0.114 A 
HETATM    4  C7  UNL     1     -34.739  15.947  -3.036  1.00 20.00     0.079 A 
HETATM    5  N9  UNL     1     -34.611  16.629  -0.524  1.00 20.00    -0.196 NA
ENDROOT
BRANCH   4   6
HETATM    6  C3  UNL     1     -33.518  15.977  -3.858  1.00 20.00    -0.012 C 
HETATM    7  C2  UNL     1     -33.298  16.856  -4.842  1.00 20.00     0.008 C 
ENDBRANCH   4   6
BRANCH   3   8
HETATM    8  C4  UNL     1     -35.561  13.896  -4.433  1.00 20.00     0.264 C 
HETATM    9  O10 UNL     1     -35.023  12.813  -4.246  1.00 20.00    -0.265 OA
BRANCH   8  10
HETATM   10  O11 UNL     1     -36.036  14.369  -5.620  1.00 20.00    -0.326 OA
HETATM   11  C8  UNL     1     -35.156  14.223  -6.737  1.00 20.00     0.213 C 
ENDBRANCH   8  10
ENDBRANCH   3   8
TORSDOF 3
ENDMDL
MODEL 4
REMARK VINA RESULT:      -4.3      1.885      3.514
REMARK  3 active torsions:
REMARK  status: ('A' for Active; 'I' for Inactive)
REMARK    1  A    between atoms: C3_3  and  C7_7 
REMARK    2  A    between atoms: C4_4  and  C6_6 
REMARK    3  A    between atoms: C4_4  and  O11_11 
ROOT
HETATM    1  C1  UNL     1     -36.151  17.022  -3.167  1.00 20.00     0.074 C 
HETATM    2  C5  UNL     1     -33.724  17.038  -3.820  1.00 20.00     0.046 A 
HETATM    3  C6  UNL     1     -34.222  15.632  -3.989  1.00 20.00     0.114 A 
HETATM    4  C7  UNL     1     -34.819  16.523  -2.901  1.00 20.00     0.079 A 
HETATM    5  N9  UNL     1     -37.219  17.423  -3.381  1.00 20.00    -0.196 NA
ENDROOT
BRANCH   4   6
HETATM    6  C3  UNL     1     -34.408  16.264  -1.512  1.00 20.00    -0.012 C 
HETATM    7  C2  UNL     1     -34.783  17.012  -0.467  1.00 20.00     0.008 C 
ENDBRANCH   4   6
BRANCH   3   8
HETATM    8  C4  UNL     1     -33.334  14.509  -3.657  1.00 20.00     0.264 C 
HETATM    9  O10 UNL     1     -32.122  14.610  -3.526  1.00 20.00    -0.265 OA
BRANCH   8  10
HETATM   10  O11 UNL     1     -34.070  13.369  -3.523  1.00 20.00    -0.326 OA
HETATM   11  C8  UNL     1     -35.189  13.252  -4.405  1.00 20.00     0.213 C 
ENDBRANCH   8  10
ENDBRANCH   3   8
TORSDOF 3
ENDMDL
MODEL 5
REMARK VINA RESULT:      -4.2      1.991      2.515
REMARK  3 active torsions:
REMARK  status: ('A' for Active; 'I' for Inactive)
REMARK    1  A    between atoms: C3_3  and  C7_7 
REMARK    2  A    between atoms: C4_4  and  C6_6 
REMARK    3  A    between atoms: C4_4  and  O11_11 
ROOT
HETATM    1  C1  UNL     1     -34.736  13.844  -4.334  1.00 20.00     0.074 C 
HETATM    2  C5  UNL     1     -33.256  15.875  -4.298  1.00 20.00     0.046 A 
HETATM    3  C6  UNL     1     -33.683  15.610  -2.884  1.00 20.00     0.114 A 
HETATM    4  C7  UNL     1     -34.619  15.255  -4.038  1.00 20.00     0.079 A 
HETATM    5  N9  UNL     1     -34.829  12.712  -4.571  1.00 20.00    -0.196 NA
ENDROOT
BRANCH   4   6
HETATM    6  C3  UNL     1     -35.770  16.141  -4.274  1.00 20.00    -0.012 C 
HETATM    7  C2  UNL     1     -37.028  15.711  -4.428  1.00 20.00     0.008 C 
ENDBRANCH   4   6
BRANCH   3   8
HETATM    8  C4  UNL     1     -33.963  16.744  -1.992  1.00 20.00     0.264 C 
HETATM    9  O10 UNL     1     -33.592  17.890  -2.205  1.00 20.00    -0.265 OA
BRANCH   8  10
HETATM   10  O11 UNL     1     -34.685  16.314  -0.919  1.00 20.00    -0.326 OA
HETATM   11  C8  UNL     1     -34.853  17.268   0.133  1.00 20.00     0.213 C 
ENDBRANCH   8  10
ENDBRANCH   3   8
TORSDOF 3
ENDMDL
MODEL 6
REMARK VINA RESULT:      -4.1      1.993      2.719
REMARK  3 active torsions:
REMARK  status: ('A' for Active; 'I' for Inactive)
REMARK    1  A    between atoms: C3_3  and  C7_7 
REMARK    2  A    between atoms: C4_4  and  C6_6 
REMARK    3  A    between atoms: C4_4  and  O11_11 
ROOT
HETATM    1  C1  UNL     1     -34.878  13.777  -4.227  1.00 20.00     0.074 C 
HETATM    2  C5  UNL     1     -33.840  16.065  -4.290  1.00 20.00     0.046 A 
HETATM    3  C6  UNL     1     -33.880  15.632  -2.853  1.00 20.00     0.114 A 
HETATM    4  C7  UNL     1     -34.967  15.161  -3.817  1.00 20.00     0.079 A 
HETATM    5  N9  UNL     1     -34.806  12.666  -4.556  1.00 20.00    -0.196 NA
ENDROOT
BRANCH   4   6
HETATM    6  C3  UNL     1     -36.289  15.802  -3.714  1.00 20.00    -0.012 C 
HETATM    7  C2  UNL     1     -37.442  15.130  -3.625  1.00 20.00     0.008 C 
ENDBRANCH   4   6
BRANCH   3   8
HETATM    8  C4  UNL     1     -34.161  16.629  -1.810  1.00 20.00     0.264 C 
HETATM    9  O10 UNL     1     -34.657  16.362  -0.724  1.00 20.00    -0.265 OA
BRANCH   8  10
HETATM   10  O11 UNL     1     -33.786  17.865  -2.246  1.00 20.00    -0.326 OA
HETATM   11  C8  UNL     1     -34.633  18.944  -1.839  1.00 20.00     0.213 C 
ENDBRANCH   8  10
ENDBRANCH   3   8
TORSDOF 3
ENDMDL
MODEL 7
REMARK VINA RESULT:      -4.1      3.011      4.186
REMARK  3 active torsions:
REMARK  status: ('A' for Active; 'I' for Inactive)
REMARK    1  A    between atoms: C3_3  and  C7_7 
REMARK    2  A    between atoms: C4_4  and  C6_6 
REMARK    3  A    between atoms: C4_4  and  O11_11 
ROOT
HETATM    1  C1  UNL     1     -33.685  15.757  -4.328  1.00 20.00     0.074 C 
HETATM    2  C5  UNL     1     -35.193  13.765  -4.050  1.00 20.00     0.046 A 
HETATM    3  C6  UNL     1     -36.014  14.865  -4.658  1.00 20.00     0.114 A 
HETATM    4  C7  UNL     1     -34.871  15.210  -3.705  1.00 20.00     0.079 A 
HETATM    5  N9  UNL     1     -32.735  16.195  -4.828  1.00 20.00    -0.196 NA
ENDROOT
BRANCH   4   6
HETATM    6  C3  UNL     1     -35.229  15.628  -2.339  1.00 20.00    -0.012 C 
HETATM    7  C2  UNL     1     -34.466  16.416  -1.573  1.00 20.00     0.008 C 
ENDBRANCH   4   6
BRANCH   3   8
HETATM    8  C4  UNL     1     -37.419  15.020  -4.255  1.00 20.00     0.264 C 
HETATM    9  O10 UNL     1     -38.064  14.160  -3.670  1.00 20.00    -0.265 OA
BRANCH   8  10
HETATM   10  O11 UNL     1     -37.869  16.250  -4.632  1.00 20.00    -0.326 OA
HETATM   11  C8  UNL     1     -37.328  16.755  -5.857  1.00 20.00     0.213 C 
ENDBRANCH   8  10
ENDBRANCH   3   8
TORSDOF 3
ENDMDL
MODEL 8
REMARK VINA RESULT:      -4.1      2.001      2.412
REMARK  3 active torsions:
REMARK  status: ('A' for Active; 'I' for Inactive)
REMARK    1  A    between atoms: C3_3  and  C7_7 
REMARK    2  A    between atoms: C4_4  and  C6_6 
REMARK    3  A    between atoms: C4_4  and  O11_11 
ROOT
HETATM    1  C1  UNL     1     -34.461  13.640  -4.701  1.00 20.00     0.074 C 
HETATM    2  C5  UNL     1     -32.915  15.198  -3.477  1.00 20.00     0.046 A 
HETATM    3  C6  UNL     1     -34.318  15.554  -3.076  1.00 20.00     0.114 A 
HETATM    4  C7  UNL     1     -34.045  15.007  -4.476  1.00 20.00     0.079 A 
HETATM    5  N9  UNL     1     -34.795  12.543  -4.881  1.00 20.00    -0.196 NA
ENDROOT
BRANCH   4   6
HETATM    6  C3  UNL     1     -34.067  15.963  -5.594  1.00 20.00    -0.012 C 
HETATM    7  C2  UNL     1     -34.233  15.614  -6.875  1.00 20.00     0.008 C 
ENDBRANCH   4   6
BRANCH   3   8
HETATM    8  C4  UNL     1     -34.668  16.966  -2.861  1.00 20.00     0.264 C 
HETATM    9  O10 UNL     1     -35.779  17.435  -3.064  1.00 20.00    -0.265 OA
BRANCH   8  10
HETATM   10  O11 UNL     1     -33.574  17.643  -2.409  1.00 20.00    -0.326 OA
HETATM   11  C8  UNL     1     -33.550  17.906  -1.003  1.00 20.00     0.213 C 
ENDBRANCH   8  10
ENDBRANCH   3   8
TORSDOF 3
ENDMDL
MODEL 9
REMARK VINA RESULT:      -4.1      2.957      4.169
REMARK  3 active torsions:
REMARK  status: ('A' for Active; 'I' for Inactive)
REMARK    1  A    between atoms: C3_3  and  C7_7 
REMARK    2  A    between atoms: C4_4  and  C6_6 
REMARK    3  A    between atoms: C4_4  and  O11_11 
ROOT
HETATM    1  C1  UNL     1     -34.704  16.138  -1.797  1.00 20.00     0.074 C 
HETATM    2  C5  UNL     1     -35.229  16.436  -4.236  1.00 20.00     0.046 A 
HETATM    3  C6  UNL     1     -36.461  15.886  -3.579  1.00 20.00     0.114 A 
HETATM    4  C7  UNL     1     -35.082  15.507  -3.043  1.00 20.00     0.079 A 
HETATM    5  N9  UNL     1     -34.402  16.644  -0.797  1.00 20.00    -0.196 NA
ENDROOT
BRANCH   4   6
HETATM    6  C3  UNL     1     -34.582  14.158  -3.351  1.00 20.00    -0.012 C 
HETATM    7  C2  UNL     1     -33.333  13.895  -3.754  1.00 20.00     0.008 C 
ENDBRANCH   4   6
BRANCH   3   8
HETATM    8  C4  UNL     1     -37.292  14.916  -4.307  1.00 20.00     0.264 C 
HETATM    9  O10 UNL     1     -38.065  14.136  -3.768  1.00 20.00    -0.265 OA
BRANCH   8  10
HETATM   10  O11 UNL     1     -37.061  15.031  -5.645  1.00 20.00    -0.326 OA
HETATM   11  C8  UNL     1     -38.173  15.482  -6.425  1.00 20.00     0.213 C 
ENDBRANCH   8  10
ENDBRANCH   3   8
TORSDOF 3
ENDMDL
