MODEL 1
REMARK VINA RESULT:      -4.5      0.000      0.000
REMARK  2 active torsions:
REMARK  status: ('A' for Active; 'I' for Inactive)
REMARK    1  A    between atoms: C7_7  and  O11_11 
REMARK    2  A    between atoms: C10_10  and  O11_11 
ROOT
HETATM    1  C1  UNL     1     -34.623  15.909  -5.069  1.00 20.00    -0.019 C 
HETATM    2  C2  UNL     1     -33.314  15.999  -4.760  1.00 20.00    -0.019 C 
HETATM    3  C3  UNL     1     -34.700  13.652  -4.088  1.00 20.00    -0.019 C 
HETATM    4  C4  UNL     1     -33.390  13.742  -3.778  1.00 20.00    -0.019 C 
HETATM    5  C5  UNL     1     -35.276  15.057  -3.990  1.00 20.00     0.060 C 
HETATM    6  C6  UNL     1     -33.103  15.205  -3.479  1.00 20.00     0.060 C 
HETATM    7  C7  UNL     1     -34.440  15.517  -2.785  1.00 20.00     0.144 C 
ENDROOT
BRANCH   7   8
HETATM    8  O11 UNL     1     -34.624  16.879  -2.446  1.00 20.00    -0.379 OA
BRANCH   8   9
HETATM    9  C10 UNL     1     -33.893  17.234  -1.277  1.00 20.00     0.114 C 
HETATM   10  C8  UNL     1     -33.374  18.656  -1.425  1.00 20.00     0.039 C 
HETATM   11  C9  UNL     1     -34.791  17.083  -0.059  1.00 20.00     0.039 C 
ENDBRANCH   8   9
ENDBRANCH   7   8
TORSDOF 2
ENDMDL
MODEL 2
REMARK VINA RESULT:      -4.5      1.914      4.210
REMARK  2 active torsions:
REMARK  status: ('A' for Active; 'I' for Inactive)
REMARK    1  A    between atoms: C7_7  and  O11_11 
REMARK    2  A    between atoms: C10_10  and  O11_11 
ROOT
HETATM    1  C1  UNL     1     -34.714  13.649  -3.861  1.00 20.00    -0.019 C 
HETATM    2  C2  UNL     1     -33.385  13.846  -3.762  1.00 20.00    -0.019 C 
HETATM    3  C3  UNL     1     -35.116  15.753  -2.643  1.00 20.00    -0.019 C 
HETATM    4  C4  UNL     1     -33.785  15.949  -2.545  1.00 20.00    -0.019 C 
HETATM    5  C5  UNL     1     -35.360  15.024  -3.957  1.00 20.00     0.060 C 
HETATM    6  C6  UNL     1     -33.153  15.350  -3.792  1.00 20.00     0.060 C 
HETATM    7  C7  UNL     1     -34.272  15.742  -4.772  1.00 20.00     0.144 C 
ENDROOT
BRANCH   7   8
HETATM    8  O11 UNL     1     -34.110  15.235  -6.084  1.00 20.00    -0.379 OA
BRANCH   8   9
HETATM    9  C10 UNL     1     -35.183  15.624  -6.934  1.00 20.00     0.114 C 
HETATM   10  C8  UNL     1     -34.786  16.878  -7.699  1.00 20.00     0.039 C 
HETATM   11  C9  UNL     1     -35.524  14.475  -7.870  1.00 20.00     0.039 C 
ENDBRANCH   8   9
ENDBRANCH   7   8
TORSDOF 2
ENDMDL
MODEL 3
REMARK VINA RESULT:      -4.4      1.175      2.097
REMARK  2 active torsions:
REMARK  status: ('A' for Active; 'I' for Inactive)
REMARK    1  A    between atoms: C7_7  and  O11_11 
REMARK    2  A    between atoms: C10_10  and  O11_11 
ROOT
HETATM    1  C1  UNL     1     -32.740  14.820  -3.814  1.00 20.00    -0.019 C 
HETATM    2  C2  UNL     1     -33.445  13.676  -3.707  1.00 20.00    -0.019 C 
HETATM    3  C3  UNL     1     -34.083  15.466  -5.774  1.00 20.00    -0.019 C 
HETATM    4  C4  UNL     1     -34.789  14.322  -5.668  1.00 20.00    -0.019 C 
HETATM    5  C5  UNL     1     -33.688  15.877  -4.363  1.00 20.00     0.060 C 
HETATM    6  C6  UNL     1     -34.857  13.978  -4.188  1.00 20.00     0.060 C 
HETATM    7  C7  UNL     1     -34.981  15.420  -3.668  1.00 20.00     0.144 C 
ENDROOT
BRANCH   7   8
HETATM    8  O11 UNL     1     -34.949  15.544  -2.258  1.00 20.00    -0.379 OA
BRANCH   8   9
HETATM    9  C10 UNL     1     -34.932  16.907  -1.850  1.00 20.00     0.114 C 
HETATM   10  C8  UNL     1     -36.243  17.566  -2.250  1.00 20.00     0.039 C 
HETATM   11  C9  UNL     1     -34.697  16.978  -0.349  1.00 20.00     0.039 C 
ENDBRANCH   8   9
ENDBRANCH   7   8
TORSDOF 2
ENDMDL
MODEL 4
REMARK VINA RESULT:      -4.4      0.668      1.253
REMARK  2 active torsions:
REMARK  status: ('A' for Active; 'I' for Inactive)
REMARK    1  A    between atoms: C7_7  and  O11_11 
REMARK    2  A    between atoms: C10_10  and  O11_11 
ROOT
HETATM    1  C1  UNL     1     -35.136  15.394  -5.312  1.00 20.00    -0.019 C 
HETATM    2  C2  UNL     1     -33.851  15.798  -5.318  1.00 20.00    -0.019 C 
HETATM    3  C3  UNL     1     -34.556  13.566  -3.767  1.00 20.00    -0.019 C 
HETATM    4  C4  UNL     1     -33.269  13.970  -3.774  1.00 20.00    -0.019 C 
HETATM    5  C5  UNL     1     -35.413  14.813  -3.933  1.00 20.00     0.060 C 
HETATM    6  C6  UNL     1     -33.278  15.481  -3.944  1.00 20.00     0.060 C 
HETATM    7  C7  UNL     1     -34.532  15.755  -3.097  1.00 20.00     0.144 C 
ENDROOT
BRANCH   7   8
HETATM    8  O11 UNL     1     -34.966  17.103  -3.105  1.00 20.00    -0.379 OA
BRANCH   8   9
HETATM    9  C10 UNL     1     -34.764  17.728  -1.842  1.00 20.00     0.114 C 
HETATM   10  C8  UNL     1     -34.614  16.657  -0.772  1.00 20.00     0.039 C 
HETATM   11  C9  UNL     1     -33.540  18.628  -1.918  1.00 20.00     0.039 C 
ENDBRANCH   8   9
ENDBRANCH   7   8
TORSDOF 2
ENDMDL
MODEL 5
REMARK VINA RESULT:      -4.3      1.538      3.532
REMARK  2 active torsions:
REMARK  status: ('A' for Active; 'I' for Inactive)
REMARK    1  A    between atoms: C7_7  and  O11_11 
REMARK    2  A    between atoms: C10_10  and  O11_11 
ROOT
HETATM    1  C1  UNL     1     -33.800  16.194  -2.458  1.00 20.00    -0.019 C 
HETATM    2  C2  UNL     1     -35.057  15.716  -2.384  1.00 20.00    -0.019 C 
HETATM    3  C3  UNL     1     -33.105  14.182  -3.697  1.00 20.00    -0.019 C 
HETATM    4  C4  UNL     1     -34.364  13.703  -3.623  1.00 20.00    -0.019 C 
HETATM    5  C5  UNL     1     -33.212  15.698  -3.771  1.00 20.00     0.060 C 
HETATM    6  C6  UNL     1     -35.299  14.903  -3.648  1.00 20.00     0.060 C 
HETATM    7  C7  UNL     1     -34.482  15.753  -4.636  1.00 20.00     0.144 C 
ENDROOT
BRANCH   7   8
HETATM    8  O11 UNL     1     -34.981  17.062  -4.839  1.00 20.00    -0.379 OA
BRANCH   8   9
HETATM    9  C10 UNL     1     -34.800  17.491  -6.185  1.00 20.00     0.114 C 
HETATM   10  C8  UNL     1     -33.692  18.532  -6.233  1.00 20.00     0.039 C 
HETATM   11  C9  UNL     1     -34.483  16.285  -7.056  1.00 20.00     0.039 C 
ENDBRANCH   8   9
ENDBRANCH   7   8
TORSDOF 2
ENDMDL
MODEL 6
REMARK VINA RESULT:      -4.3     12.497     14.524
REMARK  2 active torsions:
REMARK  status: ('A' for Active; 'I' for Inactive)
REMARK    1  A    between atoms: C7_7  and  O11_11 
REMARK    2  A    between atoms: C10_10  and  O11_11 
ROOT
HETATM    1  C1  UNL     1     -40.648   5.792  -0.406  1.00 20.00    -0.019 C 
HETATM    2  C2  UNL     1     -41.284   6.526  -1.340  1.00 20.00    -0.019 C 
HETATM    3  C3  UNL     1     -42.781   5.449   0.778  1.00 20.00    -0.019 C 
HETATM    4  C4  UNL     1     -43.417   6.184  -0.158  1.00 20.00    -0.019 C 
HETATM    5  C5  UNL     1     -41.633   4.737   0.076  1.00 20.00     0.060 C 
HETATM    6  C6  UNL     1     -42.689   5.956  -1.474  1.00 20.00     0.060 C 
HETATM    7  C7  UNL     1     -42.364   4.470  -1.250  1.00 20.00     0.144 C 
ENDROOT
BRANCH   7   8
HETATM    8  O11 UNL     1     -41.545   3.889  -2.248  1.00 20.00    -0.379 OA
BRANCH   8   9
HETATM    9  C10 UNL     1     -42.277   2.984  -3.068  1.00 20.00     0.114 C 
HETATM   10  C8  UNL     1     -41.316   1.977  -3.684  1.00 20.00     0.039 C 
HETATM   11  C9  UNL     1     -43.349   2.304  -2.231  1.00 20.00     0.039 C 
ENDBRANCH   8   9
ENDBRANCH   7   8
TORSDOF 2
ENDMDL
MODEL 7
REMARK VINA RESULT:      -4.3      1.458      3.901
REMARK  2 active torsions:
REMARK  status: ('A' for Active; 'I' for Inactive)
REMARK    1  A    between atoms: C7_7  and  O11_11 
REMARK    2  A    between atoms: C10_10  and  O11_11 
ROOT
HETATM    1  C1  UNL     1     -34.955  18.098  -3.207  1.00 20.00    -0.019 C 
HETATM    2  C2  UNL     1     -35.970  17.332  -2.762  1.00 20.00    -0.019 C 
HETATM    3  C3  UNL     1     -33.596  17.428  -1.266  1.00 20.00    -0.019 C 
HETATM    4  C4  UNL     1     -34.612  16.661  -0.820  1.00 20.00    -0.019 C 
HETATM    5  C5  UNL     1     -33.663  17.412  -2.786  1.00 20.00     0.060 C 
HETATM    6  C6  UNL     1     -35.349  16.142  -2.045  1.00 20.00     0.060 C 
HETATM    7  C7  UNL     1     -34.111  15.949  -2.937  1.00 20.00     0.144 C 
ENDROOT
BRANCH   7   8
HETATM    8  O11 UNL     1     -34.398  15.572  -4.271  1.00 20.00    -0.379 OA
BRANCH   8   9
HETATM    9  C10 UNL     1     -34.047  14.216  -4.522  1.00 20.00     0.114 C 
HETATM   10  C8  UNL     1     -32.952  13.795  -3.553  1.00 20.00     0.039 C 
HETATM   11  C9  UNL     1     -35.286  13.345  -4.390  1.00 20.00     0.039 C 
ENDBRANCH   8   9
ENDBRANCH   7   8
TORSDOF 2
ENDMDL
MODEL 8
REMARK VINA RESULT:      -4.2      0.963      2.153
REMARK  2 active torsions:
REMARK  status: ('A' for Active; 'I' for Inactive)
REMARK    1  A    between atoms: C7_7  and  O11_11 
REMARK    2  A    between atoms: C10_10  and  O11_11 
ROOT
HETATM    1  C1  UNL     1     -34.265  14.318  -3.432  1.00 20.00    -0.019 C 
HETATM    2  C2  UNL     1     -35.483  14.842  -3.672  1.00 20.00    -0.019 C 
HETATM    3  C3  UNL     1     -33.219  16.206  -4.619  1.00 20.00    -0.019 C 
HETATM    4  C4  UNL     1     -34.438  16.730  -4.858  1.00 20.00    -0.019 C 
HETATM    5  C5  UNL     1     -33.301  15.486  -3.280  1.00 20.00     0.060 C 
HETATM    6  C6  UNL     1     -35.324  16.355  -3.680  1.00 20.00     0.060 C 
HETATM    7  C7  UNL     1     -34.246  16.485  -2.591  1.00 20.00     0.144 C 
ENDROOT
BRANCH   7   8
HETATM    8  O11 UNL     1     -34.662  16.082  -1.299  1.00 20.00    -0.379 OA
BRANCH   8   9
HETATM    9  C10 UNL     1     -34.562  17.146  -0.358  1.00 20.00     0.114 C 
HETATM   10  C8  UNL     1     -33.320  17.969  -0.663  1.00 20.00     0.039 C 
HETATM   11  C9  UNL     1     -35.828  17.987  -0.418  1.00 20.00     0.039 C 
ENDBRANCH   8   9
ENDBRANCH   7   8
TORSDOF 2
ENDMDL
MODEL 9
REMARK VINA RESULT:      -4.2      1.982      3.375
REMARK  2 active torsions:
REMARK  status: ('A' for Active; 'I' for Inactive)
REMARK    1  A    between atoms: C7_7  and  O11_11 
REMARK    2  A    between atoms: C10_10  and  O11_11 
ROOT
HETATM    1  C1  UNL     1     -35.407  17.159  -6.531  1.00 20.00    -0.019 C 
HETATM    2  C2  UNL     1     -34.513  16.712  -7.435  1.00 20.00    -0.019 C 
HETATM    3  C3  UNL     1     -36.542  14.973  -6.572  1.00 20.00    -0.019 C 
HETATM    4  C4  UNL     1     -35.647  14.526  -7.476  1.00 20.00    -0.019 C 
HETATM    5  C5  UNL     1     -35.811  15.964  -5.678  1.00 20.00     0.060 C 
HETATM    6  C6  UNL     1     -34.328  15.223  -7.180  1.00 20.00     0.060 C 
HETATM    7  C7  UNL     1     -34.462  15.227  -5.647  1.00 20.00     0.144 C 
ENDROOT
BRANCH   7   8
HETATM    8  O11 UNL     1     -33.439  15.932  -4.968  1.00 20.00    -0.379 OA
BRANCH   8   9
HETATM    9  C10 UNL     1     -33.100  15.307  -3.734  1.00 20.00     0.114 C 
HETATM   10  C8  UNL     1     -33.806  16.029  -2.597  1.00 20.00     0.039 C 
HETATM   11  C9  UNL     1     -33.482  13.836  -3.796  1.00 20.00     0.039 C 
ENDBRANCH   8   9
ENDBRANCH   7   8
TORSDOF 2
ENDMDL
