MODEL 1
REMARK VINA RESULT:      -4.7      0.000      0.000
REMARK  1 active torsions:
REMARK  status: ('A' for Active; 'I' for Inactive)
REMARK    1  A    between atoms: C3_3  and  C6_6 
ROOT
HETATM    1  C1  UNL     1     -33.794  17.394  -2.918  1.00 20.00     0.005 C 
HETATM    2  C2  UNL     1     -34.375  16.495  -2.105  1.00 20.00     0.040 C 
HETATM    3  C4  UNL     1     -33.563  17.136  -4.372  1.00 20.00     0.033 C 
HETATM    4  C5  UNL     1     -34.353  15.919  -4.839  1.00 20.00     0.049 C 
HETATM    5  C6  UNL     1     -34.317  14.798  -3.795  1.00 20.00     0.116 C 
HETATM    6  C7  UNL     1     -34.642  16.775  -0.660  1.00 20.00     0.076 C 
HETATM    7  C8  UNL     1     -32.947  14.132  -3.664  1.00 20.00     0.054 C 
HETATM    8  O10 UNL     1     -34.776  15.235  -2.506  1.00 20.00    -0.338 OA
ENDROOT
BRANCH   5   9
HETATM    9  C3  UNL     1     -35.334  13.752  -4.151  1.00 20.00     0.269 C 
HETATM   10  O9  UNL     1     -35.042  12.599  -4.450  1.00 20.00    -0.304 OA
ENDBRANCH   5   9
TORSDOF 1
ENDMDL
MODEL 2
REMARK VINA RESULT:      -4.4     12.043     13.004
REMARK  1 active torsions:
REMARK  status: ('A' for Active; 'I' for Inactive)
REMARK    1  A    between atoms: C3_3  and  C6_6 
ROOT
HETATM    1  C1  UNL     1     -34.730   5.264   6.704  1.00 20.00     0.005 C 
HETATM    2  C2  UNL     1     -34.072   6.293   6.142  1.00 20.00     0.040 C 
HETATM    3  C4  UNL     1     -35.212   4.088   5.919  1.00 20.00     0.033 C 
HETATM    4  C5  UNL     1     -34.578   4.065   4.533  1.00 20.00     0.049 C 
HETATM    5  C6  UNL     1     -34.503   5.472   3.932  1.00 20.00     0.116 C 
HETATM    6  C7  UNL     1     -33.555   7.448   6.939  1.00 20.00     0.076 C 
HETATM    7  C8  UNL     1     -35.867   6.041   3.540  1.00 20.00     0.054 C 
HETATM    8  O10 UNL     1     -33.814   6.397   4.788  1.00 20.00    -0.338 OA
ENDROOT
BRANCH   5   9
HETATM    9  C3  UNL     1     -33.619   5.451   2.718  1.00 20.00     0.269 C 
HETATM   10  O9  UNL     1     -32.507   5.967   2.682  1.00 20.00    -0.304 OA
ENDBRANCH   5   9
TORSDOF 1
ENDMDL
MODEL 3
REMARK VINA RESULT:      -4.3     11.565     12.991
REMARK  1 active torsions:
REMARK  status: ('A' for Active; 'I' for Inactive)
REMARK    1  A    between atoms: C3_3  and  C6_6 
ROOT
HETATM    1  C1  UNL     1     -41.233   6.944  -1.324  1.00 20.00     0.005 C 
HETATM    2  C2  UNL     1     -41.983   6.713  -2.415  1.00 20.00     0.040 C 
HETATM    3  C4  UNL     1     -40.703   5.846  -0.461  1.00 20.00     0.033 C 
HETATM    4  C5  UNL     1     -40.836   4.497  -1.158  1.00 20.00     0.049 C 
HETATM    5  C6  UNL     1     -42.173   4.381  -1.896  1.00 20.00     0.116 C 
HETATM    6  C7  UNL     1     -42.476   7.814  -3.299  1.00 20.00     0.076 C 
HETATM    7  C8  UNL     1     -43.377   4.264  -0.961  1.00 20.00     0.054 C 
HETATM    8  O10 UNL     1     -42.379   5.454  -2.828  1.00 20.00    -0.338 OA
ENDROOT
BRANCH   5   9
HETATM    9  C3  UNL     1     -42.142   3.182  -2.800  1.00 20.00     0.269 C 
HETATM   10  O9  UNL     1     -41.106   2.634  -3.161  1.00 20.00    -0.304 OA
ENDBRANCH   5   9
TORSDOF 1
ENDMDL
MODEL 4
REMARK VINA RESULT:      -4.2      1.253      1.692
REMARK  1 active torsions:
REMARK  status: ('A' for Active; 'I' for Inactive)
REMARK    1  A    between atoms: C3_3  and  C6_6 
ROOT
HETATM    1  C1  UNL     1     -36.158  16.832  -2.795  1.00 20.00     0.005 C 
HETATM    2  C2  UNL     1     -35.098  16.232  -2.227  1.00 20.00     0.040 C 
HETATM    3  C4  UNL     1     -36.700  16.425  -4.126  1.00 20.00     0.033 C 
HETATM    4  C5  UNL     1     -36.124  15.081  -4.557  1.00 20.00     0.049 C 
HETATM    5  C6  UNL     1     -34.635  14.978  -4.215  1.00 20.00     0.116 C 
HETATM    6  C7  UNL     1     -34.586  16.616  -0.875  1.00 20.00     0.076 C 
HETATM    7  C8  UNL     1     -33.749  15.881  -5.075  1.00 20.00     0.054 C 
HETATM    8  O10 UNL     1     -34.374  15.217  -2.823  1.00 20.00    -0.338 OA
ENDROOT
BRANCH   5   9
HETATM    9  C3  UNL     1     -34.182  13.555  -4.379  1.00 20.00     0.269 C 
HETATM   10  O9  UNL     1     -34.953  12.607  -4.480  1.00 20.00    -0.304 OA
ENDBRANCH   5   9
TORSDOF 1
ENDMDL
MODEL 5
REMARK VINA RESULT:      -4.2      1.368      2.645
REMARK  1 active torsions:
REMARK  status: ('A' for Active; 'I' for Inactive)
REMARK    1  A    between atoms: C3_3  and  C6_6 
ROOT
HETATM    1  C1  UNL     1     -33.814  17.239  -3.359  1.00 20.00     0.005 C 
HETATM    2  C2  UNL     1     -33.931  17.078  -4.688  1.00 20.00     0.040 C 
HETATM    3  C4  UNL     1     -34.130  16.153  -2.383  1.00 20.00     0.033 C 
HETATM    4  C5  UNL     1     -34.260  14.809  -3.090  1.00 20.00     0.049 C 
HETATM    5  C6  UNL     1     -35.002  14.951  -4.423  1.00 20.00     0.116 C 
HETATM    6  C7  UNL     1     -33.573  18.155  -5.662  1.00 20.00     0.076 C 
HETATM    7  C8  UNL     1     -36.492  15.258  -4.261  1.00 20.00     0.054 C 
HETATM    8  O10 UNL     1     -34.393  15.922  -5.288  1.00 20.00    -0.338 OA
ENDROOT
BRANCH   5   9
HETATM    9  C3  UNL     1     -34.850  13.685  -5.216  1.00 20.00     0.269 C 
HETATM   10  O9  UNL     1     -34.844  12.567  -4.712  1.00 20.00    -0.304 OA
ENDBRANCH   5   9
TORSDOF 1
ENDMDL
MODEL 6
REMARK VINA RESULT:      -4.1      1.607      2.884
REMARK  1 active torsions:
REMARK  status: ('A' for Active; 'I' for Inactive)
REMARK    1  A    between atoms: C3_3  and  C6_6 
ROOT
HETATM    1  C1  UNL     1     -32.901  15.828  -4.550  1.00 20.00     0.005 C 
HETATM    2  C2  UNL     1     -33.913  16.679  -4.792  1.00 20.00     0.040 C 
HETATM    3  C4  UNL     1     -33.069  14.582  -3.744  1.00 20.00     0.033 C 
HETATM    4  C5  UNL     1     -34.545  14.259  -3.545  1.00 20.00     0.049 C 
HETATM    5  C6  UNL     1     -35.359  15.527  -3.267  1.00 20.00     0.116 C 
HETATM    6  C7  UNL     1     -33.749  17.903  -5.635  1.00 20.00     0.076 C 
HETATM    7  C8  UNL     1     -35.082  16.140  -1.894  1.00 20.00     0.054 C 
HETATM    8  O10 UNL     1     -35.191  16.521  -4.291  1.00 20.00    -0.338 OA
ENDROOT
BRANCH   5   9
HETATM    9  C3  UNL     1     -36.824  15.213  -3.373  1.00 20.00     0.269 C 
HETATM   10  O9  UNL     1     -37.258  14.140  -3.778  1.00 20.00    -0.304 OA
ENDBRANCH   5   9
TORSDOF 1
ENDMDL
MODEL 7
REMARK VINA RESULT:      -4.1      2.049      3.476
REMARK  1 active torsions:
REMARK  status: ('A' for Active; 'I' for Inactive)
REMARK    1  A    between atoms: C3_3  and  C6_6 
ROOT
HETATM    1  C1  UNL     1     -34.139  16.593  -6.443  1.00 20.00     0.005 C 
HETATM    2  C2  UNL     1     -34.588  15.337  -6.606  1.00 20.00     0.040 C 
HETATM    3  C4  UNL     1     -33.593  17.094  -5.146  1.00 20.00     0.033 C 
HETATM    4  C5  UNL     1     -33.314  15.937  -4.193  1.00 20.00     0.049 C 
HETATM    5  C6  UNL     1     -34.422  14.882  -4.259  1.00 20.00     0.116 C 
HETATM    6  C7  UNL     1     -35.095  14.829  -7.918  1.00 20.00     0.076 C 
HETATM    7  C8  UNL     1     -35.746  15.350  -3.654  1.00 20.00     0.054 C 
HETATM    8  O10 UNL     1     -34.637  14.397  -5.594  1.00 20.00    -0.338 OA
ENDROOT
BRANCH   5   9
HETATM    9  C3  UNL     1     -33.972  13.640  -3.543  1.00 20.00     0.269 C 
HETATM   10  O9  UNL     1     -32.916  13.066  -3.785  1.00 20.00    -0.304 OA
ENDBRANCH   5   9
TORSDOF 1
ENDMDL
MODEL 8
REMARK VINA RESULT:      -4.1      1.769      3.722
REMARK  1 active torsions:
REMARK  status: ('A' for Active; 'I' for Inactive)
REMARK    1  A    between atoms: C3_3  and  C6_6 
ROOT
HETATM    1  C1  UNL     1     -34.739  14.387  -6.220  1.00 20.00     0.005 C 
HETATM    2  C2  UNL     1     -34.536  15.681  -5.919  1.00 20.00     0.040 C 
HETATM    3  C4  UNL     1     -34.793  13.315  -5.180  1.00 20.00     0.033 C 
HETATM    4  C5  UNL     1     -34.926  13.918  -3.787  1.00 20.00     0.049 C 
HETATM    5  C6  UNL     1     -34.045  15.162  -3.633  1.00 20.00     0.116 C 
HETATM    6  C7  UNL     1     -34.525  16.755  -6.960  1.00 20.00     0.076 C 
HETATM    7  C8  UNL     1     -32.549  14.848  -3.593  1.00 20.00     0.054 C 
HETATM    8  O10 UNL     1     -34.313  16.151  -4.639  1.00 20.00    -0.338 OA
ENDROOT
BRANCH   5   9
HETATM    9  C3  UNL     1     -34.422  15.888  -2.373  1.00 20.00     0.269 C 
HETATM   10  O9  UNL     1     -33.668  16.653  -1.781  1.00 20.00    -0.304 OA
ENDBRANCH   5   9
TORSDOF 1
ENDMDL
MODEL 9
REMARK VINA RESULT:      -4.0      2.427      3.114
REMARK  1 active torsions:
REMARK  status: ('A' for Active; 'I' for Inactive)
REMARK    1  A    between atoms: C3_3  and  C6_6 
ROOT
HETATM    1  C1  UNL     1     -34.049  15.912  -6.545  1.00 20.00     0.005 C 
HETATM    2  C2  UNL     1     -34.271  16.532  -5.373  1.00 20.00     0.040 C 
HETATM    3  C4  UNL     1     -34.878  14.764  -7.020  1.00 20.00     0.033 C 
HETATM    4  C5  UNL     1     -36.152  14.636  -6.193  1.00 20.00     0.049 C 
HETATM    5  C6  UNL     1     -35.877  14.885  -4.707  1.00 20.00     0.116 C 
HETATM    6  C7  UNL     1     -33.464  17.708  -4.921  1.00 20.00     0.076 C 
HETATM    7  C8  UNL     1     -35.071  13.769  -4.041  1.00 20.00     0.054 C 
HETATM    8  O10 UNL     1     -35.246  16.153  -4.471  1.00 20.00    -0.338 OA
ENDROOT
BRANCH   5   9
HETATM    9  C3  UNL     1     -37.181  15.043  -3.977  1.00 20.00     0.269 C 
HETATM   10  O9  UNL     1     -37.955  14.116  -3.767  1.00 20.00    -0.304 OA
ENDBRANCH   5   9
TORSDOF 1
ENDMDL
