MODEL 1
REMARK VINA RESULT:      -4.6      0.000      0.000
REMARK  1 active torsions:
REMARK  status: ('A' for Active; 'I' for Inactive)
REMARK    1  A    between atoms: C7_7  and  C10_10 
ROOT
HETATM    1  C1  UNL     1     -34.767  17.108  -0.050  1.00 20.00     0.015 C 
HETATM    2  C2  UNL     1     -34.823  16.943  -1.239  1.00 20.00    -0.085 C 
HETATM    3  C3  UNL     1     -33.682  17.121  -4.839  1.00 20.00    -0.018 C 
HETATM    4  C4  UNL     1     -34.228  15.983  -5.300  1.00 20.00    -0.059 C 
HETATM    5  C5  UNL     1     -33.788  17.528  -3.400  1.00 20.00     0.072 C 
HETATM    6  C6  UNL     1     -34.890  16.740  -2.691  1.00 20.00     0.203 C 
HETATM    7  C7  UNL     1     -34.950  15.033  -4.360  1.00 20.00     0.151 C 
HETATM    8  C8  UNL     1     -34.187  15.637  -6.760  1.00 20.00     0.046 C 
HETATM    9  O11 UNL     1     -34.711  15.352  -2.976  1.00 20.00    -0.364 OA
ENDROOT
BRANCH   7  10
HETATM   10  C10 UNL     1     -34.523  13.577  -4.531  1.00 20.00     0.032 C 
HETATM   11  C9  UNL     1     -33.282  13.272  -3.760  1.00 20.00     0.008 C 
ENDBRANCH   7  10
TORSDOF 1
ENDMDL
MODEL 2
REMARK VINA RESULT:      -4.5      1.334      2.764
REMARK  1 active torsions:
REMARK  status: ('A' for Active; 'I' for Inactive)
REMARK    1  A    between atoms: C7_7  and  C10_10 
ROOT
HETATM    1  C1  UNL     1     -34.593  16.937  -0.359  1.00 20.00     0.015 C 
HETATM    2  C2  UNL     1     -34.414  16.493  -1.461  1.00 20.00    -0.085 C 
HETATM    3  C3  UNL     1     -35.304  14.811  -4.727  1.00 20.00    -0.018 C 
HETATM    4  C4  UNL     1     -34.459  15.459  -5.546  1.00 20.00    -0.059 C 
HETATM    5  C5  UNL     1     -35.406  15.140  -3.268  1.00 20.00     0.072 C 
HETATM    6  C6  UNL     1     -34.194  15.951  -2.807  1.00 20.00     0.203 C 
HETATM    7  C7  UNL     1     -33.591  16.592  -5.027  1.00 20.00     0.151 C 
HETATM    8  C8  UNL     1     -34.309  15.056  -6.985  1.00 20.00     0.046 C 
HETATM    9  O11 UNL     1     -34.000  17.033  -3.718  1.00 20.00    -0.364 OA
ENDROOT
BRANCH   7  10
HETATM   10  C10 UNL     1     -33.626  17.833  -5.915  1.00 20.00     0.032 C 
HETATM   11  C9  UNL     1     -33.636  19.089  -5.107  1.00 20.00     0.008 C 
ENDBRANCH   7  10
TORSDOF 1
ENDMDL
MODEL 3
REMARK VINA RESULT:      -4.5      1.991      3.813
REMARK  1 active torsions:
REMARK  status: ('A' for Active; 'I' for Inactive)
REMARK    1  A    between atoms: C7_7  and  C10_10 
ROOT
HETATM    1  C1  UNL     1     -39.185  14.984  -4.248  1.00 20.00     0.015 C 
HETATM    2  C2  UNL     1     -38.015  14.768  -4.083  1.00 20.00    -0.085 C 
HETATM    3  C3  UNL     1     -34.364  14.455  -5.013  1.00 20.00    -0.018 C 
HETATM    4  C4  UNL     1     -33.807  14.815  -3.844  1.00 20.00    -0.059 C 
HETATM    5  C5  UNL     1     -35.848  14.457  -5.220  1.00 20.00     0.072 C 
HETATM    6  C6  UNL     1     -36.585  14.504  -3.881  1.00 20.00     0.203 C 
HETATM    7  C7  UNL     1     -34.670  15.282  -2.685  1.00 20.00     0.151 C 
HETATM    8  C8  UNL     1     -32.324  14.723  -3.629  1.00 20.00     0.046 C 
HETATM    9  O11 UNL     1     -36.025  15.554  -3.092  1.00 20.00    -0.364 OA
ENDROOT
BRANCH   7  10
HETATM   10  C10 UNL     1     -34.164  16.569  -2.037  1.00 20.00     0.032 C 
HETATM   11  C9  UNL     1     -34.676  16.724  -0.643  1.00 20.00     0.008 C 
ENDBRANCH   7  10
TORSDOF 1
ENDMDL
MODEL 4
REMARK VINA RESULT:      -4.4      1.719      2.504
REMARK  1 active torsions:
REMARK  status: ('A' for Active; 'I' for Inactive)
REMARK    1  A    between atoms: C7_7  and  C10_10 
ROOT
HETATM    1  C1  UNL     1     -34.667  16.753  -0.499  1.00 20.00     0.015 C 
HETATM    2  C2  UNL     1     -34.672  16.459  -1.664  1.00 20.00    -0.085 C 
HETATM    3  C3  UNL     1     -34.230  14.255  -4.703  1.00 20.00    -0.018 C 
HETATM    4  C4  UNL     1     -35.201  14.760  -5.484  1.00 20.00    -0.059 C 
HETATM    5  C5  UNL     1     -33.994  14.751  -3.309  1.00 20.00     0.072 C 
HETATM    6  C6  UNL     1     -34.679  16.100  -3.087  1.00 20.00     0.203 C 
HETATM    7  C7  UNL     1     -36.134  15.839  -4.963  1.00 20.00     0.151 C 
HETATM    8  C8  UNL     1     -35.364  14.311  -6.908  1.00 20.00     0.046 C 
HETATM    9  O11 UNL     1     -36.031  16.001  -3.535  1.00 20.00    -0.364 OA
ENDROOT
BRANCH   7  10
HETATM   10  C10 UNL     1     -37.606  15.549  -5.244  1.00 20.00     0.032 C 
HETATM   11  C9  UNL     1     -38.231  14.751  -4.148  1.00 20.00     0.008 C 
ENDBRANCH   7  10
TORSDOF 1
ENDMDL
MODEL 5
REMARK VINA RESULT:      -4.3      1.471      4.473
REMARK  1 active torsions:
REMARK  status: ('A' for Active; 'I' for Inactive)
REMARK    1  A    between atoms: C7_7  and  C10_10 
ROOT
HETATM    1  C1  UNL     1     -34.761  14.769  -7.416  1.00 20.00     0.015 C 
HETATM    2  C2  UNL     1     -34.753  14.909  -6.223  1.00 20.00    -0.085 C 
HETATM    3  C3  UNL     1     -33.443  16.009  -2.852  1.00 20.00    -0.018 C 
HETATM    4  C4  UNL     1     -34.610  16.251  -2.230  1.00 20.00    -0.059 C 
HETATM    5  C5  UNL     1     -33.381  15.581  -4.287  1.00 20.00     0.072 C 
HETATM    6  C6  UNL     1     -34.744  15.080  -4.766  1.00 20.00     0.203 C 
HETATM    7  C7  UNL     1     -35.926  16.136  -2.980  1.00 20.00     0.151 C 
HETATM    8  C8  UNL     1     -34.655  16.594  -0.769  1.00 20.00     0.046 C 
HETATM    9  O11 UNL     1     -35.734  16.044  -4.404  1.00 20.00    -0.364 OA
ENDROOT
BRANCH   7  10
HETATM   10  C10 UNL     1     -36.849  17.332  -2.761  1.00 20.00     0.032 C 
HETATM   11  C9  UNL     1     -36.407  18.522  -3.548  1.00 20.00     0.008 C 
ENDBRANCH   7  10
TORSDOF 1
ENDMDL
MODEL 6
REMARK VINA RESULT:      -4.2      1.413      4.578
REMARK  1 active torsions:
REMARK  status: ('A' for Active; 'I' for Inactive)
REMARK    1  A    between atoms: C7_7  and  C10_10 
ROOT
HETATM    1  C1  UNL     1     -35.459  14.397  -7.672  1.00 20.00     0.015 C 
HETATM    2  C2  UNL     1     -35.464  14.681  -6.504  1.00 20.00    -0.085 C 
HETATM    3  C3  UNL     1     -34.185  14.839  -2.950  1.00 20.00    -0.018 C 
HETATM    4  C4  UNL     1     -34.697  16.026  -2.584  1.00 20.00    -0.059 C 
HETATM    5  C5  UNL     1     -34.353  14.294  -4.336  1.00 20.00     0.072 C 
HETATM    6  C6  UNL     1     -35.472  15.027  -5.078  1.00 20.00     0.203 C 
HETATM    7  C7  UNL     1     -35.443  16.892  -3.586  1.00 20.00     0.151 C 
HETATM    8  C8  UNL     1     -34.593  16.514  -1.168  1.00 20.00     0.046 C 
HETATM    9  O11 UNL     1     -35.262  16.433  -4.939  1.00 20.00    -0.364 OA
ENDROOT
BRANCH   7  10
HETATM   10  C10 UNL     1     -34.989  18.349  -3.577  1.00 20.00     0.032 C 
HETATM   11  C9  UNL     1     -33.742  18.544  -4.373  1.00 20.00     0.008 C 
ENDBRANCH   7  10
TORSDOF 1
ENDMDL
MODEL 7
REMARK VINA RESULT:      -4.1      1.813      4.164
REMARK  1 active torsions:
REMARK  status: ('A' for Active; 'I' for Inactive)
REMARK    1  A    between atoms: C7_7  and  C10_10 
ROOT
HETATM    1  C1  UNL     1     -33.999  19.079  -7.813  1.00 20.00     0.015 C 
HETATM    2  C2  UNL     1     -34.357  18.111  -7.198  1.00 20.00    -0.085 C 
HETATM    3  C3  UNL     1     -34.633  14.443  -6.324  1.00 20.00    -0.018 C 
HETATM    4  C4  UNL     1     -34.750  14.543  -4.989  1.00 20.00    -0.059 C 
HETATM    5  C5  UNL     1     -34.434  15.646  -7.197  1.00 20.00     0.072 C 
HETATM    6  C6  UNL     1     -34.794  16.929  -6.446  1.00 20.00     0.203 C 
HETATM    7  C7  UNL     1     -34.644  15.893  -4.300  1.00 20.00     0.151 C 
HETATM    8  C8  UNL     1     -35.035  13.337  -4.142  1.00 20.00     0.046 C 
HETATM    9  O11 UNL     1     -34.135  16.913  -5.179  1.00 20.00    -0.364 OA
ENDROOT
BRANCH   7  10
HETATM   10  C10 UNL     1     -33.711  15.880  -3.092  1.00 20.00     0.032 C 
HETATM   11  C9  UNL     1     -34.409  16.328  -1.850  1.00 20.00     0.008 C 
ENDBRANCH   7  10
TORSDOF 1
ENDMDL
MODEL 8
REMARK VINA RESULT:      -4.1      1.834      4.195
REMARK  1 active torsions:
REMARK  status: ('A' for Active; 'I' for Inactive)
REMARK    1  A    between atoms: C7_7  and  C10_10 
ROOT
HETATM    1  C1  UNL     1     -36.845  14.908  -7.886  1.00 20.00     0.015 C 
HETATM    2  C2  UNL     1     -36.498  15.327  -6.815  1.00 20.00    -0.085 C 
HETATM    3  C3  UNL     1     -36.496  15.704  -3.054  1.00 20.00    -0.018 C 
HETATM    4  C4  UNL     1     -35.189  15.946  -2.857  1.00 20.00    -0.059 C 
HETATM    5  C5  UNL     1     -37.056  15.417  -4.415  1.00 20.00     0.072 C 
HETATM    6  C6  UNL     1     -36.072  15.839  -5.507  1.00 20.00     0.203 C 
HETATM    7  C7  UNL     1     -34.208  15.899  -4.016  1.00 20.00     0.151 C 
HETATM    8  C8  UNL     1     -34.663  16.317  -1.500  1.00 20.00     0.046 C 
HETATM    9  O11 UNL     1     -34.787  15.303  -5.193  1.00 20.00    -0.364 OA
ENDROOT
BRANCH   7  10
HETATM   10  C10 UNL     1     -32.954  15.083  -3.710  1.00 20.00     0.032 C 
HETATM   11  C9  UNL     1     -33.234  13.617  -3.721  1.00 20.00     0.008 C 
ENDBRANCH   7  10
TORSDOF 1
ENDMDL
MODEL 9
REMARK VINA RESULT:      -4.0      1.970      3.947
REMARK  1 active torsions:
REMARK  status: ('A' for Active; 'I' for Inactive)
REMARK    1  A    between atoms: C7_7  and  C10_10 
ROOT
HETATM    1  C1  UNL     1     -38.510  16.834  -6.017  1.00 20.00     0.015 C 
HETATM    2  C2  UNL     1     -37.670  16.122  -5.538  1.00 20.00    -0.085 C 
HETATM    3  C3  UNL     1     -34.512  14.046  -5.426  1.00 20.00    -0.018 C 
HETATM    4  C4  UNL     1     -34.164  14.244  -4.144  1.00 20.00    -0.059 C 
HETATM    5  C5  UNL     1     -35.710  14.710  -6.036  1.00 20.00     0.072 C 
HETATM    6  C6  UNL     1     -36.643  15.253  -4.952  1.00 20.00     0.203 C 
HETATM    7  C7  UNL     1     -34.958  15.192  -3.261  1.00 20.00     0.151 C 
HETATM    8  C8  UNL     1     -33.013  13.502  -3.528  1.00 20.00     0.046 C 
HETATM    9  O11 UNL     1     -35.866  16.009  -4.023  1.00 20.00    -0.364 OA
ENDROOT
BRANCH   7  10
HETATM   10  C10 UNL     1     -34.078  16.165  -2.480  1.00 20.00     0.032 C 
HETATM   11  C9  UNL     1     -34.651  16.467  -1.134  1.00 20.00     0.008 C 
ENDBRANCH   7  10
TORSDOF 1
ENDMDL
