MODEL 1
REMARK VINA RESULT:      -4.6      0.000      0.000
REMARK  1 active torsions:
REMARK  status: ('A' for Active; 'I' for Inactive)
REMARK    1  A    between atoms: C4_4  and  C10_10 
ROOT
HETATM    1  C1  UNL     1     -35.727  17.753  -2.724  1.00 20.00     0.174 C 
HETATM    2  C2  UNL     1     -34.398  18.074  -2.136  1.00 20.00     0.025 A 
HETATM    3  C3  UNL     1     -33.704  16.783  -1.920  1.00 20.00     0.030 A 
HETATM    4  C4  UNL     1     -34.638  15.708  -2.379  1.00 20.00     0.130 C 
HETATM    5  C5  UNL     1     -33.977  17.687  -0.729  1.00 20.00    -0.035 A 
HETATM    6  C6  UNL     1     -32.797  18.422  -0.143  1.00 20.00     0.016 C 
HETATM    7  C7  UNL     1     -35.010  17.303   0.299  1.00 20.00     0.016 C 
HETATM    8  O11 UNL     1     -35.919  16.332  -2.606  1.00 20.00    -0.385 OA
ENDROOT
BRANCH   4   9
HETATM    9  C10 UNL     1     -34.181  15.059  -3.678  1.00 20.00     0.007 C 
HETATM   10  C8  UNL     1     -32.658  14.934  -3.715  1.00 20.00     0.012 C 
HETATM   11  C9  UNL     1     -34.832  13.687  -3.857  1.00 20.00     0.012 C 
ENDBRANCH   4   9
TORSDOF 1
ENDMDL
MODEL 2
REMARK VINA RESULT:      -4.4      1.313      1.774
REMARK  1 active torsions:
REMARK  status: ('A' for Active; 'I' for Inactive)
REMARK    1  A    between atoms: C4_4  and  C10_10 
ROOT
HETATM    1  C1  UNL     1     -33.823  17.592  -3.964  1.00 20.00     0.174 C 
HETATM    2  C2  UNL     1     -33.756  17.179  -2.535  1.00 20.00     0.025 A 
HETATM    3  C3  UNL     1     -34.404  15.849  -2.445  1.00 20.00     0.030 A 
HETATM    4  C4  UNL     1     -34.855  15.493  -3.826  1.00 20.00     0.130 C 
HETATM    5  C5  UNL     1     -34.972  17.008  -1.643  1.00 20.00    -0.035 A 
HETATM    6  C6  UNL     1     -34.731  16.994  -0.154  1.00 20.00     0.016 C 
HETATM    7  C7  UNL     1     -36.293  17.625  -2.026  1.00 20.00     0.016 C 
HETATM    8  O11 UNL     1     -34.709  16.679  -4.635  1.00 20.00    -0.385 OA
ENDROOT
BRANCH   4   9
HETATM    9  C10 UNL     1     -34.014  14.384  -4.443  1.00 20.00     0.007 C 
HETATM   10  C8  UNL     1     -32.902  13.952  -3.487  1.00 20.00     0.012 C 
HETATM   11  C9  UNL     1     -34.887  13.187  -4.819  1.00 20.00     0.012 C 
ENDBRANCH   4   9
TORSDOF 1
ENDMDL
MODEL 3
REMARK VINA RESULT:      -4.4      1.346      2.066
REMARK  1 active torsions:
REMARK  status: ('A' for Active; 'I' for Inactive)
REMARK    1  A    between atoms: C4_4  and  C10_10 
ROOT
HETATM    1  C1  UNL     1     -33.964  17.055  -4.099  1.00 20.00     0.174 C 
HETATM    2  C2  UNL     1     -33.872  16.767  -2.641  1.00 20.00     0.025 A 
HETATM    3  C3  UNL     1     -34.770  15.618  -2.376  1.00 20.00     0.030 A 
HETATM    4  C4  UNL     1     -35.390  15.243  -3.685  1.00 20.00     0.130 C 
HETATM    5  C5  UNL     1     -35.024  16.938  -1.668  1.00 20.00    -0.035 A 
HETATM    6  C6  UNL     1     -34.676  17.008  -0.202  1.00 20.00     0.016 C 
HETATM    7  C7  UNL     1     -36.216  17.784  -2.037  1.00 20.00     0.016 C 
HETATM    8  O11 UNL     1     -35.068  16.294  -4.620  1.00 20.00    -0.385 OA
ENDROOT
BRANCH   4   9
HETATM    9  C10 UNL     1     -34.845  13.931  -4.230  1.00 20.00     0.007 C 
HETATM   10  C8  UNL     1     -34.860  13.931  -5.758  1.00 20.00     0.012 C 
HETATM   11  C9  UNL     1     -33.429  13.676  -3.712  1.00 20.00     0.012 C 
ENDBRANCH   4   9
TORSDOF 1
ENDMDL
MODEL 4
REMARK VINA RESULT:      -4.3      2.626      4.007
REMARK  1 active torsions:
REMARK  status: ('A' for Active; 'I' for Inactive)
REMARK    1  A    between atoms: C4_4  and  C10_10 
ROOT
HETATM    1  C1  UNL     1     -35.352  13.491  -4.353  1.00 20.00     0.174 C 
HETATM    2  C2  UNL     1     -35.179  14.762  -3.597  1.00 20.00     0.025 A 
HETATM    3  C3  UNL     1     -34.635  15.756  -4.552  1.00 20.00     0.030 A 
HETATM    4  C4  UNL     1     -34.486  15.056  -5.866  1.00 20.00     0.130 C 
HETATM    5  C5  UNL     1     -33.833  15.402  -3.311  1.00 20.00    -0.035 A 
HETATM    6  C6  UNL     1     -33.786  16.432  -2.210  1.00 20.00     0.016 C 
HETATM    7  C7  UNL     1     -32.564  14.598  -3.427  1.00 20.00     0.016 C 
HETATM    8  O11 UNL     1     -34.686  13.649  -5.619  1.00 20.00    -0.385 OA
ENDROOT
BRANCH   4   9
HETATM    9  C10 UNL     1     -35.515  15.516  -6.888  1.00 20.00     0.007 C 
HETATM   10  C8  UNL     1     -35.051  16.793  -7.588  1.00 20.00     0.012 C 
HETATM   11  C9  UNL     1     -35.788  14.416  -7.915  1.00 20.00     0.012 C 
ENDBRANCH   4   9
TORSDOF 1
ENDMDL
MODEL 5
REMARK VINA RESULT:      -4.3      1.124      4.030
REMARK  1 active torsions:
REMARK  status: ('A' for Active; 'I' for Inactive)
REMARK    1  A    between atoms: C4_4  and  C10_10 
ROOT
HETATM    1  C1  UNL     1     -35.747  17.325  -3.493  1.00 20.00     0.174 C 
HETATM    2  C2  UNL     1     -35.184  15.980  -3.191  1.00 20.00     0.025 A 
HETATM    3  C3  UNL     1     -33.954  16.202  -2.395  1.00 20.00     0.030 A 
HETATM    4  C4  UNL     1     -33.798  17.682  -2.242  1.00 20.00     0.130 C 
HETATM    5  C5  UNL     1     -33.857  15.475  -3.726  1.00 20.00    -0.035 A 
HETATM    6  C6  UNL     1     -33.623  13.986  -3.678  1.00 20.00     0.016 C 
HETATM    7  C7  UNL     1     -33.209  16.141  -4.913  1.00 20.00     0.016 C 
HETATM    8  O11 UNL     1     -34.752  18.300  -3.132  1.00 20.00    -0.385 OA
ENDROOT
BRANCH   4   9
HETATM    9  C10 UNL     1     -34.089  18.152  -0.824  1.00 20.00     0.007 C 
HETATM   10  C8  UNL     1     -34.772  17.048  -0.017  1.00 20.00     0.012 C 
HETATM   11  C9  UNL     1     -32.805  18.603  -0.129  1.00 20.00     0.012 C 
ENDBRANCH   4   9
TORSDOF 1
ENDMDL
MODEL 6
REMARK VINA RESULT:      -4.3      2.191      4.867
REMARK  1 active torsions:
REMARK  status: ('A' for Active; 'I' for Inactive)
REMARK    1  A    between atoms: C4_4  and  C10_10 
ROOT
HETATM    1  C1  UNL     1     -35.321  13.578  -4.147  1.00 20.00     0.174 C 
HETATM    2  C2  UNL     1     -34.642  14.060  -5.381  1.00 20.00     0.025 A 
HETATM    3  C3  UNL     1     -34.554  15.535  -5.272  1.00 20.00     0.030 A 
HETATM    4  C4  UNL     1     -35.193  15.911  -3.972  1.00 20.00     0.130 C 
HETATM    5  C5  UNL     1     -35.311  14.920  -6.438  1.00 20.00    -0.035 A 
HETATM    6  C6  UNL     1     -34.648  14.978  -7.791  1.00 20.00     0.016 C 
HETATM    7  C7  UNL     1     -36.813  15.014  -6.507  1.00 20.00     0.016 C 
HETATM    8  O11 UNL     1     -35.855  14.731  -3.472  1.00 20.00    -0.385 OA
ENDROOT
BRANCH   4   9
HETATM    9  C10 UNL     1     -34.175  16.366  -2.937  1.00 20.00     0.007 C 
HETATM   10  C8  UNL     1     -33.738  17.807  -3.203  1.00 20.00     0.012 C 
HETATM   11  C9  UNL     1     -34.744  16.236  -1.523  1.00 20.00     0.012 C 
ENDBRANCH   4   9
TORSDOF 1
ENDMDL
MODEL 7
REMARK VINA RESULT:      -4.2      1.930      4.138
REMARK  1 active torsions:
REMARK  status: ('A' for Active; 'I' for Inactive)
REMARK    1  A    between atoms: C4_4  and  C10_10 
ROOT
HETATM    1  C1  UNL     1     -33.130  14.996  -3.754  1.00 20.00     0.174 C 
HETATM    2  C2  UNL     1     -33.124  16.222  -4.598  1.00 20.00     0.025 A 
HETATM    3  C3  UNL     1     -33.977  17.218  -3.908  1.00 20.00     0.030 A 
HETATM    4  C4  UNL     1     -34.486  16.563  -2.663  1.00 20.00     0.130 C 
HETATM    5  C5  UNL     1     -34.348  16.766  -5.311  1.00 20.00    -0.035 A 
HETATM    6  C6  UNL     1     -34.106  17.746  -6.432  1.00 20.00     0.016 C 
HETATM    7  C7  UNL     1     -35.553  15.890  -5.537  1.00 20.00     0.016 C 
HETATM    8  O11 UNL     1     -34.155  15.162  -2.758  1.00 20.00    -0.385 OA
ENDROOT
BRANCH   4   9
HETATM    9  C10 UNL     1     -33.838  17.126  -1.406  1.00 20.00     0.007 C 
HETATM   10  C8  UNL     1     -33.439  18.588  -1.610  1.00 20.00     0.012 C 
HETATM   11  C9  UNL     1     -34.777  16.994  -0.206  1.00 20.00     0.012 C 
ENDBRANCH   4   9
TORSDOF 1
ENDMDL
MODEL 8
REMARK VINA RESULT:      -4.2      1.696      4.623
REMARK  1 active torsions:
REMARK  status: ('A' for Active; 'I' for Inactive)
REMARK    1  A    between atoms: C4_4  and  C10_10 
ROOT
HETATM    1  C1  UNL     1     -32.886  15.727  -4.309  1.00 20.00     0.174 C 
HETATM    2  C2  UNL     1     -34.086  15.802  -5.188  1.00 20.00     0.025 A 
HETATM    3  C3  UNL     1     -35.270  15.769  -4.297  1.00 20.00     0.030 A 
HETATM    4  C4  UNL     1     -34.754  15.667  -2.896  1.00 20.00     0.130 C 
HETATM    5  C5  UNL     1     -35.096  14.679  -5.342  1.00 20.00    -0.035 A 
HETATM    6  C6  UNL     1     -36.001  14.735  -6.547  1.00 20.00     0.016 C 
HETATM    7  C7  UNL     1     -34.745  13.273  -4.927  1.00 20.00     0.016 C 
HETATM    8  O11 UNL     1     -33.341  15.389  -2.986  1.00 20.00    -0.385 OA
ENDROOT
BRANCH   4   9
HETATM    9  C10 UNL     1     -34.940  16.960  -2.115  1.00 20.00     0.007 C 
HETATM   10  C8  UNL     1     -36.350  17.516  -2.316  1.00 20.00     0.012 C 
HETATM   11  C9  UNL     1     -34.662  16.739  -0.628  1.00 20.00     0.012 C 
ENDBRANCH   4   9
TORSDOF 1
ENDMDL
MODEL 9
REMARK VINA RESULT:      -4.2      1.954      3.050
REMARK  1 active torsions:
REMARK  status: ('A' for Active; 'I' for Inactive)
REMARK    1  A    between atoms: C4_4  and  C10_10 
ROOT
HETATM    1  C1  UNL     1     -32.969  15.359  -3.962  1.00 20.00     0.174 C 
HETATM    2  C2  UNL     1     -33.744  15.426  -2.693  1.00 20.00     0.025 A 
HETATM    3  C3  UNL     1     -35.124  15.824  -3.056  1.00 20.00     0.030 A 
HETATM    4  C4  UNL     1     -35.148  15.994  -4.543  1.00 20.00     0.130 C 
HETATM    5  C5  UNL     1     -34.319  16.708  -2.118  1.00 20.00    -0.035 A 
HETATM    6  C6  UNL     1     -34.706  16.689  -0.660  1.00 20.00     0.016 C 
HETATM    7  C7  UNL     1     -33.811  18.049  -2.581  1.00 20.00     0.016 C 
HETATM    8  O11 UNL     1     -33.778  15.953  -4.993  1.00 20.00    -0.385 OA
ENDROOT
BRANCH   4   9
HETATM    9  C10 UNL     1     -35.917  14.882  -5.241  1.00 20.00     0.007 C 
HETATM   10  C8  UNL     1     -37.418  15.171  -5.227  1.00 20.00     0.012 C 
HETATM   11  C9  UNL     1     -35.424  14.702  -6.677  1.00 20.00     0.012 C 
ENDBRANCH   4   9
TORSDOF 1
ENDMDL
