MODEL 1
REMARK VINA RESULT:      -5.1      0.000      0.000
REMARK  1 active torsions:
REMARK  status: ('A' for Active; 'I' for Inactive)
REMARK    1  A    between atoms: C9_9  and  O10_10 
ROOT
HETATM    1  C1  UNL     1     -34.619  16.636  -0.746  1.00 20.00     0.012 C 
HETATM    2  C2  UNL     1     -34.827  16.356  -1.895  1.00 20.00    -0.112 C 
HETATM    3  C3  UNL     1     -35.186  14.276  -5.657  1.00 20.00     0.007 C 
HETATM    4  C4  UNL     1     -34.072  15.320  -5.484  1.00 20.00     0.009 C 
HETATM    5  C5  UNL     1     -36.172  14.929  -3.445  1.00 20.00     0.024 C 
HETATM    6  C6  UNL     1     -35.080  16.014  -3.302  1.00 20.00     0.071 C 
HETATM    7  C7  UNL     1     -35.447  13.805  -4.212  1.00 20.00     0.016 C 
HETATM    8  C8  UNL     1     -33.851  15.337  -3.956  1.00 20.00     0.030 C 
HETATM    9  C9  UNL     1     -34.055  13.863  -3.581  1.00 20.00     0.127 C 
ENDROOT
BRANCH   9  10
HETATM   10  O10 UNL     1     -33.133  12.989  -4.200  1.00 20.00    -0.395 OA
HETATM   11  H22 UNL     1     -33.383  12.922  -5.139  1.00 20.00     0.210 HD
ENDBRANCH   9  10
TORSDOF 1
ENDMDL
MODEL 2
REMARK VINA RESULT:      -4.9      1.472      1.931
REMARK  1 active torsions:
REMARK  status: ('A' for Active; 'I' for Inactive)
REMARK    1  A    between atoms: C9_9  and  O10_10 
ROOT
HETATM    1  C1  UNL     1     -34.259  17.237  -0.839  1.00 20.00     0.012 C 
HETATM    2  C2  UNL     1     -34.061  16.630  -1.856  1.00 20.00    -0.112 C 
HETATM    3  C3  UNL     1     -34.547  14.361  -5.493  1.00 20.00     0.007 C 
HETATM    4  C4  UNL     1     -33.954  13.671  -4.255  1.00 20.00     0.009 C 
HETATM    5  C5  UNL     1     -34.464  16.579  -4.322  1.00 20.00     0.024 C 
HETATM    6  C6  UNL     1     -33.818  15.886  -3.100  1.00 20.00     0.071 C 
HETATM    7  C7  UNL     1     -35.402  15.490  -4.883  1.00 20.00     0.016 C 
HETATM    8  C8  UNL     1     -34.522  14.507  -3.089  1.00 20.00     0.030 C 
HETATM    9  C9  UNL     1     -35.929  14.856  -3.595  1.00 20.00     0.127 C 
ENDROOT
BRANCH   9  10
HETATM   10  O10 UNL     1     -36.743  13.726  -3.829  1.00 20.00    -0.395 OA
HETATM   11  H22 UNL     1     -36.922  13.314  -2.965  1.00 20.00     0.210 HD
ENDBRANCH   9  10
TORSDOF 1
ENDMDL
MODEL 3
REMARK VINA RESULT:      -4.6      1.704      2.390
REMARK  1 active torsions:
REMARK  status: ('A' for Active; 'I' for Inactive)
REMARK    1  A    between atoms: C9_9  and  O10_10 
ROOT
HETATM    1  C1  UNL     1     -34.681  16.952  -0.768  1.00 20.00     0.012 C 
HETATM    2  C2  UNL     1     -34.504  16.180  -1.671  1.00 20.00    -0.112 C 
HETATM    3  C3  UNL     1     -34.496  14.232  -5.520  1.00 20.00     0.007 C 
HETATM    4  C4  UNL     1     -35.353  13.646  -4.388  1.00 20.00     0.009 C 
HETATM    5  C5  UNL     1     -33.461  15.865  -3.920  1.00 20.00     0.024 C 
HETATM    6  C6  UNL     1     -34.288  15.235  -2.775  1.00 20.00     0.071 C 
HETATM    7  C7  UNL     1     -34.393  15.723  -5.140  1.00 20.00     0.016 C 
HETATM    8  C8  UNL     1     -35.614  14.871  -3.485  1.00 20.00     0.030 C 
HETATM    9  C9  UNL     1     -35.757  16.005  -4.509  1.00 20.00     0.127 C 
ENDROOT
BRANCH   9  10
HETATM   10  O10 UNL     1     -36.830  15.823  -5.410  1.00 20.00    -0.395 OA
HETATM   11  H22 UNL     1     -37.570  16.370  -5.093  1.00 20.00     0.210 HD
ENDBRANCH   9  10
TORSDOF 1
ENDMDL
MODEL 4
REMARK VINA RESULT:      -4.5     11.014     12.360
REMARK  1 active torsions:
REMARK  status: ('A' for Active; 'I' for Inactive)
REMARK    1  A    between atoms: C9_9  and  O10_10 
ROOT
HETATM    1  C1  UNL     1     -42.420   8.053  -3.940  1.00 20.00     0.012 C 
HETATM    2  C2  UNL     1     -42.418   7.506  -2.871  1.00 20.00    -0.112 C 
HETATM    3  C3  UNL     1     -41.757   4.732   0.367  1.00 20.00     0.007 C 
HETATM    4  C4  UNL     1     -43.160   4.838  -0.251  1.00 20.00     0.009 C 
HETATM    5  C5  UNL     1     -40.988   6.701  -0.985  1.00 20.00     0.024 C 
HETATM    6  C6  UNL     1     -42.416   6.835  -1.563  1.00 20.00     0.071 C 
HETATM    7  C7  UNL     1     -40.836   5.179  -0.786  1.00 20.00     0.016 C 
HETATM    8  C8  UNL     1     -42.869   5.360  -1.675  1.00 20.00     0.030 C 
HETATM    9  C9  UNL     1     -41.558   4.642  -2.023  1.00 20.00     0.127 C 
ENDROOT
BRANCH   9  10
HETATM   10  O10 UNL     1     -41.667   3.234  -2.029  1.00 20.00    -0.395 OA
HETATM   11  H22 UNL     1     -41.925   2.968  -2.929  1.00 20.00     0.210 HD
ENDBRANCH   9  10
TORSDOF 1
ENDMDL
MODEL 5
REMARK VINA RESULT:      -4.4      1.499      2.424
REMARK  1 active torsions:
REMARK  status: ('A' for Active; 'I' for Inactive)
REMARK    1  A    between atoms: C9_9  and  O10_10 
ROOT
HETATM    1  C1  UNL     1     -37.020  17.731  -3.078  1.00 20.00     0.012 C 
HETATM    2  C2  UNL     1     -36.366  16.725  -3.038  1.00 20.00    -0.112 C 
HETATM    3  C3  UNL     1     -33.432  13.653  -3.791  1.00 20.00     0.007 C 
HETATM    4  C4  UNL     1     -34.894  13.404  -4.194  1.00 20.00     0.009 C 
HETATM    5  C5  UNL     1     -34.090  15.776  -2.627  1.00 20.00     0.024 C 
HETATM    6  C6  UNL     1     -35.566  15.492  -2.990  1.00 20.00     0.071 C 
HETATM    7  C7  UNL     1     -33.319  15.190  -3.828  1.00 20.00     0.016 C 
HETATM    8  C8  UNL     1     -35.445  14.834  -4.386  1.00 20.00     0.030 C 
HETATM    9  C9  UNL     1     -34.240  15.569  -4.988  1.00 20.00     0.127 C 
ENDROOT
BRANCH   9  10
HETATM   10  O10 UNL     1     -33.814  15.038  -6.226  1.00 20.00    -0.395 OA
HETATM   11  H22 UNL     1     -33.418  14.166  -6.046  1.00 20.00     0.210 HD
ENDBRANCH   9  10
TORSDOF 1
ENDMDL
MODEL 6
REMARK VINA RESULT:      -4.4      1.373      3.567
REMARK  1 active torsions:
REMARK  status: ('A' for Active; 'I' for Inactive)
REMARK    1  A    between atoms: C9_9  and  O10_10 
ROOT
HETATM    1  C1  UNL     1     -35.101  15.534  -7.895  1.00 20.00     0.012 C 
HETATM    2  C2  UNL     1     -34.954  15.826  -6.739  1.00 20.00    -0.112 C 
HETATM    3  C3  UNL     1     -33.859  15.814  -2.567  1.00 20.00     0.007 C 
HETATM    4  C4  UNL     1     -35.332  15.610  -2.953  1.00 20.00     0.009 C 
HETATM    5  C5  UNL     1     -33.283  16.336  -4.952  1.00 20.00     0.024 C 
HETATM    6  C6  UNL     1     -34.776  16.181  -5.324  1.00 20.00     0.071 C 
HETATM    7  C7  UNL     1     -33.102  15.313  -3.812  1.00 20.00     0.016 C 
HETATM    8  C8  UNL     1     -35.236  15.041  -4.385  1.00 20.00     0.030 C 
HETATM    9  C9  UNL     1     -33.981  14.161  -4.302  1.00 20.00     0.127 C 
ENDROOT
BRANCH   9  10
HETATM   10  O10 UNL     1     -34.087  13.111  -3.363  1.00 20.00    -0.395 OA
HETATM   11  H22 UNL     1     -34.979  13.158  -2.975  1.00 20.00     0.210 HD
ENDBRANCH   9  10
TORSDOF 1
ENDMDL
MODEL 7
REMARK VINA RESULT:      -4.4      1.953      2.697
REMARK  1 active torsions:
REMARK  status: ('A' for Active; 'I' for Inactive)
REMARK    1  A    between atoms: C9_9  and  O10_10 
ROOT
HETATM    1  C1  UNL     1     -35.077  17.307   0.384  1.00 20.00     0.012 C 
HETATM    2  C2  UNL     1     -34.450  17.082  -0.615  1.00 20.00    -0.112 C 
HETATM    3  C3  UNL     1     -33.291  16.317  -4.699  1.00 20.00     0.007 C 
HETATM    4  C4  UNL     1     -33.223  15.173  -3.677  1.00 20.00     0.009 C 
HETATM    5  C5  UNL     1     -33.806  17.953  -2.868  1.00 20.00     0.024 C 
HETATM    6  C6  UNL     1     -33.683  16.806  -1.838  1.00 20.00     0.071 C 
HETATM    7  C7  UNL     1     -34.376  17.242  -4.112  1.00 20.00     0.016 C 
HETATM    8  C8  UNL     1     -34.260  15.598  -2.615  1.00 20.00     0.030 C 
HETATM    9  C9  UNL     1     -35.352  16.254  -3.471  1.00 20.00     0.127 C 
ENDROOT
BRANCH   9  10
HETATM   10  O10 UNL     1     -35.941  15.375  -4.407  1.00 20.00    -0.395 OA
HETATM   11  H22 UNL     1     -35.516  14.507  -4.296  1.00 20.00     0.210 HD
ENDBRANCH   9  10
TORSDOF 1
ENDMDL
MODEL 8
REMARK VINA RESULT:      -4.4      1.905      2.946
REMARK  1 active torsions:
REMARK  status: ('A' for Active; 'I' for Inactive)
REMARK    1  A    between atoms: C9_9  and  O10_10 
ROOT
HETATM    1  C1  UNL     1     -33.543  18.467  -5.304  1.00 20.00     0.012 C 
HETATM    2  C2  UNL     1     -33.602  17.274  -5.185  1.00 20.00    -0.112 C 
HETATM    3  C3  UNL     1     -34.973  13.233  -4.546  1.00 20.00     0.007 C 
HETATM    4  C4  UNL     1     -34.094  13.901  -3.478  1.00 20.00     0.009 C 
HETATM    5  C5  UNL     1     -34.602  15.171  -6.096  1.00 20.00     0.024 C 
HETATM    6  C6  UNL     1     -33.675  15.813  -5.037  1.00 20.00     0.071 C 
HETATM    7  C7  UNL     1     -35.650  14.433  -5.238  1.00 20.00     0.016 C 
HETATM    8  C8  UNL     1     -34.356  15.405  -3.708  1.00 20.00     0.030 C 
HETATM    9  C9  UNL     1     -35.843  15.421  -4.087  1.00 20.00     0.127 C 
ENDROOT
BRANCH   9  10
HETATM   10  O10 UNL     1     -36.691  14.926  -3.071  1.00 20.00    -0.395 OA
HETATM   11  H22 UNL     1     -37.579  14.827  -3.458  1.00 20.00     0.210 HD
ENDBRANCH   9  10
TORSDOF 1
ENDMDL
MODEL 9
REMARK VINA RESULT:      -4.3      1.900      3.849
REMARK  1 active torsions:
REMARK  status: ('A' for Active; 'I' for Inactive)
REMARK    1  A    between atoms: C9_9  and  O10_10 
ROOT
HETATM    1  C1  UNL     1     -35.561  14.401  -7.918  1.00 20.00     0.012 C 
HETATM    2  C2  UNL     1     -35.128  14.793  -6.869  1.00 20.00    -0.112 C 
HETATM    3  C3  UNL     1     -34.477  15.537  -2.670  1.00 20.00     0.007 C 
HETATM    4  C4  UNL     1     -35.031  16.667  -3.551  1.00 20.00     0.009 C 
HETATM    5  C5  UNL     1     -34.090  14.114  -4.699  1.00 20.00     0.024 C 
HETATM    6  C6  UNL     1     -34.599  15.274  -5.585  1.00 20.00     0.071 C 
HETATM    7  C7  UNL     1     -34.928  14.264  -3.413  1.00 20.00     0.016 C 
HETATM    8  C8  UNL     1     -35.710  15.900  -4.706  1.00 20.00     0.030 C 
HETATM    9  C9  UNL     1     -36.286  14.672  -3.987  1.00 20.00     0.127 C 
ENDROOT
BRANCH   9  10
HETATM   10  O10 UNL     1     -37.232  14.993  -2.989  1.00 20.00    -0.395 OA
HETATM   11  H22 UNL     1     -36.957  15.838  -2.590  1.00 20.00     0.210 HD
ENDBRANCH   9  10
TORSDOF 1
ENDMDL
