MODEL 1
REMARK VINA RESULT:      -4.2      0.000      0.000
REMARK  1 active torsions:
REMARK  status: ('A' for Active; 'I' for Inactive)
REMARK    1  A    between atoms: C1_1  and  C5_5 
ROOT
HETATM    1  C2  UNL     1     -33.127  14.956  -3.379  1.00 20.00     0.026 C 
HETATM    2  C3  UNL     1     -35.186  15.090  -2.865  1.00 20.00     0.026 C 
HETATM    3  C4  UNL     1     -34.383  16.352  -4.376  1.00 20.00     0.026 C 
HETATM    4  C5  UNL     1     -34.438  14.815  -4.192  1.00 20.00     0.022 C 
HETATM    5  C6  UNL     1     -34.014  16.156  -2.849  1.00 20.00    -0.041 C 
HETATM    6  C8  UNL     1     -33.691  17.174  -1.827  1.00 20.00     0.015 C 
ENDROOT
BRANCH   4   7
HETATM    7  C1  UNL     1     -34.762  13.788  -5.218  1.00 20.00     0.131 C 
HETATM    8  C7  UNL     1     -35.132  14.292  -6.587  1.00 20.00     0.091 C 
HETATM    9  O9  UNL     1     -34.727  12.587  -4.960  1.00 20.00    -0.298 OA
ENDBRANCH   4   7
TORSDOF 1
ENDMDL
MODEL 2
REMARK VINA RESULT:      -4.2      0.062      1.237
REMARK  1 active torsions:
REMARK  status: ('A' for Active; 'I' for Inactive)
REMARK    1  A    between atoms: C1_1  and  C5_5 
ROOT
HETATM    1  C2  UNL     1     -35.206  15.145  -2.922  1.00 20.00     0.026 C 
HETATM    2  C3  UNL     1     -34.364  16.362  -4.450  1.00 20.00     0.026 C 
HETATM    3  C4  UNL     1     -33.141  14.975  -3.401  1.00 20.00     0.026 C 
HETATM    4  C5  UNL     1     -34.440  14.831  -4.231  1.00 20.00     0.022 C 
HETATM    5  C6  UNL     1     -34.021  16.196  -2.912  1.00 20.00    -0.041 C 
HETATM    6  C8  UNL     1     -33.704  17.234  -1.909  1.00 20.00     0.015 C 
ENDROOT
BRANCH   4   7
HETATM    7  C1  UNL     1     -34.762  13.788  -5.242  1.00 20.00     0.131 C 
HETATM    8  C7  UNL     1     -35.111  14.269  -6.624  1.00 20.00     0.091 C 
HETATM    9  O9  UNL     1     -34.743  12.591  -4.961  1.00 20.00    -0.298 OA
ENDBRANCH   4   7
TORSDOF 1
ENDMDL
MODEL 3
REMARK VINA RESULT:      -4.2     11.700     12.542
REMARK  1 active torsions:
REMARK  status: ('A' for Active; 'I' for Inactive)
REMARK    1  A    between atoms: C1_1  and  C5_5 
ROOT
HETATM    1  C2  UNL     1     -32.940   6.833   4.745  1.00 20.00     0.026 C 
HETATM    2  C3  UNL     1     -34.439   6.751   3.238  1.00 20.00     0.026 C 
HETATM    3  C4  UNL     1     -32.814   5.381   3.198  1.00 20.00     0.026 C 
HETATM    4  C5  UNL     1     -33.895   5.717   4.255  1.00 20.00     0.022 C 
HETATM    5  C6  UNL     1     -32.870   6.963   3.168  1.00 20.00    -0.041 C 
HETATM    6  C8  UNL     1     -32.091   7.910   2.343  1.00 20.00     0.015 C 
ENDROOT
BRANCH   4   7
HETATM    7  C1  UNL     1     -34.680   4.767   5.087  1.00 20.00     0.131 C 
HETATM    8  C7  UNL     1     -34.852   5.120   6.539  1.00 20.00     0.091 C 
HETATM    9  O9  UNL     1     -35.167   3.744   4.609  1.00 20.00    -0.298 OA
ENDBRANCH   4   7
TORSDOF 1
ENDMDL
MODEL 4
REMARK VINA RESULT:      -4.2     11.702     12.571
REMARK  1 active torsions:
REMARK  status: ('A' for Active; 'I' for Inactive)
REMARK    1  A    between atoms: C1_1  and  C5_5 
ROOT
HETATM    1  C2  UNL     1     -34.440   6.763   3.252  1.00 20.00     0.026 C 
HETATM    2  C3  UNL     1     -32.829   5.375   3.191  1.00 20.00     0.026 C 
HETATM    3  C4  UNL     1     -32.927   6.822   4.745  1.00 20.00     0.026 C 
HETATM    4  C5  UNL     1     -33.897   5.717   4.258  1.00 20.00     0.022 C 
HETATM    5  C6  UNL     1     -32.870   6.958   3.169  1.00 20.00    -0.041 C 
HETATM    6  C8  UNL     1     -32.090   7.902   2.341  1.00 20.00     0.015 C 
ENDROOT
BRANCH   4   7
HETATM    7  C1  UNL     1     -34.684   4.766   5.089  1.00 20.00     0.131 C 
HETATM    8  C7  UNL     1     -34.866   5.125   6.538  1.00 20.00     0.091 C 
HETATM    9  O9  UNL     1     -35.163   3.739   4.613  1.00 20.00    -0.298 OA
ENDBRANCH   4   7
TORSDOF 1
ENDMDL
MODEL 5
REMARK VINA RESULT:      -4.1      1.951      3.398
REMARK  1 active torsions:
REMARK  status: ('A' for Active; 'I' for Inactive)
REMARK    1  A    between atoms: C1_1  and  C5_5 
ROOT
HETATM    1  C2  UNL     1     -35.790  15.658  -5.767  1.00 20.00     0.026 C 
HETATM    2  C3  UNL     1     -34.482  14.780  -7.195  1.00 20.00     0.026 C 
HETATM    3  C4  UNL     1     -33.715  16.118  -5.732  1.00 20.00     0.026 C 
HETATM    4  C5  UNL     1     -34.512  14.793  -5.647  1.00 20.00     0.022 C 
HETATM    5  C6  UNL     1     -34.822  16.288  -6.851  1.00 20.00    -0.041 C 
HETATM    6  C8  UNL     1     -35.059  17.425  -7.765  1.00 20.00     0.015 C 
ENDROOT
BRANCH   4   7
HETATM    7  C1  UNL     1     -34.276  13.647  -4.728  1.00 20.00     0.131 C 
HETATM    8  C7  UNL     1     -33.235  13.840  -3.660  1.00 20.00     0.091 C 
HETATM    9  O9  UNL     1     -34.904  12.595  -4.836  1.00 20.00    -0.298 OA
ENDBRANCH   4   7
TORSDOF 1
ENDMDL
MODEL 6
REMARK VINA RESULT:      -3.9      2.054      2.744
REMARK  1 active torsions:
REMARK  status: ('A' for Active; 'I' for Inactive)
REMARK    1  A    between atoms: C1_1  and  C5_5 
ROOT
HETATM    1  C2  UNL     1     -35.091  15.265  -2.933  1.00 20.00     0.026 C 
HETATM    2  C3  UNL     1     -34.736  15.329  -5.030  1.00 20.00     0.026 C 
HETATM    3  C4  UNL     1     -34.956  13.457  -4.045  1.00 20.00     0.026 C 
HETATM    4  C5  UNL     1     -35.858  14.711  -4.159  1.00 20.00     0.022 C 
HETATM    5  C6  UNL     1     -33.942  14.654  -3.837  1.00 20.00    -0.041 C 
HETATM    6  C8  UNL     1     -32.485  14.612  -3.590  1.00 20.00     0.015 C 
ENDROOT
BRANCH   4   7
HETATM    7  C1  UNL     1     -37.324  14.756  -4.407  1.00 20.00     0.131 C 
HETATM    8  C7  UNL     1     -37.779  15.477  -5.647  1.00 20.00     0.091 C 
HETATM    9  O9  UNL     1     -38.124  14.228  -3.637  1.00 20.00    -0.298 OA
ENDBRANCH   4   7
TORSDOF 1
ENDMDL
MODEL 7
REMARK VINA RESULT:      -3.9      1.570      2.476
REMARK  1 active torsions:
REMARK  status: ('A' for Active; 'I' for Inactive)
REMARK    1  A    between atoms: C1_1  and  C5_5 
ROOT
HETATM    1  C2  UNL     1     -36.735  15.142  -3.387  1.00 20.00     0.026 C 
HETATM    2  C3  UNL     1     -35.223  16.249  -4.393  1.00 20.00     0.026 C 
HETATM    3  C4  UNL     1     -35.037  15.839  -2.315  1.00 20.00     0.026 C 
HETATM    4  C5  UNL     1     -35.210  14.941  -3.564  1.00 20.00     0.022 C 
HETATM    5  C6  UNL     1     -36.147  16.594  -3.153  1.00 20.00    -0.041 C 
HETATM    6  C8  UNL     1     -36.861  17.850  -2.841  1.00 20.00     0.015 C 
ENDROOT
BRANCH   4   7
HETATM    7  C1  UNL     1     -34.493  13.676  -3.881  1.00 20.00     0.131 C 
HETATM    8  C7  UNL     1     -33.012  13.653  -3.618  1.00 20.00     0.091 C 
HETATM    9  O9  UNL     1     -35.084  12.697  -4.333  1.00 20.00    -0.298 OA
ENDBRANCH   4   7
TORSDOF 1
ENDMDL
MODEL 8
REMARK VINA RESULT:      -3.8      1.515      1.697
REMARK  1 active torsions:
REMARK  status: ('A' for Active; 'I' for Inactive)
REMARK    1  A    between atoms: C1_1  and  C5_5 
ROOT
HETATM    1  C2  UNL     1     -33.627  16.069  -3.681  1.00 20.00     0.026 C 
HETATM    2  C3  UNL     1     -34.791  15.902  -1.909  1.00 20.00     0.026 C 
HETATM    3  C4  UNL     1     -35.559  16.951  -3.591  1.00 20.00     0.026 C 
HETATM    4  C5  UNL     1     -35.040  15.507  -3.385  1.00 20.00     0.022 C 
HETATM    5  C6  UNL     1     -34.256  17.155  -2.715  1.00 20.00    -0.041 C 
HETATM    6  C8  UNL     1     -33.660  18.409  -2.207  1.00 20.00     0.015 C 
ENDROOT
BRANCH   4   7
HETATM    7  C1  UNL     1     -35.637  14.244  -3.896  1.00 20.00     0.131 C 
HETATM    8  C7  UNL     1     -34.697  13.263  -4.542  1.00 20.00     0.091 C 
HETATM    9  O9  UNL     1     -36.841  14.013  -3.793  1.00 20.00    -0.298 OA
ENDBRANCH   4   7
TORSDOF 1
ENDMDL
MODEL 9
REMARK VINA RESULT:      -3.7      2.268      4.034
REMARK  1 active torsions:
REMARK  status: ('A' for Active; 'I' for Inactive)
REMARK    1  A    between atoms: C1_1  and  C5_5 
ROOT
HETATM    1  C2  UNL     1     -34.514  16.000  -4.714  1.00 20.00     0.026 C 
HETATM    2  C3  UNL     1     -34.935  15.073  -2.847  1.00 20.00     0.026 C 
HETATM    3  C4  UNL     1     -32.943  15.114  -3.588  1.00 20.00     0.026 C 
HETATM    4  C5  UNL     1     -33.984  16.217  -3.276  1.00 20.00     0.022 C 
HETATM    5  C6  UNL     1     -34.286  14.525  -4.183  1.00 20.00    -0.041 C 
HETATM    6  C8  UNL     1     -34.517  13.238  -4.874  1.00 20.00     0.015 C 
ENDROOT
BRANCH   4   7
HETATM    7  C1  UNL     1     -33.755  17.513  -2.581  1.00 20.00     0.131 C 
HETATM    8  C7  UNL     1     -33.697  17.473  -1.078  1.00 20.00     0.091 C 
HETATM    9  O9  UNL     1     -33.619  18.563  -3.205  1.00 20.00    -0.298 OA
ENDBRANCH   4   7
TORSDOF 1
ENDMDL
