MODEL 1
REMARK VINA RESULT:      -4.9      0.000      0.000
REMARK  1 active torsions:
REMARK  status: ('A' for Active; 'I' for Inactive)
REMARK    1  A    between atoms: C3_3  and  C8_8 
ROOT
HETATM    1  C1  UNL     1     -34.551  14.685  -5.515  1.00 20.00    -0.084 C 
HETATM    2  C2  UNL     1     -35.156  14.482  -6.690  1.00 20.00     0.015 C 
HETATM    3  C4  UNL     1     -33.563  15.780  -5.203  1.00 20.00     0.038 C 
HETATM    4  C5  UNL     1     -33.240  13.907  -3.761  1.00 20.00     0.014 C 
HETATM    5  C6  UNL     1     -34.452  15.745  -2.840  1.00 20.00     0.021 C 
HETATM    6  C7  UNL     1     -34.679  13.825  -4.275  1.00 20.00     0.028 C 
HETATM    7  C8  UNL     1     -35.429  14.605  -3.179  1.00 20.00     0.095 C 
HETATM    8  C9  UNL     1     -33.232  15.439  -3.737  1.00 20.00    -0.009 C 
ENDROOT
BRANCH   7   9
HETATM    9  C3  UNL     1     -36.794  15.093  -3.624  1.00 20.00     0.177 C 
HETATM   10  O10 UNL     1     -36.907  16.344  -3.741  1.00 20.00    -0.648 OA
HETATM   11  O11 UNL     1     -37.644  14.180  -3.820  1.00 20.00    -0.648 OA
ENDBRANCH   7   9
TORSDOF 1
ENDMDL
MODEL 2
REMARK VINA RESULT:      -4.8      1.369      2.885
REMARK  1 active torsions:
REMARK  status: ('A' for Active; 'I' for Inactive)
REMARK    1  A    between atoms: C3_3  and  C8_8 
ROOT
HETATM    1  C1  UNL     1     -34.368  16.100  -3.375  1.00 20.00    -0.084 C 
HETATM    2  C2  UNL     1     -34.517  16.075  -2.047  1.00 20.00     0.015 C 
HETATM    3  C4  UNL     1     -33.067  15.963  -4.125  1.00 20.00     0.038 C 
HETATM    4  C5  UNL     1     -34.672  17.164  -5.418  1.00 20.00     0.014 C 
HETATM    5  C6  UNL     1     -34.387  14.861  -5.973  1.00 20.00     0.021 C 
HETATM    6  C7  UNL     1     -35.458  16.335  -4.400  1.00 20.00     0.028 C 
HETATM    7  C8  UNL     1     -35.705  15.043  -5.199  1.00 20.00     0.095 C 
HETATM    8  C9  UNL     1     -33.571  16.111  -5.574  1.00 20.00    -0.009 C 
ENDROOT
BRANCH   7   9
HETATM    9  C3  UNL     1     -36.056  13.857  -4.320  1.00 20.00     0.177 C 
HETATM   10  O10 UNL     1     -35.209  12.922  -4.314  1.00 20.00    -0.648 OA
HETATM   11  O11 UNL     1     -37.155  13.960  -3.707  1.00 20.00    -0.648 OA
ENDBRANCH   7   9
TORSDOF 1
ENDMDL
MODEL 3
REMARK VINA RESULT:      -4.7      1.530      2.076
REMARK  1 active torsions:
REMARK  status: ('A' for Active; 'I' for Inactive)
REMARK    1  A    between atoms: C3_3  and  C8_8 
ROOT
HETATM    1  C1  UNL     1     -34.466  15.743  -5.805  1.00 20.00    -0.084 C 
HETATM    2  C2  UNL     1     -34.428  15.166  -7.010  1.00 20.00     0.015 C 
HETATM    3  C4  UNL     1     -35.213  17.004  -5.447  1.00 20.00     0.038 C 
HETATM    4  C5  UNL     1     -33.369  16.660  -3.972  1.00 20.00     0.014 C 
HETATM    5  C6  UNL     1     -35.514  16.028  -3.138  1.00 20.00     0.021 C 
HETATM    6  C7  UNL     1     -33.719  15.294  -4.566  1.00 20.00     0.028 C 
HETATM    7  C8  UNL     1     -34.720  14.766  -3.521  1.00 20.00     0.095 C 
HETATM    8  C9  UNL     1     -34.825  17.139  -3.962  1.00 20.00    -0.009 C 
ENDROOT
BRANCH   7   9
HETATM    9  C3  UNL     1     -35.592  13.642  -4.047  1.00 20.00     0.177 C 
HETATM   10  O10 UNL     1     -34.969  12.634  -4.481  1.00 20.00    -0.648 OA
HETATM   11  O11 UNL     1     -36.834  13.862  -3.984  1.00 20.00    -0.648 OA
ENDBRANCH   7   9
TORSDOF 1
ENDMDL
MODEL 4
REMARK VINA RESULT:      -4.7      1.427      2.053
REMARK  1 active torsions:
REMARK  status: ('A' for Active; 'I' for Inactive)
REMARK    1  A    between atoms: C3_3  and  C8_8 
ROOT
HETATM    1  C1  UNL     1     -33.817  14.804  -3.621  1.00 20.00    -0.084 C 
HETATM    2  C2  UNL     1     -33.560  13.520  -3.891  1.00 20.00     0.015 C 
HETATM    3  C4  UNL     1     -33.144  15.996  -4.254  1.00 20.00     0.038 C 
HETATM    4  C5  UNL     1     -33.995  16.547  -2.094  1.00 20.00     0.014 C 
HETATM    5  C6  UNL     1     -35.323  17.235  -3.954  1.00 20.00     0.021 C 
HETATM    6  C7  UNL     1     -34.786  15.331  -2.582  1.00 20.00     0.028 C 
HETATM    7  C8  UNL     1     -35.975  16.013  -3.282  1.00 20.00     0.095 C 
HETATM    8  C9  UNL     1     -33.849  17.140  -3.500  1.00 20.00    -0.009 C 
ENDROOT
BRANCH   7   9
HETATM    9  C3  UNL     1     -36.694  15.101  -4.258  1.00 20.00     0.177 C 
HETATM   10  O10 UNL     1     -36.601  15.431  -5.473  1.00 20.00    -0.648 OA
HETATM   11  O11 UNL     1     -37.296  14.126  -3.726  1.00 20.00    -0.648 OA
ENDBRANCH   7   9
TORSDOF 1
ENDMDL
MODEL 5
REMARK VINA RESULT:      -4.7      1.774      2.812
REMARK  1 active torsions:
REMARK  status: ('A' for Active; 'I' for Inactive)
REMARK    1  A    between atoms: C3_3  and  C8_8 
ROOT
HETATM    1  C1  UNL     1     -33.394  15.515  -3.466  1.00 20.00    -0.084 C 
HETATM    2  C2  UNL     1     -32.252  14.831  -3.587  1.00 20.00     0.015 C 
HETATM    3  C4  UNL     1     -33.658  16.904  -3.993  1.00 20.00     0.038 C 
HETATM    4  C5  UNL     1     -35.074  16.415  -2.136  1.00 20.00     0.014 C 
HETATM    5  C6  UNL     1     -36.063  16.201  -4.298  1.00 20.00     0.021 C 
HETATM    6  C7  UNL     1     -34.636  15.070  -2.722  1.00 20.00     0.028 C 
HETATM    7  C8  UNL     1     -35.772  14.802  -3.726  1.00 20.00     0.095 C 
HETATM    8  C9  UNL     1     -35.103  17.112  -3.500  1.00 20.00    -0.009 C 
ENDROOT
BRANCH   7   9
HETATM    9  C3  UNL     1     -35.401  13.783  -4.787  1.00 20.00     0.177 C 
HETATM   10  O10 UNL     1     -35.094  12.640  -4.351  1.00 20.00    -0.648 OA
HETATM   11  O11 UNL     1     -35.446  14.214  -5.973  1.00 20.00    -0.648 OA
ENDBRANCH   7   9
TORSDOF 1
ENDMDL
MODEL 6
REMARK VINA RESULT:      -4.6      1.810      2.952
REMARK  1 active torsions:
REMARK  status: ('A' for Active; 'I' for Inactive)
REMARK    1  A    between atoms: C3_3  and  C8_8 
ROOT
HETATM    1  C1  UNL     1     -35.778  15.962  -3.612  1.00 20.00    -0.084 C 
HETATM    2  C2  UNL     1     -37.104  15.936  -3.776  1.00 20.00     0.015 C 
HETATM    3  C4  UNL     1     -35.041  15.799  -2.305  1.00 20.00     0.038 C 
HETATM    4  C5  UNL     1     -33.734  17.037  -3.871  1.00 20.00     0.014 C 
HETATM    5  C6  UNL     1     -33.176  14.729  -3.628  1.00 20.00     0.021 C 
HETATM    6  C7  UNL     1     -34.741  16.222  -4.685  1.00 20.00     0.028 C 
HETATM    7  C8  UNL     1     -33.936  14.937  -4.950  1.00 20.00     0.095 C 
HETATM    8  C9  UNL     1     -33.587  15.961  -2.790  1.00 20.00    -0.009 C 
ENDROOT
BRANCH   7   9
HETATM    9  C3  UNL     1     -34.808  13.757  -5.335  1.00 20.00     0.177 C 
HETATM   10  O10 UNL     1     -34.807  12.796  -4.517  1.00 20.00    -0.648 OA
HETATM   11  O11 UNL     1     -35.423  13.889  -6.430  1.00 20.00    -0.648 OA
ENDBRANCH   7   9
TORSDOF 1
ENDMDL
MODEL 7
REMARK VINA RESULT:      -4.6      1.753      3.375
REMARK  1 active torsions:
REMARK  status: ('A' for Active; 'I' for Inactive)
REMARK    1  A    between atoms: C3_3  and  C8_8 
ROOT
HETATM    1  C1  UNL     1     -34.599  15.514  -2.830  1.00 20.00    -0.084 C 
HETATM    2  C2  UNL     1     -34.892  16.313  -1.799  1.00 20.00     0.015 C 
HETATM    3  C4  UNL     1     -35.513  14.481  -3.440  1.00 20.00     0.038 C 
HETATM    4  C5  UNL     1     -33.224  13.925  -3.822  1.00 20.00     0.014 C 
HETATM    5  C6  UNL     1     -34.375  14.950  -5.644  1.00 20.00     0.021 C 
HETATM    6  C7  UNL     1     -33.273  15.432  -3.558  1.00 20.00     0.028 C 
HETATM    7  C8  UNL     1     -33.434  15.976  -4.989  1.00 20.00     0.095 C 
HETATM    8  C9  UNL     1     -34.585  13.904  -4.527  1.00 20.00    -0.009 C 
ENDROOT
BRANCH   7   9
HETATM    9  C3  UNL     1     -33.969  17.395  -5.029  1.00 20.00     0.177 C 
HETATM   10  O10 UNL     1     -33.243  18.261  -4.467  1.00 20.00    -0.648 OA
HETATM   11  O11 UNL     1     -35.077  17.527  -5.620  1.00 20.00    -0.648 OA
ENDBRANCH   7   9
TORSDOF 1
ENDMDL
MODEL 8
REMARK VINA RESULT:      -4.5      2.151      2.965
REMARK  1 active torsions:
REMARK  status: ('A' for Active; 'I' for Inactive)
REMARK    1  A    between atoms: C3_3  and  C8_8 
ROOT
HETATM    1  C1  UNL     1     -35.197  14.443  -6.051  1.00 20.00    -0.084 C 
HETATM    2  C2  UNL     1     -35.100  14.590  -7.376  1.00 20.00     0.015 C 
HETATM    3  C4  UNL     1     -34.676  13.280  -5.245  1.00 20.00     0.038 C 
HETATM    4  C5  UNL     1     -36.490  14.347  -4.122  1.00 20.00     0.014 C 
HETATM    5  C6  UNL     1     -34.302  14.910  -3.354  1.00 20.00     0.021 C 
HETATM    6  C7  UNL     1     -35.904  15.378  -5.090  1.00 20.00     0.028 C 
HETATM    7  C8  UNL     1     -34.868  16.073  -4.188  1.00 20.00     0.095 C 
HETATM    8  C9  UNL     1     -35.132  13.699  -3.834  1.00 20.00    -0.009 C 
ENDROOT
BRANCH   7   9
HETATM    9  C3  UNL     1     -33.808  16.826  -4.970  1.00 20.00     0.177 C 
HETATM   10  O10 UNL     1     -32.640  16.355  -4.886  1.00 20.00    -0.648 OA
HETATM   11  O11 UNL     1     -34.233  17.830  -5.606  1.00 20.00    -0.648 OA
ENDBRANCH   7   9
TORSDOF 1
ENDMDL
MODEL 9
REMARK VINA RESULT:      -4.4      0.996      2.558
REMARK  1 active torsions:
REMARK  status: ('A' for Active; 'I' for Inactive)
REMARK    1  A    between atoms: C3_3  and  C8_8 
ROOT
HETATM    1  C1  UNL     1     -34.612  15.608  -3.009  1.00 20.00    -0.084 C 
HETATM    2  C2  UNL     1     -34.702  16.081  -1.763  1.00 20.00     0.015 C 
HETATM    3  C4  UNL     1     -33.967  14.309  -3.422  1.00 20.00     0.038 C 
HETATM    4  C5  UNL     1     -33.957  15.872  -5.224  1.00 20.00     0.014 C 
HETATM    5  C6  UNL     1     -35.660  14.202  -5.292  1.00 20.00     0.021 C 
HETATM    6  C7  UNL     1     -35.076  16.303  -4.273  1.00 20.00     0.028 C 
HETATM    7  C8  UNL     1     -36.277  15.546  -4.869  1.00 20.00     0.095 C 
HETATM    8  C9  UNL     1     -34.164  14.379  -4.949  1.00 20.00    -0.009 C 
ENDROOT
BRANCH   7   9
HETATM    9  C3  UNL     1     -37.430  15.399  -3.894  1.00 20.00     0.177 C 
HETATM   10  O10 UNL     1     -37.881  16.481  -3.425  1.00 20.00    -0.648 OA
HETATM   11  O11 UNL     1     -37.791  14.209  -3.676  1.00 20.00    -0.648 OA
ENDBRANCH   7   9
TORSDOF 1
ENDMDL
