MODEL 1
REMARK VINA RESULT:      -4.9      0.000      0.000
REMARK  2 active torsions:
REMARK  status: ('A' for Active; 'I' for Inactive)
REMARK    1  A    between atoms: C1_1  and  C6_6 
REMARK    2  A    between atoms: C7_7  and  C8_8 
ROOT
HETATM    1  C2  UNL     1     -36.030  15.004  -3.631  1.00 20.00     0.014 C 
HETATM    2  C3  UNL     1     -33.511  14.904  -3.764  1.00 20.00     0.014 C 
HETATM    3  C4  UNL     1     -35.932  16.138  -2.611  1.00 20.00     0.008 C 
HETATM    4  C5  UNL     1     -33.410  16.036  -2.744  1.00 20.00     0.008 C 
HETATM    5  C6  UNL     1     -34.814  14.985  -4.550  1.00 20.00     0.072 C 
HETATM    6  C7  UNL     1     -34.626  16.067  -1.808  1.00 20.00     0.014 C 
ENDROOT
BRANCH   5   7
HETATM    7  C1  UNL     1     -34.910  13.740  -5.412  1.00 20.00     0.223 C 
HETATM    8  O9  UNL     1     -34.760  12.617  -4.941  1.00 20.00    -0.279 OA
HETATM    9 CL11 UNL     1     -35.248  14.119  -7.074  1.00 20.00    -0.043 Cl
ENDBRANCH   5   7
BRANCH   6  10
HETATM   10  C8  UNL     1     -34.527  17.238  -0.833  1.00 20.00     0.226 C 
HETATM   11  F10 UNL     1     -34.943  16.810   0.382  1.00 20.00    -0.255 F 
ENDBRANCH   6  10
TORSDOF 2
ENDMDL
MODEL 2
REMARK VINA RESULT:      -4.7      1.496      1.864
REMARK  2 active torsions:
REMARK  status: ('A' for Active; 'I' for Inactive)
REMARK    1  A    between atoms: C1_1  and  C6_6 
REMARK    2  A    between atoms: C7_7  and  C8_8 
ROOT
HETATM    1  C2  UNL     1     -33.983  16.035  -5.206  1.00 20.00     0.014 C 
HETATM    2  C3  UNL     1     -34.739  14.941  -3.060  1.00 20.00     0.014 C 
HETATM    3  C4  UNL     1     -33.441  17.223  -4.411  1.00 20.00     0.008 C 
HETATM    4  C5  UNL     1     -34.200  16.127  -2.263  1.00 20.00     0.008 C 
HETATM    5  C6  UNL     1     -33.976  14.763  -4.367  1.00 20.00     0.072 C 
HETATM    6  C7  UNL     1     -34.204  17.418  -3.094  1.00 20.00     0.014 C 
ENDROOT
BRANCH   5   7
HETATM    7  C1  UNL     1     -34.677  13.682  -5.167  1.00 20.00     0.223 C 
HETATM    8  O9  UNL     1     -34.857  12.556  -4.711  1.00 20.00    -0.279 OA
HETATM    9 CL11 UNL     1     -35.164  14.241  -6.739  1.00 20.00    -0.043 Cl
ENDBRANCH   5   7
BRANCH   6  10
HETATM   10  C8  UNL     1     -33.612  18.576  -2.293  1.00 20.00     0.226 C 
HETATM   11  F10 UNL     1     -33.072  18.071  -1.160  1.00 20.00    -0.255 F 
ENDBRANCH   6  10
TORSDOF 2
ENDMDL
MODEL 3
REMARK VINA RESULT:      -4.5      3.870      4.851
REMARK  2 active torsions:
REMARK  status: ('A' for Active; 'I' for Inactive)
REMARK    1  A    between atoms: C1_1  and  C6_6 
REMARK    2  A    between atoms: C7_7  and  C8_8 
ROOT
HETATM    1  C2  UNL     1     -34.908  15.519  -2.392  1.00 20.00     0.014 C 
HETATM    2  C3  UNL     1     -33.614  17.111  -3.863  1.00 20.00     0.014 C 
HETATM    3  C4  UNL     1     -34.952  14.500  -3.530  1.00 20.00     0.008 C 
HETATM    4  C5  UNL     1     -33.657  16.095  -5.003  1.00 20.00     0.008 C 
HETATM    5  C6  UNL     1     -33.684  16.420  -2.507  1.00 20.00     0.072 C 
HETATM    6  C7  UNL     1     -34.887  15.182  -4.904  1.00 20.00     0.014 C 
ENDROOT
BRANCH   5   7
HETATM    7  C1  UNL     1     -33.806  17.497  -1.446  1.00 20.00     0.223 C 
HETATM    8  O9  UNL     1     -33.260  18.590  -1.570  1.00 20.00    -0.279 OA
HETATM    9 CL11 UNL     1     -34.782  16.986  -0.102  1.00 20.00    -0.043 Cl
ENDBRANCH   5   7
BRANCH   6  10
HETATM   10  C8  UNL     1     -34.879  14.143  -6.023  1.00 20.00     0.226 C 
HETATM   11  F10 UNL     1     -34.917  12.915  -5.456  1.00 20.00    -0.255 F 
ENDBRANCH   6  10
TORSDOF 2
ENDMDL
MODEL 4
REMARK VINA RESULT:      -4.4      1.629      1.696
REMARK  2 active torsions:
REMARK  status: ('A' for Active; 'I' for Inactive)
REMARK    1  A    between atoms: C1_1  and  C6_6 
REMARK    2  A    between atoms: C7_7  and  C8_8 
ROOT
HETATM    1  C2  UNL     1     -34.727  14.975  -3.077  1.00 20.00     0.014 C 
HETATM    2  C3  UNL     1     -33.611  16.792  -4.429  1.00 20.00     0.014 C 
HETATM    3  C4  UNL     1     -34.831  15.924  -1.884  1.00 20.00     0.008 C 
HETATM    4  C5  UNL     1     -33.712  17.742  -3.238  1.00 20.00     0.008 C 
HETATM    5  C6  UNL     1     -34.717  15.744  -4.393  1.00 20.00     0.072 C 
HETATM    6  C7  UNL     1     -33.719  16.982  -1.904  1.00 20.00     0.014 C 
ENDROOT
BRANCH   5   7
HETATM    7  C1  UNL     1     -34.445  14.749  -5.505  1.00 20.00     0.223 C 
HETATM    8  O9  UNL     1     -34.220  15.113  -6.656  1.00 20.00    -0.279 OA
HETATM    9 CL11 UNL     1     -34.496  13.106  -4.941  1.00 20.00    -0.043 Cl
ENDBRANCH   5   7
BRANCH   6  10
HETATM   10  C8  UNL     1     -33.874  17.950  -0.732  1.00 20.00     0.226 C 
HETATM   11  F10 UNL     1     -34.383  17.261   0.316  1.00 20.00    -0.255 F 
ENDBRANCH   6  10
TORSDOF 2
ENDMDL
MODEL 5
REMARK VINA RESULT:      -4.3     11.943     12.305
REMARK  2 active torsions:
REMARK  status: ('A' for Active; 'I' for Inactive)
REMARK    1  A    between atoms: C1_1  and  C6_6 
REMARK    2  A    between atoms: C7_7  and  C8_8 
ROOT
HETATM    1  C2  UNL     1     -33.342   5.836   2.926  1.00 20.00     0.014 C 
HETATM    2  C3  UNL     1     -32.973   7.000   5.135  1.00 20.00     0.014 C 
HETATM    3  C4  UNL     1     -34.475   5.018   3.544  1.00 20.00     0.008 C 
HETATM    4  C5  UNL     1     -34.104   6.183   5.757  1.00 20.00     0.008 C 
HETATM    5  C6  UNL     1     -33.179   7.175   3.635  1.00 20.00     0.072 C 
HETATM    6  C7  UNL     1     -34.278   4.829   5.054  1.00 20.00     0.014 C 
ENDROOT
BRANCH   5   7
HETATM    7  C1  UNL     1     -31.939   7.844   3.074  1.00 20.00     0.223 C 
HETATM    8  O9  UNL     1     -30.883   7.873   3.700  1.00 20.00    -0.279 OA
HETATM    9 CL11 UNL     1     -32.217   8.526   1.501  1.00 20.00    -0.043 Cl
ENDBRANCH   5   7
BRANCH   6  10
HETATM   10  C8  UNL     1     -35.448   4.054   5.658  1.00 20.00     0.226 C 
HETATM   11  F10 UNL     1     -35.691   4.555   6.892  1.00 20.00    -0.255 F 
ENDBRANCH   6  10
TORSDOF 2
ENDMDL
MODEL 6
REMARK VINA RESULT:      -4.3     12.399     13.246
REMARK  2 active torsions:
REMARK  status: ('A' for Active; 'I' for Inactive)
REMARK    1  A    between atoms: C1_1  and  C6_6 
REMARK    2  A    between atoms: C7_7  and  C8_8 
ROOT
HETATM    1  C2  UNL     1     -41.138   3.529  -2.238  1.00 20.00     0.014 C 
HETATM    2  C3  UNL     1     -43.160   4.807  -3.046  1.00 20.00     0.014 C 
HETATM    3  C4  UNL     1     -40.876   4.606  -1.186  1.00 20.00     0.008 C 
HETATM    4  C5  UNL     1     -42.900   5.886  -1.997  1.00 20.00     0.008 C 
HETATM    5  C6  UNL     1     -42.619   3.456  -2.594  1.00 20.00     0.072 C 
HETATM    6  C7  UNL     1     -41.411   5.974  -1.630  1.00 20.00     0.014 C 
ENDROOT
BRANCH   5   7
HETATM    7  C1  UNL     1     -42.765   2.489  -3.753  1.00 20.00     0.223 C 
HETATM    8  O9  UNL     1     -43.417   2.776  -4.754  1.00 20.00    -0.279 OA
HETATM    9 CL11 UNL     1     -41.920   0.997  -3.474  1.00 20.00    -0.043 Cl
ENDBRANCH   5   7
BRANCH   6  10
HETATM   10  C8  UNL     1     -41.185   7.022  -0.542  1.00 20.00     0.226 C 
HETATM   11  F10 UNL     1     -40.298   6.518   0.347  1.00 20.00    -0.255 F 
ENDBRANCH   6  10
TORSDOF 2
ENDMDL
MODEL 7
REMARK VINA RESULT:      -4.2      3.637      4.523
REMARK  2 active torsions:
REMARK  status: ('A' for Active; 'I' for Inactive)
REMARK    1  A    between atoms: C1_1  and  C6_6 
REMARK    2  A    between atoms: C7_7  and  C8_8 
ROOT
HETATM    1  C2  UNL     1     -35.884  14.577  -3.797  1.00 20.00     0.014 C 
HETATM    2  C3  UNL     1     -34.588  14.547  -5.963  1.00 20.00     0.014 C 
HETATM    3  C4  UNL     1     -37.189  14.728  -4.578  1.00 20.00     0.008 C 
HETATM    4  C5  UNL     1     -35.891  14.699  -6.747  1.00 20.00     0.008 C 
HETATM    5  C6  UNL     1     -34.827  13.857  -4.626  1.00 20.00     0.072 C 
HETATM    6  C7  UNL     1     -36.965  15.427  -5.926  1.00 20.00     0.014 C 
ENDROOT
BRANCH   5   7
HETATM    7  C1  UNL     1     -33.526  13.899  -3.846  1.00 20.00     0.223 C 
HETATM    8  O9  UNL     1     -32.850  12.890  -3.666  1.00 20.00    -0.279 OA
HETATM    9 CL11 UNL     1     -33.153  15.498  -3.278  1.00 20.00    -0.043 Cl
ENDBRANCH   5   7
BRANCH   6  10
HETATM   10  C8  UNL     1     -38.272  15.519  -6.710  1.00 20.00     0.226 C 
HETATM   11  F10 UNL     1     -38.216  14.628  -7.727  1.00 20.00    -0.255 F 
ENDBRANCH   6  10
TORSDOF 2
ENDMDL
MODEL 8
REMARK VINA RESULT:      -4.2     12.118     12.902
REMARK  2 active torsions:
REMARK  status: ('A' for Active; 'I' for Inactive)
REMARK    1  A    between atoms: C1_1  and  C6_6 
REMARK    2  A    between atoms: C7_7  and  C8_8 
ROOT
HETATM    1  C2  UNL     1     -43.105   4.679  -3.023  1.00 20.00     0.014 C 
HETATM    2  C3  UNL     1     -41.306   4.052  -1.367  1.00 20.00     0.014 C 
HETATM    3  C4  UNL     1     -42.845   6.160  -2.747  1.00 20.00     0.008 C 
HETATM    4  C5  UNL     1     -41.045   5.531  -1.087  1.00 20.00     0.008 C 
HETATM    5  C6  UNL     1     -41.853   3.846  -2.773  1.00 20.00     0.072 C 
HETATM    6  C7  UNL     1     -42.298   6.384  -1.330  1.00 20.00     0.014 C 
ENDROOT
BRANCH   5   7
HETATM    7  C1  UNL     1     -42.241   2.385  -2.907  1.00 20.00     0.223 C 
HETATM    8  O9  UNL     1     -43.176   1.905  -2.272  1.00 20.00    -0.279 OA
HETATM    9 CL11 UNL     1     -41.223   1.537  -4.031  1.00 20.00    -0.043 Cl
ENDBRANCH   5   7
BRANCH   6  10
HETATM   10  C8  UNL     1     -41.997   7.863  -1.096  1.00 20.00     0.226 C 
HETATM   11  F10 UNL     1     -40.725   7.967  -0.647  1.00 20.00    -0.255 F 
ENDBRANCH   6  10
TORSDOF 2
ENDMDL
MODEL 9
REMARK VINA RESULT:      -4.2      2.920      3.502
REMARK  2 active torsions:
REMARK  status: ('A' for Active; 'I' for Inactive)
REMARK    1  A    between atoms: C1_1  and  C6_6 
REMARK    2  A    between atoms: C7_7  and  C8_8 
ROOT
HETATM    1  C2  UNL     1     -34.094  16.413  -2.069  1.00 20.00     0.014 C 
HETATM    2  C3  UNL     1     -33.567  18.869  -2.316  1.00 20.00     0.014 C 
HETATM    3  C4  UNL     1     -34.638  16.669  -0.665  1.00 20.00     0.008 C 
HETATM    4  C5  UNL     1     -34.108  19.129  -0.912  1.00 20.00     0.008 C 
HETATM    5  C6  UNL     1     -34.231  17.652  -2.947  1.00 20.00     0.072 C 
HETATM    6  C7  UNL     1     -33.974  17.891  -0.014  1.00 20.00     0.014 C 
ENDROOT
BRANCH   5   7
HETATM    7  C1  UNL     1     -33.521  17.366  -4.257  1.00 20.00     0.223 C 
HETATM    8  O9  UNL     1     -33.391  18.229  -5.121  1.00 20.00    -0.279 OA
HETATM    9 CL11 UNL     1     -32.951  15.728  -4.350  1.00 20.00    -0.043 Cl
ENDBRANCH   5   7
BRANCH   6  10
HETATM   10  C8  UNL     1     -34.571  18.158   1.366  1.00 20.00     0.226 C 
HETATM   11  F10 UNL     1     -35.365  17.112   1.690  1.00 20.00    -0.255 F 
ENDBRANCH   6  10
TORSDOF 2
ENDMDL
