MODEL 1
REMARK VINA RESULT:      -5.1      0.000      0.000
REMARK  1 active torsions:
REMARK  status: ('A' for Active; 'I' for Inactive)
REMARK    1  A    between atoms: C1_1  and  C6_6 
ROOT
HETATM    1  C2  UNL     1     -33.396  16.078  -4.706  1.00 20.00     0.010 C 
HETATM    2  C3  UNL     1     -34.665  14.240  -5.890  1.00 20.00     0.010 C 
HETATM    3  C4  UNL     1     -35.909  15.862  -4.779  1.00 20.00     0.010 C 
HETATM    4  C5  UNL     1     -33.446  13.727  -3.808  1.00 20.00     0.010 C 
HETATM    5  C6  UNL     1     -34.693  15.303  -2.648  1.00 20.00     0.081 C 
HETATM    6  C7  UNL     1     -34.626  15.742  -5.601  1.00 20.00    -0.013 C 
HETATM    7  C8  UNL     1     -33.367  15.204  -3.412  1.00 20.00    -0.001 C 
HETATM    8  C9  UNL     1     -34.835  13.680  -4.470  1.00 20.00    -0.009 C 
HETATM    9  C10 UNL     1     -35.675  14.780  -3.711  1.00 20.00     0.003 C 
ENDROOT
BRANCH   5  10
HETATM   10  C1  UNL     1     -34.982  16.663  -2.095  1.00 20.00     0.223 C 
HETATM   11  O11 UNL     1     -36.094  17.174  -2.188  1.00 20.00    -0.279 OA
HETATM   12 CL12 UNL     1     -33.587  17.374  -1.342  1.00 20.00    -0.043 Cl
ENDBRANCH   5  10
TORSDOF 1
ENDMDL
MODEL 2
REMARK VINA RESULT:      -5.1      2.622      3.747
REMARK  1 active torsions:
REMARK  status: ('A' for Active; 'I' for Inactive)
REMARK    1  A    between atoms: C1_1  and  C6_6 
ROOT
HETATM    1  C2  UNL     1     -34.593  16.660  -5.035  1.00 20.00     0.010 C 
HETATM    2  C3  UNL     1     -33.887  17.145  -2.657  1.00 20.00     0.010 C 
HETATM    3  C4  UNL     1     -33.105  15.182  -3.630  1.00 20.00     0.010 C 
HETATM    4  C5  UNL     1     -36.213  16.467  -3.119  1.00 20.00     0.010 C 
HETATM    5  C6  UNL     1     -35.482  14.474  -4.059  1.00 20.00     0.081 C 
HETATM    6  C7  UNL     1     -33.414  16.629  -4.017  1.00 20.00    -0.013 C 
HETATM    7  C8  UNL     1     -35.845  15.900  -4.494  1.00 20.00    -0.001 C 
HETATM    8  C9  UNL     1     -34.956  16.099  -2.310  1.00 20.00    -0.009 C 
HETATM    9  C10 UNL     1     -34.432  14.765  -2.972  1.00 20.00     0.003 C 
ENDROOT
BRANCH   5  10
HETATM   10  C1  UNL     1     -35.043  13.584  -5.179  1.00 20.00     0.223 C 
HETATM   11  O11 UNL     1     -34.471  12.518  -4.970  1.00 20.00    -0.279 OA
HETATM   12 CL12 UNL     1     -35.440  14.246  -6.735  1.00 20.00    -0.043 Cl
ENDBRANCH   5  10
TORSDOF 1
ENDMDL
MODEL 3
REMARK VINA RESULT:      -5.0      2.020      3.087
REMARK  1 active torsions:
REMARK  status: ('A' for Active; 'I' for Inactive)
REMARK    1  A    between atoms: C1_1  and  C6_6 
ROOT
HETATM    1  C2  UNL     1     -34.914  13.561  -4.118  1.00 20.00     0.010 C 
HETATM    2  C3  UNL     1     -32.973  15.174  -3.978  1.00 20.00     0.010 C 
HETATM    3  C4  UNL     1     -34.831  15.610  -2.647  1.00 20.00     0.010 C 
HETATM    4  C5  UNL     1     -34.398  15.161  -5.991  1.00 20.00     0.010 C 
HETATM    5  C6  UNL     1     -36.273  15.640  -4.709  1.00 20.00     0.081 C 
HETATM    6  C7  UNL     1     -34.027  14.418  -3.167  1.00 20.00    -0.013 C 
HETATM    7  C8  UNL     1     -35.528  14.421  -5.267  1.00 20.00    -0.001 C 
HETATM    8  C9  UNL     1     -33.869  16.058  -4.857  1.00 20.00    -0.009 C 
HETATM    9  C10 UNL     1     -35.134  16.353  -3.960  1.00 20.00     0.003 C 
ENDROOT
BRANCH   5  10
HETATM   10  C1  UNL     1     -37.485  15.300  -3.900  1.00 20.00     0.223 C 
HETATM   11  O11 UNL     1     -37.897  14.148  -3.808  1.00 20.00    -0.279 OA
HETATM   12 CL12 UNL     1     -38.185  16.703  -3.151  1.00 20.00    -0.043 Cl
ENDBRANCH   5  10
TORSDOF 1
ENDMDL
MODEL 4
REMARK VINA RESULT:      -4.9      2.241      3.345
REMARK  1 active torsions:
REMARK  status: ('A' for Active; 'I' for Inactive)
REMARK    1  A    between atoms: C1_1  and  C6_6 
ROOT
HETATM    1  C2  UNL     1     -33.724  16.160  -2.683  1.00 20.00     0.010 C 
HETATM    2  C3  UNL     1     -35.599  17.697  -3.400  1.00 20.00     0.010 C 
HETATM    3  C4  UNL     1     -36.076  15.427  -3.231  1.00 20.00     0.010 C 
HETATM    4  C5  UNL     1     -33.760  17.210  -4.970  1.00 20.00     0.010 C 
HETATM    5  C6  UNL     1     -34.228  14.939  -4.868  1.00 20.00     0.081 C 
HETATM    6  C7  UNL     1     -35.237  16.494  -2.527  1.00 20.00    -0.013 C 
HETATM    7  C8  UNL     1     -33.326  15.971  -4.181  1.00 20.00    -0.001 C 
HETATM    8  C9  UNL     1     -35.288  17.140  -4.797  1.00 20.00    -0.009 C 
HETATM    9  C10 UNL     1     -35.606  15.598  -4.686  1.00 20.00     0.003 C 
ENDROOT
BRANCH   5  10
HETATM   10  C1  UNL     1     -34.086  13.548  -4.335  1.00 20.00     0.223 C 
HETATM   11  O11 UNL     1     -34.936  12.687  -4.543  1.00 20.00    -0.279 OA
HETATM   12 CL12 UNL     1     -32.620  13.343  -3.425  1.00 20.00    -0.043 Cl
ENDBRANCH   5  10
TORSDOF 1
ENDMDL
MODEL 5
REMARK VINA RESULT:      -4.9      2.625      3.664
REMARK  1 active torsions:
REMARK  status: ('A' for Active; 'I' for Inactive)
REMARK    1  A    between atoms: C1_1  and  C6_6 
ROOT
HETATM    1  C2  UNL     1     -35.929  14.128  -4.168  1.00 20.00     0.010 C 
HETATM    2  C3  UNL     1     -34.690  15.534  -2.471  1.00 20.00     0.010 C 
HETATM    3  C4  UNL     1     -35.389  16.580  -4.428  1.00 20.00     0.010 C 
HETATM    4  C5  UNL     1     -33.455  13.855  -3.790  1.00 20.00     0.010 C 
HETATM    5  C6  UNL     1     -34.091  14.891  -5.768  1.00 20.00     0.081 C 
HETATM    6  C7  UNL     1     -35.867  15.508  -3.448  1.00 20.00    -0.013 C 
HETATM    7  C8  UNL     1     -34.567  13.766  -4.840  1.00 20.00    -0.001 C 
HETATM    8  C9  UNL     1     -33.511  15.352  -3.439  1.00 20.00    -0.009 C 
HETATM    9  C10 UNL     1     -33.983  16.057  -4.770  1.00 20.00     0.003 C 
ENDROOT
BRANCH   5  10
HETATM   10  C1  UNL     1     -34.970  15.119  -6.957  1.00 20.00     0.223 C 
HETATM   11  O11 UNL     1     -35.784  14.279  -7.329  1.00 20.00    -0.279 OA
HETATM   12 CL12 UNL     1     -34.682  16.664  -7.696  1.00 20.00    -0.043 Cl
ENDBRANCH   5  10
TORSDOF 1
ENDMDL
MODEL 6
REMARK VINA RESULT:      -4.8     11.919     12.956
REMARK  1 active torsions:
REMARK  status: ('A' for Active; 'I' for Inactive)
REMARK    1  A    between atoms: C1_1  and  C6_6 
ROOT
HETATM    1  C2  UNL     1     -43.099   4.311  -1.318  1.00 20.00     0.010 C 
HETATM    2  C3  UNL     1     -42.229   5.043   0.939  1.00 20.00     0.010 C 
HETATM    3  C4  UNL     1     -43.393   6.612  -0.324  1.00 20.00     0.010 C 
HETATM    4  C5  UNL     1     -40.644   4.698  -0.919  1.00 20.00     0.010 C 
HETATM    5  C6  UNL     1     -41.747   6.289  -2.200  1.00 20.00     0.081 C 
HETATM    6  C7  UNL     1     -43.417   5.113  -0.022  1.00 20.00    -0.013 C 
HETATM    7  C8  UNL     1     -41.757   4.773  -1.969  1.00 20.00    -0.001 C 
HETATM    8  C9  UNL     1     -41.144   5.736   0.103  1.00 20.00    -0.009 C 
HETATM    9  C10 UNL     1     -41.929   6.799  -0.760  1.00 20.00     0.003 C 
ENDROOT
BRANCH   5  10
HETATM   10  C1  UNL     1     -42.753   6.764  -3.201  1.00 20.00     0.223 C 
HETATM   11  O11 UNL     1     -43.416   5.979  -3.872  1.00 20.00    -0.279 OA
HETATM   12 CL12 UNL     1     -42.839   8.498  -3.269  1.00 20.00    -0.043 Cl
ENDBRANCH   5  10
TORSDOF 1
ENDMDL
MODEL 7
REMARK VINA RESULT:      -4.8      1.810      2.840
REMARK  1 active torsions:
REMARK  status: ('A' for Active; 'I' for Inactive)
REMARK    1  A    between atoms: C1_1  and  C6_6 
ROOT
HETATM    1  C2  UNL     1     -34.816  15.545  -2.704  1.00 20.00     0.010 C 
HETATM    2  C3  UNL     1     -33.193  13.889  -3.711  1.00 20.00     0.010 C 
HETATM    3  C4  UNL     1     -33.255  16.027  -4.627  1.00 20.00     0.010 C 
HETATM    4  C5  UNL     1     -35.610  13.625  -4.125  1.00 20.00     0.010 C 
HETATM    5  C6  UNL     1     -35.711  15.735  -5.088  1.00 20.00     0.081 C 
HETATM    6  C7  UNL     1     -33.378  15.342  -3.266  1.00 20.00    -0.013 C 
HETATM    7  C8  UNL     1     -35.905  15.072  -3.718  1.00 20.00    -0.001 C 
HETATM    8  C9  UNL     1     -34.248  13.795  -4.822  1.00 20.00    -0.009 C 
HETATM    9  C10 UNL     1     -34.297  15.245  -5.444  1.00 20.00     0.003 C 
ENDROOT
BRANCH   5  10
HETATM   10  C1  UNL     1     -35.916  17.217  -5.087  1.00 20.00     0.223 C 
HETATM   11  O11 UNL     1     -36.427  17.797  -4.133  1.00 20.00    -0.279 OA
HETATM   12 CL12 UNL     1     -35.355  17.956  -6.555  1.00 20.00    -0.043 Cl
ENDBRANCH   5  10
TORSDOF 1
ENDMDL
MODEL 8
REMARK VINA RESULT:      -4.7      2.381      3.356
REMARK  1 active torsions:
REMARK  status: ('A' for Active; 'I' for Inactive)
REMARK    1  A    between atoms: C1_1  and  C6_6 
ROOT
HETATM    1  C2  UNL     1     -34.736  16.633  -4.576  1.00 20.00     0.010 C 
HETATM    2  C3  UNL     1     -36.572  17.133  -6.241  1.00 20.00     0.010 C 
HETATM    3  C4  UNL     1     -36.773  15.196  -4.968  1.00 20.00     0.010 C 
HETATM    4  C5  UNL     1     -34.365  16.389  -7.054  1.00 20.00     0.010 C 
HETATM    5  C6  UNL     1     -34.541  14.421  -5.836  1.00 20.00     0.081 C 
HETATM    6  C7  UNL     1     -36.273  16.633  -4.825  1.00 20.00    -0.013 C 
HETATM    7  C8  UNL     1     -33.971  15.837  -5.680  1.00 20.00    -0.001 C 
HETATM    8  C9  UNL     1     -35.867  16.056  -7.078  1.00 20.00    -0.009 C 
HETATM    9  C10 UNL     1     -35.997  14.739  -6.216  1.00 20.00     0.003 C 
ENDROOT
BRANCH   5  10
HETATM   10  C1  UNL     1     -34.348  13.547  -4.637  1.00 20.00     0.223 C 
HETATM   11  O11 UNL     1     -35.105  12.612  -4.391  1.00 20.00    -0.279 OA
HETATM   12 CL12 UNL     1     -32.968  14.024  -3.695  1.00 20.00    -0.043 Cl
ENDBRANCH   5  10
TORSDOF 1
ENDMDL
MODEL 9
REMARK VINA RESULT:      -4.7      2.372      3.185
REMARK  1 active torsions:
REMARK  status: ('A' for Active; 'I' for Inactive)
REMARK    1  A    between atoms: C1_1  and  C6_6 
ROOT
HETATM    1  C2  UNL     1     -34.643  15.617  -5.557  1.00 20.00     0.010 C 
HETATM    2  C3  UNL     1     -32.950  15.183  -3.731  1.00 20.00     0.010 C 
HETATM    3  C4  UNL     1     -34.841  13.829  -3.787  1.00 20.00     0.010 C 
HETATM    4  C5  UNL     1     -34.374  17.194  -3.613  1.00 20.00     0.010 C 
HETATM    5  C6  UNL     1     -36.288  15.881  -3.623  1.00 20.00     0.081 C 
HETATM    6  C7  UNL     1     -33.880  14.524  -4.752  1.00 20.00    -0.013 C 
HETATM    7  C8  UNL     1     -35.381  16.619  -4.615  1.00 20.00    -0.001 C 
HETATM    8  C9  UNL     1     -33.969  15.920  -2.850  1.00 20.00    -0.009 C 
HETATM    9  C10 UNL     1     -35.257  15.006  -2.889  1.00 20.00     0.003 C 
ENDROOT
BRANCH   5  10
HETATM   10  C1  UNL     1     -37.433  15.158  -4.259  1.00 20.00     0.223 C 
HETATM   11  O11 UNL     1     -37.964  14.190  -3.722  1.00 20.00    -0.279 OA
HETATM   12 CL12 UNL     1     -37.876  15.852  -5.789  1.00 20.00    -0.043 Cl
ENDBRANCH   5  10
TORSDOF 1
ENDMDL
