MODEL 1
REMARK VINA RESULT:      -4.8      0.000      0.000
REMARK  2 active torsions:
REMARK  status: ('A' for Active; 'I' for Inactive)
REMARK    1  A    between atoms: C1_1  and  C5_5 
REMARK    2  A    between atoms: C3_3  and  C6_6 
ROOT
HETATM    1  C1  UNL     1     -33.950   6.044   4.800  1.00 20.00    -0.053 C 
HETATM    2  C2  UNL     1     -34.446   5.896   5.883  1.00 20.00     0.106 C 
HETATM    3  F9  UNL     1     -34.999   5.730   7.090  1.00 20.00    -0.144 F 
ENDROOT
BRANCH   1   4
HETATM    4  C5  UNL     1     -33.366   6.219   3.523  1.00 20.00     0.114 A 
HETATM    5  C6  UNL     1     -32.290   7.145   3.370  1.00 20.00     0.108 A 
HETATM    6  C7  UNL     1     -32.172   5.727   3.199  1.00 20.00     0.186 A 
HETATM    7  F10 UNL     1     -31.905   5.277   1.956  1.00 20.00    -0.235 F 
BRANCH   5   8
HETATM    8  C3  UNL     1     -32.211   7.992   2.391  1.00 20.00    -0.080 C 
HETATM    9  C4  UNL     1     -32.139   8.776   1.485  1.00 20.00     0.272 C 
HETATM   10  O8  UNL     1     -32.068   9.544   0.598  1.00 20.00    -0.274 OA
ENDBRANCH   5   8
ENDBRANCH   1   4
TORSDOF 2
ENDMDL
MODEL 2
REMARK VINA RESULT:      -4.7      3.001      4.781
REMARK  2 active torsions:
REMARK  status: ('A' for Active; 'I' for Inactive)
REMARK    1  A    between atoms: C1_1  and  C5_5 
REMARK    2  A    between atoms: C3_3  and  C6_6 
ROOT
HETATM    1  C1  UNL     1     -32.196   8.336   2.263  1.00 20.00    -0.053 C 
HETATM    2  C2  UNL     1     -32.182   9.247   1.481  1.00 20.00     0.106 C 
HETATM    3  F9  UNL     1     -32.167  10.263   0.610  1.00 20.00    -0.144 F 
ENDROOT
BRANCH   1   4
HETATM    4  C5  UNL     1     -32.213   7.263   3.184  1.00 20.00     0.114 A 
HETATM    5  C6  UNL     1     -33.405   6.488   3.331  1.00 20.00     0.108 A 
HETATM    6  C7  UNL     1     -32.168   5.986   2.809  1.00 20.00     0.186 A 
HETATM    7  F10 UNL     1     -31.523   5.055   3.544  1.00 20.00    -0.235 F 
BRANCH   5   8
HETATM    8  C3  UNL     1     -33.891   6.138   4.481  1.00 20.00    -0.080 C 
HETATM    9  C4  UNL     1     -34.341   5.814   5.546  1.00 20.00     0.272 C 
HETATM   10  O8  UNL     1     -34.782   5.496   6.588  1.00 20.00    -0.274 OA
ENDBRANCH   5   8
ENDBRANCH   1   4
TORSDOF 2
ENDMDL
MODEL 3
REMARK VINA RESULT:      -4.6     10.835     11.257
REMARK  2 active torsions:
REMARK  status: ('A' for Active; 'I' for Inactive)
REMARK    1  A    between atoms: C1_1  and  C5_5 
REMARK    2  A    between atoms: C3_3  and  C6_6 
ROOT
HETATM    1  C1  UNL     1     -34.554  16.753  -0.774  1.00 20.00    -0.053 C 
HETATM    2  C2  UNL     1     -34.926  17.224   0.266  1.00 20.00     0.106 C 
HETATM    3  F9  UNL     1     -35.339  17.749   1.426  1.00 20.00    -0.144 F 
ENDROOT
BRANCH   1   4
HETATM    4  C5  UNL     1     -34.117  16.199  -1.999  1.00 20.00     0.114 A 
HETATM    5  C6  UNL     1     -35.087  15.740  -2.943  1.00 20.00     0.108 A 
HETATM    6  C7  UNL     1     -34.202  16.847  -3.160  1.00 20.00     0.186 A 
HETATM    7  F10 UNL     1     -33.265  16.706  -4.120  1.00 20.00    -0.235 F 
BRANCH   5   8
HETATM    8  C3  UNL     1     -34.990  14.612  -3.575  1.00 20.00    -0.080 C 
HETATM    9  C4  UNL     1     -34.900  13.568  -4.161  1.00 20.00     0.272 C 
HETATM   10  O8  UNL     1     -34.812  12.545  -4.733  1.00 20.00    -0.274 OA
ENDBRANCH   5   8
ENDBRANCH   1   4
TORSDOF 2
ENDMDL
MODEL 4
REMARK VINA RESULT:      -4.2     10.678     11.911
REMARK  2 active torsions:
REMARK  status: ('A' for Active; 'I' for Inactive)
REMARK    1  A    between atoms: C1_1  and  C5_5 
REMARK    2  A    between atoms: C3_3  and  C6_6 
ROOT
HETATM    1  C1  UNL     1     -34.603  14.673  -5.804  1.00 20.00    -0.053 C 
HETATM    2  C2  UNL     1     -35.205  14.390  -6.804  1.00 20.00     0.106 C 
HETATM    3  F9  UNL     1     -35.876  14.073  -7.918  1.00 20.00    -0.144 F 
ENDROOT
BRANCH   1   4
HETATM    4  C5  UNL     1     -33.895  15.008  -4.626  1.00 20.00     0.114 A 
HETATM    5  C6  UNL     1     -34.478  14.715  -3.355  1.00 20.00     0.108 A 
HETATM    6  C7  UNL     1     -33.287  14.101  -3.864  1.00 20.00     0.186 A 
HETATM    7  F10 UNL     1     -32.131  14.374  -3.223  1.00 20.00    -0.235 F 
BRANCH   5   8
HETATM    8  C3  UNL     1     -34.483  15.550  -2.363  1.00 20.00    -0.080 C 
HETATM    9  C4  UNL     1     -34.488  16.324  -1.445  1.00 20.00     0.272 C 
HETATM   10  O8  UNL     1     -34.493  17.080  -0.546  1.00 20.00    -0.274 OA
ENDBRANCH   5   8
ENDBRANCH   1   4
TORSDOF 2
ENDMDL
MODEL 5
REMARK VINA RESULT:      -4.1     10.770     11.621
REMARK  2 active torsions:
REMARK  status: ('A' for Active; 'I' for Inactive)
REMARK    1  A    between atoms: C1_1  and  C5_5 
REMARK    2  A    between atoms: C3_3  and  C6_6 
ROOT
HETATM    1  C1  UNL     1     -34.051  16.761  -1.616  1.00 20.00    -0.053 C 
HETATM    2  C2  UNL     1     -33.513  17.738  -1.174  1.00 20.00     0.106 C 
HETATM    3  F9  UNL     1     -32.914  18.829  -0.680  1.00 20.00    -0.144 F 
ENDROOT
BRANCH   1   4
HETATM    4  C5  UNL     1     -34.685  15.609  -2.138  1.00 20.00     0.114 A 
HETATM    5  C6  UNL     1     -35.384  15.700  -3.381  1.00 20.00     0.108 A 
HETATM    6  C7  UNL     1     -34.200  14.919  -3.168  1.00 20.00     0.186 A 
HETATM    7  F10 UNL     1     -34.327  13.577  -3.245  1.00 20.00    -0.235 F 
BRANCH   5   8
HETATM    8  C3  UNL     1     -36.555  15.182  -3.581  1.00 20.00    -0.080 C 
HETATM    9  C4  UNL     1     -37.641  14.703  -3.766  1.00 20.00     0.272 C 
HETATM   10  O8  UNL     1     -38.703  14.234  -3.947  1.00 20.00    -0.274 OA
ENDBRANCH   5   8
ENDBRANCH   1   4
TORSDOF 2
ENDMDL
MODEL 6
REMARK VINA RESULT:      -4.0     10.646     11.749
REMARK  2 active torsions:
REMARK  status: ('A' for Active; 'I' for Inactive)
REMARK    1  A    between atoms: C1_1  and  C5_5 
REMARK    2  A    between atoms: C3_3  and  C6_6 
ROOT
HETATM    1  C1  UNL     1     -34.552  14.917  -3.191  1.00 20.00    -0.053 C 
HETATM    2  C2  UNL     1     -34.123  13.961  -3.777  1.00 20.00     0.106 C 
HETATM    3  F9  UNL     1     -33.646  12.894  -4.429  1.00 20.00    -0.144 F 
ENDROOT
BRANCH   1   4
HETATM    4  C5  UNL     1     -35.057  16.044  -2.501  1.00 20.00     0.114 A 
HETATM    5  C6  UNL     1     -34.247  16.673  -1.506  1.00 20.00     0.108 A 
HETATM    6  C7  UNL     1     -34.642  17.286  -2.741  1.00 20.00     0.186 A 
HETATM    7  F10 UNL     1     -35.480  18.341  -2.663  1.00 20.00    -0.235 F 
BRANCH   5   8
HETATM    8  C3  UNL     1     -34.698  17.043  -0.348  1.00 20.00    -0.080 C 
HETATM    9  C4  UNL     1     -35.116  17.386   0.724  1.00 20.00     0.272 C 
HETATM   10  O8  UNL     1     -35.525  17.721   1.773  1.00 20.00    -0.274 OA
ENDBRANCH   5   8
ENDBRANCH   1   4
TORSDOF 2
ENDMDL
MODEL 7
REMARK VINA RESULT:      -3.8     11.525     12.520
REMARK  2 active torsions:
REMARK  status: ('A' for Active; 'I' for Inactive)
REMARK    1  A    between atoms: C1_1  and  C5_5 
REMARK    2  A    between atoms: C3_3  and  C6_6 
ROOT
HETATM    1  C1  UNL     1     -33.705  16.749  -2.939  1.00 20.00    -0.053 C 
HETATM    2  C2  UNL     1     -33.776  16.605  -4.129  1.00 20.00     0.106 C 
HETATM    3  F9  UNL     1     -33.856  16.444  -5.455  1.00 20.00    -0.144 F 
ENDROOT
BRANCH   1   4
HETATM    4  C5  UNL     1     -33.621  16.919  -1.538  1.00 20.00     0.114 A 
HETATM    5  C6  UNL     1     -33.578  18.241  -0.997  1.00 20.00     0.108 A 
HETATM    6  C7  UNL     1     -34.652  17.314  -0.793  1.00 20.00     0.186 A 
HETATM    7  F10 UNL     1     -34.836  16.853   0.462  1.00 20.00    -0.235 F 
BRANCH   5   8
HETATM    8  C3  UNL     1     -32.757  18.602  -0.060  1.00 20.00    -0.080 C 
HETATM    9  C4  UNL     1     -31.997  18.936   0.807  1.00 20.00     0.272 C 
HETATM   10  O8  UNL     1     -31.254  19.263   1.657  1.00 20.00    -0.274 OA
ENDBRANCH   5   8
ENDBRANCH   1   4
TORSDOF 2
ENDMDL
MODEL 8
REMARK VINA RESULT:      -3.7     11.236     12.122
REMARK  2 active torsions:
REMARK  status: ('A' for Active; 'I' for Inactive)
REMARK    1  A    between atoms: C1_1  and  C5_5 
REMARK    2  A    between atoms: C3_3  and  C6_6 
ROOT
HETATM    1  C1  UNL     1     -34.431  16.301  -1.901  1.00 20.00    -0.053 C 
HETATM    2  C2  UNL     1     -34.665  16.596  -0.761  1.00 20.00     0.106 C 
HETATM    3  F9  UNL     1     -34.926  16.926   0.510  1.00 20.00    -0.144 F 
ENDROOT
BRANCH   1   4
HETATM    4  C5  UNL     1     -34.155  15.952  -3.243  1.00 20.00     0.114 A 
HETATM    5  C6  UNL     1     -34.933  16.537  -4.289  1.00 20.00     0.108 A 
HETATM    6  C7  UNL     1     -33.533  16.770  -4.091  1.00 20.00     0.186 A 
HETATM    7  F10 UNL     1     -32.691  16.302  -5.037  1.00 20.00    -0.235 F 
BRANCH   5   8
HETATM    8  C3  UNL     1     -35.411  15.860  -5.287  1.00 20.00    -0.080 C 
HETATM    9  C4  UNL     1     -35.854  15.233  -6.210  1.00 20.00     0.272 C 
HETATM   10  O8  UNL     1     -36.286  14.619  -7.114  1.00 20.00    -0.274 OA
ENDBRANCH   5   8
ENDBRANCH   1   4
TORSDOF 2
ENDMDL
MODEL 9
REMARK VINA RESULT:      -3.7     11.198     11.852
REMARK  2 active torsions:
REMARK  status: ('A' for Active; 'I' for Inactive)
REMARK    1  A    between atoms: C1_1  and  C5_5 
REMARK    2  A    between atoms: C3_3  and  C6_6 
ROOT
HETATM    1  C1  UNL     1     -35.416  15.619  -2.915  1.00 20.00    -0.053 C 
HETATM    2  C2  UNL     1     -35.739  14.662  -3.564  1.00 20.00     0.106 C 
HETATM    3  F9  UNL     1     -36.100  13.596  -4.288  1.00 20.00    -0.144 F 
ENDROOT
BRANCH   1   4
HETATM    4  C5  UNL     1     -35.035  16.746  -2.150  1.00 20.00     0.114 A 
HETATM    5  C6  UNL     1     -34.563  16.556  -0.814  1.00 20.00     0.108 A 
HETATM    6  C7  UNL     1     -33.765  17.054  -1.896  1.00 20.00     0.186 A 
HETATM    7  F10 UNL     1     -33.349  18.335  -1.814  1.00 20.00    -0.235 F 
BRANCH   5   8
HETATM    8  C3  UNL     1     -34.945  17.285   0.187  1.00 20.00    -0.080 C 
HETATM    9  C4  UNL     1     -35.297  17.960   1.116  1.00 20.00     0.272 C 
HETATM   10  O8  UNL     1     -35.643  18.620   2.025  1.00 20.00    -0.274 OA
ENDBRANCH   5   8
ENDBRANCH   1   4
TORSDOF 2
ENDMDL
