MODEL 1
REMARK VINA RESULT:      -5.9      0.000      0.000
REMARK  1 active torsions:
REMARK  status: ('A' for Active; 'I' for Inactive)
REMARK    1  A    between atoms: C5_5  and  C8_8 
ROOT
HETATM    1  C1  UNL     1     -35.178   4.336   5.970  1.00 20.00    -0.004 C 
HETATM    2  C2  UNL     1     -34.770   5.518   6.729  1.00 20.00    -0.004 C 
HETATM    3  C3  UNL     1     -35.146   4.105   4.639  1.00 20.00    -0.026 C 
HETATM    4  C4  UNL     1     -33.904   6.464   6.311  1.00 20.00    -0.021 C 
HETATM    5  C6  UNL     1     -34.670   5.015   3.515  1.00 20.00     0.033 C 
HETATM    6  C7  UNL     1     -33.281   6.418   4.991  1.00 20.00     0.028 A 
HETATM    7  C8  UNL     1     -33.265   7.378   3.849  1.00 20.00     0.100 A 
HETATM    8  C9  UNL     1     -34.414   6.414   3.964  1.00 20.00     0.012 A 
ENDROOT
BRANCH   7   9
HETATM    9  C5  UNL     1     -32.318   7.156   2.774  1.00 20.00     0.178 C 
HETATM   10  O10 UNL     1     -32.162   8.127   1.983  1.00 20.00    -0.648 OA
HETATM   11  O11 UNL     1     -31.774   6.016   2.775  1.00 20.00    -0.648 OA
ENDBRANCH   7   9
TORSDOF 1
ENDMDL
MODEL 2
REMARK VINA RESULT:      -5.4     11.356     12.908
REMARK  1 active torsions:
REMARK  status: ('A' for Active; 'I' for Inactive)
REMARK    1  A    between atoms: C5_5  and  C8_8 
ROOT
HETATM    1  C1  UNL     1     -33.714  18.261  -3.402  1.00 20.00    -0.004 C 
HETATM    2  C2  UNL     1     -33.803  17.632  -2.084  1.00 20.00    -0.004 C 
HETATM    3  C3  UNL     1     -33.679  17.700  -4.631  1.00 20.00    -0.026 C 
HETATM    4  C4  UNL     1     -34.277  16.395  -1.831  1.00 20.00    -0.021 C 
HETATM    5  C6  UNL     1     -33.723  16.228  -5.019  1.00 20.00     0.033 C 
HETATM    6  C7  UNL     1     -34.742  15.508  -2.894  1.00 20.00     0.028 A 
HETATM    7  C8  UNL     1     -34.334  14.136  -3.313  1.00 20.00     0.100 A 
HETATM    8  C9  UNL     1     -33.568  15.312  -3.854  1.00 20.00     0.012 A 
ENDROOT
BRANCH   7   9
HETATM    9  C5  UNL     1     -35.186  13.416  -4.239  1.00 20.00     0.178 C 
HETATM   10  O10 UNL     1     -34.600  12.558  -4.955  1.00 20.00    -0.648 OA
HETATM   11  O11 UNL     1     -36.405  13.746  -4.204  1.00 20.00    -0.648 OA
ENDBRANCH   7   9
TORSDOF 1
ENDMDL
MODEL 3
REMARK VINA RESULT:      -5.3     11.400     12.916
REMARK  1 active torsions:
REMARK  status: ('A' for Active; 'I' for Inactive)
REMARK    1  A    between atoms: C5_5  and  C8_8 
ROOT
HETATM    1  C1  UNL     1     -33.750  18.202  -2.251  1.00 20.00    -0.004 C 
HETATM    2  C2  UNL     1     -33.609  18.347  -3.700  1.00 20.00    -0.004 C 
HETATM    3  C3  UNL     1     -34.221  17.164  -1.524  1.00 20.00    -0.026 C 
HETATM    4  C4  UNL     1     -33.536  17.336  -4.590  1.00 20.00    -0.021 C 
HETATM    5  C6  UNL     1     -34.752  15.819  -1.998  1.00 20.00     0.033 C 
HETATM    6  C7  UNL     1     -33.622  15.936  -4.185  1.00 20.00     0.028 A 
HETATM    7  C8  UNL     1     -34.542  14.828  -4.575  1.00 20.00     0.100 A 
HETATM    8  C9  UNL     1     -34.964  15.761  -3.473  1.00 20.00     0.012 A 
ENDROOT
BRANCH   7   9
HETATM    9  C5  UNL     1     -34.189  13.473  -4.199  1.00 20.00     0.178 C 
HETATM   10  O10 UNL     1     -35.082  12.606  -4.404  1.00 20.00    -0.648 OA
HETATM   11  O11 UNL     1     -33.030  13.344  -3.714  1.00 20.00    -0.648 OA
ENDBRANCH   7   9
TORSDOF 1
ENDMDL
MODEL 4
REMARK VINA RESULT:      -5.1      1.034      2.129
REMARK  1 active torsions:
REMARK  status: ('A' for Active; 'I' for Inactive)
REMARK    1  A    between atoms: C5_5  and  C8_8 
ROOT
HETATM    1  C1  UNL     1     -35.238   5.199   5.900  1.00 20.00    -0.004 C 
HETATM    2  C2  UNL     1     -35.345   4.593   4.573  1.00 20.00    -0.004 C 
HETATM    3  C3  UNL     1     -34.300   6.033   6.400  1.00 20.00    -0.026 C 
HETATM    4  C4  UNL     1     -34.763   5.053   3.446  1.00 20.00    -0.021 C 
HETATM    5  C6  UNL     1     -33.058   6.600   5.726  1.00 20.00     0.033 C 
HETATM    6  C7  UNL     1     -33.906   6.235   3.442  1.00 20.00     0.028 A 
HETATM    7  C8  UNL     1     -32.492   6.455   3.020  1.00 20.00     0.100 A 
HETATM    8  C9  UNL     1     -32.760   5.958   4.415  1.00 20.00     0.012 A 
ENDROOT
BRANCH   7   9
HETATM    9  C5  UNL     1     -32.017   7.817   2.881  1.00 20.00     0.178 C 
HETATM   10  O10 UNL     1     -32.557   8.485   1.957  1.00 20.00    -0.648 OA
HETATM   11  O11 UNL     1     -31.123   8.153   3.708  1.00 20.00    -0.648 OA
ENDBRANCH   7   9
TORSDOF 1
ENDMDL
MODEL 5
REMARK VINA RESULT:      -4.9     11.896     12.639
REMARK  1 active torsions:
REMARK  status: ('A' for Active; 'I' for Inactive)
REMARK    1  A    between atoms: C5_5  and  C8_8 
ROOT
HETATM    1  C1  UNL     1     -35.061  13.474  -4.369  1.00 20.00    -0.004 C 
HETATM    2  C2  UNL     1     -33.651  13.475  -3.978  1.00 20.00    -0.004 C 
HETATM    3  C3  UNL     1     -36.057  14.321  -4.028  1.00 20.00    -0.026 C 
HETATM    4  C4  UNL     1     -32.958  14.541  -3.528  1.00 20.00    -0.021 C 
HETATM    5  C6  UNL     1     -36.013  15.545  -3.125  1.00 20.00     0.033 C 
HETATM    6  C7  UNL     1     -33.578  15.851  -3.350  1.00 20.00     0.028 A 
HETATM    7  C8  UNL     1     -33.711  16.752  -2.168  1.00 20.00     0.100 A 
HETATM    8  C9  UNL     1     -34.735  15.667  -2.367  1.00 20.00     0.012 A 
ENDROOT
BRANCH   7   9
HETATM    9  C5  UNL     1     -34.143  18.118  -2.387  1.00 20.00     0.178 C 
HETATM   10  O10 UNL     1     -33.706  18.659  -3.440  1.00 20.00    -0.648 OA
HETATM   11  O11 UNL     1     -34.901  18.584  -1.491  1.00 20.00    -0.648 OA
ENDBRANCH   7   9
TORSDOF 1
ENDMDL
MODEL 6
REMARK VINA RESULT:      -4.7     11.403     13.484
REMARK  1 active torsions:
REMARK  status: ('A' for Active; 'I' for Inactive)
REMARK    1  A    between atoms: C5_5  and  C8_8 
ROOT
HETATM    1  C1  UNL     1     -35.048  18.154  -5.532  1.00 20.00    -0.004 C 
HETATM    2  C2  UNL     1     -36.177  17.795  -4.674  1.00 20.00    -0.004 C 
HETATM    3  C3  UNL     1     -33.841  17.562  -5.672  1.00 20.00    -0.026 C 
HETATM    4  C4  UNL     1     -36.410  16.576  -4.147  1.00 20.00    -0.021 C 
HETATM    5  C6  UNL     1     -33.286  16.329  -4.971  1.00 20.00     0.033 C 
HETATM    6  C7  UNL     1     -35.506  15.449  -4.363  1.00 20.00     0.028 A 
HETATM    7  C8  UNL     1     -34.756  14.563  -3.426  1.00 20.00     0.100 A 
HETATM    8  C9  UNL     1     -34.135  15.871  -3.835  1.00 20.00     0.012 A 
ENDROOT
BRANCH   7   9
HETATM    9  C5  UNL     1     -34.157  13.352  -3.953  1.00 20.00     0.178 C 
HETATM   10  O10 UNL     1     -32.968  13.136  -3.589  1.00 20.00    -0.648 OA
HETATM   11  O11 UNL     1     -34.910  12.674  -4.707  1.00 20.00    -0.648 OA
ENDBRANCH   7   9
TORSDOF 1
ENDMDL
MODEL 7
REMARK VINA RESULT:      -4.6     11.829     13.827
REMARK  1 active torsions:
REMARK  status: ('A' for Active; 'I' for Inactive)
REMARK    1  A    between atoms: C5_5  and  C8_8 
ROOT
HETATM    1  C1  UNL     1     -36.379  16.537  -7.522  1.00 20.00    -0.004 C 
HETATM    2  C2  UNL     1     -36.706  17.059  -6.195  1.00 20.00    -0.004 C 
HETATM    3  C3  UNL     1     -35.437  15.643  -7.896  1.00 20.00    -0.026 C 
HETATM    4  C4  UNL     1     -36.418  16.463  -5.020  1.00 20.00    -0.021 C 
HETATM    5  C6  UNL     1     -34.421  14.901  -7.039  1.00 20.00     0.033 C 
HETATM    6  C7  UNL     1     -35.692  15.197  -4.949  1.00 20.00     0.028 A 
HETATM    7  C8  UNL     1     -34.424  14.798  -4.272  1.00 20.00     0.100 A 
HETATM    8  C9  UNL     1     -34.347  15.415  -5.642  1.00 20.00     0.012 A 
ENDROOT
BRANCH   7   9
HETATM    9  C5  UNL     1     -34.115  13.386  -4.163  1.00 20.00     0.178 C 
HETATM   10  O10 UNL     1     -35.060  12.603  -4.458  1.00 20.00    -0.648 OA
HETATM   11  O11 UNL     1     -32.937  13.129  -3.786  1.00 20.00    -0.648 OA
ENDBRANCH   7   9
TORSDOF 1
ENDMDL
MODEL 8
REMARK VINA RESULT:      -4.6     11.738     12.845
REMARK  1 active torsions:
REMARK  status: ('A' for Active; 'I' for Inactive)
REMARK    1  A    between atoms: C5_5  and  C8_8 
ROOT
HETATM    1  C1  UNL     1     -36.107  17.951  -2.173  1.00 20.00    -0.004 C 
HETATM    2  C2  UNL     1     -35.058  17.342  -1.355  1.00 20.00    -0.004 C 
HETATM    3  C3  UNL     1     -36.421  17.750  -3.472  1.00 20.00    -0.026 C 
HETATM    4  C4  UNL     1     -34.448  16.165  -1.602  1.00 20.00    -0.021 C 
HETATM    5  C6  UNL     1     -35.771  16.820  -4.487  1.00 20.00     0.033 C 
HETATM    6  C7  UNL     1     -34.765  15.358  -2.778  1.00 20.00     0.028 A 
HETATM    7  C8  UNL     1     -33.929  14.838  -3.899  1.00 20.00     0.100 A 
HETATM    8  C9  UNL     1     -34.491  16.230  -4.004  1.00 20.00     0.012 A 
ENDROOT
BRANCH   7   9
HETATM    9  C5  UNL     1     -34.496  13.827  -4.770  1.00 20.00     0.178 C 
HETATM   10  O10 UNL     1     -34.932  12.796  -4.188  1.00 20.00    -0.648 OA
HETATM   11  O11 UNL     1     -34.478  14.117  -5.999  1.00 20.00    -0.648 OA
ENDBRANCH   7   9
TORSDOF 1
ENDMDL
MODEL 9
REMARK VINA RESULT:      -4.6     11.714     12.766
REMARK  1 active torsions:
REMARK  status: ('A' for Active; 'I' for Inactive)
REMARK    1  A    between atoms: C5_5  and  C8_8 
ROOT
HETATM    1  C1  UNL     1     -35.081  14.014  -5.746  1.00 20.00    -0.004 C 
HETATM    2  C2  UNL     1     -34.323  13.317  -4.708  1.00 20.00    -0.004 C 
HETATM    3  C3  UNL     1     -35.836  15.133  -5.667  1.00 20.00    -0.026 C 
HETATM    4  C4  UNL     1     -33.883  13.858  -3.554  1.00 20.00    -0.021 C 
HETATM    5  C6  UNL     1     -36.127  16.014  -4.459  1.00 20.00     0.033 C 
HETATM    6  C7  UNL     1     -34.156  15.247  -3.193  1.00 20.00     0.028 A 
HETATM    7  C8  UNL     1     -34.830  15.870  -2.017  1.00 20.00     0.100 A 
HETATM    8  C9  UNL     1     -35.677  15.410  -3.173  1.00 20.00     0.012 A 
ENDROOT
BRANCH   7   9
HETATM    9  C5  UNL     1     -34.695  17.300  -1.822  1.00 20.00     0.178 C 
HETATM   10  O10 UNL     1     -33.600  17.795  -2.209  1.00 20.00    -0.648 OA
HETATM   11  O11 UNL     1     -35.694  17.859  -1.290  1.00 20.00    -0.648 OA
ENDBRANCH   7   9
TORSDOF 1
ENDMDL
