MODEL 1
REMARK VINA RESULT:      -3.7      0.000      0.000
REMARK  1 active torsions:
REMARK  status: ('A' for Active; 'I' for Inactive)
REMARK    1  A    between atoms: C1_1  and  C3_3 
ROOT
HETATM    1  C2  UNL     1     -34.601   5.181   3.208  1.00 20.00     0.030 A 
HETATM    2  C3  UNL     1     -34.904   6.078   4.378  1.00 20.00     0.070 A 
HETATM    3  C4  UNL     1     -34.003   6.557   3.268  1.00 20.00     0.070 A 
HETATM    4 BR7  UNL     1     -32.118   6.704   3.531  1.00 20.00    -0.090 Br
ENDROOT
BRANCH   2   5
HETATM    5  C1  UNL     1     -34.380   5.734   5.705  1.00 20.00     0.128 C 
HETATM    6  C5  UNL     1     -34.383   4.275   6.076  1.00 20.00     0.091 C 
HETATM    7  O6  UNL     1     -33.958   6.595   6.476  1.00 20.00    -0.298 OA
ENDBRANCH   2   5
TORSDOF 1
ENDMDL
MODEL 2
REMARK VINA RESULT:      -3.7     12.187     12.582
REMARK  1 active torsions:
REMARK  status: ('A' for Active; 'I' for Inactive)
REMARK    1  A    between atoms: C1_1  and  C3_3 
ROOT
HETATM    1  C2  UNL     1     -34.218  15.561  -2.731  1.00 20.00     0.030 A 
HETATM    2  C3  UNL     1     -33.985  14.220  -3.373  1.00 20.00     0.070 A 
HETATM    3  C4  UNL     1     -33.236  15.434  -3.861  1.00 20.00     0.070 A 
HETATM    4 BR7  UNL     1     -33.678  16.254  -5.527  1.00 20.00    -0.090 Br
ENDROOT
BRANCH   2   5
HETATM    5  C1  UNL     1     -35.057  13.604  -4.163  1.00 20.00     0.128 C 
HETATM    6  C5  UNL     1     -36.417  14.243  -4.073  1.00 20.00     0.091 C 
HETATM    7  O6  UNL     1     -34.855  12.613  -4.865  1.00 20.00    -0.298 OA
ENDBRANCH   2   5
TORSDOF 1
ENDMDL
MODEL 3
REMARK VINA RESULT:      -3.7      2.042      3.073
REMARK  1 active torsions:
REMARK  status: ('A' for Active; 'I' for Inactive)
REMARK    1  A    between atoms: C1_1  and  C3_3 
ROOT
HETATM    1  C2  UNL     1     -35.336   4.416   6.230  1.00 20.00     0.030 A 
HETATM    2  C3  UNL     1     -34.461   4.422   5.005  1.00 20.00     0.070 A 
HETATM    3  C4  UNL     1     -33.956   5.006   6.299  1.00 20.00     0.070 A 
HETATM    4 BR7  UNL     1     -33.799   6.895   6.527  1.00 20.00    -0.090 Br
ENDROOT
BRANCH   2   5
HETATM    5  C1  UNL     1     -34.826   5.270   3.864  1.00 20.00     0.128 C 
HETATM    6  C5  UNL     1     -33.705   5.704   2.958  1.00 20.00     0.091 C 
HETATM    7  O6  UNL     1     -35.991   5.610   3.659  1.00 20.00    -0.298 OA
ENDBRANCH   2   5
TORSDOF 1
ENDMDL
MODEL 4
REMARK VINA RESULT:      -3.6      2.434      3.315
REMARK  1 active torsions:
REMARK  status: ('A' for Active; 'I' for Inactive)
REMARK    1  A    between atoms: C1_1  and  C3_3 
ROOT
HETATM    1  C2  UNL     1     -33.515   6.527   6.084  1.00 20.00     0.030 A 
HETATM    2  C3  UNL     1     -34.266   6.593   4.781  1.00 20.00     0.070 A 
HETATM    3  C4  UNL     1     -34.773   5.725   5.906  1.00 20.00     0.070 A 
HETATM    4 BR7  UNL     1     -34.619   3.824   5.822  1.00 20.00    -0.090 Br
ENDROOT
BRANCH   2   5
HETATM    5  C1  UNL     1     -33.664   6.019   3.573  1.00 20.00     0.128 C 
HETATM    6  C5  UNL     1     -32.205   6.306   3.341  1.00 20.00     0.091 C 
HETATM    7  O6  UNL     1     -34.320   5.335   2.787  1.00 20.00    -0.298 OA
ENDBRANCH   2   5
TORSDOF 1
ENDMDL
MODEL 5
REMARK VINA RESULT:      -3.6      2.148      2.824
REMARK  1 active torsions:
REMARK  status: ('A' for Active; 'I' for Inactive)
REMARK    1  A    between atoms: C1_1  and  C3_3 
ROOT
HETATM    1  C2  UNL     1     -35.817   5.716   3.774  1.00 20.00     0.030 A 
HETATM    2  C3  UNL     1     -34.379   5.407   3.453  1.00 20.00     0.070 A 
HETATM    3  C4  UNL     1     -35.168   4.492   4.355  1.00 20.00     0.070 A 
HETATM    4 BR7  UNL     1     -34.847   4.457   6.237  1.00 20.00    -0.090 Br
ENDROOT
BRANCH   2   5
HETATM    5  C1  UNL     1     -33.322   6.282   3.972  1.00 20.00     0.128 C 
HETATM    6  C5  UNL     1     -32.104   6.460   3.106  1.00 20.00     0.091 C 
HETATM    7  O6  UNL     1     -33.426   6.843   5.063  1.00 20.00    -0.298 OA
ENDBRANCH   2   5
TORSDOF 1
ENDMDL
MODEL 6
REMARK VINA RESULT:      -3.4     12.090     13.148
REMARK  1 active torsions:
REMARK  status: ('A' for Active; 'I' for Inactive)
REMARK    1  A    between atoms: C1_1  and  C3_3 
ROOT
HETATM    1  C2  UNL     1     -34.024  15.843  -5.728  1.00 20.00     0.030 A 
HETATM    2  C3  UNL     1     -34.576  14.444  -5.792  1.00 20.00     0.070 A 
HETATM    3  C4  UNL     1     -35.511  15.624  -5.702  1.00 20.00     0.070 A 
HETATM    4 BR7  UNL     1     -36.445  16.011  -4.083  1.00 20.00    -0.090 Br
ENDROOT
BRANCH   2   5
HETATM    5  C1  UNL     1     -34.368  13.534  -4.660  1.00 20.00     0.128 C 
HETATM    6  C5  UNL     1     -33.228  13.858  -3.732  1.00 20.00     0.091 C 
HETATM    7  O6  UNL     1     -35.090  12.554  -4.477  1.00 20.00    -0.298 OA
ENDBRANCH   2   5
TORSDOF 1
ENDMDL
MODEL 7
REMARK VINA RESULT:      -3.4     12.307     12.826
REMARK  1 active torsions:
REMARK  status: ('A' for Active; 'I' for Inactive)
REMARK    1  A    between atoms: C1_1  and  C3_3 
ROOT
HETATM    1  C2  UNL     1     -36.475  16.014  -4.340  1.00 20.00     0.030 A 
HETATM    2  C3  UNL     1     -36.312  14.560  -3.986  1.00 20.00     0.070 A 
HETATM    3  C4  UNL     1     -35.869  15.629  -3.020  1.00 20.00     0.070 A 
HETATM    4 BR7  UNL     1     -34.015  15.993  -2.746  1.00 20.00    -0.090 Br
ENDROOT
BRANCH   2   5
HETATM    5  C1  UNL     1     -35.348  13.742  -4.730  1.00 20.00     0.128 C 
HETATM    6  C5  UNL     1     -34.912  14.262  -6.073  1.00 20.00     0.091 C 
HETATM    7  O6  UNL     1     -34.917  12.681  -4.278  1.00 20.00    -0.298 OA
ENDBRANCH   2   5
TORSDOF 1
ENDMDL
MODEL 8
REMARK VINA RESULT:      -3.3     12.324     12.689
REMARK  1 active torsions:
REMARK  status: ('A' for Active; 'I' for Inactive)
REMARK    1  A    between atoms: C1_1  and  C3_3 
ROOT
HETATM    1  C2  UNL     1     -34.376  13.342  -4.818  1.00 20.00     0.030 A 
HETATM    2  C3  UNL     1     -34.362  14.066  -3.498  1.00 20.00     0.070 A 
HETATM    3  C4  UNL     1     -35.661  13.858  -4.235  1.00 20.00     0.070 A 
HETATM    4 BR7  UNL     1     -36.527  15.310  -5.122  1.00 20.00    -0.090 Br
ENDROOT
BRANCH   2   5
HETATM    5  C1  UNL     1     -33.728  15.385  -3.407  1.00 20.00     0.128 C 
HETATM    6  C5  UNL     1     -34.086  16.228  -2.213  1.00 20.00     0.091 C 
HETATM    7  O6  UNL     1     -32.940  15.784  -4.265  1.00 20.00    -0.298 OA
ENDBRANCH   2   5
TORSDOF 1
ENDMDL
MODEL 9
REMARK VINA RESULT:      -3.3      9.466     10.111
REMARK  1 active torsions:
REMARK  status: ('A' for Active; 'I' for Inactive)
REMARK    1  A    between atoms: C1_1  and  C3_3 
ROOT
HETATM    1  C2  UNL     1     -41.193   7.032  -0.845  1.00 20.00     0.030 A 
HETATM    2  C3  UNL     1     -41.789   6.053  -1.820  1.00 20.00     0.070 A 
HETATM    3  C4  UNL     1     -42.632   6.623  -0.708  1.00 20.00     0.070 A 
HETATM    4 BR7  UNL     1     -43.120   5.555   0.798  1.00 20.00    -0.090 Br
ENDROOT
BRANCH   2   5
HETATM    5  C1  UNL     1     -41.334   4.658  -1.808  1.00 20.00     0.128 C 
HETATM    6  C5  UNL     1     -42.174   3.665  -2.564  1.00 20.00     0.091 C 
HETATM    7  O6  UNL     1     -40.314   4.316  -1.208  1.00 20.00    -0.298 OA
ENDBRANCH   2   5
TORSDOF 1
ENDMDL
