MODEL 1
REMARK VINA RESULT:      -4.8      0.000      0.000
REMARK  1 active torsions:
REMARK  status: ('A' for Active; 'I' for Inactive)
REMARK    1  A    between atoms: C1_1  and  C4_4 
ROOT
HETATM    1  C1  UNL     1     -34.486  15.773  -2.359  1.00 20.00    -0.068 C 
HETATM    2  C2  UNL     1     -34.644  16.377  -1.334  1.00 20.00    -0.108 C 
HETATM    3  C6  UNL     1     -34.836  17.113  -0.084  1.00 20.00     0.112 C 
ENDROOT
BRANCH   1   4
HETATM    4  C4  UNL     1     -34.294  15.044  -3.599  1.00 20.00     0.129 C 
HETATM    5  C5  UNL     1     -35.598  14.718  -4.421  1.00 20.00     0.016 C 
HETATM    6  C3  UNL     1     -35.064  13.270  -4.358  1.00 20.00     0.182 C 
HETATM    7  C8  UNL     1     -35.697  15.289  -5.833  1.00 20.00     0.021 C 
HETATM    8  C9  UNL     1     -36.936  14.864  -3.686  1.00 20.00     0.021 C 
HETATM    9  O10 UNL     1     -34.129  13.623  -3.306  1.00 20.00    -0.366 OA
HETATM   10  C7  UNL     1     -33.063  15.558  -4.341  1.00 20.00     0.061 C 
ENDBRANCH   1   4
TORSDOF 1
ENDMDL
MODEL 2
REMARK VINA RESULT:      -4.5      1.314      2.497
REMARK  1 active torsions:
REMARK  status: ('A' for Active; 'I' for Inactive)
REMARK    1  A    between atoms: C1_1  and  C4_4 
ROOT
HETATM    1  C1  UNL     1     -35.085  16.084  -2.347  1.00 20.00    -0.068 C 
HETATM    2  C2  UNL     1     -34.882  16.588  -1.276  1.00 20.00    -0.108 C 
HETATM    3  C6  UNL     1     -34.635  17.202   0.028  1.00 20.00     0.112 C 
ENDROOT
BRANCH   1   4
HETATM    4  C4  UNL     1     -35.330  15.476  -3.642  1.00 20.00     0.129 C 
HETATM    5  C5  UNL     1     -34.126  14.682  -4.275  1.00 20.00     0.016 C 
HETATM    6  C3  UNL     1     -34.389  15.599  -5.490  1.00 20.00     0.182 C 
HETATM    7  C8  UNL     1     -34.336  13.196  -4.552  1.00 20.00     0.021 C 
HETATM    8  C9  UNL     1     -32.739  14.925  -3.667  1.00 20.00     0.021 C 
HETATM    9  O10 UNL     1     -35.205  16.489  -4.685  1.00 20.00    -0.366 OA
HETATM   10  C7  UNL     1     -36.727  14.862  -3.692  1.00 20.00     0.061 C 
ENDBRANCH   1   4
TORSDOF 1
ENDMDL
MODEL 3
REMARK VINA RESULT:      -4.5      1.301      1.638
REMARK  1 active torsions:
REMARK  status: ('A' for Active; 'I' for Inactive)
REMARK    1  A    between atoms: C1_1  and  C4_4 
ROOT
HETATM    1  C1  UNL     1     -34.758  15.702  -2.497  1.00 20.00    -0.068 C 
HETATM    2  C2  UNL     1     -34.693  16.328  -1.475  1.00 20.00    -0.108 C 
HETATM    3  C6  UNL     1     -34.613  17.093  -0.231  1.00 20.00     0.112 C 
ENDROOT
BRANCH   1   4
HETATM    4  C4  UNL     1     -34.838  14.944  -3.732  1.00 20.00     0.129 C 
HETATM    5  C5  UNL     1     -35.119  15.777  -5.039  1.00 20.00     0.016 C 
HETATM    6  C3  UNL     1     -36.276  14.768  -5.221  1.00 20.00     0.182 C 
HETATM    7  C8  UNL     1     -34.065  15.728  -6.142  1.00 20.00     0.021 C 
HETATM    8  C9  UNL     1     -35.636  17.209  -4.852  1.00 20.00     0.021 C 
HETATM    9  O10 UNL     1     -36.159  14.333  -3.842  1.00 20.00    -0.366 OA
HETATM   10  C7  UNL     1     -33.767  13.856  -3.766  1.00 20.00     0.061 C 
ENDBRANCH   1   4
TORSDOF 1
ENDMDL
MODEL 4
REMARK VINA RESULT:      -4.2     11.101     12.862
REMARK  1 active torsions:
REMARK  status: ('A' for Active; 'I' for Inactive)
REMARK    1  A    between atoms: C1_1  and  C4_4 
ROOT
HETATM    1  C1  UNL     1     -41.843   4.094  -1.853  1.00 20.00    -0.068 C 
HETATM    2  C2  UNL     1     -41.885   3.214  -2.668  1.00 20.00    -0.108 C 
HETATM    3  C6  UNL     1     -41.937   2.142  -3.662  1.00 20.00     0.112 C 
ENDROOT
BRANCH   1   4
HETATM    4  C4  UNL     1     -41.793   5.159  -0.868  1.00 20.00     0.129 C 
HETATM    5  C5  UNL     1     -42.223   6.589  -1.369  1.00 20.00     0.016 C 
HETATM    6  C3  UNL     1     -40.851   7.009  -0.797  1.00 20.00     0.182 C 
HETATM    7  C8  UNL     1     -43.417   7.243  -0.680  1.00 20.00     0.021 C 
HETATM    8  C9  UNL     1     -42.296   6.799  -2.887  1.00 20.00     0.021 C 
HETATM    9  O10 UNL     1     -40.417   5.626  -0.729  1.00 20.00    -0.366 OA
HETATM   10  C7  UNL     1     -42.303   4.666   0.484  1.00 20.00     0.061 C 
ENDBRANCH   1   4
TORSDOF 1
ENDMDL
MODEL 5
REMARK VINA RESULT:      -4.1      1.244      3.146
REMARK  1 active torsions:
REMARK  status: ('A' for Active; 'I' for Inactive)
REMARK    1  A    between atoms: C1_1  and  C4_4 
ROOT
HETATM    1  C1  UNL     1     -36.427  14.799  -3.750  1.00 20.00    -0.068 C 
HETATM    2  C2  UNL     1     -37.603  14.738  -3.979  1.00 20.00    -0.108 C 
HETATM    3  C6  UNL     1     -39.037  14.663  -4.258  1.00 20.00     0.112 C 
ENDROOT
BRANCH   1   4
HETATM    4  C4  UNL     1     -35.004  14.872  -3.474  1.00 20.00     0.129 C 
HETATM    5  C5  UNL     1     -34.058  14.982  -4.728  1.00 20.00     0.016 C 
HETATM    6  C3  UNL     1     -33.360  13.761  -4.089  1.00 20.00     0.182 C 
HETATM    7  C8  UNL     1     -33.177  16.224  -4.835  1.00 20.00     0.021 C 
HETATM    8  C9  UNL     1     -34.671  14.639  -6.091  1.00 20.00     0.021 C 
HETATM    9  O10 UNL     1     -34.491  13.531  -3.210  1.00 20.00    -0.366 OA
HETATM   10  C7  UNL     1     -34.736  15.767  -2.266  1.00 20.00     0.061 C 
ENDBRANCH   1   4
TORSDOF 1
ENDMDL
MODEL 6
REMARK VINA RESULT:      -4.1      1.589      2.166
REMARK  1 active torsions:
REMARK  status: ('A' for Active; 'I' for Inactive)
REMARK    1  A    between atoms: C1_1  and  C4_4 
ROOT
HETATM    1  C1  UNL     1     -35.451  15.447  -2.870  1.00 20.00    -0.068 C 
HETATM    2  C2  UNL     1     -34.950  16.066  -1.972  1.00 20.00    -0.108 C 
HETATM    3  C6  UNL     1     -34.339  16.822  -0.878  1.00 20.00     0.112 C 
ENDROOT
BRANCH   1   4
HETATM    4  C4  UNL     1     -36.058  14.699  -3.955  1.00 20.00     0.129 C 
HETATM    5  C5  UNL     1     -36.603  15.549  -5.164  1.00 20.00     0.016 C 
HETATM    6  C3  UNL     1     -37.910  14.771  -4.892  1.00 20.00     0.182 C 
HETATM    7  C8  UNL     1     -35.991  15.288  -6.537  1.00 20.00     0.021 C 
HETATM    8  C9  UNL     1     -36.777  17.055  -4.930  1.00 20.00     0.021 C 
HETATM    9  O10 UNL     1     -37.426  14.343  -3.593  1.00 20.00    -0.366 OA
HETATM   10  C7  UNL     1     -35.260  13.430  -4.246  1.00 20.00     0.061 C 
ENDBRANCH   1   4
TORSDOF 1
ENDMDL
MODEL 7
REMARK VINA RESULT:      -3.9     11.611     13.400
REMARK  1 active torsions:
REMARK  status: ('A' for Active; 'I' for Inactive)
REMARK    1  A    between atoms: C1_1  and  C4_4 
ROOT
HETATM    1  C1  UNL     1     -42.133   3.799  -2.561  1.00 20.00    -0.068 C 
HETATM    2  C2  UNL     1     -41.756   2.820  -3.143  1.00 20.00    -0.108 C 
HETATM    3  C6  UNL     1     -41.296   1.627  -3.854  1.00 20.00     0.112 C 
ENDROOT
BRANCH   1   4
HETATM    4  C4  UNL     1     -42.589   4.984  -1.858  1.00 20.00     0.129 C 
HETATM    5  C5  UNL     1     -41.549   5.656  -0.885  1.00 20.00     0.016 C 
HETATM    6  C3  UNL     1     -42.689   5.516   0.148  1.00 20.00     0.182 C 
HETATM    7  C8  UNL     1     -41.143   7.098  -1.180  1.00 20.00     0.021 C 
HETATM    8  C9  UNL     1     -40.322   4.822  -0.496  1.00 20.00     0.021 C 
HETATM    9  O10 UNL     1     -43.399   4.585  -0.710  1.00 20.00    -0.366 OA
HETATM   10  C7  UNL     1     -43.417   5.873  -2.782  1.00 20.00     0.061 C 
ENDBRANCH   1   4
TORSDOF 1
ENDMDL
MODEL 8
REMARK VINA RESULT:      -3.8     10.477     12.016
REMARK  1 active torsions:
REMARK  status: ('A' for Active; 'I' for Inactive)
REMARK    1  A    between atoms: C1_1  and  C4_4 
ROOT
HETATM    1  C1  UNL     1     -42.293   7.371  -2.843  1.00 20.00    -0.068 C 
HETATM    2  C2  UNL     1     -42.471   7.987  -3.858  1.00 20.00    -0.108 C 
HETATM    3  C6  UNL     1     -42.688   8.737  -5.095  1.00 20.00     0.112 C 
ENDROOT
BRANCH   1   4
HETATM    4  C4  UNL     1     -42.078   6.628  -1.615  1.00 20.00     0.129 C 
HETATM    5  C5  UNL     1     -42.124   5.059  -1.737  1.00 20.00     0.016 C 
HETATM    6  C3  UNL     1     -43.167   5.176  -0.603  1.00 20.00     0.182 C 
HETATM    7  C8  UNL     1     -40.863   4.289  -1.353  1.00 20.00     0.021 C 
HETATM    8  C9  UNL     1     -42.738   4.480  -3.018  1.00 20.00     0.021 C 
HETATM    9  O10 UNL     1     -43.316   6.600  -0.842  1.00 20.00    -0.366 OA
HETATM   10  C7  UNL     1     -40.972   7.272  -0.783  1.00 20.00     0.061 C 
ENDBRANCH   1   4
TORSDOF 1
ENDMDL
MODEL 9
REMARK VINA RESULT:      -3.8      2.051      4.219
REMARK  1 active torsions:
REMARK  status: ('A' for Active; 'I' for Inactive)
REMARK    1  A    between atoms: C1_1  and  C4_4 
ROOT
HETATM    1  C1  UNL     1     -34.333  15.431  -5.646  1.00 20.00    -0.068 C 
HETATM    2  C2  UNL     1     -34.802  15.015  -6.669  1.00 20.00    -0.108 C 
HETATM    3  C6  UNL     1     -35.374  14.508  -7.917  1.00 20.00     0.112 C 
ENDROOT
BRANCH   1   4
HETATM    4  C4  UNL     1     -33.764  15.934  -4.409  1.00 20.00     0.129 C 
HETATM    5  C5  UNL     1     -34.758  16.679  -3.441  1.00 20.00     0.016 C 
HETATM    6  C3  UNL     1     -33.703  17.806  -3.510  1.00 20.00     0.182 C 
HETATM    7  C8  UNL     1     -34.955  16.088  -2.048  1.00 20.00     0.021 C 
HETATM    8  C9  UNL     1     -36.103  17.121  -4.033  1.00 20.00     0.021 C 
HETATM    9  O10 UNL     1     -33.077  17.195  -4.668  1.00 20.00    -0.366 OA
HETATM   10  C7  UNL     1     -32.778  14.927  -3.822  1.00 20.00     0.061 C 
ENDBRANCH   1   4
TORSDOF 1
ENDMDL
