MODEL 1
REMARK VINA RESULT:      -5.8      0.000      0.000
REMARK  1 active torsions:
REMARK  status: ('A' for Active; 'I' for Inactive)
REMARK    1  A    between atoms: C5_5  and  C7_7 
ROOT
HETATM    1  C1  UNL     1     -35.355   4.394   4.236  1.00 20.00    -0.026 A 
HETATM    2  C2  UNL     1     -34.941   5.495   3.594  1.00 20.00    -0.013 A 
HETATM    3  C3  UNL     1     -34.286   5.229   6.356  1.00 20.00    -0.019 A 
HETATM    4  C4  UNL     1     -33.862   6.341   5.728  1.00 20.00    -0.071 A 
HETATM    5  C6  UNL     1     -35.042   4.123   5.677  1.00 20.00     0.054 A 
HETATM    6  C7  UNL     1     -34.109   6.558   4.253  1.00 20.00     0.123 A 
HETATM    7  C8  UNL     1     -33.159   7.441   6.473  1.00 20.00     0.044 C 
ENDROOT
BRANCH   6   8
HETATM    8  C5  UNL     1     -32.786   6.537   3.548  1.00 20.00     0.230 C 
HETATM    9  O9  UNL     1     -32.051   5.554   3.583  1.00 20.00    -0.279 OA
HETATM   10 CL10 UNL     1     -32.463   8.029   2.717  1.00 20.00    -0.043 Cl
ENDBRANCH   6   8
TORSDOF 1
ENDMDL
MODEL 2
REMARK VINA RESULT:      -4.7     11.712     13.059
REMARK  1 active torsions:
REMARK  status: ('A' for Active; 'I' for Inactive)
REMARK    1  A    between atoms: C5_5  and  C7_7 
ROOT
HETATM    1  C1  UNL     1     -34.657  16.335  -2.169  1.00 20.00    -0.026 A 
HETATM    2  C2  UNL     1     -35.305  15.301  -2.724  1.00 20.00    -0.013 A 
HETATM    3  C3  UNL     1     -33.609  16.870  -4.393  1.00 20.00    -0.019 A 
HETATM    4  C4  UNL     1     -34.252  15.837  -4.967  1.00 20.00    -0.071 A 
HETATM    5  C6  UNL     1     -33.710  17.209  -2.934  1.00 20.00     0.054 A 
HETATM    6  C7  UNL     1     -35.135  14.910  -4.164  1.00 20.00     0.123 A 
HETATM    7  C8  UNL     1     -34.158  15.581  -6.446  1.00 20.00     0.044 C 
ENDROOT
BRANCH   6   8
HETATM    8  C5  UNL     1     -34.497  13.554  -4.146  1.00 20.00     0.230 C 
HETATM    9  O9  UNL     1     -35.105  12.549  -4.506  1.00 20.00    -0.279 OA
HETATM   10 CL10 UNL     1     -32.858  13.608  -3.571  1.00 20.00    -0.043 Cl
ENDBRANCH   6   8
TORSDOF 1
ENDMDL
MODEL 3
REMARK VINA RESULT:      -4.6     11.872     13.127
REMARK  1 active torsions:
REMARK  status: ('A' for Active; 'I' for Inactive)
REMARK    1  A    between atoms: C5_5  and  C7_7 
ROOT
HETATM    1  C1  UNL     1     -34.666  13.272  -4.791  1.00 20.00    -0.026 A 
HETATM    2  C2  UNL     1     -34.354  13.814  -3.606  1.00 20.00    -0.013 A 
HETATM    3  C3  UNL     1     -34.309  15.501  -5.904  1.00 20.00    -0.019 A 
HETATM    4  C4  UNL     1     -33.992  16.062  -4.722  1.00 20.00    -0.071 A 
HETATM    5  C6  UNL     1     -34.714  14.064  -6.064  1.00 20.00     0.054 A 
HETATM    6  C7  UNL     1     -34.035  15.272  -3.435  1.00 20.00     0.123 A 
HETATM    7  C8  UNL     1     -33.539  17.493  -4.632  1.00 20.00     0.044 C 
ENDROOT
BRANCH   6   8
HETATM    8  C5  UNL     1     -35.130  15.831  -2.577  1.00 20.00     0.230 C 
HETATM    9  O9  UNL     1     -36.301  15.838  -2.947  1.00 20.00    -0.279 OA
HETATM   10 CL10 UNL     1     -34.530  16.436  -1.063  1.00 20.00    -0.043 Cl
ENDBRANCH   6   8
TORSDOF 1
ENDMDL
MODEL 4
REMARK VINA RESULT:      -4.4     12.368     13.542
REMARK  1 active torsions:
REMARK  status: ('A' for Active; 'I' for Inactive)
REMARK    1  A    between atoms: C5_5  and  C7_7 
ROOT
HETATM    1  C1  UNL     1     -35.388  14.813  -7.614  1.00 20.00    -0.026 A 
HETATM    2  C2  UNL     1     -34.402  14.766  -6.707  1.00 20.00    -0.013 A 
HETATM    3  C3  UNL     1     -37.053  15.255  -5.779  1.00 20.00    -0.019 A 
HETATM    4  C4  UNL     1     -36.076  15.211  -4.855  1.00 20.00    -0.071 A 
HETATM    5  C6  UNL     1     -36.826  15.026  -7.245  1.00 20.00     0.054 A 
HETATM    6  C7  UNL     1     -34.644  14.907  -5.231  1.00 20.00     0.123 A 
HETATM    7  C8  UNL     1     -36.355  15.505  -3.406  1.00 20.00     0.044 C 
ENDROOT
BRANCH   6   8
HETATM    8  C5  UNL     1     -34.270  13.587  -4.628  1.00 20.00     0.230 C 
HETATM    9  O9  UNL     1     -34.890  12.559  -4.889  1.00 20.00    -0.279 OA
HETATM   10 CL10 UNL     1     -32.905  13.717  -3.562  1.00 20.00    -0.043 Cl
ENDBRANCH   6   8
TORSDOF 1
ENDMDL
MODEL 5
REMARK VINA RESULT:      -4.3     12.052     13.329
REMARK  1 active torsions:
REMARK  status: ('A' for Active; 'I' for Inactive)
REMARK    1  A    between atoms: C5_5  and  C7_7 
ROOT
HETATM    1  C1  UNL     1     -33.491  17.146  -5.298  1.00 20.00    -0.026 A 
HETATM    2  C2  UNL     1     -33.127  15.989  -4.727  1.00 20.00    -0.013 A 
HETATM    3  C3  UNL     1     -34.646  17.830  -3.169  1.00 20.00    -0.019 A 
HETATM    4  C4  UNL     1     -34.289  16.674  -2.580  1.00 20.00    -0.071 A 
HETATM    5  C6  UNL     1     -34.321  18.177  -4.594  1.00 20.00     0.054 A 
HETATM    6  C7  UNL     1     -33.528  15.606  -3.332  1.00 20.00     0.123 A 
HETATM    7  C8  UNL     1     -34.593  16.407  -1.132  1.00 20.00     0.044 C 
ENDROOT
BRANCH   6   8
HETATM    8  C5  UNL     1     -34.419  14.409  -3.476  1.00 20.00     0.230 C 
HETATM    9  O9  UNL     1     -34.005  13.269  -3.283  1.00 20.00    -0.279 OA
HETATM   10 CL10 UNL     1     -36.037  14.848  -3.931  1.00 20.00    -0.043 Cl
ENDBRANCH   6   8
TORSDOF 1
ENDMDL
MODEL 6
REMARK VINA RESULT:      -4.3     12.352     13.647
REMARK  1 active torsions:
REMARK  status: ('A' for Active; 'I' for Inactive)
REMARK    1  A    between atoms: C5_5  and  C7_7 
ROOT
HETATM    1  C1  UNL     1     -33.482  13.651  -3.781  1.00 20.00    -0.026 A 
HETATM    2  C2  UNL     1     -32.938  14.869  -3.651  1.00 20.00    -0.013 A 
HETATM    3  C3  UNL     1     -34.721  14.426  -5.830  1.00 20.00    -0.019 A 
HETATM    4  C4  UNL     1     -34.184  15.654  -5.715  1.00 20.00    -0.071 A 
HETATM    5  C6  UNL     1     -34.462  13.307  -4.863  1.00 20.00     0.054 A 
HETATM    6  C7  UNL     1     -33.267  16.012  -4.568  1.00 20.00     0.123 A 
HETATM    7  C8  UNL     1     -34.436  16.718  -6.747  1.00 20.00     0.044 C 
ENDROOT
BRANCH   6   8
HETATM    8  C5  UNL     1     -33.959  17.033  -3.716  1.00 20.00     0.230 C 
HETATM    9  O9  UNL     1     -33.610  18.211  -3.709  1.00 20.00    -0.279 OA
HETATM   10 CL10 UNL     1     -35.256  16.343  -2.790  1.00 20.00    -0.043 Cl
ENDBRANCH   6   8
TORSDOF 1
ENDMDL
MODEL 7
REMARK VINA RESULT:      -4.3     12.161     13.112
REMARK  1 active torsions:
REMARK  status: ('A' for Active; 'I' for Inactive)
REMARK    1  A    between atoms: C5_5  and  C7_7 
ROOT
HETATM    1  C1  UNL     1     -33.723  16.628  -3.250  1.00 20.00    -0.026 A 
HETATM    2  C2  UNL     1     -33.797  15.290  -3.215  1.00 20.00    -0.013 A 
HETATM    3  C3  UNL     1     -36.175  16.745  -3.805  1.00 20.00    -0.019 A 
HETATM    4  C4  UNL     1     -36.267  15.403  -3.773  1.00 20.00    -0.071 A 
HETATM    5  C6  UNL     1     -34.896  17.500  -3.585  1.00 20.00     0.054 A 
HETATM    6  C7  UNL     1     -35.057  14.534  -3.522  1.00 20.00     0.123 A 
HETATM    7  C8  UNL     1     -37.588  14.705  -3.944  1.00 20.00     0.044 C 
ENDROOT
BRANCH   6   8
HETATM    8  C5  UNL     1     -34.772  13.754  -4.770  1.00 20.00     0.230 C 
HETATM    9  O9  UNL     1     -34.789  12.526  -4.783  1.00 20.00    -0.279 OA
HETATM   10 CL10 UNL     1     -34.434  14.788  -6.125  1.00 20.00    -0.043 Cl
ENDBRANCH   6   8
TORSDOF 1
ENDMDL
MODEL 8
REMARK VINA RESULT:      -4.3     11.963     12.921
REMARK  1 active torsions:
REMARK  status: ('A' for Active; 'I' for Inactive)
REMARK    1  A    between atoms: C5_5  and  C7_7 
ROOT
HETATM    1  C1  UNL     1     -32.787  15.163  -3.812  1.00 20.00    -0.026 A 
HETATM    2  C2  UNL     1     -33.568  16.248  -3.905  1.00 20.00    -0.013 A 
HETATM    3  C3  UNL     1     -34.833  13.698  -3.763  1.00 20.00    -0.019 A 
HETATM    4  C4  UNL     1     -35.632  14.776  -3.857  1.00 20.00    -0.071 A 
HETATM    5  C6  UNL     1     -33.335  13.772  -3.693  1.00 20.00     0.054 A 
HETATM    6  C7  UNL     1     -35.068  16.178  -3.886  1.00 20.00     0.123 A 
HETATM    7  C8  UNL     1     -37.124  14.636  -3.981  1.00 20.00     0.044 C 
ENDROOT
BRANCH   6   8
HETATM    8  C5  UNL     1     -35.494  16.881  -2.632  1.00 20.00     0.230 C 
HETATM    9  O9  UNL     1     -36.321  17.789  -2.649  1.00 20.00    -0.279 OA
HETATM   10 CL10 UNL     1     -34.690  16.255  -1.225  1.00 20.00    -0.043 Cl
ENDBRANCH   6   8
TORSDOF 1
ENDMDL
MODEL 9
REMARK VINA RESULT:      -4.2     12.303     13.341
REMARK  1 active torsions:
REMARK  status: ('A' for Active; 'I' for Inactive)
REMARK    1  A    between atoms: C5_5  and  C7_7 
ROOT
HETATM    1  C1  UNL     1     -35.045  14.104  -5.879  1.00 20.00    -0.026 A 
HETATM    2  C2  UNL     1     -35.255  15.423  -5.766  1.00 20.00    -0.013 A 
HETATM    3  C3  UNL     1     -34.467  13.989  -3.432  1.00 20.00    -0.019 A 
HETATM    4  C4  UNL     1     -34.674  15.312  -3.300  1.00 20.00    -0.071 A 
HETATM    5  C6  UNL     1     -34.592  13.250  -4.733  1.00 20.00     0.054 A 
HETATM    6  C7  UNL     1     -35.043  16.177  -4.484  1.00 20.00     0.123 A 
HETATM    7  C8  UNL     1     -34.588  15.989  -1.960  1.00 20.00     0.044 C 
ENDROOT
BRANCH   6   8
HETATM    8  C5  UNL     1     -33.909  17.121  -4.748  1.00 20.00     0.230 C 
HETATM    9  O9  UNL     1     -32.806  16.720  -5.109  1.00 20.00    -0.279 OA
HETATM   10 CL10 UNL     1     -34.361  18.777  -4.482  1.00 20.00    -0.043 Cl
ENDBRANCH   6   8
TORSDOF 1
ENDMDL
