MODEL 1
REMARK VINA RESULT:      -4.7      0.000      0.000
REMARK  1 active torsions:
REMARK  status: ('A' for Active; 'I' for Inactive)
REMARK    1  A    between atoms: C3_3  and  C6_6 
ROOT
HETATM    1  C1  UNL     1     -34.333  14.676  -3.111  1.00 20.00    -0.024 C 
HETATM    2  C2  UNL     1     -34.883  15.842  -2.724  1.00 20.00    -0.083 C 
HETATM    3  C4  UNL     1     -34.473  14.089  -4.484  1.00 20.00     0.032 C 
HETATM    4  C5  UNL     1     -35.744  16.676  -3.666  1.00 20.00     0.021 C 
HETATM    5  C6  UNL     1     -36.202  15.896  -4.927  1.00 20.00     0.066 C 
HETATM    6  C7  UNL     1     -35.031  15.087  -5.513  1.00 20.00    -0.003 C 
HETATM    7  C8  UNL     1     -34.609  16.388  -1.349  1.00 20.00     0.043 C 
HETATM    8  C10 UNL     1     -36.937  17.352  -2.973  1.00 20.00     0.015 C 
HETATM    9  C11 UNL     1     -35.390  14.379  -6.820  1.00 20.00     0.011 C 
ENDROOT
BRANCH   5  10
HETATM   10  C3  UNL     1     -37.379  14.998  -4.641  1.00 20.00     0.128 C 
HETATM   11  C9  UNL     1     -38.628  15.241  -5.445  1.00 20.00     0.091 C 
HETATM   12  O12 UNL     1     -37.321  14.109  -3.792  1.00 20.00    -0.298 OA
ENDBRANCH   5  10
TORSDOF 1
ENDMDL
MODEL 2
REMARK VINA RESULT:      -4.6      2.101      4.099
REMARK  1 active torsions:
REMARK  status: ('A' for Active; 'I' for Inactive)
REMARK    1  A    between atoms: C3_3  and  C6_6 
ROOT
HETATM    1  C1  UNL     1     -34.570  13.963  -5.238  1.00 20.00    -0.024 C 
HETATM    2  C2  UNL     1     -35.201  14.764  -6.116  1.00 20.00    -0.083 C 
HETATM    3  C4  UNL     1     -34.324  14.310  -3.800  1.00 20.00     0.032 C 
HETATM    4  C5  UNL     1     -35.709  16.146  -5.720  1.00 20.00     0.021 C 
HETATM    5  C6  UNL     1     -35.121  16.652  -4.376  1.00 20.00     0.066 C 
HETATM    6  C7  UNL     1     -35.136  15.526  -3.326  1.00 20.00    -0.003 C 
HETATM    7  C8  UNL     1     -35.477  14.286  -7.515  1.00 20.00     0.043 C 
HETATM    8  C10 UNL     1     -35.545  17.202  -6.824  1.00 20.00     0.015 C 
HETATM    9  C11 UNL     1     -34.667  15.990  -1.946  1.00 20.00     0.011 C 
ENDROOT
BRANCH   5  10
HETATM   10  C3  UNL     1     -33.728  17.207  -4.540  1.00 20.00     0.128 C 
HETATM   11  C9  UNL     1     -33.537  18.663  -4.213  1.00 20.00     0.091 C 
HETATM   12  O12 UNL     1     -32.794  16.503  -4.923  1.00 20.00    -0.298 OA
ENDBRANCH   5  10
TORSDOF 1
ENDMDL
MODEL 3
REMARK VINA RESULT:      -4.6      1.335      4.125
REMARK  1 active torsions:
REMARK  status: ('A' for Active; 'I' for Inactive)
REMARK    1  A    between atoms: C3_3  and  C6_6 
ROOT
HETATM    1  C1  UNL     1     -37.492  15.110  -4.769  1.00 20.00    -0.024 C 
HETATM    2  C2  UNL     1     -36.774  15.202  -5.904  1.00 20.00    -0.083 C 
HETATM    3  C4  UNL     1     -36.931  15.309  -3.393  1.00 20.00     0.032 C 
HETATM    4  C5  UNL     1     -35.278  15.495  -5.885  1.00 20.00     0.021 C 
HETATM    5  C6  UNL     1     -34.637  15.313  -4.483  1.00 20.00     0.066 C 
HETATM    6  C7  UNL     1     -35.531  15.943  -3.399  1.00 20.00    -0.003 C 
HETATM    7  C8  UNL     1     -37.450  15.073  -7.241  1.00 20.00     0.043 C 
HETATM    8  C10 UNL     1     -34.487  14.727  -6.954  1.00 20.00     0.015 C 
HETATM    9  C11 UNL     1     -34.903  15.892  -2.005  1.00 20.00     0.011 C 
ENDROOT
BRANCH   5  10
HETATM   10  C3  UNL     1     -34.361  13.864  -4.169  1.00 20.00     0.128 C 
HETATM   11  C9  UNL     1     -32.988  13.534  -3.648  1.00 20.00     0.091 C 
HETATM   12  O12 UNL     1     -35.216  12.995  -4.331  1.00 20.00    -0.298 OA
ENDBRANCH   5  10
TORSDOF 1
ENDMDL
MODEL 4
REMARK VINA RESULT:      -4.5      1.661      3.601
REMARK  1 active torsions:
REMARK  status: ('A' for Active; 'I' for Inactive)
REMARK    1  A    between atoms: C3_3  and  C6_6 
ROOT
HETATM    1  C1  UNL     1     -33.534  14.921  -3.853  1.00 20.00    -0.024 C 
HETATM    2  C2  UNL     1     -34.719  14.376  -4.184  1.00 20.00    -0.083 C 
HETATM    3  C4  UNL     1     -33.346  15.954  -2.783  1.00 20.00     0.032 C 
HETATM    4  C5  UNL     1     -36.015  14.796  -3.498  1.00 20.00     0.021 C 
HETATM    5  C6  UNL     1     -35.879  16.113  -2.689  1.00 20.00     0.066 C 
HETATM    6  C7  UNL     1     -34.575  16.108  -1.871  1.00 20.00    -0.003 C 
HETATM    7  C8  UNL     1     -34.789  13.281  -5.213  1.00 20.00     0.043 C 
HETATM    8  C10 UNL     1     -37.222  14.855  -4.447  1.00 20.00     0.015 C 
HETATM    9  C11 UNL     1     -34.433  17.334  -0.967  1.00 20.00     0.011 C 
ENDROOT
BRANCH   5  10
HETATM   10  C3  UNL     1     -35.949  17.332  -3.574  1.00 20.00     0.128 C 
HETATM   11  C9  UNL     1     -37.049  18.317  -3.283  1.00 20.00     0.091 C 
HETATM   12  O12 UNL     1     -35.145  17.512  -4.487  1.00 20.00    -0.298 OA
ENDBRANCH   5  10
TORSDOF 1
ENDMDL
MODEL 5
REMARK VINA RESULT:      -4.5      1.481      3.543
REMARK  1 active torsions:
REMARK  status: ('A' for Active; 'I' for Inactive)
REMARK    1  A    between atoms: C3_3  and  C6_6 
ROOT
HETATM    1  C1  UNL     1     -35.779  15.016  -6.451  1.00 20.00    -0.024 C 
HETATM    2  C2  UNL     1     -36.947  15.127  -5.792  1.00 20.00    -0.083 C 
HETATM    3  C4  UNL     1     -34.504  14.518  -5.838  1.00 20.00     0.032 C 
HETATM    4  C5  UNL     1     -37.071  14.773  -4.314  1.00 20.00     0.021 C 
HETATM    5  C6  UNL     1     -35.700  14.639  -3.600  1.00 20.00     0.066 C 
HETATM    6  C7  UNL     1     -34.716  13.840  -4.475  1.00 20.00    -0.003 C 
HETATM    7  C8  UNL     1     -38.191  15.554  -6.521  1.00 20.00     0.043 C 
HETATM    8  C10 UNL     1     -38.007  15.709  -3.533  1.00 20.00     0.015 C 
HETATM    9  C11 UNL     1     -33.378  13.580  -3.782  1.00 20.00     0.011 C 
ENDROOT
BRANCH   5  10
HETATM   10  C3  UNL     1     -35.117  15.980  -3.234  1.00 20.00     0.128 C 
HETATM   11  C9  UNL     1     -34.760  16.191  -1.787  1.00 20.00     0.091 C 
HETATM   12  O12 UNL     1     -34.942  16.859  -4.076  1.00 20.00    -0.298 OA
ENDBRANCH   5  10
TORSDOF 1
ENDMDL
MODEL 6
REMARK VINA RESULT:      -4.5      1.972      3.092
REMARK  1 active torsions:
REMARK  status: ('A' for Active; 'I' for Inactive)
REMARK    1  A    between atoms: C3_3  and  C6_6 
ROOT
HETATM    1  C1  UNL     1     -35.022  16.864  -2.587  1.00 20.00    -0.024 C 
HETATM    2  C2  UNL     1     -34.469  17.799  -3.381  1.00 20.00    -0.083 C 
HETATM    3  C4  UNL     1     -34.749  15.393  -2.693  1.00 20.00     0.032 C 
HETATM    4  C5  UNL     1     -33.511  17.431  -4.509  1.00 20.00     0.021 C 
HETATM    5  C6  UNL     1     -33.535  15.919  -4.861  1.00 20.00     0.066 C 
HETATM    6  C7  UNL     1     -33.534  15.068  -3.578  1.00 20.00    -0.003 C 
HETATM    7  C8  UNL     1     -34.741  19.258  -3.136  1.00 20.00     0.043 C 
HETATM    8  C10 UNL     1     -33.683  18.292  -5.769  1.00 20.00     0.015 C 
HETATM    9  C11 UNL     1     -33.450  13.567  -3.858  1.00 20.00     0.011 C 
ENDROOT
BRANCH   5  10
HETATM   10  C3  UNL     1     -34.709  15.561  -5.737  1.00 20.00     0.128 C 
HETATM   11  C9  UNL     1     -34.393  15.009  -7.101  1.00 20.00     0.091 C 
HETATM   12  O12 UNL     1     -35.869  15.711  -5.355  1.00 20.00    -0.298 OA
ENDBRANCH   5  10
TORSDOF 1
ENDMDL
MODEL 7
REMARK VINA RESULT:      -4.4      1.929      4.197
REMARK  1 active torsions:
REMARK  status: ('A' for Active; 'I' for Inactive)
REMARK    1  A    between atoms: C3_3  and  C6_6 
ROOT
HETATM    1  C1  UNL     1     -35.126  16.746  -5.918  1.00 20.00    -0.024 C 
HETATM    2  C2  UNL     1     -34.595  15.546  -5.618  1.00 20.00    -0.083 C 
HETATM    3  C4  UNL     1     -34.861  18.006  -5.148  1.00 20.00     0.032 C 
HETATM    4  C5  UNL     1     -33.674  15.353  -4.419  1.00 20.00     0.021 C 
HETATM    5  C6  UNL     1     -33.714  16.541  -3.420  1.00 20.00     0.066 C 
HETATM    6  C7  UNL     1     -33.676  17.881  -4.177  1.00 20.00    -0.003 C 
HETATM    7  C8  UNL     1     -34.854  14.360  -6.506  1.00 20.00     0.043 C 
HETATM    8  C10 UNL     1     -33.881  14.016  -3.692  1.00 20.00     0.015 C 
HETATM    9  C11 UNL     1     -33.605  19.091  -3.245  1.00 20.00     0.011 C 
ENDROOT
BRANCH   5  10
HETATM   10  C3  UNL     1     -34.916  16.476  -2.511  1.00 20.00     0.128 C 
HETATM   11  C9  UNL     1     -34.647  16.496  -1.031  1.00 20.00     0.091 C 
HETATM   12  O12 UNL     1     -36.060  16.412  -2.959  1.00 20.00    -0.298 OA
ENDBRANCH   5  10
TORSDOF 1
ENDMDL
MODEL 8
REMARK VINA RESULT:      -4.4      1.893      3.479
REMARK  1 active torsions:
REMARK  status: ('A' for Active; 'I' for Inactive)
REMARK    1  A    between atoms: C3_3  and  C6_6 
ROOT
HETATM    1  C1  UNL     1     -36.516  16.954  -4.077  1.00 20.00    -0.024 C 
HETATM    2  C2  UNL     1     -36.042  17.314  -2.870  1.00 20.00    -0.083 C 
HETATM    3  C4  UNL     1     -36.275  15.620  -4.719  1.00 20.00     0.032 C 
HETATM    4  C5  UNL     1     -35.167  16.380  -2.040  1.00 20.00     0.021 C 
HETATM    5  C6  UNL     1     -34.606  15.184  -2.855  1.00 20.00     0.066 C 
HETATM    6  C7  UNL     1     -35.706  14.576  -3.744  1.00 20.00    -0.003 C 
HETATM    7  C8  UNL     1     -36.415  18.644  -2.275  1.00 20.00     0.043 C 
HETATM    8  C10 UNL     1     -34.045  17.102  -1.279  1.00 20.00     0.015 C 
HETATM    9  C11 UNL     1     -35.244  13.326  -4.493  1.00 20.00     0.011 C 
ENDROOT
BRANCH   5  10
HETATM   10  C3  UNL     1     -33.408  15.575  -3.683  1.00 20.00     0.128 C 
HETATM   11  C9  UNL     1     -32.184  14.708  -3.554  1.00 20.00     0.091 C 
HETATM   12  O12 UNL     1     -33.430  16.554  -4.428  1.00 20.00    -0.298 OA
ENDBRANCH   5  10
TORSDOF 1
ENDMDL
MODEL 9
REMARK VINA RESULT:      -4.3      1.162      2.144
REMARK  1 active torsions:
REMARK  status: ('A' for Active; 'I' for Inactive)
REMARK    1  A    between atoms: C3_3  and  C6_6 
ROOT
HETATM    1  C1  UNL     1     -34.621  13.921  -5.473  1.00 20.00    -0.024 C 
HETATM    2  C2  UNL     1     -34.185  14.471  -4.325  1.00 20.00    -0.083 C 
HETATM    3  C4  UNL     1     -35.699  14.506  -6.336  1.00 20.00     0.032 C 
HETATM    4  C5  UNL     1     -34.787  15.758  -3.772  1.00 20.00     0.021 C 
HETATM    5  C6  UNL     1     -36.135  16.139  -4.441  1.00 20.00     0.066 C 
HETATM    6  C7  UNL     1     -36.046  15.957  -5.968  1.00 20.00    -0.003 C 
HETATM    7  C8  UNL     1     -33.036  13.853  -3.577  1.00 20.00     0.043 C 
HETATM    8  C10 UNL     1     -34.911  15.772  -2.241  1.00 20.00     0.015 C 
HETATM    9  C11 UNL     1     -37.308  16.418  -6.698  1.00 20.00     0.011 C 
ENDROOT
BRANCH   5  10
HETATM   10  C3  UNL     1     -37.290  15.352  -3.877  1.00 20.00     0.128 C 
HETATM   11  C9  UNL     1     -38.452  16.145  -3.342  1.00 20.00     0.091 C 
HETATM   12  O12 UNL     1     -37.284  14.122  -3.857  1.00 20.00    -0.298 OA
ENDBRANCH   5  10
TORSDOF 1
ENDMDL
