MODEL 1
REMARK VINA RESULT:      -4.6      0.000      0.000
REMARK  2 active torsions:
REMARK  status: ('A' for Active; 'I' for Inactive)
REMARK    1  A    between atoms: C3_3  and  C8_8 
REMARK    2  A    between atoms: C9_9  and  N11_11 
ROOT
HETATM    1  C1  UNL     1     -36.659  15.055  -6.809  1.00 20.00     0.089 C 
HETATM    2  C9  UNL     1     -35.382  14.430  -7.149  1.00 20.00     0.395 C 
HETATM    3  N10 UNL     1     -37.673  15.552  -6.543  1.00 20.00    -0.195 NA
ENDROOT
BRANCH   2   4
HETATM    4  N11 UNL     1     -34.438  14.534  -6.036  1.00 20.00     0.101 N 
HETATM    5  C6  UNL     1     -34.866  13.683  -4.920  1.00 20.00     0.274 C 
HETATM    6  C4  UNL     1     -33.858  13.727  -3.767  1.00 20.00     0.039 C 
HETATM    7  C8  UNL     1     -33.537  15.149  -3.309  1.00 20.00     0.011 C 
HETATM    8  C5  UNL     1     -33.259  16.071  -4.496  1.00 20.00     0.039 C 
HETATM    9  C7  UNL     1     -34.303  15.933  -5.608  1.00 20.00     0.274 C 
BRANCH   7  10
HETATM   10  C3  UNL     1     -34.644  15.710  -2.465  1.00 20.00    -0.032 C 
HETATM   11  C2  UNL     1     -34.450  16.506  -1.408  1.00 20.00     0.007 C 
ENDBRANCH   7  10
ENDBRANCH   2   4
TORSDOF 2
ENDMDL
MODEL 2
REMARK VINA RESULT:      -4.4      2.486      4.580
REMARK  2 active torsions:
REMARK  status: ('A' for Active; 'I' for Inactive)
REMARK    1  A    between atoms: C3_3  and  C8_8 
REMARK    2  A    between atoms: C9_9  and  N11_11 
ROOT
HETATM    1  C1  UNL     1     -34.492  16.976  -0.727  1.00 20.00     0.089 C 
HETATM    2  C9  UNL     1     -33.887  16.782  -2.044  1.00 20.00     0.395 C 
HETATM    3  N10 UNL     1     -34.968  17.132   0.319  1.00 20.00    -0.195 NA
ENDROOT
BRANCH   2   4
HETATM    4  N11 UNL     1     -34.328  15.520  -2.638  1.00 20.00     0.101 N 
HETATM    5  C6  UNL     1     -33.263  14.948  -3.472  1.00 20.00     0.274 C 
HETATM    6  C4  UNL     1     -33.679  13.593  -4.054  1.00 20.00     0.039 C 
HETATM    7  C8  UNL     1     -35.016  13.646  -4.792  1.00 20.00     0.011 C 
HETATM    8  C5  UNL     1     -36.074  14.395  -3.983  1.00 20.00     0.039 C 
HETATM    9  C7  UNL     1     -35.555  15.721  -3.418  1.00 20.00     0.274 C 
BRANCH   7  10
HETATM   10  C3  UNL     1     -34.862  14.268  -6.149  1.00 20.00    -0.032 C 
HETATM   11  C2  UNL     1     -35.888  14.637  -6.924  1.00 20.00     0.007 C 
ENDBRANCH   7  10
ENDBRANCH   2   4
TORSDOF 2
ENDMDL
MODEL 3
REMARK VINA RESULT:      -4.4      1.931      2.378
REMARK  2 active torsions:
REMARK  status: ('A' for Active; 'I' for Inactive)
REMARK    1  A    between atoms: C3_3  and  C8_8 
REMARK    2  A    between atoms: C9_9  and  N11_11 
ROOT
HETATM    1  C1  UNL     1     -37.497  14.800  -4.360  1.00 20.00     0.089 C 
HETATM    2  C9  UNL     1     -36.497  15.349  -5.274  1.00 20.00     0.395 C 
HETATM    3  N10 UNL     1     -38.294  14.365  -3.637  1.00 20.00    -0.195 NA
ENDROOT
BRANCH   2   4
HETATM    4  N11 UNL     1     -35.414  15.998  -4.533  1.00 20.00     0.101 N 
HETATM    5  C6  UNL     1     -34.710  15.021  -3.694  1.00 20.00     0.274 C 
HETATM    6  C4  UNL     1     -33.532  15.666  -2.957  1.00 20.00     0.039 C 
HETATM    7  C8  UNL     1     -33.931  16.912  -2.169  1.00 20.00     0.011 C 
HETATM    8  C5  UNL     1     -34.810  17.845  -3.002  1.00 20.00     0.039 C 
HETATM    9  C7  UNL     1     -35.940  17.104  -3.723  1.00 20.00     0.274 C 
BRANCH   7  10
HETATM   10  C3  UNL     1     -34.629  16.546  -0.891  1.00 20.00    -0.032 C 
HETATM   11  C2  UNL     1     -34.764  17.372   0.151  1.00 20.00     0.007 C 
ENDBRANCH   7  10
ENDBRANCH   2   4
TORSDOF 2
ENDMDL
MODEL 4
REMARK VINA RESULT:      -4.3      1.615      2.761
REMARK  2 active torsions:
REMARK  status: ('A' for Active; 'I' for Inactive)
REMARK    1  A    between atoms: C3_3  and  C8_8 
REMARK    2  A    between atoms: C9_9  and  N11_11 
ROOT
HETATM    1  C1  UNL     1     -34.791  13.603  -5.199  1.00 20.00     0.089 C 
HETATM    2  C9  UNL     1     -34.791  14.833  -5.989  1.00 20.00     0.395 C 
HETATM    3  N10 UNL     1     -34.793  12.625  -4.575  1.00 20.00    -0.195 NA
ENDROOT
BRANCH   2   4
HETATM    4  N11 UNL     1     -34.879  16.009  -5.123  1.00 20.00     0.101 N 
HETATM    5  C6  UNL     1     -33.622  16.200  -4.390  1.00 20.00     0.274 C 
HETATM    6  C4  UNL     1     -33.668  17.463  -3.524  1.00 20.00     0.039 C 
HETATM    7  C8  UNL     1     -34.882  17.507  -2.596  1.00 20.00     0.011 C 
HETATM    8  C5  UNL     1     -36.167  17.139  -3.338  1.00 20.00     0.039 C 
HETATM    9  C7  UNL     1     -36.012  15.881  -4.198  1.00 20.00     0.274 C 
BRANCH   7  10
HETATM   10  C3  UNL     1     -34.691  16.608  -1.410  1.00 20.00    -0.032 C 
HETATM   11  C2  UNL     1     -34.792  17.013  -0.140  1.00 20.00     0.007 C 
ENDBRANCH   7  10
ENDBRANCH   2   4
TORSDOF 2
ENDMDL
MODEL 5
REMARK VINA RESULT:      -4.2      2.081      4.276
REMARK  2 active torsions:
REMARK  status: ('A' for Active; 'I' for Inactive)
REMARK    1  A    between atoms: C3_3  and  C8_8 
REMARK    2  A    between atoms: C9_9  and  N11_11 
ROOT
HETATM    1  C1  UNL     1     -33.908  17.738  -2.714  1.00 20.00     0.089 C 
HETATM    2  C9  UNL     1     -34.235  16.642  -1.805  1.00 20.00     0.395 C 
HETATM    3  N10 UNL     1     -33.649  18.611  -3.434  1.00 20.00    -0.195 NA
ENDROOT
BRANCH   2   4
HETATM    4  N11 UNL     1     -34.544  15.421  -2.550  1.00 20.00     0.101 N 
HETATM    5  C6  UNL     1     -33.384  14.997  -3.343  1.00 20.00     0.274 C 
HETATM    6  C4  UNL     1     -33.664  13.685  -4.083  1.00 20.00     0.039 C 
HETATM    7  C8  UNL     1     -34.941  13.733  -4.921  1.00 20.00     0.011 C 
HETATM    8  C5  UNL     1     -36.105  14.336  -4.135  1.00 20.00     0.039 C 
HETATM    9  C7  UNL     1     -35.719  15.627  -3.407  1.00 20.00     0.274 C 
BRANCH   7  10
HETATM   10  C3  UNL     1     -34.725  14.495  -6.196  1.00 20.00    -0.032 C 
HETATM   11  C2  UNL     1     -35.520  14.401  -7.267  1.00 20.00     0.007 C 
ENDBRANCH   7  10
ENDBRANCH   2   4
TORSDOF 2
ENDMDL
MODEL 6
REMARK VINA RESULT:      -4.2     11.441     12.960
REMARK  2 active torsions:
REMARK  status: ('A' for Active; 'I' for Inactive)
REMARK    1  A    between atoms: C3_3  and  C8_8 
REMARK    2  A    between atoms: C9_9  and  N11_11 
ROOT
HETATM    1  C1  UNL     1     -32.086   8.208   1.965  1.00 20.00     0.089 C 
HETATM    2  C9  UNL     1     -31.980   7.097   2.910  1.00 20.00     0.395 C 
HETATM    3  N10 UNL     1     -32.166   9.090   1.216  1.00 20.00    -0.195 NA
ENDROOT
BRANCH   2   4
HETATM    4  N11 UNL     1     -33.269   6.832   3.550  1.00 20.00     0.101 N 
HETATM    5  C6  UNL     1     -33.087   6.587   4.985  1.00 20.00     0.274 C 
HETATM    6  C4  UNL     1     -34.431   6.370   5.688  1.00 20.00     0.039 C 
HETATM    7  C8  UNL     1     -35.281   5.286   5.027  1.00 20.00     0.011 C 
HETATM    8  C5  UNL     1     -35.324   5.455   3.509  1.00 20.00     0.039 C 
HETATM    9  C7  UNL     1     -33.938   5.696   2.903  1.00 20.00     0.274 C 
BRANCH   7  10
HETATM   10  C3  UNL     1     -34.786   3.915   5.384  1.00 20.00    -0.032 C 
HETATM   11  C2  UNL     1     -33.992   3.654   6.428  1.00 20.00     0.007 C 
ENDBRANCH   7  10
ENDBRANCH   2   4
TORSDOF 2
ENDMDL
MODEL 7
REMARK VINA RESULT:      -4.1      1.444      1.584
REMARK  2 active torsions:
REMARK  status: ('A' for Active; 'I' for Inactive)
REMARK    1  A    between atoms: C3_3  and  C8_8 
REMARK    2  A    between atoms: C9_9  and  N11_11 
ROOT
HETATM    1  C1  UNL     1     -35.279  17.216  -6.948  1.00 20.00     0.089 C 
HETATM    2  C9  UNL     1     -34.512  15.997  -7.196  1.00 20.00     0.395 C 
HETATM    3  N10 UNL     1     -35.886  18.186  -6.754  1.00 20.00    -0.195 NA
ENDROOT
BRANCH   2   4
HETATM    4  N11 UNL     1     -34.224  15.297  -5.943  1.00 20.00     0.101 N 
HETATM    5  C6  UNL     1     -35.471  14.874  -5.295  1.00 20.00     0.274 C 
HETATM    6  C4  UNL     1     -35.192  14.083  -4.013  1.00 20.00     0.039 C 
HETATM    7  C8  UNL     1     -34.269  14.822  -3.045  1.00 20.00     0.011 C 
HETATM    8  C5  UNL     1     -33.054  15.407  -3.766  1.00 20.00     0.039 C 
HETATM    9  C7  UNL     1     -33.432  16.151  -5.050  1.00 20.00     0.274 C 
BRANCH   7  10
HETATM   10  C3  UNL     1     -35.006  15.903  -2.310  1.00 20.00    -0.032 C 
HETATM   11  C2  UNL     1     -34.543  16.512  -1.214  1.00 20.00     0.007 C 
ENDBRANCH   7  10
ENDBRANCH   2   4
TORSDOF 2
ENDMDL
MODEL 8
REMARK VINA RESULT:      -4.1     10.924     11.919
REMARK  2 active torsions:
REMARK  status: ('A' for Active; 'I' for Inactive)
REMARK    1  A    between atoms: C3_3  and  C8_8 
REMARK    2  A    between atoms: C9_9  and  N11_11 
ROOT
HETATM    1  C1  UNL     1     -42.238   8.483  -4.526  1.00 20.00     0.089 C 
HETATM    2  C9  UNL     1     -42.954   7.774  -3.468  1.00 20.00     0.395 C 
HETATM    3  N10 UNL     1     -41.672   9.046  -5.368  1.00 20.00    -0.195 NA
ENDROOT
BRANCH   2   4
HETATM    4  N11 UNL     1     -42.048   6.905  -2.716  1.00 20.00     0.101 N 
HETATM    5  C6  UNL     1     -42.562   5.531  -2.687  1.00 20.00     0.274 C 
HETATM    6  C4  UNL     1     -41.597   4.590  -1.959  1.00 20.00     0.039 C 
HETATM    7  C8  UNL     1     -41.217   5.087  -0.565  1.00 20.00     0.011 C 
HETATM    8  C5  UNL     1     -40.845   6.570  -0.580  1.00 20.00     0.039 C 
HETATM    9  C7  UNL     1     -41.853   7.423  -1.356  1.00 20.00     0.274 C 
BRANCH   7  10
HETATM   10  C3  UNL     1     -42.322   4.839   0.420  1.00 20.00    -0.032 C 
HETATM   11  C2  UNL     1     -43.214   3.849   0.309  1.00 20.00     0.007 C 
ENDBRANCH   7  10
ENDBRANCH   2   4
TORSDOF 2
ENDMDL
MODEL 9
REMARK VINA RESULT:      -4.1      2.053      3.638
REMARK  2 active torsions:
REMARK  status: ('A' for Active; 'I' for Inactive)
REMARK    1  A    between atoms: C3_3  and  C8_8 
REMARK    2  A    between atoms: C9_9  and  N11_11 
ROOT
HETATM    1  C1  UNL     1     -34.652  13.937  -4.592  1.00 20.00     0.089 C 
HETATM    2  C9  UNL     1     -34.306  15.350  -4.735  1.00 20.00     0.395 C 
HETATM    3  N10 UNL     1     -34.927  12.815  -4.482  1.00 20.00    -0.195 NA
ENDROOT
BRANCH   2   4
HETATM    4  N11 UNL     1     -34.812  16.127  -3.603  1.00 20.00     0.101 N 
HETATM    5  C6  UNL     1     -34.720  17.564  -3.888  1.00 20.00     0.274 C 
HETATM    6  C4  UNL     1     -35.303  18.398  -2.742  1.00 20.00     0.039 C 
HETATM    7  C8  UNL     1     -34.701  18.046  -1.382  1.00 20.00     0.011 C 
HETATM    8  C5  UNL     1     -34.646  16.533  -1.168  1.00 20.00     0.039 C 
HETATM    9  C7  UNL     1     -34.077  15.787  -2.378  1.00 20.00     0.274 C 
BRANCH   7  10
HETATM   10  C3  UNL     1     -33.334  18.643  -1.223  1.00 20.00    -0.032 C 
HETATM   11  C2  UNL     1     -32.638  18.626  -0.082  1.00 20.00     0.007 C 
ENDBRANCH   7  10
ENDBRANCH   2   4
TORSDOF 2
ENDMDL
