MODEL 1
REMARK VINA RESULT:      -6.1      0.000      0.000
REMARK  1 active torsions:
REMARK  status: ('A' for Active; 'I' for Inactive)
REMARK    1  A    between atoms: C1_1  and  C7_7 
ROOT
HETATM    1  C1  UNL     1     -33.056   6.826   3.512  1.00 20.00    -0.057 C 
HETATM    2  C2  UNL     1     -32.420   7.524   2.771  1.00 20.00     0.276 C 
HETATM    3  O10 UNL     1     -31.796   8.207   2.045  1.00 20.00    -0.274 OA
ENDROOT
BRANCH   1   4
HETATM    4  C7  UNL     1     -33.748   6.068   4.316  1.00 20.00     0.023 A 
HETATM    5  C5  UNL     1     -34.488   4.940   3.752  1.00 20.00     0.021 A 
HETATM    6  C3  UNL     1     -35.211   4.142   4.556  1.00 20.00     0.002 A 
HETATM    7  C4  UNL     1     -35.281   4.369   5.990  1.00 20.00     0.001 A 
HETATM    8  C6  UNL     1     -34.628   5.386   6.578  1.00 20.00     0.012 A 
HETATM    9  C8  UNL     1     -33.814   6.308   5.775  1.00 20.00    -0.027 A 
HETATM   10  C9  UNL     1     -33.173   7.318   6.390  1.00 20.00     0.025 C 
ENDBRANCH   1   4
TORSDOF 1
ENDMDL
MODEL 2
REMARK VINA RESULT:      -5.9      0.665      2.247
REMARK  1 active torsions:
REMARK  status: ('A' for Active; 'I' for Inactive)
REMARK    1  A    between atoms: C1_1  and  C7_7 
ROOT
HETATM    1  C1  UNL     1     -32.836   7.122   3.274  1.00 20.00    -0.057 C 
HETATM    2  C2  UNL     1     -32.184   7.768   2.499  1.00 20.00     0.276 C 
HETATM    3  O10 UNL     1     -31.546   8.400   1.740  1.00 20.00    -0.274 OA
ENDROOT
BRANCH   1   4
HETATM    4  C7  UNL     1     -33.545   6.421   4.114  1.00 20.00     0.023 A 
HETATM    5  C5  UNL     1     -33.452   6.734   5.539  1.00 20.00     0.021 A 
HETATM    6  C3  UNL     1     -34.171   6.027   6.429  1.00 20.00     0.002 A 
HETATM    7  C4  UNL     1     -35.049   4.947   6.013  1.00 20.00     0.001 A 
HETATM    8  C6  UNL     1     -35.184   4.604   4.719  1.00 20.00     0.012 A 
HETATM    9  C8  UNL     1     -34.436   5.322   3.679  1.00 20.00    -0.027 A 
HETATM   10  C9  UNL     1     -34.590   4.956   2.394  1.00 20.00     0.025 C 
ENDBRANCH   1   4
TORSDOF 1
ENDMDL
MODEL 3
REMARK VINA RESULT:      -4.7     11.621     13.138
REMARK  1 active torsions:
REMARK  status: ('A' for Active; 'I' for Inactive)
REMARK    1  A    between atoms: C1_1  and  C7_7 
ROOT
HETATM    1  C1  UNL     1     -34.575  14.798  -3.413  1.00 20.00    -0.057 C 
HETATM    2  C2  UNL     1     -34.785  13.726  -3.913  1.00 20.00     0.276 C 
HETATM    3  O10 UNL     1     -34.989  12.677  -4.403  1.00 20.00    -0.274 OA
ENDROOT
BRANCH   1   4
HETATM    4  C7  UNL     1     -34.350  15.961  -2.869  1.00 20.00     0.023 A 
HETATM    5  C5  UNL     1     -34.666  16.146  -1.454  1.00 20.00     0.021 A 
HETATM    6  C3  UNL     1     -34.444  17.335  -0.867  1.00 20.00     0.002 A 
HETATM    7  C4  UNL     1     -33.893  18.458  -1.606  1.00 20.00     0.001 A 
HETATM    8  C6  UNL     1     -33.579  18.361  -2.910  1.00 20.00     0.012 A 
HETATM    9  C8  UNL     1     -33.789  17.099  -3.631  1.00 20.00    -0.027 A 
HETATM   10  C9  UNL     1     -33.467  17.032  -4.936  1.00 20.00     0.025 C 
ENDBRANCH   1   4
TORSDOF 1
ENDMDL
MODEL 4
REMARK VINA RESULT:      -4.5     12.063     12.295
REMARK  1 active torsions:
REMARK  status: ('A' for Active; 'I' for Inactive)
REMARK    1  A    between atoms: C1_1  and  C7_7 
ROOT
HETATM    1  C1  UNL     1     -34.195  16.297  -2.066  1.00 20.00    -0.057 C 
HETATM    2  C2  UNL     1     -33.849  17.128  -1.272  1.00 20.00     0.276 C 
HETATM    3  O10 UNL     1     -33.511  17.943  -0.495  1.00 20.00    -0.274 OA
ENDROOT
BRANCH   1   4
HETATM    4  C7  UNL     1     -34.569  15.394  -2.929  1.00 20.00     0.023 A 
HETATM    5  C5  UNL     1     -35.999  15.215  -3.180  1.00 20.00     0.021 A 
HETATM    6  C3  UNL     1     -36.414  14.291  -4.063  1.00 20.00     0.002 A 
HETATM    7  C4  UNL     1     -35.474  13.452  -4.787  1.00 20.00     0.001 A 
HETATM    8  C6  UNL     1     -34.146  13.561  -4.607  1.00 20.00     0.012 A 
HETATM    9  C8  UNL     1     -33.603  14.544  -3.660  1.00 20.00    -0.027 A 
HETATM   10  C9  UNL     1     -32.271  14.629  -3.500  1.00 20.00     0.025 C 
ENDBRANCH   1   4
TORSDOF 1
ENDMDL
MODEL 5
REMARK VINA RESULT:      -4.5      9.848     11.076
REMARK  1 active torsions:
REMARK  status: ('A' for Active; 'I' for Inactive)
REMARK    1  A    between atoms: C1_1  and  C7_7 
ROOT
HETATM    1  C1  UNL     1     -41.808   3.600  -2.479  1.00 20.00    -0.057 C 
HETATM    2  C2  UNL     1     -41.967   2.519  -2.979  1.00 20.00     0.276 C 
HETATM    3  O10 UNL     1     -42.123   1.462  -3.469  1.00 20.00    -0.274 OA
ENDROOT
BRANCH   1   4
HETATM    4  C7  UNL     1     -41.636   4.772  -1.935  1.00 20.00     0.023 A 
HETATM    5  C5  UNL     1     -40.712   4.891  -0.808  1.00 20.00     0.021 A 
HETATM    6  C3  UNL     1     -40.515   6.087  -0.226  1.00 20.00     0.002 A 
HETATM    7  C4  UNL     1     -41.200   7.281  -0.689  1.00 20.00     0.001 A 
HETATM    8  C6  UNL     1     -42.063   7.247  -1.720  1.00 20.00     0.012 A 
HETATM    9  C8  UNL     1     -42.339   5.982  -2.414  1.00 20.00    -0.027 A 
HETATM   10  C9  UNL     1     -43.208   5.977  -3.441  1.00 20.00     0.025 C 
ENDBRANCH   1   4
TORSDOF 1
ENDMDL
MODEL 6
REMARK VINA RESULT:      -4.4     11.801     13.118
REMARK  1 active torsions:
REMARK  status: ('A' for Active; 'I' for Inactive)
REMARK    1  A    between atoms: C1_1  and  C7_7 
ROOT
HETATM    1  C1  UNL     1     -34.593  16.043  -2.229  1.00 20.00    -0.057 C 
HETATM    2  C2  UNL     1     -34.620  16.494  -1.116  1.00 20.00     0.276 C 
HETATM    3  O10 UNL     1     -34.646  16.936  -0.027  1.00 20.00    -0.274 OA
ENDROOT
BRANCH   1   4
HETATM    4  C7  UNL     1     -34.564  15.552  -3.436  1.00 20.00     0.023 A 
HETATM    5  C5  UNL     1     -34.992  14.169  -3.640  1.00 20.00     0.021 A 
HETATM    6  C3  UNL     1     -34.972  13.635  -4.873  1.00 20.00     0.002 A 
HETATM    7  C4  UNL     1     -34.530  14.401  -6.027  1.00 20.00     0.001 A 
HETATM    8  C6  UNL     1     -34.123  15.677  -5.915  1.00 20.00     0.012 A 
HETATM    9  C8  UNL     1     -34.112  16.340  -4.604  1.00 20.00    -0.027 A 
HETATM   10  C9  UNL     1     -33.698  17.617  -4.521  1.00 20.00     0.025 C 
ENDBRANCH   1   4
TORSDOF 1
ENDMDL
MODEL 7
REMARK VINA RESULT:      -4.3     11.804     13.678
REMARK  1 active torsions:
REMARK  status: ('A' for Active; 'I' for Inactive)
REMARK    1  A    between atoms: C1_1  and  C7_7 
ROOT
HETATM    1  C1  UNL     1     -34.430  14.904  -4.128  1.00 20.00    -0.057 C 
HETATM    2  C2  UNL     1     -34.682  13.736  -4.248  1.00 20.00     0.276 C 
HETATM    3  O10 UNL     1     -34.928  12.592  -4.365  1.00 20.00    -0.274 OA
ENDROOT
BRANCH   1   4
HETATM    4  C7  UNL     1     -34.157  16.172  -3.997  1.00 20.00     0.023 A 
HETATM    5  C5  UNL     1     -33.767  16.930  -5.185  1.00 20.00     0.021 A 
HETATM    6  C3  UNL     1     -33.478  18.239  -5.080  1.00 20.00     0.002 A 
HETATM    7  C4  UNL     1     -33.541  18.933  -3.805  1.00 20.00     0.001 A 
HETATM    8  C6  UNL     1     -33.891  18.300  -2.671  1.00 20.00     0.012 A 
HETATM    9  C8  UNL     1     -34.223  16.869  -2.693  1.00 20.00    -0.027 A 
HETATM   10  C9  UNL     1     -34.568  16.261  -1.544  1.00 20.00     0.025 C 
ENDBRANCH   1   4
TORSDOF 1
ENDMDL
MODEL 8
REMARK VINA RESULT:      -4.2     10.037     11.046
REMARK  1 active torsions:
REMARK  status: ('A' for Active; 'I' for Inactive)
REMARK    1  A    between atoms: C1_1  and  C7_7 
ROOT
HETATM    1  C1  UNL     1     -42.268   7.418  -3.189  1.00 20.00    -0.057 C 
HETATM    2  C2  UNL     1     -42.546   8.196  -4.060  1.00 20.00     0.276 C 
HETATM    3  O10 UNL     1     -42.819   8.958  -4.914  1.00 20.00    -0.274 OA
ENDROOT
BRANCH   1   4
HETATM    4  C7  UNL     1     -41.967   6.575  -2.242  1.00 20.00     0.023 A 
HETATM    5  C5  UNL     1     -41.120   7.031  -1.141  1.00 20.00     0.021 A 
HETATM    6  C3  UNL     1     -40.791   6.183  -0.151  1.00 20.00     0.002 A 
HETATM    7  C4  UNL     1     -41.258   4.807  -0.142  1.00 20.00     0.001 A 
HETATM    8  C6  UNL     1     -42.039   4.318  -1.121  1.00 20.00     0.012 A 
HETATM    9  C8  UNL     1     -42.446   5.175  -2.242  1.00 20.00    -0.027 A 
HETATM   10  C9  UNL     1     -43.227   4.658  -3.208  1.00 20.00     0.025 C 
ENDBRANCH   1   4
TORSDOF 1
ENDMDL
MODEL 9
REMARK VINA RESULT:      -4.2     11.656     13.643
REMARK  1 active torsions:
REMARK  status: ('A' for Active; 'I' for Inactive)
REMARK    1  A    between atoms: C1_1  and  C7_7 
ROOT
HETATM    1  C1  UNL     1     -34.567  15.978  -3.054  1.00 20.00    -0.057 C 
HETATM    2  C2  UNL     1     -34.597  16.180  -1.871  1.00 20.00     0.276 C 
HETATM    3  O10 UNL     1     -34.626  16.379  -0.712  1.00 20.00    -0.274 OA
ENDROOT
BRANCH   1   4
HETATM    4  C7  UNL     1     -34.534  15.757  -4.338  1.00 20.00     0.023 A 
HETATM    5  C5  UNL     1     -34.259  16.879  -5.235  1.00 20.00     0.021 A 
HETATM    6  C3  UNL     1     -34.220  16.681  -6.564  1.00 20.00     0.002 A 
HETATM    7  C4  UNL     1     -34.447  15.369  -7.146  1.00 20.00     0.001 A 
HETATM    8  C6  UNL     1     -34.706  14.292  -6.383  1.00 20.00     0.012 A 
HETATM    9  C8  UNL     1     -34.767  14.417  -4.921  1.00 20.00    -0.027 A 
HETATM   10  C9  UNL     1     -35.030  13.323  -4.183  1.00 20.00     0.025 C 
ENDBRANCH   1   4
TORSDOF 1
ENDMDL
