MODEL 1
REMARK VINA RESULT:      -4.3      0.000      0.000
REMARK  1 active torsions:
REMARK  status: ('A' for Active; 'I' for Inactive)
REMARK    1  A    between atoms: C2_2  and  C4_4 
ROOT
HETATM    1  C1  UNL     1     -36.866  14.649  -3.654  1.00 20.00     0.065 C 
HETATM    2  C3  UNL     1     -35.474  14.960  -3.491  1.00 20.00     0.113 A 
HETATM    3  C4  UNL     1     -34.754  15.666  -4.619  1.00 20.00     0.082 A 
HETATM    4  C5  UNL     1     -34.415  14.222  -4.293  1.00 20.00    -0.019 A 
HETATM    5  C7  UNL     1     -33.123  13.899  -3.583  1.00 20.00     0.017 C 
HETATM    6  C8  UNL     1     -34.816  13.178  -5.307  1.00 20.00     0.017 C 
HETATM    7  N9  UNL     1     -37.991  14.399  -3.785  1.00 20.00    -0.197 NA
ENDROOT
BRANCH   3   8
HETATM    8  C2  UNL     1     -33.814  16.751  -4.300  1.00 20.00     0.129 C 
HETATM    9  C6  UNL     1     -33.951  17.387  -2.944  1.00 20.00     0.091 C 
HETATM   10  O10 UNL     1     -32.957  17.119  -5.102  1.00 20.00    -0.298 OA
ENDBRANCH   3   8
TORSDOF 1
ENDMDL
MODEL 2
REMARK VINA RESULT:      -4.3      2.383      3.346
REMARK  1 active torsions:
REMARK  status: ('A' for Active; 'I' for Inactive)
REMARK    1  A    between atoms: C2_2  and  C4_4 
ROOT
HETATM    1  C1  UNL     1     -36.391  17.288  -3.859  1.00 20.00     0.065 C 
HETATM    2  C3  UNL     1     -35.384  16.321  -4.191  1.00 20.00     0.113 A 
HETATM    3  C4  UNL     1     -35.580  14.888  -3.745  1.00 20.00     0.082 A 
HETATM    4  C5  UNL     1     -34.486  15.733  -3.115  1.00 20.00    -0.019 A 
HETATM    5  C7  UNL     1     -33.044  15.488  -3.486  1.00 20.00     0.017 C 
HETATM    6  C8  UNL     1     -34.671  16.127  -1.669  1.00 20.00     0.017 C 
HETATM    7  N9  UNL     1     -37.205  18.069  -3.591  1.00 20.00    -0.197 NA
ENDROOT
BRANCH   3   8
HETATM    8  C2  UNL     1     -35.249  13.797  -4.673  1.00 20.00     0.129 C 
HETATM    9  C6  UNL     1     -35.179  14.151  -6.134  1.00 20.00     0.091 C 
HETATM   10  O10 UNL     1     -35.037  12.653  -4.275  1.00 20.00    -0.298 OA
ENDBRANCH   3   8
TORSDOF 1
ENDMDL
MODEL 3
REMARK VINA RESULT:      -4.3      2.576      3.475
REMARK  1 active torsions:
REMARK  status: ('A' for Active; 'I' for Inactive)
REMARK    1  A    between atoms: C2_2  and  C4_4 
ROOT
HETATM    1  C1  UNL     1     -33.714  14.390  -3.516  1.00 20.00     0.065 C 
HETATM    2  C3  UNL     1     -34.008  15.734  -3.108  1.00 20.00     0.113 A 
HETATM    3  C4  UNL     1     -34.684  15.955  -1.773  1.00 20.00     0.082 A 
HETATM    4  C5  UNL     1     -35.441  16.236  -3.059  1.00 20.00    -0.019 A 
HETATM    5  C7  UNL     1     -35.682  17.662  -3.489  1.00 20.00     0.017 C 
HETATM    6  C8  UNL     1     -36.584  15.310  -3.397  1.00 20.00     0.017 C 
HETATM    7  N9  UNL     1     -33.477  13.303  -3.845  1.00 20.00    -0.197 NA
ENDROOT
BRANCH   3   8
HETATM    8  C2  UNL     1     -34.227  17.055  -0.911  1.00 20.00     0.129 C 
HETATM    9  C6  UNL     1     -35.058  17.348   0.308  1.00 20.00     0.091 C 
HETATM   10  O10 UNL     1     -33.214  17.702  -1.174  1.00 20.00    -0.298 OA
ENDBRANCH   3   8
TORSDOF 1
ENDMDL
MODEL 4
REMARK VINA RESULT:      -4.2      2.006      3.058
REMARK  1 active torsions:
REMARK  status: ('A' for Active; 'I' for Inactive)
REMARK    1  A    between atoms: C2_2  and  C4_4 
ROOT
HETATM    1  C1  UNL     1     -37.989  14.832  -3.827  1.00 20.00     0.065 C 
HETATM    2  C3  UNL     1     -36.764  14.626  -4.547  1.00 20.00     0.113 A 
HETATM    3  C4  UNL     1     -35.470  14.545  -3.767  1.00 20.00     0.082 A 
HETATM    4  C5  UNL     1     -35.737  15.739  -4.666  1.00 20.00    -0.019 A 
HETATM    5  C7  UNL     1     -35.010  15.861  -5.983  1.00 20.00     0.017 C 
HETATM    6  C8  UNL     1     -35.971  17.068  -3.989  1.00 20.00     0.017 C 
HETATM    7  N9  UNL     1     -38.978  14.997  -3.244  1.00 20.00    -0.197 NA
ENDROOT
BRANCH   3   8
HETATM    8  C2  UNL     1     -34.473  13.530  -4.137  1.00 20.00     0.129 C 
HETATM    9  C6  UNL     1     -33.067  13.756  -3.652  1.00 20.00     0.091 C 
HETATM   10  O10 UNL     1     -34.774  12.544  -4.808  1.00 20.00    -0.298 OA
ENDBRANCH   3   8
TORSDOF 1
ENDMDL
MODEL 5
REMARK VINA RESULT:      -4.2      2.462      2.934
REMARK  1 active torsions:
REMARK  status: ('A' for Active; 'I' for Inactive)
REMARK    1  A    between atoms: C2_2  and  C4_4 
ROOT
HETATM    1  C1  UNL     1     -35.072  13.496  -4.188  1.00 20.00     0.065 C 
HETATM    2  C3  UNL     1     -35.418  14.656  -3.418  1.00 20.00     0.113 A 
HETATM    3  C4  UNL     1     -35.352  16.014  -4.082  1.00 20.00     0.082 A 
HETATM    4  C5  UNL     1     -34.353  15.655  -2.996  1.00 20.00    -0.019 A 
HETATM    5  C7  UNL     1     -34.492  16.264  -1.622  1.00 20.00     0.017 C 
HETATM    6  C8  UNL     1     -32.917  15.464  -3.422  1.00 20.00     0.017 C 
HETATM    7  N9  UNL     1     -34.792  12.559  -4.812  1.00 20.00    -0.197 NA
ENDROOT
BRANCH   3   8
HETATM    8  C2  UNL     1     -36.424  16.988  -3.829  1.00 20.00     0.129 C 
HETATM    9  C6  UNL     1     -36.115  18.427  -4.140  1.00 20.00     0.091 C 
HETATM   10  O10 UNL     1     -37.518  16.644  -3.388  1.00 20.00    -0.298 OA
ENDBRANCH   3   8
TORSDOF 1
ENDMDL
MODEL 6
REMARK VINA RESULT:      -4.1      1.475      2.168
REMARK  1 active torsions:
REMARK  status: ('A' for Active; 'I' for Inactive)
REMARK    1  A    between atoms: C2_2  and  C4_4 
ROOT
HETATM    1  C1  UNL     1     -37.094  14.483  -4.137  1.00 20.00     0.065 C 
HETATM    2  C3  UNL     1     -35.814  14.560  -4.782  1.00 20.00     0.113 A 
HETATM    3  C4  UNL     1     -35.092  15.889  -4.802  1.00 20.00     0.082 A 
HETATM    4  C5  UNL     1     -35.648  15.312  -6.092  1.00 20.00    -0.019 A 
HETATM    5  C7  UNL     1     -34.708  14.713  -7.110  1.00 20.00     0.017 C 
HETATM    6  C8  UNL     1     -36.822  16.029  -6.713  1.00 20.00     0.017 C 
HETATM    7  N9  UNL     1     -38.128  14.422  -3.615  1.00 20.00    -0.197 NA
ENDROOT
BRANCH   3   8
HETATM    8  C2  UNL     1     -33.643  15.922  -4.553  1.00 20.00     0.129 C 
HETATM    9  C6  UNL     1     -33.080  14.819  -3.699  1.00 20.00     0.091 C 
HETATM   10  O10 UNL     1     -32.928  16.805  -5.023  1.00 20.00    -0.298 OA
ENDBRANCH   3   8
TORSDOF 1
ENDMDL
MODEL 7
REMARK VINA RESULT:      -4.1      2.615      3.558
REMARK  1 active torsions:
REMARK  status: ('A' for Active; 'I' for Inactive)
REMARK    1  A    between atoms: C2_2  and  C4_4 
ROOT
HETATM    1  C1  UNL     1     -34.664  16.819  -0.544  1.00 20.00     0.065 C 
HETATM    2  C3  UNL     1     -34.636  16.028  -1.741  1.00 20.00     0.113 A 
HETATM    3  C4  UNL     1     -34.238  16.694  -3.040  1.00 20.00     0.082 A 
HETATM    4  C5  UNL     1     -35.671  16.236  -2.835  1.00 20.00    -0.019 A 
HETATM    5  C7  UNL     1     -36.171  15.002  -3.546  1.00 20.00     0.017 C 
HETATM    6  C8  UNL     1     -36.721  17.311  -2.695  1.00 20.00     0.017 C 
HETATM    7  N9  UNL     1     -34.686  17.459   0.423  1.00 20.00    -0.197 NA
ENDROOT
BRANCH   3   8
HETATM    8  C2  UNL     1     -33.344  15.982  -3.966  1.00 20.00     0.129 C 
HETATM    9  C6  UNL     1     -33.303  16.483  -5.384  1.00 20.00     0.091 C 
HETATM   10  O10 UNL     1     -32.662  15.027  -3.598  1.00 20.00    -0.298 OA
ENDBRANCH   3   8
TORSDOF 1
ENDMDL
MODEL 8
REMARK VINA RESULT:      -4.1      2.108      2.782
REMARK  1 active torsions:
REMARK  status: ('A' for Active; 'I' for Inactive)
REMARK    1  A    between atoms: C2_2  and  C4_4 
ROOT
HETATM    1  C1  UNL     1     -34.545  13.676  -4.357  1.00 20.00     0.065 C 
HETATM    2  C3  UNL     1     -34.272  15.013  -3.913  1.00 20.00     0.113 A 
HETATM    3  C4  UNL     1     -35.434  15.958  -3.701  1.00 20.00     0.082 A 
HETATM    4  C5  UNL     1     -34.467  16.196  -4.847  1.00 20.00    -0.019 A 
HETATM    5  C7  UNL     1     -33.457  17.315  -4.754  1.00 20.00     0.017 C 
HETATM    6  C8  UNL     1     -34.995  15.984  -6.245  1.00 20.00     0.017 C 
HETATM    7  N9  UNL     1     -34.767  12.595  -4.714  1.00 20.00    -0.197 NA
ENDROOT
BRANCH   3   8
HETATM    8  C2  UNL     1     -35.437  16.836  -2.522  1.00 20.00     0.129 C 
HETATM    9  C6  UNL     1     -34.608  16.394  -1.348  1.00 20.00     0.091 C 
HETATM   10  O10 UNL     1     -36.084  17.882  -2.499  1.00 20.00    -0.298 OA
ENDBRANCH   3   8
TORSDOF 1
ENDMDL
MODEL 9
REMARK VINA RESULT:      -4.0     11.828     12.848
REMARK  1 active torsions:
REMARK  status: ('A' for Active; 'I' for Inactive)
REMARK    1  A    between atoms: C2_2  and  C4_4 
ROOT
HETATM    1  C1  UNL     1     -32.623   7.404   2.961  1.00 20.00     0.065 C 
HETATM    2  C3  UNL     1     -33.755   6.983   3.737  1.00 20.00     0.113 A 
HETATM    3  C4  UNL     1     -33.617   5.757   4.613  1.00 20.00     0.082 A 
HETATM    4  C5  UNL     1     -34.508   5.711   3.384  1.00 20.00    -0.019 A 
HETATM    5  C7  UNL     1     -36.009   5.738   3.547  1.00 20.00     0.017 C 
HETATM    6  C8  UNL     1     -34.048   4.847   2.235  1.00 20.00     0.017 C 
HETATM    7  N9  UNL     1     -31.708   7.744   2.335  1.00 20.00    -0.197 NA
ENDROOT
BRANCH   3   8
HETATM    8  C2  UNL     1     -34.195   5.773   5.964  1.00 20.00     0.129 C 
HETATM    9  C6  UNL     1     -34.900   4.521   6.412  1.00 20.00     0.091 C 
HETATM   10  O10 UNL     1     -34.105   6.759   6.693  1.00 20.00    -0.298 OA
ENDBRANCH   3   8
TORSDOF 1
ENDMDL
