MODEL 1
REMARK VINA RESULT:      -5.6      0.000      0.000
REMARK  1 active torsions:
REMARK  status: ('A' for Active; 'I' for Inactive)
REMARK    1  A    between atoms: C1_1  and  C6_6 
ROOT
HETATM    1  C2  UNL     1     -34.976   3.761   4.957  1.00 20.00     0.005 A 
HETATM    2  C3  UNL     1     -34.442   4.348   6.268  1.00 20.00     0.005 A 
HETATM    3  C4  UNL     1     -34.327   5.722   3.332  1.00 20.00     0.018 C 
HETATM    4  C5  UNL     1     -33.535   6.649   5.390  1.00 20.00     0.018 C 
HETATM    5  C6  UNL     1     -33.039   6.093   4.060  1.00 20.00     0.073 C 
HETATM    6  C7  UNL     1     -35.248   5.182   4.425  1.00 20.00    -0.010 A 
HETATM    7  C8  UNL     1     -34.731   5.772   5.753  1.00 20.00    -0.010 A 
ENDROOT
BRANCH   5   8
HETATM    8  C1  UNL     1     -32.249   7.100   3.290  1.00 20.00     0.223 C 
HETATM    9  O9  UNL     1     -32.483   7.336   2.108  1.00 20.00    -0.279 OA
HETATM   10 CL10 UNL     1     -31.018   7.847   4.261  1.00 20.00    -0.043 Cl
ENDBRANCH   5   8
TORSDOF 1
ENDMDL
MODEL 2
REMARK VINA RESULT:      -4.8     12.129     12.675
REMARK  1 active torsions:
REMARK  status: ('A' for Active; 'I' for Inactive)
REMARK    1  A    between atoms: C1_1  and  C6_6 
ROOT
HETATM    1  C2  UNL     1     -34.854  16.645  -0.949  1.00 20.00     0.005 A 
HETATM    2  C3  UNL     1     -33.481  17.030  -1.511  1.00 20.00     0.005 A 
HETATM    3  C4  UNL     1     -35.818  15.381  -3.041  1.00 20.00     0.018 C 
HETATM    4  C5  UNL     1     -33.690  16.023  -3.926  1.00 20.00     0.018 C 
HETATM    5  C6  UNL     1     -34.482  14.796  -3.486  1.00 20.00     0.073 C 
HETATM    6  C7  UNL     1     -35.457  16.703  -2.366  1.00 20.00    -0.010 A 
HETATM    7  C8  UNL     1     -34.081  17.111  -2.930  1.00 20.00    -0.010 A 
ENDROOT
BRANCH   5   8
HETATM    8  C1  UNL     1     -34.659  13.814  -4.598  1.00 20.00     0.223 C 
HETATM    9  O9  UNL     1     -34.922  12.635  -4.380  1.00 20.00    -0.279 OA
HETATM   10 CL10 UNL     1     -34.450  14.547  -6.158  1.00 20.00    -0.043 Cl
ENDBRANCH   5   8
TORSDOF 1
ENDMDL
MODEL 3
REMARK VINA RESULT:      -4.6     12.134     12.852
REMARK  1 active torsions:
REMARK  status: ('A' for Active; 'I' for Inactive)
REMARK    1  A    between atoms: C1_1  and  C6_6 
ROOT
HETATM    1  C2  UNL     1     -35.655  17.251  -2.143  1.00 20.00     0.005 A 
HETATM    2  C3  UNL     1     -34.670  16.430  -1.303  1.00 20.00     0.005 A 
HETATM    3  C4  UNL     1     -35.220  16.148  -4.488  1.00 20.00     0.018 C 
HETATM    4  C5  UNL     1     -33.654  14.900  -3.179  1.00 20.00     0.018 C 
HETATM    5  C6  UNL     1     -34.964  14.746  -3.944  1.00 20.00     0.073 C 
HETATM    6  C7  UNL     1     -34.748  17.086  -3.378  1.00 20.00    -0.010 A 
HETATM    7  C8  UNL     1     -33.747  16.278  -2.529  1.00 20.00    -0.010 A 
ENDROOT
BRANCH   5   8
HETATM    8  C1  UNL     1     -34.857  13.744  -5.046  1.00 20.00     0.223 C 
HETATM    9  O9  UNL     1     -34.792  12.540  -4.819  1.00 20.00    -0.279 OA
HETATM   10 CL10 UNL     1     -34.837  14.495  -6.613  1.00 20.00    -0.043 Cl
ENDBRANCH   5   8
TORSDOF 1
ENDMDL
MODEL 4
REMARK VINA RESULT:      -4.3     12.325     14.048
REMARK  1 active torsions:
REMARK  status: ('A' for Active; 'I' for Inactive)
REMARK    1  A    between atoms: C1_1  and  C6_6 
ROOT
HETATM    1  C2  UNL     1     -35.597  17.255  -6.855  1.00 20.00     0.005 A 
HETATM    2  C3  UNL     1     -34.946  17.954  -5.656  1.00 20.00     0.005 A 
HETATM    3  C4  UNL     1     -34.604  14.845  -6.516  1.00 20.00     0.018 C 
HETATM    4  C5  UNL     1     -33.558  15.956  -4.673  1.00 20.00     0.018 C 
HETATM    5  C6  UNL     1     -34.610  14.899  -4.992  1.00 20.00     0.073 C 
HETATM    6  C7  UNL     1     -34.395  16.294  -6.954  1.00 20.00    -0.010 A 
HETATM    7  C8  UNL     1     -33.730  17.011  -5.762  1.00 20.00    -0.010 A 
ENDROOT
BRANCH   5   8
HETATM    8  C1  UNL     1     -34.270  13.571  -4.399  1.00 20.00     0.223 C 
HETATM    9  O9  UNL     1     -34.995  12.592  -4.552  1.00 20.00    -0.279 OA
HETATM   10 CL10 UNL     1     -32.779  13.614  -3.509  1.00 20.00    -0.043 Cl
ENDBRANCH   5   8
TORSDOF 1
ENDMDL
MODEL 5
REMARK VINA RESULT:      -4.3     11.742     12.570
REMARK  1 active torsions:
REMARK  status: ('A' for Active; 'I' for Inactive)
REMARK    1  A    between atoms: C1_1  and  C6_6 
ROOT
HETATM    1  C2  UNL     1     -33.349  13.675  -3.788  1.00 20.00     0.005 A 
HETATM    2  C3  UNL     1     -34.829  13.385  -4.062  1.00 20.00     0.005 A 
HETATM    3  C4  UNL     1     -33.560  16.165  -2.973  1.00 20.00     0.018 C 
HETATM    4  C5  UNL     1     -35.863  15.717  -3.444  1.00 20.00     0.018 C 
HETATM    5  C6  UNL     1     -34.908  15.978  -2.284  1.00 20.00     0.073 C 
HETATM    6  C7  UNL     1     -33.573  15.163  -4.126  1.00 20.00    -0.010 A 
HETATM    7  C8  UNL     1     -35.057  14.867  -4.422  1.00 20.00    -0.010 A 
ENDROOT
BRANCH   5   8
HETATM    8  C1  UNL     1     -35.293  17.191  -1.502  1.00 20.00     0.223 C 
HETATM    9  O9  UNL     1     -35.858  18.145  -2.029  1.00 20.00    -0.279 OA
HETATM   10 CL10 UNL     1     -34.848  17.059   0.172  1.00 20.00    -0.043 Cl
ENDBRANCH   5   8
TORSDOF 1
ENDMDL
MODEL 6
REMARK VINA RESULT:      -4.3     12.219     12.804
REMARK  1 active torsions:
REMARK  status: ('A' for Active; 'I' for Inactive)
REMARK    1  A    between atoms: C1_1  and  C6_6 
ROOT
HETATM    1  C2  UNL     1     -35.872  14.596  -5.342  1.00 20.00     0.005 A 
HETATM    2  C3  UNL     1     -34.388  14.497  -5.715  1.00 20.00     0.005 A 
HETATM    3  C4  UNL     1     -35.622  15.561  -2.910  1.00 20.00     0.018 C 
HETATM    4  C5  UNL     1     -33.308  15.362  -3.485  1.00 20.00     0.018 C 
HETATM    5  C6  UNL     1     -34.388  16.404  -3.214  1.00 20.00     0.073 C 
HETATM    6  C7  UNL     1     -35.519  14.367  -3.859  1.00 20.00    -0.010 A 
HETATM    7  C8  UNL     1     -34.029  14.246  -4.237  1.00 20.00    -0.010 A 
ENDROOT
BRANCH   5   8
HETATM    8  C1  UNL     1     -34.037  17.291  -2.065  1.00 20.00     0.223 C 
HETATM    9  O9  UNL     1     -33.418  18.339  -2.226  1.00 20.00    -0.279 OA
HETATM   10 CL10 UNL     1     -34.603  16.656  -0.551  1.00 20.00    -0.043 Cl
ENDBRANCH   5   8
TORSDOF 1
ENDMDL
MODEL 7
REMARK VINA RESULT:      -4.2     12.131     12.966
REMARK  1 active torsions:
REMARK  status: ('A' for Active; 'I' for Inactive)
REMARK    1  A    between atoms: C1_1  and  C6_6 
ROOT
HETATM    1  C2  UNL     1     -33.107  15.022  -4.060  1.00 20.00     0.005 A 
HETATM    2  C3  UNL     1     -33.521  16.292  -3.307  1.00 20.00     0.005 A 
HETATM    3  C4  UNL     1     -35.442  13.819  -4.156  1.00 20.00     0.018 C 
HETATM    4  C5  UNL     1     -36.070  15.783  -2.943  1.00 20.00     0.018 C 
HETATM    5  C6  UNL     1     -36.259  15.099  -4.293  1.00 20.00     0.073 C 
HETATM    6  C7  UNL     1     -34.216  14.228  -3.341  1.00 20.00    -0.010 A 
HETATM    7  C8  UNL     1     -34.618  15.500  -2.567  1.00 20.00    -0.010 A 
ENDROOT
BRANCH   5   8
HETATM    8  C1  UNL     1     -37.695  14.801  -4.575  1.00 20.00     0.223 C 
HETATM    9  O9  UNL     1     -38.408  14.227  -3.756  1.00 20.00    -0.279 OA
HETATM   10 CL10 UNL     1     -38.182  15.356  -6.147  1.00 20.00    -0.043 Cl
ENDBRANCH   5   8
TORSDOF 1
ENDMDL
MODEL 8
REMARK VINA RESULT:      -4.2     12.081     13.041
REMARK  1 active torsions:
REMARK  status: ('A' for Active; 'I' for Inactive)
REMARK    1  A    between atoms: C1_1  and  C6_6 
ROOT
HETATM    1  C2  UNL     1     -34.916  18.127  -1.684  1.00 20.00     0.005 A 
HETATM    2  C3  UNL     1     -34.090  17.017  -1.023  1.00 20.00     0.005 A 
HETATM    3  C4  UNL     1     -35.693  16.837  -3.837  1.00 20.00     0.018 C 
HETATM    4  C5  UNL     1     -34.367  15.125  -2.820  1.00 20.00     0.018 C 
HETATM    5  C6  UNL     1     -35.812  15.477  -3.157  1.00 20.00     0.073 C 
HETATM    6  C7  UNL     1     -34.580  17.555  -3.076  1.00 20.00    -0.010 A 
HETATM    7  C8  UNL     1     -33.732  16.451  -2.412  1.00 20.00    -0.010 A 
ENDROOT
BRANCH   5   8
HETATM    8  C1  UNL     1     -36.440  14.467  -4.061  1.00 20.00     0.223 C 
HETATM    9  O9  UNL     1     -37.610  14.121  -3.927  1.00 20.00    -0.279 OA
HETATM   10 CL10 UNL     1     -35.330  13.887  -5.265  1.00 20.00    -0.043 Cl
ENDBRANCH   5   8
TORSDOF 1
ENDMDL
MODEL 9
REMARK VINA RESULT:      -4.2     12.392     13.460
REMARK  1 active torsions:
REMARK  status: ('A' for Active; 'I' for Inactive)
REMARK    1  A    between atoms: C1_1  and  C6_6 
ROOT
HETATM    1  C2  UNL     1     -33.269  16.123  -4.632  1.00 20.00     0.005 A 
HETATM    2  C3  UNL     1     -33.182  14.949  -3.650  1.00 20.00     0.005 A 
HETATM    3  C4  UNL     1     -35.641  15.633  -5.653  1.00 20.00     0.018 C 
HETATM    4  C5  UNL     1     -35.478  13.780  -4.148  1.00 20.00     0.018 C 
HETATM    5  C6  UNL     1     -36.242  15.082  -4.364  1.00 20.00     0.073 C 
HETATM    6  C7  UNL     1     -34.156  15.280  -5.569  1.00 20.00    -0.010 A 
HETATM    7  C8  UNL     1     -34.052  14.092  -4.592  1.00 20.00    -0.010 A 
ENDROOT
BRANCH   5   8
HETATM    8  C1  UNL     1     -37.712  14.855  -4.502  1.00 20.00     0.223 C 
HETATM    9  O9  UNL     1     -38.353  14.247  -3.649  1.00 20.00    -0.279 OA
HETATM   10 CL10 UNL     1     -38.345  15.540  -5.967  1.00 20.00    -0.043 Cl
ENDBRANCH   5   8
TORSDOF 1
ENDMDL
