MODEL 1
REMARK VINA RESULT:      -4.6      0.000      0.000
REMARK  2 active torsions:
REMARK  status: ('A' for Active; 'I' for Inactive)
REMARK    1  A    between atoms: C4_4  and  O10_10 
REMARK    2  A    between atoms: C5_5  and  C6_6 
ROOT
HETATM    1  C1  UNL     1     -33.593  14.068  -3.788  1.00 20.00     0.040 A 
HETATM    2  C2  UNL     1     -33.199  15.347  -3.414  1.00 20.00     0.034 A 
HETATM    3  C3  UNL     1     -35.858  14.780  -3.649  1.00 20.00     0.153 A 
HETATM    4  C4  UNL     1     -34.945  13.771  -3.910  1.00 20.00     0.083 A 
HETATM    5  C5  UNL     1     -34.189  16.287  -3.176  1.00 20.00     0.056 A 
HETATM    6  N9  UNL     1     -35.512  16.036  -3.284  1.00 20.00    -0.258 NA
ENDROOT
BRANCH   5   7
HETATM    7  C6  UNL     1     -33.828  17.639  -2.782  1.00 20.00     0.027 C 
HETATM    8  C7  UNL     1     -33.851  18.131  -1.522  1.00 20.00    -0.029 C 
HETATM    9  C8  UNL     1     -34.259  17.339  -0.323  1.00 20.00     0.036 C 
ENDBRANCH   5   7
BRANCH   4  10
HETATM   10  O10 UNL     1     -35.359  12.532  -4.273  1.00 20.00    -0.359 OA
HETATM   11  H19 UNL     1     -34.793  12.176  -4.980  1.00 20.00     0.217 HD
ENDBRANCH   4  10
TORSDOF 2
ENDMDL
MODEL 2
REMARK VINA RESULT:      -4.3      1.156      1.986
REMARK  2 active torsions:
REMARK  status: ('A' for Active; 'I' for Inactive)
REMARK    1  A    between atoms: C4_4  and  O10_10 
REMARK    2  A    between atoms: C5_5  and  C6_6 
ROOT
HETATM    1  C1  UNL     1     -33.581  14.084  -3.825  1.00 20.00     0.040 A 
HETATM    2  C2  UNL     1     -33.195  15.403  -3.620  1.00 20.00     0.034 A 
HETATM    3  C3  UNL     1     -35.849  14.801  -3.825  1.00 20.00     0.153 A 
HETATM    4  C4  UNL     1     -34.931  13.769  -3.931  1.00 20.00     0.083 A 
HETATM    5  C5  UNL     1     -34.191  16.363  -3.528  1.00 20.00     0.056 A 
HETATM    6  N9  UNL     1     -35.512  16.095  -3.626  1.00 20.00    -0.258 NA
ENDROOT
BRANCH   5   7
HETATM    7  C6  UNL     1     -33.838  17.758  -3.313  1.00 20.00     0.027 C 
HETATM    8  C7  UNL     1     -33.585  18.670  -4.279  1.00 20.00    -0.029 C 
HETATM    9  C8  UNL     1     -33.633  18.373  -5.743  1.00 20.00     0.036 C 
ENDBRANCH   5   7
BRANCH   4  10
HETATM   10  O10 UNL     1     -35.337  12.491  -4.132  1.00 20.00    -0.359 OA
HETATM   11  H19 UNL     1     -35.134  11.942  -3.355  1.00 20.00     0.217 HD
ENDBRANCH   4  10
TORSDOF 2
ENDMDL
MODEL 3
REMARK VINA RESULT:      -4.2      1.709      2.005
REMARK  2 active torsions:
REMARK  status: ('A' for Active; 'I' for Inactive)
REMARK    1  A    between atoms: C4_4  and  O10_10 
REMARK    2  A    between atoms: C5_5  and  C6_6 
ROOT
HETATM    1  C1  UNL     1     -33.670  14.162  -3.784  1.00 20.00     0.040 A 
HETATM    2  C2  UNL     1     -33.170  15.423  -4.083  1.00 20.00     0.034 A 
HETATM    3  C3  UNL     1     -35.501  14.596  -5.238  1.00 20.00     0.153 A 
HETATM    4  C4  UNL     1     -34.856  13.732  -4.368  1.00 20.00     0.083 A 
HETATM    5  C5  UNL     1     -33.890  16.212  -4.968  1.00 20.00     0.056 A 
HETATM    6  N9  UNL     1     -35.046  15.830  -5.554  1.00 20.00    -0.258 NA
ENDROOT
BRANCH   5   7
HETATM    7  C6  UNL     1     -33.409  17.541  -5.313  1.00 20.00     0.027 C 
HETATM    8  C7  UNL     1     -33.669  18.680  -4.631  1.00 20.00    -0.029 C 
HETATM    9  C8  UNL     1     -34.507  18.742  -3.395  1.00 20.00     0.036 C 
ENDBRANCH   5   7
BRANCH   4  10
HETATM   10  O10 UNL     1     -35.366  12.507  -4.094  1.00 20.00    -0.359 OA
HETATM   11  H19 UNL     1     -35.550  12.418  -3.144  1.00 20.00     0.217 HD
ENDBRANCH   4  10
TORSDOF 2
ENDMDL
MODEL 4
REMARK VINA RESULT:      -4.2      2.086      3.894
REMARK  2 active torsions:
REMARK  status: ('A' for Active; 'I' for Inactive)
REMARK    1  A    between atoms: C4_4  and  O10_10 
REMARK    2  A    between atoms: C5_5  and  C6_6 
ROOT
HETATM    1  C1  UNL     1     -33.936  13.519  -4.192  1.00 20.00     0.040 A 
HETATM    2  C2  UNL     1     -35.325  13.522  -4.242  1.00 20.00     0.034 A 
HETATM    3  C3  UNL     1     -34.013  15.741  -3.348  1.00 20.00     0.153 A 
HETATM    4  C4  UNL     1     -33.260  14.645  -3.737  1.00 20.00     0.083 A 
HETATM    5  C5  UNL     1     -35.987  14.668  -3.829  1.00 20.00     0.056 A 
HETATM    6  N9  UNL     1     -35.364  15.781  -3.382  1.00 20.00    -0.258 NA
ENDROOT
BRANCH   5   7
HETATM    7  C6  UNL     1     -37.439  14.721  -3.863  1.00 20.00     0.027 C 
HETATM    8  C7  UNL     1     -38.194  15.128  -4.910  1.00 20.00    -0.029 C 
HETATM    9  C8  UNL     1     -37.633  15.592  -6.215  1.00 20.00     0.036 C 
ENDBRANCH   5   7
BRANCH   4  10
HETATM   10  O10 UNL     1     -31.906  14.671  -3.678  1.00 20.00    -0.359 OA
HETATM   11  H19 UNL     1     -31.570  15.549  -3.925  1.00 20.00     0.217 HD
ENDBRANCH   4  10
TORSDOF 2
ENDMDL
MODEL 5
REMARK VINA RESULT:      -4.1      2.203      3.951
REMARK  2 active torsions:
REMARK  status: ('A' for Active; 'I' for Inactive)
REMARK    1  A    between atoms: C4_4  and  O10_10 
REMARK    2  A    between atoms: C5_5  and  C6_6 
ROOT
HETATM    1  C1  UNL     1     -33.983  15.674  -3.082  1.00 20.00     0.040 A 
HETATM    2  C2  UNL     1     -35.371  15.706  -3.122  1.00 20.00     0.034 A 
HETATM    3  C3  UNL     1     -34.044  13.636  -4.306  1.00 20.00     0.153 A 
HETATM    4  C4  UNL     1     -33.299  14.623  -3.683  1.00 20.00     0.083 A 
HETATM    5  C5  UNL     1     -36.025  14.670  -3.771  1.00 20.00     0.056 A 
HETATM    6  N9  UNL     1     -35.395  13.632  -4.366  1.00 20.00    -0.258 NA
ENDROOT
BRANCH   5   7
HETATM    7  C6  UNL     1     -37.477  14.657  -3.840  1.00 20.00     0.027 C 
HETATM    8  C7  UNL     1     -38.228  15.135  -4.859  1.00 20.00    -0.029 C 
HETATM    9  C8  UNL     1     -37.662  15.760  -6.092  1.00 20.00     0.036 C 
ENDBRANCH   5   7
BRANCH   4  10
HETATM   10  O10 UNL     1     -31.944  14.567  -3.660  1.00 20.00    -0.359 OA
HETATM   11  H19 UNL     1     -31.607  14.820  -2.784  1.00 20.00     0.217 HD
ENDBRANCH   4  10
TORSDOF 2
ENDMDL
MODEL 6
REMARK VINA RESULT:      -4.1     10.856     11.641
REMARK  2 active torsions:
REMARK  status: ('A' for Active; 'I' for Inactive)
REMARK    1  A    between atoms: C4_4  and  O10_10 
REMARK    2  A    between atoms: C5_5  and  C6_6 
ROOT
HETATM    1  C1  UNL     1     -34.685   5.115   3.678  1.00 20.00     0.040 A 
HETATM    2  C2  UNL     1     -33.760   5.715   2.832  1.00 20.00     0.034 A 
HETATM    3  C3  UNL     1     -33.721   6.307   5.496  1.00 20.00     0.153 A 
HETATM    4  C4  UNL     1     -34.672   5.411   5.036  1.00 20.00     0.083 A 
HETATM    5  C5  UNL     1     -32.849   6.598   3.390  1.00 20.00     0.056 A 
HETATM    6  N9  UNL     1     -32.805   6.910   4.704  1.00 20.00    -0.258 NA
ENDROOT
BRANCH   5   7
HETATM    7  C6  UNL     1     -31.860   7.250   2.547  1.00 20.00     0.027 C 
HETATM    8  C7  UNL     1     -31.995   8.461   1.958  1.00 20.00    -0.029 C 
HETATM    9  C8  UNL     1     -33.207   9.325   2.090  1.00 20.00     0.036 C 
ENDBRANCH   5   7
BRANCH   4  10
HETATM   10  O10 UNL     1     -35.563   4.841   5.885  1.00 20.00    -0.359 OA
HETATM   11  H19 UNL     1     -35.520   3.872   5.825  1.00 20.00     0.217 HD
ENDBRANCH   4  10
TORSDOF 2
ENDMDL
MODEL 7
REMARK VINA RESULT:      -4.1      2.608      4.362
REMARK  2 active torsions:
REMARK  status: ('A' for Active; 'I' for Inactive)
REMARK    1  A    between atoms: C4_4  and  O10_10 
REMARK    2  A    between atoms: C5_5  and  C6_6 
ROOT
HETATM    1  C1  UNL     1     -33.935  17.188  -1.296  1.00 20.00     0.040 A 
HETATM    2  C2  UNL     1     -34.702  16.104  -1.705  1.00 20.00     0.034 A 
HETATM    3  C3  UNL     1     -34.098  18.070  -3.499  1.00 20.00     0.153 A 
HETATM    4  C4  UNL     1     -33.622  18.194  -2.203  1.00 20.00     0.083 A 
HETATM    5  C5  UNL     1     -35.131  16.074  -3.023  1.00 20.00     0.056 A 
HETATM    6  N9  UNL     1     -34.847  17.032  -3.933  1.00 20.00    -0.258 NA
ENDROOT
BRANCH   5   7
HETATM    7  C6  UNL     1     -35.936  14.961  -3.500  1.00 20.00     0.027 C 
HETATM    8  C7  UNL     1     -35.465  13.831  -4.076  1.00 20.00    -0.029 C 
HETATM    9  C8  UNL     1     -34.015  13.553  -4.311  1.00 20.00     0.036 C 
ENDBRANCH   5   7
BRANCH   4  10
HETATM   10  O10 UNL     1     -32.876  19.263  -1.832  1.00 20.00    -0.359 OA
HETATM   11  H19 UNL     1     -31.934  19.023  -1.788  1.00 20.00     0.217 HD
ENDBRANCH   4  10
TORSDOF 2
ENDMDL
MODEL 8
REMARK VINA RESULT:      -4.0      2.661      3.989
REMARK  2 active torsions:
REMARK  status: ('A' for Active; 'I' for Inactive)
REMARK    1  A    between atoms: C4_4  and  O10_10 
REMARK    2  A    between atoms: C5_5  and  C6_6 
ROOT
HETATM    1  C1  UNL     1     -33.607  15.770  -2.848  1.00 20.00     0.040 A 
HETATM    2  C2  UNL     1     -33.487  15.293  -4.148  1.00 20.00     0.034 A 
HETATM    3  C3  UNL     1     -35.968  15.553  -3.041  1.00 20.00     0.153 A 
HETATM    4  C4  UNL     1     -34.867  15.905  -2.277  1.00 20.00     0.083 A 
HETATM    5  C5  UNL     1     -34.649  14.967  -4.830  1.00 20.00     0.056 A 
HETATM    6  N9  UNL     1     -35.890  15.085  -4.308  1.00 20.00    -0.258 NA
ENDROOT
BRANCH   5   7
HETATM    7  C6  UNL     1     -34.576  14.464  -6.192  1.00 20.00     0.027 C 
HETATM    8  C7  UNL     1     -34.549  15.219  -7.315  1.00 20.00    -0.029 C 
HETATM    9  C8  UNL     1     -34.589  16.712  -7.320  1.00 20.00     0.036 C 
ENDBRANCH   5   7
BRANCH   4  10
HETATM   10  O10 UNL     1     -35.015  16.367  -1.011  1.00 20.00    -0.359 OA
HETATM   11  H19 UNL     1     -34.777  15.679  -0.366  1.00 20.00     0.217 HD
ENDBRANCH   4  10
TORSDOF 2
ENDMDL
MODEL 9
REMARK VINA RESULT:      -4.0     11.835     13.862
REMARK  2 active torsions:
REMARK  status: ('A' for Active; 'I' for Inactive)
REMARK    1  A    between atoms: C4_4  and  O10_10 
REMARK    2  A    between atoms: C5_5  and  C6_6 
ROOT
HETATM    1  C1  UNL     1     -40.931   5.550  -0.745  1.00 20.00     0.040 A 
HETATM    2  C2  UNL     1     -41.438   4.280  -0.996  1.00 20.00     0.034 A 
HETATM    3  C3  UNL     1     -42.253   6.377  -2.541  1.00 20.00     0.153 A 
HETATM    4  C4  UNL     1     -41.342   6.623  -1.527  1.00 20.00     0.083 A 
HETATM    5  C5  UNL     1     -42.347   4.138  -2.033  1.00 20.00     0.056 A 
HETATM    6  N9  UNL     1     -42.768   5.156  -2.814  1.00 20.00    -0.258 NA
ENDROOT
BRANCH   5   7
HETATM    7  C6  UNL     1     -42.905   2.830  -2.335  1.00 20.00     0.027 C 
HETATM    8  C7  UNL     1     -42.353   1.901  -3.150  1.00 20.00    -0.029 C 
HETATM    9  C8  UNL     1     -41.060   2.087  -3.874  1.00 20.00     0.036 C 
ENDBRANCH   5   7
BRANCH   4  10
HETATM   10  O10 UNL     1     -40.864   7.873  -1.306  1.00 20.00    -0.359 OA
HETATM   11  H19 UNL     1     -41.448   8.359  -0.699  1.00 20.00     0.217 HD
ENDBRANCH   4  10
TORSDOF 2
ENDMDL
