MODEL 1
REMARK VINA RESULT:      -4.7      0.000      0.000
REMARK  1 active torsions:
REMARK  status: ('A' for Active; 'I' for Inactive)
REMARK    1  A    between atoms: C2_2  and  C6_6 
ROOT
HETATM    1  C3  UNL     1     -34.467  14.021  -5.377  1.00 20.00     0.031 C 
HETATM    2  C4  UNL     1     -35.262  13.711  -4.106  1.00 20.00     0.032 C 
HETATM    3  C5  UNL     1     -33.299  15.932  -4.208  1.00 20.00     0.040 C 
HETATM    4  C6  UNL     1     -34.055  15.577  -2.911  1.00 20.00     0.042 C 
HETATM    5  C7  UNL     1     -34.170  15.525  -5.406  1.00 20.00     0.131 C 
HETATM    6  C8  UNL     1     -35.437  15.013  -3.311  1.00 20.00     0.139 C 
HETATM    7  N10 UNL     1     -35.462  16.242  -5.277  1.00 20.00    -0.192 NA
HETATM    8  N11 UNL     1     -36.097  15.991  -4.217  1.00 20.00    -0.192 NA
ENDROOT
BRANCH   4   9
HETATM    9  C2  UNL     1     -34.169  16.753  -1.988  1.00 20.00    -0.087 C 
HETATM   10  C1  UNL     1     -34.642  16.631  -0.739  1.00 20.00     0.014 C 
HETATM   11  C9  UNL     1     -33.722  18.074  -2.542  1.00 20.00     0.043 C 
ENDBRANCH   4   9
TORSDOF 1
ENDMDL
MODEL 2
REMARK VINA RESULT:      -4.7      1.544      2.183
REMARK  1 active torsions:
REMARK  status: ('A' for Active; 'I' for Inactive)
REMARK    1  A    between atoms: C2_2  and  C6_6 
ROOT
HETATM    1  C3  UNL     1     -35.013  13.968  -5.597  1.00 20.00     0.031 C 
HETATM    2  C4  UNL     1     -34.115  15.179  -5.863  1.00 20.00     0.032 C 
HETATM    3  C5  UNL     1     -35.692  14.932  -3.363  1.00 20.00     0.040 C 
HETATM    4  C6  UNL     1     -34.835  16.180  -3.661  1.00 20.00     0.042 C 
HETATM    5  C7  UNL     1     -35.067  13.728  -4.084  1.00 20.00     0.131 C 
HETATM    6  C8  UNL     1     -33.629  15.729  -4.514  1.00 20.00     0.139 C 
HETATM    7  N10 UNL     1     -33.671  13.599  -3.599  1.00 20.00    -0.192 NA
HETATM    8  N11 UNL     1     -32.948  14.611  -3.808  1.00 20.00    -0.192 NA
ENDROOT
BRANCH   4   9
HETATM    9  C2  UNL     1     -34.411  16.883  -2.406  1.00 20.00    -0.087 C 
HETATM   10  C1  UNL     1     -34.653  16.370  -1.191  1.00 20.00     0.014 C 
HETATM   11  C9  UNL     1     -33.701  18.191  -2.589  1.00 20.00     0.043 C 
ENDBRANCH   4   9
TORSDOF 1
ENDMDL
MODEL 3
REMARK VINA RESULT:      -4.6      2.237      4.058
REMARK  1 active torsions:
REMARK  status: ('A' for Active; 'I' for Inactive)
REMARK    1  A    between atoms: C2_2  and  C6_6 
ROOT
HETATM    1  C3  UNL     1     -34.196  14.925  -3.065  1.00 20.00     0.031 C 
HETATM    2  C4  UNL     1     -35.705  15.187  -3.077  1.00 20.00     0.032 C 
HETATM    3  C5  UNL     1     -34.134  15.023  -5.588  1.00 20.00     0.040 C 
HETATM    4  C6  UNL     1     -35.641  15.348  -5.595  1.00 20.00     0.042 C 
HETATM    5  C7  UNL     1     -33.824  14.172  -4.347  1.00 20.00     0.131 C 
HETATM    6  C8  UNL     1     -36.283  14.630  -4.387  1.00 20.00     0.139 C 
HETATM    7  N10 UNL     1     -34.676  12.960  -4.419  1.00 20.00    -0.192 NA
HETATM    8  N11 UNL     1     -35.916  13.191  -4.448  1.00 20.00    -0.192 NA
ENDROOT
BRANCH   4   9
HETATM    9  C2  UNL     1     -36.292  14.967  -6.891  1.00 20.00    -0.087 C 
HETATM   10  C1  UNL     1     -35.594  14.438  -7.906  1.00 20.00     0.014 C 
HETATM   11  C9  UNL     1     -37.769  15.212  -6.987  1.00 20.00     0.043 C 
ENDBRANCH   4   9
TORSDOF 1
ENDMDL
MODEL 4
REMARK VINA RESULT:      -4.3      1.709      2.594
REMARK  1 active torsions:
REMARK  status: ('A' for Active; 'I' for Inactive)
REMARK    1  A    between atoms: C2_2  and  C6_6 
ROOT
HETATM    1  C3  UNL     1     -36.688  15.089  -6.406  1.00 20.00     0.031 C 
HETATM    2  C4  UNL     1     -35.384  14.331  -6.665  1.00 20.00     0.032 C 
HETATM    3  C5  UNL     1     -35.630  16.290  -4.452  1.00 20.00     0.040 C 
HETATM    4  C6  UNL     1     -34.299  15.572  -4.754  1.00 20.00     0.042 C 
HETATM    5  C7  UNL     1     -36.786  15.386  -4.904  1.00 20.00     0.131 C 
HETATM    6  C8  UNL     1     -34.637  14.180  -5.332  1.00 20.00     0.139 C 
HETATM    7  N10 UNL     1     -36.648  14.098  -4.182  1.00 20.00    -0.192 NA
HETATM    8  N11 UNL     1     -35.561  13.494  -4.390  1.00 20.00    -0.192 NA
ENDROOT
BRANCH   4   9
HETATM    9  C2  UNL     1     -33.420  15.485  -3.542  1.00 20.00    -0.087 C 
HETATM   10  C1  UNL     1     -32.314  14.727  -3.521  1.00 20.00     0.014 C 
HETATM   11  C9  UNL     1     -33.850  16.295  -2.355  1.00 20.00     0.043 C 
ENDBRANCH   4   9
TORSDOF 1
ENDMDL
MODEL 5
REMARK VINA RESULT:      -4.1      1.719      2.623
REMARK  1 active torsions:
REMARK  status: ('A' for Active; 'I' for Inactive)
REMARK    1  A    between atoms: C2_2  and  C6_6 
ROOT
HETATM    1  C3  UNL     1     -36.390  14.858  -7.150  1.00 20.00     0.031 C 
HETATM    2  C4  UNL     1     -36.788  15.916  -6.118  1.00 20.00     0.032 C 
HETATM    3  C5  UNL     1     -34.834  13.778  -5.479  1.00 20.00     0.040 C 
HETATM    4  C6  UNL     1     -35.284  14.807  -4.422  1.00 20.00     0.042 C 
HETATM    5  C7  UNL     1     -34.946  14.425  -6.868  1.00 20.00     0.131 C 
HETATM    6  C8  UNL     1     -35.607  16.126  -5.158  1.00 20.00     0.139 C 
HETATM    7  N10 UNL     1     -34.104  15.646  -6.856  1.00 20.00    -0.192 NA
HETATM    8  N11 UNL     1     -34.431  16.500  -5.988  1.00 20.00    -0.192 NA
ENDROOT
BRANCH   4   9
HETATM    9  C2  UNL     1     -34.254  14.995  -3.348  1.00 20.00    -0.087 C 
HETATM   10  C1  UNL     1     -34.464  15.803  -2.298  1.00 20.00     0.014 C 
HETATM   11  C9  UNL     1     -32.977  14.227  -3.515  1.00 20.00     0.043 C 
ENDBRANCH   4   9
TORSDOF 1
ENDMDL
MODEL 6
REMARK VINA RESULT:      -4.1      1.081      3.659
REMARK  1 active torsions:
REMARK  status: ('A' for Active; 'I' for Inactive)
REMARK    1  A    between atoms: C2_2  and  C6_6 
ROOT
HETATM    1  C3  UNL     1     -33.810  17.478  -2.368  1.00 20.00     0.031 C 
HETATM    2  C4  UNL     1     -33.897  17.961  -3.818  1.00 20.00     0.032 C 
HETATM    3  C5  UNL     1     -33.812  15.074  -3.143  1.00 20.00     0.040 C 
HETATM    4  C6  UNL     1     -33.836  15.565  -4.606  1.00 20.00     0.042 C 
HETATM    5  C7  UNL     1     -34.516  16.121  -2.267  1.00 20.00     0.131 C 
HETATM    6  C8  UNL     1     -34.626  16.892  -4.644  1.00 20.00     0.139 C 
HETATM    7  N10 UNL     1     -35.891  16.289  -2.796  1.00 20.00    -0.192 NA
HETATM    8  N11 UNL     1     -35.947  16.669  -3.998  1.00 20.00    -0.192 NA
ENDROOT
BRANCH   4   9
HETATM    9  C2  UNL     1     -34.411  14.536  -5.533  1.00 20.00    -0.087 C 
HETATM   10  C1  UNL     1     -34.813  13.333  -5.097  1.00 20.00     0.014 C 
HETATM   11  C9  UNL     1     -34.512  14.930  -6.977  1.00 20.00     0.043 C 
ENDBRANCH   4   9
TORSDOF 1
ENDMDL
MODEL 7
REMARK VINA RESULT:      -4.1      1.899      3.583
REMARK  1 active torsions:
REMARK  status: ('A' for Active; 'I' for Inactive)
REMARK    1  A    between atoms: C2_2  and  C6_6 
ROOT
HETATM    1  C3  UNL     1     -33.642  13.644  -3.765  1.00 20.00     0.031 C 
HETATM    2  C4  UNL     1     -33.002  15.035  -3.769  1.00 20.00     0.032 C 
HETATM    3  C5  UNL     1     -34.803  14.146  -5.951  1.00 20.00     0.040 C 
HETATM    4  C6  UNL     1     -34.107  15.523  -5.984  1.00 20.00     0.042 C 
HETATM    5  C7  UNL     1     -34.993  13.730  -4.485  1.00 20.00     0.131 C 
HETATM    6  C8  UNL     1     -33.932  15.995  -4.524  1.00 20.00     0.139 C 
HETATM    7  N10 UNL     1     -35.787  14.794  -3.824  1.00 20.00    -0.192 NA
HETATM    8  N11 UNL     1     -35.257  15.938  -3.851  1.00 20.00    -0.192 NA
ENDROOT
BRANCH   4   9
HETATM    9  C2  UNL     1     -34.866  16.515  -6.814  1.00 20.00    -0.087 C 
HETATM   10  C1  UNL     1     -34.433  17.772  -6.988  1.00 20.00     0.014 C 
HETATM   11  C9  UNL     1     -36.137  16.021  -7.438  1.00 20.00     0.043 C 
ENDBRANCH   4   9
TORSDOF 1
ENDMDL
MODEL 8
REMARK VINA RESULT:      -4.1      1.630      3.782
REMARK  1 active torsions:
REMARK  status: ('A' for Active; 'I' for Inactive)
REMARK    1  A    between atoms: C2_2  and  C6_6 
ROOT
HETATM    1  C3  UNL     1     -34.191  17.884  -2.787  1.00 20.00     0.031 C 
HETATM    2  C4  UNL     1     -33.743  16.493  -2.330  1.00 20.00     0.032 C 
HETATM    3  C5  UNL     1     -35.547  16.859  -4.656  1.00 20.00     0.040 C 
HETATM    4  C6  UNL     1     -35.145  15.457  -4.155  1.00 20.00     0.042 C 
HETATM    5  C7  UNL     1     -34.423  17.844  -4.303  1.00 20.00     0.131 C 
HETATM    6  C8  UNL     1     -33.726  15.562  -3.552  1.00 20.00     0.139 C 
HETATM    7  N10 UNL     1     -33.179  17.340  -4.935  1.00 20.00    -0.192 NA
HETATM    8  N11 UNL     1     -32.832  16.186  -4.563  1.00 20.00    -0.192 NA
ENDROOT
BRANCH   4   9
HETATM    9  C2  UNL     1     -35.222  14.428  -5.244  1.00 20.00    -0.087 C 
HETATM   10  C1  UNL     1     -35.724  14.713  -6.454  1.00 20.00     0.014 C 
HETATM   11  C9  UNL     1     -34.706  13.062  -4.901  1.00 20.00     0.043 C 
ENDBRANCH   4   9
TORSDOF 1
ENDMDL
MODEL 9
REMARK VINA RESULT:      -4.1      1.692      2.511
REMARK  1 active torsions:
REMARK  status: ('A' for Active; 'I' for Inactive)
REMARK    1  A    between atoms: C2_2  and  C6_6 
ROOT
HETATM    1  C3  UNL     1     -33.352  13.747  -3.769  1.00 20.00     0.031 C 
HETATM    2  C4  UNL     1     -34.653  13.363  -4.478  1.00 20.00     0.032 C 
HETATM    3  C5  UNL     1     -34.527  15.646  -2.589  1.00 20.00     0.040 C 
HETATM    4  C6  UNL     1     -35.851  15.217  -3.256  1.00 20.00     0.042 C 
HETATM    5  C7  UNL     1     -33.367  15.260  -3.517  1.00 20.00     0.131 C 
HETATM    6  C8  UNL     1     -35.509  14.628  -4.642  1.00 20.00     0.139 C 
HETATM    7  N10 UNL     1     -33.599  15.931  -4.819  1.00 20.00    -0.192 NA
HETATM    8  N11 UNL     1     -34.684  15.619  -5.382  1.00 20.00    -0.192 NA
ENDROOT
BRANCH   4   9
HETATM    9  C2  UNL     1     -36.826  16.353  -3.348  1.00 20.00    -0.087 C 
HETATM   10  C1  UNL     1     -36.555  17.563  -2.838  1.00 20.00     0.014 C 
HETATM   11  C9  UNL     1     -38.121  16.058  -4.044  1.00 20.00     0.043 C 
ENDBRANCH   4   9
TORSDOF 1
ENDMDL
