MODEL 1
REMARK VINA RESULT:      -5.3      0.000      0.000
REMARK  3 active torsions:
REMARK  status: ('A' for Active; 'I' for Inactive)
REMARK    1  A    between atoms: C1_1  and  C2_2 
REMARK    2  A    between atoms: C4_4  and  C9_9 
REMARK    3  A    between atoms: C5_5  and  C9_9 
ROOT
HETATM    1  C2  UNL     1     -32.433   6.570   3.214  1.00 20.00    -0.004 C 
HETATM    2  C4  UNL     1     -33.581   6.610   3.909  1.00 20.00    -0.015 C 
ENDROOT
BRANCH   2   3
HETATM    3  C9  UNL     1     -34.154   5.422   4.635  1.00 20.00     0.073 C 
HETATM    4  C8  UNL     1     -35.459   4.961   3.999  1.00 20.00     0.022 C 
BRANCH   3   5
HETATM    5  C5  UNL     1     -34.391   5.794   6.097  1.00 20.00     0.130 C 
HETATM    6  C7  UNL     1     -33.672   7.018   6.606  1.00 20.00     0.091 C 
HETATM    7  O10 UNL     1     -35.097   5.122   6.849  1.00 20.00    -0.298 OA
ENDBRANCH   3   5
ENDBRANCH   2   3
BRANCH   1   8
HETATM    8  C1  UNL     1     -31.888   7.715   2.520  1.00 20.00    -0.005 C 
HETATM    9  C3  UNL     1     -32.637   8.554   1.790  1.00 20.00    -0.031 C 
HETATM   10  C6  UNL     1     -32.088   9.740   1.068  1.00 20.00     0.036 C 
ENDBRANCH   1   8
TORSDOF 3
ENDMDL
MODEL 2
REMARK VINA RESULT:      -5.0      0.936      1.934
REMARK  3 active torsions:
REMARK  status: ('A' for Active; 'I' for Inactive)
REMARK    1  A    between atoms: C1_1  and  C2_2 
REMARK    2  A    between atoms: C4_4  and  C9_9 
REMARK    3  A    between atoms: C5_5  and  C9_9 
ROOT
HETATM    1  C2  UNL     1     -32.672   6.849   3.893  1.00 20.00    -0.004 C 
HETATM    2  C4  UNL     1     -33.957   6.554   4.149  1.00 20.00    -0.015 C 
ENDROOT
BRANCH   2   3
HETATM    3  C9  UNL     1     -34.481   6.252   5.527  1.00 20.00     0.073 C 
HETATM    4  C8  UNL     1     -33.636   6.924   6.601  1.00 20.00     0.022 C 
BRANCH   3   5
HETATM    5  C5  UNL     1     -34.487   4.740   5.742  1.00 20.00     0.130 C 
HETATM    6  C7  UNL     1     -35.171   3.912   4.683  1.00 20.00     0.091 C 
HETATM    7  O10 UNL     1     -34.000   4.206   6.739  1.00 20.00    -0.298 OA
ENDBRANCH   3   5
ENDBRANCH   2   3
BRANCH   1   8
HETATM    8  C1  UNL     1     -32.176   7.139   2.567  1.00 20.00    -0.005 C 
HETATM    9  C3  UNL     1     -32.186   8.370   2.034  1.00 20.00    -0.031 C 
HETATM   10  C6  UNL     1     -31.677   8.684   0.666  1.00 20.00     0.036 C 
ENDBRANCH   1   8
TORSDOF 3
ENDMDL
MODEL 3
REMARK VINA RESULT:      -4.9     11.224     12.177
REMARK  3 active torsions:
REMARK  status: ('A' for Active; 'I' for Inactive)
REMARK    1  A    between atoms: C1_1  and  C2_2 
REMARK    2  A    between atoms: C4_4  and  C9_9 
REMARK    3  A    between atoms: C5_5  and  C9_9 
ROOT
HETATM    1  C2  UNL     1     -34.084  16.188  -2.207  1.00 20.00    -0.004 C 
HETATM    2  C4  UNL     1     -34.434  15.157  -2.993  1.00 20.00    -0.015 C 
ENDROOT
BRANCH   2   3
HETATM    3  C9  UNL     1     -33.728  14.816  -4.278  1.00 20.00     0.073 C 
HETATM    4  C8  UNL     1     -33.493  16.057  -5.129  1.00 20.00     0.022 C 
BRANCH   3   5
HETATM    5  C5  UNL     1     -34.564  13.803  -5.057  1.00 20.00     0.130 C 
HETATM    6  C7  UNL     1     -35.103  14.259  -6.391  1.00 20.00     0.091 C 
HETATM    7  O10 UNL     1     -34.831  12.682  -4.622  1.00 20.00    -0.298 OA
ENDBRANCH   3   5
ENDBRANCH   2   3
BRANCH   1   8
HETATM    8  C1  UNL     1     -34.766  16.509  -0.974  1.00 20.00    -0.005 C 
HETATM    9  C3  UNL     1     -34.348  17.465  -0.133  1.00 20.00    -0.031 C 
HETATM   10  C6  UNL     1     -35.042  17.807   1.145  1.00 20.00     0.036 C 
ENDBRANCH   1   8
TORSDOF 3
ENDMDL
MODEL 4
REMARK VINA RESULT:      -4.8     10.641     11.616
REMARK  3 active torsions:
REMARK  status: ('A' for Active; 'I' for Inactive)
REMARK    1  A    between atoms: C1_1  and  C2_2 
REMARK    2  A    between atoms: C4_4  and  C9_9 
REMARK    3  A    between atoms: C5_5  and  C9_9 
ROOT
HETATM    1  C2  UNL     1     -35.047  16.207  -1.625  1.00 20.00    -0.004 C 
HETATM    2  C4  UNL     1     -34.469  15.886  -2.794  1.00 20.00    -0.015 C 
ENDROOT
BRANCH   2   3
HETATM    3  C9  UNL     1     -35.149  15.068  -3.859  1.00 20.00     0.073 C 
HETATM    4  C8  UNL     1     -36.633  14.895  -3.563  1.00 20.00     0.022 C 
BRANCH   3   5
HETATM    5  C5  UNL     1     -34.475  13.700  -3.948  1.00 20.00     0.130 C 
HETATM    6  C7  UNL     1     -33.012  13.645  -3.586  1.00 20.00     0.091 C 
HETATM    7  O10 UNL     1     -35.066  12.690  -4.330  1.00 20.00    -0.298 OA
ENDBRANCH   3   5
ENDBRANCH   2   3
BRANCH   1   8
HETATM    8  C1  UNL     1     -34.388  16.995  -0.607  1.00 20.00    -0.005 C 
HETATM    9  C3  UNL     1     -33.391  17.850  -0.874  1.00 20.00    -0.031 C 
HETATM   10  C6  UNL     1     -32.702  18.670   0.167  1.00 20.00     0.036 C 
ENDBRANCH   1   8
TORSDOF 3
ENDMDL
MODEL 5
REMARK VINA RESULT:      -4.4     11.115     12.466
REMARK  3 active torsions:
REMARK  status: ('A' for Active; 'I' for Inactive)
REMARK    1  A    between atoms: C1_1  and  C2_2 
REMARK    2  A    between atoms: C4_4  and  C9_9 
REMARK    3  A    between atoms: C5_5  and  C9_9 
ROOT
HETATM    1  C2  UNL     1     -34.638  16.228  -1.799  1.00 20.00    -0.004 C 
HETATM    2  C4  UNL     1     -33.811  15.830  -2.778  1.00 20.00    -0.015 C 
ENDROOT
BRANCH   2   3
HETATM    3  C9  UNL     1     -34.213  14.871  -3.866  1.00 20.00     0.073 C 
HETATM    4  C8  UNL     1     -33.405  13.581  -3.796  1.00 20.00     0.022 C 
BRANCH   3   5
HETATM    5  C5  UNL     1     -34.007  15.538  -5.224  1.00 20.00     0.130 C 
HETATM    6  C7  UNL     1     -33.377  16.908  -5.213  1.00 20.00     0.091 C 
HETATM    7  O10 UNL     1     -34.365  15.020  -6.283  1.00 20.00    -0.298 OA
ENDBRANCH   3   5
ENDBRANCH   2   3
BRANCH   1   8
HETATM    8  C1  UNL     1     -34.245  17.151  -0.758  1.00 20.00    -0.005 C 
HETATM    9  C3  UNL     1     -34.943  17.316   0.376  1.00 20.00    -0.031 C 
HETATM   10  C6  UNL     1     -34.549  18.265   1.460  1.00 20.00     0.036 C 
ENDBRANCH   1   8
TORSDOF 3
ENDMDL
MODEL 6
REMARK VINA RESULT:      -4.4     11.268     12.359
REMARK  3 active torsions:
REMARK  status: ('A' for Active; 'I' for Inactive)
REMARK    1  A    between atoms: C1_1  and  C2_2 
REMARK    2  A    between atoms: C4_4  and  C9_9 
REMARK    3  A    between atoms: C5_5  and  C9_9 
ROOT
HETATM    1  C2  UNL     1     -34.218  15.594  -2.769  1.00 20.00    -0.004 C 
HETATM    2  C4  UNL     1     -35.410  15.278  -3.299  1.00 20.00    -0.015 C 
ENDROOT
BRANCH   2   3
HETATM    3  C9  UNL     1     -35.607  14.171  -4.300  1.00 20.00     0.073 C 
HETATM    4  C8  UNL     1     -34.421  13.215  -4.309  1.00 20.00     0.022 C 
BRANCH   3   5
HETATM    5  C5  UNL     1     -35.795  14.777  -5.688  1.00 20.00     0.130 C 
HETATM    6  C7  UNL     1     -34.558  14.901  -6.542  1.00 20.00     0.091 C 
HETATM    7  O10 UNL     1     -36.883  15.185  -6.096  1.00 20.00    -0.298 OA
ENDBRANCH   3   5
ENDBRANCH   2   3
BRANCH   1   8
HETATM    8  C1  UNL     1     -34.037  16.658  -1.808  1.00 20.00    -0.005 C 
HETATM    9  C3  UNL     1     -34.668  16.692  -0.625  1.00 20.00    -0.031 C 
HETATM   10  C6  UNL     1     -34.491  17.785   0.378  1.00 20.00     0.036 C 
ENDBRANCH   1   8
TORSDOF 3
ENDMDL
MODEL 7
REMARK VINA RESULT:      -4.1     10.879     11.763
REMARK  3 active torsions:
REMARK  status: ('A' for Active; 'I' for Inactive)
REMARK    1  A    between atoms: C1_1  and  C2_2 
REMARK    2  A    between atoms: C4_4  and  C9_9 
REMARK    3  A    between atoms: C5_5  and  C9_9 
ROOT
HETATM    1  C2  UNL     1     -34.452  16.835  -1.755  1.00 20.00    -0.004 C 
HETATM    2  C4  UNL     1     -34.440  17.033  -0.427  1.00 20.00    -0.015 C 
ENDROOT
BRANCH   2   3
HETATM    3  C9  UNL     1     -34.029  18.331   0.215  1.00 20.00     0.073 C 
HETATM    4  C8  UNL     1     -32.575  18.666  -0.092  1.00 20.00     0.022 C 
BRANCH   3   5
HETATM    5  C5  UNL     1     -34.229  18.230   1.725  1.00 20.00     0.130 C 
HETATM    6  C7  UNL     1     -35.567  17.714   2.194  1.00 20.00     0.091 C 
HETATM    7  O10 UNL     1     -33.373  18.582   2.537  1.00 20.00    -0.298 OA
ENDBRANCH   3   5
ENDBRANCH   2   3
BRANCH   1   8
HETATM    8  C1  UNL     1     -34.849  15.587  -2.365  1.00 20.00    -0.005 C 
HETATM    9  C3  UNL     1     -34.087  14.930  -3.252  1.00 20.00    -0.031 C 
HETATM   10  C6  UNL     1     -34.485  13.639  -3.890  1.00 20.00     0.036 C 
ENDBRANCH   1   8
TORSDOF 3
ENDMDL
MODEL 8
REMARK VINA RESULT:      -4.1      9.503     11.071
REMARK  3 active torsions:
REMARK  status: ('A' for Active; 'I' for Inactive)
REMARK    1  A    between atoms: C1_1  and  C2_2 
REMARK    2  A    between atoms: C4_4  and  C9_9 
REMARK    3  A    between atoms: C5_5  and  C9_9 
ROOT
HETATM    1  C2  UNL     1     -41.746   3.790  -2.208  1.00 20.00    -0.004 C 
HETATM    2  C4  UNL     1     -40.864   4.310  -1.340  1.00 20.00    -0.015 C 
ENDROOT
BRANCH   2   3
HETATM    3  C9  UNL     1     -41.198   5.419  -0.380  1.00 20.00     0.073 C 
HETATM    4  C8  UNL     1     -42.337   5.022   0.551  1.00 20.00     0.022 C 
BRANCH   3   5
HETATM    5  C5  UNL     1     -41.584   6.668  -1.169  1.00 20.00     0.130 C 
HETATM    6  C7  UNL     1     -42.847   7.372  -0.739  1.00 20.00     0.091 C 
HETATM    7  O10 UNL     1     -40.936   7.074  -2.134  1.00 20.00    -0.298 OA
ENDBRANCH   3   5
ENDBRANCH   2   3
BRANCH   1   8
HETATM    8  C1  UNL     1     -41.418   2.723  -3.127  1.00 20.00    -0.005 C 
HETATM    9  C3  UNL     1     -42.156   1.610  -3.251  1.00 20.00    -0.031 C 
HETATM   10  C6  UNL     1     -41.828   0.501  -4.196  1.00 20.00     0.036 C 
ENDBRANCH   1   8
TORSDOF 3
ENDMDL
MODEL 9
REMARK VINA RESULT:      -4.0      2.453      5.406
REMARK  3 active torsions:
REMARK  status: ('A' for Active; 'I' for Inactive)
REMARK    1  A    between atoms: C1_1  and  C2_2 
REMARK    2  A    between atoms: C4_4  and  C9_9 
REMARK    3  A    between atoms: C5_5  and  C9_9 
ROOT
HETATM    1  C2  UNL     1     -33.237   6.530   4.120  1.00 20.00    -0.004 C 
HETATM    2  C4  UNL     1     -32.871   6.747   2.846  1.00 20.00    -0.015 C 
ENDROOT
BRANCH   2   3
HETATM    3  C9  UNL     1     -31.742   7.660   2.450  1.00 20.00     0.073 C 
HETATM    4  C8  UNL     1     -31.004   8.191   3.672  1.00 20.00     0.022 C 
BRANCH   3   5
HETATM    5  C5  UNL     1     -32.300   8.824   1.634  1.00 20.00     0.130 C 
HETATM    6  C7  UNL     1     -32.141   8.734   0.137  1.00 20.00     0.091 C 
HETATM    7  O10 UNL     1     -32.820   9.813   2.152  1.00 20.00    -0.298 OA
ENDBRANCH   3   5
ENDBRANCH   2   3
BRANCH   1   8
HETATM    8  C1  UNL     1     -34.322   5.651   4.493  1.00 20.00    -0.005 C 
HETATM    9  C3  UNL     1     -34.318   4.919   5.616  1.00 20.00    -0.031 C 
HETATM   10  C6  UNL     1     -35.431   4.006   6.014  1.00 20.00     0.036 C 
ENDBRANCH   1   8
TORSDOF 3
ENDMDL
