MODEL 1
REMARK VINA RESULT:      -4.4      0.000      0.000
REMARK  2 active torsions:
REMARK  status: ('A' for Active; 'I' for Inactive)
REMARK    1  A    between atoms: C1_1  and  C7_7 
REMARK    2  A    between atoms: C1_1  and  C9_9 
ROOT
HETATM    1  C2  UNL     1     -34.386  17.387  -2.852  1.00 20.00     0.000 C 
HETATM    2  C3  UNL     1     -34.728  16.112  -2.089  1.00 20.00     0.001 C 
HETATM    3  C4  UNL     1     -33.363  17.123  -3.952  1.00 20.00     0.001 C 
HETATM    4  C5  UNL     1     -35.208  15.003  -3.026  1.00 20.00     0.017 C 
HETATM    5  C6  UNL     1     -33.830  16.024  -4.908  1.00 20.00     0.017 C 
HETATM    6  C7  UNL     1     -34.238  14.740  -4.182  1.00 20.00     0.018 C 
HETATM    7  C8  UNL     1     -32.992  14.033  -3.652  1.00 20.00     0.023 C 
ENDROOT
BRANCH   6   8
HETATM    8  C1  UNL     1     -34.814  13.715  -5.159  1.00 20.00     0.148 C 
HETATM    9  O10 UNL     1     -34.881  12.526  -4.853  1.00 20.00    -0.296 OA
BRANCH   8  10
HETATM   10  C9  UNL     1     -35.279  14.266  -6.489  1.00 20.00     0.193 C 
HETATM   11 CL11 UNL     1     -36.858  15.047  -6.325  1.00 20.00    -0.123 Cl
ENDBRANCH   8  10
ENDBRANCH   6   8
TORSDOF 2
ENDMDL
MODEL 2
REMARK VINA RESULT:      -4.4      2.853      4.274
REMARK  2 active torsions:
REMARK  status: ('A' for Active; 'I' for Inactive)
REMARK    1  A    between atoms: C1_1  and  C7_7 
REMARK    2  A    between atoms: C1_1  and  C9_9 
ROOT
HETATM    1  C2  UNL     1     -35.201  14.094  -6.091  1.00 20.00     0.000 C 
HETATM    2  C3  UNL     1     -34.126  15.141  -6.357  1.00 20.00     0.001 C 
HETATM    3  C4  UNL     1     -35.026  13.449  -4.720  1.00 20.00     0.001 C 
HETATM    4  C5  UNL     1     -34.083  16.201  -5.255  1.00 20.00     0.017 C 
HETATM    5  C6  UNL     1     -34.993  14.492  -3.603  1.00 20.00     0.017 C 
HETATM    6  C7  UNL     1     -33.964  15.597  -3.853  1.00 20.00     0.018 C 
HETATM    7  C8  UNL     1     -32.555  15.040  -3.654  1.00 20.00     0.023 C 
ENDROOT
BRANCH   6   8
HETATM    8  C1  UNL     1     -34.049  16.681  -2.779  1.00 20.00     0.148 C 
HETATM    9  O10 UNL     1     -33.589  17.804  -2.983  1.00 20.00    -0.296 OA
BRANCH   8  10
HETATM   10  C9  UNL     1     -34.722  16.274  -1.487  1.00 20.00     0.193 C 
HETATM   11 CL11 UNL     1     -34.269  17.369  -0.174  1.00 20.00    -0.123 Cl
ENDBRANCH   8  10
ENDBRANCH   6   8
TORSDOF 2
ENDMDL
MODEL 3
REMARK VINA RESULT:      -4.4     11.434     12.569
REMARK  2 active torsions:
REMARK  status: ('A' for Active; 'I' for Inactive)
REMARK    1  A    between atoms: C1_1  and  C7_7 
REMARK    2  A    between atoms: C1_1  and  C9_9 
ROOT
HETATM    1  C2  UNL     1     -35.053   4.617   6.046  1.00 20.00     0.000 C 
HETATM    2  C3  UNL     1     -34.460   5.965   6.442  1.00 20.00     0.001 C 
HETATM    3  C4  UNL     1     -35.496   4.608   4.587  1.00 20.00     0.001 C 
HETATM    4  C5  UNL     1     -33.310   6.370   5.519  1.00 20.00     0.017 C 
HETATM    5  C6  UNL     1     -34.357   5.000   3.646  1.00 20.00     0.017 C 
HETATM    6  C7  UNL     1     -33.692   6.322   4.037  1.00 20.00     0.018 C 
HETATM    7  C8  UNL     1     -34.632   7.483   3.713  1.00 20.00     0.023 C 
ENDROOT
BRANCH   6   8
HETATM    8  C1  UNL     1     -32.483   6.614   3.149  1.00 20.00     0.148 C 
HETATM    9  O10 UNL     1     -31.808   5.694   2.687  1.00 20.00    -0.296 OA
BRANCH   8  10
HETATM   10  C9  UNL     1     -32.193   8.076   2.894  1.00 20.00     0.193 C 
HETATM   11 CL11 UNL     1     -31.805   8.349   1.189  1.00 20.00    -0.123 Cl
ENDBRANCH   8  10
ENDBRANCH   6   8
TORSDOF 2
ENDMDL
MODEL 4
REMARK VINA RESULT:      -4.3      1.230      1.252
REMARK  2 active torsions:
REMARK  status: ('A' for Active; 'I' for Inactive)
REMARK    1  A    between atoms: C1_1  and  C7_7 
REMARK    2  A    between atoms: C1_1  and  C9_9 
ROOT
HETATM    1  C2  UNL     1     -34.034  17.910  -2.710  1.00 20.00     0.000 C 
HETATM    2  C3  UNL     1     -34.016  16.718  -1.759  1.00 20.00     0.001 C 
HETATM    3  C4  UNL     1     -33.561  17.519  -4.106  1.00 20.00     0.001 C 
HETATM    4  C5  UNL     1     -34.835  15.547  -2.305  1.00 20.00     0.017 C 
HETATM    5  C6  UNL     1     -34.375  16.356  -4.675  1.00 20.00     0.017 C 
HETATM    6  C7  UNL     1     -34.433  15.153  -3.729  1.00 20.00     0.018 C 
HETATM    7  C8  UNL     1     -33.073  14.457  -3.703  1.00 20.00     0.023 C 
ENDROOT
BRANCH   6   8
HETATM    8  C1  UNL     1     -35.355  14.065  -4.279  1.00 20.00     0.148 C 
HETATM    9  O10 UNL     1     -35.066  12.876  -4.153  1.00 20.00    -0.296 OA
BRANCH   8  10
HETATM   10  C9  UNL     1     -36.609  14.555  -4.968  1.00 20.00     0.193 C 
HETATM   11 CL11 UNL     1     -37.940  14.703  -3.811  1.00 20.00    -0.123 Cl
ENDBRANCH   8  10
ENDBRANCH   6   8
TORSDOF 2
ENDMDL
MODEL 5
REMARK VINA RESULT:      -4.3     12.133     13.150
REMARK  2 active torsions:
REMARK  status: ('A' for Active; 'I' for Inactive)
REMARK    1  A    between atoms: C1_1  and  C7_7 
REMARK    2  A    between atoms: C1_1  and  C9_9 
ROOT
HETATM    1  C2  UNL     1     -40.911   7.111  -0.647  1.00 20.00     0.000 C 
HETATM    2  C3  UNL     1     -42.309   7.274  -1.232  1.00 20.00     0.001 C 
HETATM    3  C4  UNL     1     -40.687   5.699  -0.118  1.00 20.00     0.001 C 
HETATM    4  C5  UNL     1     -42.594   6.234  -2.316  1.00 20.00     0.017 C 
HETATM    5  C6  UNL     1     -40.954   4.643  -1.191  1.00 20.00     0.017 C 
HETATM    6  C7  UNL     1     -42.328   4.799  -1.849  1.00 20.00     0.018 C 
HETATM    7  C8  UNL     1     -43.417   4.372  -0.866  1.00 20.00     0.023 C 
ENDROOT
BRANCH   6   8
HETATM    8  C1  UNL     1     -42.505   3.806  -2.997  1.00 20.00     0.148 C 
HETATM    9  O10 UNL     1     -43.415   3.946  -3.812  1.00 20.00    -0.296 OA
BRANCH   8  10
HETATM   10  C9  UNL     1     -41.503   2.674  -3.045  1.00 20.00     0.193 C 
HETATM   11 CL11 UNL     1     -41.955   1.492  -4.282  1.00 20.00    -0.123 Cl
ENDBRANCH   8  10
ENDBRANCH   6   8
TORSDOF 2
ENDMDL
MODEL 6
REMARK VINA RESULT:      -4.3      1.843      2.528
REMARK  2 active torsions:
REMARK  status: ('A' for Active; 'I' for Inactive)
REMARK    1  A    between atoms: C1_1  and  C7_7 
REMARK    2  A    between atoms: C1_1  and  C9_9 
ROOT
HETATM    1  C2  UNL     1     -32.794  15.047  -3.615  1.00 20.00     0.000 C 
HETATM    2  C3  UNL     1     -33.405  13.674  -3.872  1.00 20.00     0.001 C 
HETATM    3  C4  UNL     1     -33.319  16.085  -4.600  1.00 20.00     0.001 C 
HETATM    4  C5  UNL     1     -34.934  13.722  -3.853  1.00 20.00     0.017 C 
HETATM    5  C6  UNL     1     -34.846  16.158  -4.588  1.00 20.00     0.017 C 
HETATM    6  C7  UNL     1     -35.507  14.791  -4.788  1.00 20.00     0.018 C 
HETATM    7  C8  UNL     1     -35.335  14.347  -6.239  1.00 20.00     0.023 C 
ENDROOT
BRANCH   6   8
HETATM    8  C1  UNL     1     -37.025  14.888  -4.645  1.00 20.00     0.148 C 
HETATM    9  O10 UNL     1     -37.626  14.177  -3.841  1.00 20.00    -0.296 OA
BRANCH   8  10
HETATM   10  C9  UNL     1     -37.706  15.896  -5.545  1.00 20.00     0.193 C 
HETATM   11 CL11 UNL     1     -38.915  15.105  -6.566  1.00 20.00    -0.123 Cl
ENDBRANCH   8  10
ENDBRANCH   6   8
TORSDOF 2
ENDMDL
MODEL 7
REMARK VINA RESULT:      -4.3      1.459      1.631
REMARK  2 active torsions:
REMARK  status: ('A' for Active; 'I' for Inactive)
REMARK    1  A    between atoms: C1_1  and  C7_7 
REMARK    2  A    between atoms: C1_1  and  C9_9 
ROOT
HETATM    1  C2  UNL     1     -34.046  18.294  -2.330  1.00 20.00     0.000 C 
HETATM    2  C3  UNL     1     -33.873  17.058  -1.456  1.00 20.00     0.001 C 
HETATM    3  C4  UNL     1     -33.779  17.982  -3.799  1.00 20.00     0.001 C 
HETATM    4  C5  UNL     1     -34.747  15.898  -1.935  1.00 20.00     0.017 C 
HETATM    5  C6  UNL     1     -34.653  16.832  -4.302  1.00 20.00     0.017 C 
HETATM    6  C7  UNL     1     -34.554  15.584  -3.422  1.00 20.00     0.018 C 
HETATM    7  C8  UNL     1     -33.197  14.915  -3.631  1.00 20.00     0.023 C 
ENDROOT
BRANCH   6   8
HETATM    8  C1  UNL     1     -35.533  14.505  -3.886  1.00 20.00     0.148 C 
HETATM    9  O10 UNL     1     -36.693  14.493  -3.476  1.00 20.00    -0.296 OA
BRANCH   8  10
HETATM   10  C9  UNL     1     -34.976  13.488  -4.857  1.00 20.00     0.193 C 
HETATM   11 CL11 UNL     1     -35.207  14.027  -6.527  1.00 20.00    -0.123 Cl
ENDBRANCH   8  10
ENDBRANCH   6   8
TORSDOF 2
ENDMDL
MODEL 8
REMARK VINA RESULT:      -4.3      2.967      4.257
REMARK  2 active torsions:
REMARK  status: ('A' for Active; 'I' for Inactive)
REMARK    1  A    between atoms: C1_1  and  C7_7 
REMARK    2  A    between atoms: C1_1  and  C9_9 
ROOT
HETATM    1  C2  UNL     1     -34.525  13.267  -4.596  1.00 20.00     0.000 C 
HETATM    2  C3  UNL     1     -33.307  13.643  -3.760  1.00 20.00     0.001 C 
HETATM    3  C4  UNL     1     -35.754  14.072  -4.187  1.00 20.00     0.001 C 
HETATM    4  C5  UNL     1     -33.021  15.144  -3.819  1.00 20.00     0.017 C 
HETATM    5  C6  UNL     1     -35.493  15.577  -4.252  1.00 20.00     0.017 C 
HETATM    6  C7  UNL     1     -34.245  15.996  -3.470  1.00 20.00     0.018 C 
HETATM    7  C8  UNL     1     -34.524  15.902  -1.971  1.00 20.00     0.023 C 
ENDROOT
BRANCH   6   8
HETATM    8  C1  UNL     1     -33.950  17.484  -3.662  1.00 20.00     0.148 C 
HETATM    9  O10 UNL     1     -33.348  17.880  -4.659  1.00 20.00    -0.296 OA
BRANCH   8  10
HETATM   10  C9  UNL     1     -34.441  18.397  -2.561  1.00 20.00     0.193 C 
HETATM   11 CL11 UNL     1     -33.089  19.263  -1.817  1.00 20.00    -0.123 Cl
ENDBRANCH   8  10
ENDBRANCH   6   8
TORSDOF 2
ENDMDL
MODEL 9
REMARK VINA RESULT:      -4.3      2.554      4.147
REMARK  2 active torsions:
REMARK  status: ('A' for Active; 'I' for Inactive)
REMARK    1  A    between atoms: C1_1  and  C7_7 
REMARK    2  A    between atoms: C1_1  and  C9_9 
ROOT
HETATM    1  C2  UNL     1     -36.815  15.199  -7.521  1.00 20.00     0.000 C 
HETATM    2  C3  UNL     1     -35.495  14.496  -7.817  1.00 20.00     0.001 C 
HETATM    3  C4  UNL     1     -37.140  15.172  -6.031  1.00 20.00     0.001 C 
HETATM    4  C5  UNL     1     -34.345  15.083  -6.997  1.00 20.00     0.017 C 
HETATM    5  C6  UNL     1     -36.008  15.766  -5.193  1.00 20.00     0.017 C 
HETATM    6  C7  UNL     1     -34.649  15.130  -5.496  1.00 20.00     0.018 C 
HETATM    7  C8  UNL     1     -34.607  13.714  -4.922  1.00 20.00     0.023 C 
ENDROOT
BRANCH   6   8
HETATM    8  C1  UNL     1     -33.528  15.834  -4.731  1.00 20.00     0.148 C 
HETATM    9  O10 UNL     1     -32.937  16.792  -5.227  1.00 20.00    -0.296 OA
BRANCH   8  10
HETATM   10  C9  UNL     1     -33.217  15.274  -3.361  1.00 20.00     0.193 C 
HETATM   11 CL11 UNL     1     -34.049  16.200  -2.103  1.00 20.00    -0.123 Cl
ENDBRANCH   8  10
ENDBRANCH   6   8
TORSDOF 2
ENDMDL
