MODEL 1
REMARK VINA RESULT:      -4.4      0.000      0.000
REMARK  2 active torsions:
REMARK  status: ('A' for Active; 'I' for Inactive)
REMARK    1  A    between atoms: C1_1  and  N9_9 
REMARK    2  A    between atoms: C4_4  and  C8_8 
ROOT
HETATM    1  C2  UNL     1     -33.246  16.196  -2.831  1.00 20.00     0.031 C 
HETATM    2  C3  UNL     1     -35.415  15.184  -2.853  1.00 20.00     0.130 C 
HETATM    3  C4  UNL     1     -34.688  16.436  -2.368  1.00 20.00     0.005 C 
HETATM    4  C5  UNL     1     -33.413  15.487  -4.178  1.00 20.00     0.083 C 
HETATM    5  C6  UNL     1     -33.455  16.468  -5.347  1.00 20.00     0.032 C 
HETATM    6  N9  UNL     1     -34.679  14.773  -4.038  1.00 20.00    -0.355 N 
ENDROOT
BRANCH   3   7
HETATM    7  C8  UNL     1     -34.806  16.654  -0.870  1.00 20.00     0.002 C 
HETATM    8  C7  UNL     1     -33.861  17.707  -0.380  1.00 20.00     0.005 C 
ENDBRANCH   3   7
BRANCH   6   9
HETATM    9  C1  UNL     1     -35.094  13.759  -4.871  1.00 20.00     0.351 C 
HETATM   10  O10 UNL     1     -34.851  12.563  -4.757  1.00 20.00    -0.284 OA
ENDBRANCH   6   9
TORSDOF 2
ENDMDL
MODEL 2
REMARK VINA RESULT:      -4.4      1.888      2.330
REMARK  2 active torsions:
REMARK  status: ('A' for Active; 'I' for Inactive)
REMARK    1  A    between atoms: C1_1  and  N9_9 
REMARK    2  A    between atoms: C4_4  and  C8_8 
ROOT
HETATM    1  C2  UNL     1     -34.161  14.453  -3.264  1.00 20.00     0.031 C 
HETATM    2  C3  UNL     1     -35.923  16.071  -3.170  1.00 20.00     0.130 C 
HETATM    3  C4  UNL     1     -34.400  15.965  -3.180  1.00 20.00     0.005 C 
HETATM    4  C5  UNL     1     -35.293  13.958  -4.169  1.00 20.00     0.083 C 
HETATM    5  C6  UNL     1     -34.891  13.942  -5.642  1.00 20.00     0.032 C 
HETATM    6  N9  UNL     1     -36.372  14.912  -3.924  1.00 20.00    -0.355 N 
ENDROOT
BRANCH   3   7
HETATM    7  C8  UNL     1     -33.747  16.607  -1.969  1.00 20.00     0.002 C 
HETATM    8  C7  UNL     1     -34.671  16.655  -0.792  1.00 20.00     0.005 C 
ENDBRANCH   3   7
BRANCH   6   9
HETATM    9  C1  UNL     1     -37.686  14.704  -4.278  1.00 20.00     0.351 C 
HETATM   10  O10 UNL     1     -38.596  14.327  -3.549  1.00 20.00    -0.284 OA
ENDBRANCH   6   9
TORSDOF 2
ENDMDL
MODEL 3
REMARK VINA RESULT:      -4.3      1.281      1.985
REMARK  2 active torsions:
REMARK  status: ('A' for Active; 'I' for Inactive)
REMARK    1  A    between atoms: C1_1  and  N9_9 
REMARK    2  A    between atoms: C4_4  and  C8_8 
ROOT
HETATM    1  C2  UNL     1     -35.821  16.666  -3.164  1.00 20.00     0.031 C 
HETATM    2  C3  UNL     1     -34.096  15.017  -2.970  1.00 20.00     0.130 C 
HETATM    3  C4  UNL     1     -34.932  15.973  -2.124  1.00 20.00     0.005 C 
HETATM    4  C5  UNL     1     -36.125  15.555  -4.174  1.00 20.00     0.083 C 
HETATM    5  C6  UNL     1     -37.401  14.791  -3.828  1.00 20.00     0.032 C 
HETATM    6  N9  UNL     1     -34.951  14.689  -4.100  1.00 20.00    -0.355 N 
ENDROOT
BRANCH   3   7
HETATM    7  C8  UNL     1     -34.093  16.946  -1.314  1.00 20.00     0.002 C 
HETATM    8  C7  UNL     1     -34.710  17.246   0.017  1.00 20.00     0.005 C 
ENDBRANCH   3   7
BRANCH   6   9
HETATM    9  C1  UNL     1     -34.631  13.734  -5.037  1.00 20.00     0.351 C 
HETATM   10  O10 UNL     1     -34.759  12.520  -4.926  1.00 20.00    -0.284 OA
ENDBRANCH   6   9
TORSDOF 2
ENDMDL
MODEL 4
REMARK VINA RESULT:      -4.3      1.467      2.343
REMARK  2 active torsions:
REMARK  status: ('A' for Active; 'I' for Inactive)
REMARK    1  A    between atoms: C1_1  and  N9_9 
REMARK    2  A    between atoms: C4_4  and  C8_8 
ROOT
HETATM    1  C2  UNL     1     -35.177  15.323  -3.050  1.00 20.00     0.031 C 
HETATM    2  C3  UNL     1     -33.458  16.458  -4.270  1.00 20.00     0.130 C 
HETATM    3  C4  UNL     1     -33.781  15.934  -2.873  1.00 20.00     0.005 C 
HETATM    4  C5  UNL     1     -35.130  14.717  -4.456  1.00 20.00     0.083 C 
HETATM    5  C6  UNL     1     -34.669  13.261  -4.444  1.00 20.00     0.032 C 
HETATM    6  N9  UNL     1     -34.180  15.569  -5.167  1.00 20.00    -0.355 N 
ENDROOT
BRANCH   3   7
HETATM    7  C8  UNL     1     -33.732  17.012  -1.804  1.00 20.00     0.002 C 
HETATM    8  C7  UNL     1     -34.650  16.709  -0.660  1.00 20.00     0.005 C 
ENDBRANCH   3   7
BRANCH   6   9
HETATM    9  C1  UNL     1     -34.042  15.603  -6.536  1.00 20.00     0.351 C 
HETATM   10  O10 UNL     1     -34.583  14.863  -7.350  1.00 20.00    -0.284 OA
ENDBRANCH   6   9
TORSDOF 2
ENDMDL
MODEL 5
REMARK VINA RESULT:      -4.1     11.765     12.443
REMARK  2 active torsions:
REMARK  status: ('A' for Active; 'I' for Inactive)
REMARK    1  A    between atoms: C1_1  and  N9_9 
REMARK    2  A    between atoms: C4_4  and  C8_8 
ROOT
HETATM    1  C2  UNL     1     -33.728   5.675   2.779  1.00 20.00     0.031 C 
HETATM    2  C3  UNL     1     -33.189   6.609   4.917  1.00 20.00     0.130 C 
HETATM    3  C4  UNL     1     -33.195   6.957   3.431  1.00 20.00     0.005 C 
HETATM    4  C5  UNL     1     -34.767   5.166   3.783  1.00 20.00     0.083 C 
HETATM    5  C6  UNL     1     -36.166   5.704   3.491  1.00 20.00     0.032 C 
HETATM    6  N9  UNL     1     -34.270   5.647   5.069  1.00 20.00    -0.355 N 
ENDROOT
BRANCH   3   7
HETATM    7  C8  UNL     1     -31.831   7.371   2.907  1.00 20.00     0.002 C 
HETATM    8  C7  UNL     1     -31.937   8.317   1.751  1.00 20.00     0.005 C 
ENDBRANCH   3   7
BRANCH   6   9
HETATM    9  C1  UNL     1     -34.702   5.183   6.290  1.00 20.00     0.351 C 
HETATM   10  O10 UNL     1     -35.331   4.154   6.508  1.00 20.00    -0.284 OA
ENDBRANCH   6   9
TORSDOF 2
ENDMDL
MODEL 6
REMARK VINA RESULT:      -4.0      2.307      2.869
REMARK  2 active torsions:
REMARK  status: ('A' for Active; 'I' for Inactive)
REMARK    1  A    between atoms: C1_1  and  N9_9 
REMARK    2  A    between atoms: C4_4  and  C8_8 
ROOT
HETATM    1  C2  UNL     1     -34.780  15.803  -2.142  1.00 20.00     0.031 C 
HETATM    2  C3  UNL     1     -33.894  18.023  -2.270  1.00 20.00     0.130 C 
HETATM    3  C4  UNL     1     -34.068  16.863  -1.294  1.00 20.00     0.005 C 
HETATM    4  C5  UNL     1     -34.156  15.974  -3.531  1.00 20.00     0.083 C 
HETATM    5  C6  UNL     1     -32.933  15.081  -3.730  1.00 20.00     0.032 C 
HETATM    6  N9  UNL     1     -33.794  17.388  -3.575  1.00 20.00    -0.355 N 
ENDROOT
BRANCH   3   7
HETATM    7  C8  UNL     1     -34.840  17.244  -0.043  1.00 20.00     0.002 C 
HETATM    8  C7  UNL     1     -34.088  18.224   0.804  1.00 20.00     0.005 C 
ENDBRANCH   3   7
BRANCH   6   9
HETATM    9  C1  UNL     1     -33.482  18.073  -4.727  1.00 20.00     0.351 C 
HETATM   10  O10 UNL     1     -33.673  17.704  -5.880  1.00 20.00    -0.284 OA
ENDBRANCH   6   9
TORSDOF 2
ENDMDL
MODEL 7
REMARK VINA RESULT:      -3.9      1.283      3.361
REMARK  2 active torsions:
REMARK  status: ('A' for Active; 'I' for Inactive)
REMARK    1  A    between atoms: C1_1  and  N9_9 
REMARK    2  A    between atoms: C4_4  and  C8_8 
ROOT
HETATM    1  C2  UNL     1     -35.134  17.273  -3.836  1.00 20.00     0.031 C 
HETATM    2  C3  UNL     1     -33.585  15.727  -4.807  1.00 20.00     0.130 C 
HETATM    3  C4  UNL     1     -33.761  17.215  -4.517  1.00 20.00     0.005 C 
HETATM    4  C5  UNL     1     -35.176  15.988  -3.002  1.00 20.00     0.083 C 
HETATM    5  C6  UNL     1     -34.643  16.199  -1.587  1.00 20.00     0.032 C 
HETATM    6  N9  UNL     1     -34.335  15.061  -3.755  1.00 20.00    -0.355 N 
ENDROOT
BRANCH   3   7
HETATM    7  C8  UNL     1     -33.676  18.082  -5.762  1.00 20.00     0.002 C 
HETATM    8  C7  UNL     1     -34.405  17.475  -6.920  1.00 20.00     0.005 C 
ENDBRANCH   3   7
BRANCH   6   9
HETATM    9  C1  UNL     1     -34.317  13.699  -3.561  1.00 20.00     0.351 C 
HETATM   10  O10 UNL     1     -34.897  12.850  -4.229  1.00 20.00    -0.284 OA
ENDBRANCH   6   9
TORSDOF 2
ENDMDL
MODEL 8
REMARK VINA RESULT:      -3.8      2.476      4.112
REMARK  2 active torsions:
REMARK  status: ('A' for Active; 'I' for Inactive)
REMARK    1  A    between atoms: C1_1  and  N9_9 
REMARK    2  A    between atoms: C4_4  and  C8_8 
ROOT
HETATM    1  C2  UNL     1     -33.654  15.796  -2.925  1.00 20.00     0.031 C 
HETATM    2  C3  UNL     1     -35.902  15.244  -3.539  1.00 20.00     0.130 C 
HETATM    3  C4  UNL     1     -34.571  14.592  -3.173  1.00 20.00     0.005 C 
HETATM    4  C5  UNL     1     -34.581  16.824  -2.268  1.00 20.00     0.083 C 
HETATM    5  C6  UNL     1     -34.580  16.713  -0.745  1.00 20.00     0.032 C 
HETATM    6  N9  UNL     1     -35.895  16.510  -2.823  1.00 20.00    -0.355 N 
ENDROOT
BRANCH   3   7
HETATM    7  C8  UNL     1     -34.048  13.655  -4.248  1.00 20.00     0.002 C 
HETATM    8  C7  UNL     1     -34.850  13.745  -5.509  1.00 20.00     0.005 C 
ENDBRANCH   3   7
BRANCH   6   9
HETATM    9  C1  UNL     1     -36.983  17.349  -2.763  1.00 20.00     0.351 C 
HETATM   10  O10 UNL     1     -36.990  18.563  -2.940  1.00 20.00    -0.284 OA
ENDBRANCH   6   9
TORSDOF 2
ENDMDL
MODEL 9
REMARK VINA RESULT:      -3.8     11.667     13.585
REMARK  2 active torsions:
REMARK  status: ('A' for Active; 'I' for Inactive)
REMARK    1  A    between atoms: C1_1  and  N9_9 
REMARK    2  A    between atoms: C4_4  and  C8_8 
ROOT
HETATM    1  C2  UNL     1     -41.071   4.076  -1.672  1.00 20.00     0.031 C 
HETATM    2  C3  UNL     1     -42.900   4.986  -2.920  1.00 20.00     0.130 C 
HETATM    3  C4  UNL     1     -42.500   3.749  -2.121  1.00 20.00     0.005 C 
HETATM    4  C5  UNL     1     -41.116   5.583  -1.398  1.00 20.00     0.083 C 
HETATM    5  C6  UNL     1     -41.472   5.897   0.054  1.00 20.00     0.032 C 
HETATM    6  N9  UNL     1     -42.143   6.070  -2.314  1.00 20.00    -0.355 N 
ENDROOT
BRANCH   3   7
HETATM    7  C8  UNL     1     -42.595   2.462  -2.922  1.00 20.00     0.002 C 
HETATM    8  C7  UNL     1     -41.302   2.127  -3.599  1.00 20.00     0.005 C 
ENDBRANCH   3   7
BRANCH   6   9
HETATM    9  C1  UNL     1     -42.322   7.394  -2.646  1.00 20.00     0.351 C 
HETATM   10  O10 UNL     1     -42.199   7.900  -3.756  1.00 20.00    -0.284 OA
ENDBRANCH   6   9
TORSDOF 2
ENDMDL
