MODEL 1
REMARK VINA RESULT:      -4.5      0.000      0.000
REMARK  6 active torsions:
REMARK  status: ('A' for Active; 'I' for Inactive)
REMARK    1  A    between atoms: C2_2  and  C5_5 
REMARK    2  A    between atoms: C5_5  and  C8_8 
REMARK    3  A    between atoms: C6_6  and  C8_8 
REMARK    4  A    between atoms: C7_7  and  C9_9 
REMARK    5  A    between atoms: C9_9  and  C10_10 
REMARK    6  A    between atoms: C10_10  and  N11_11 
ROOT
HETATM    1  C1  UNL     1     -34.062   5.135   2.338  1.00 20.00     0.308 A 
HETATM    2  C2  UNL     1     -34.798   5.510   3.602  1.00 20.00     0.251 A 
HETATM    3  N11 UNL     1     -33.399   5.874   3.409  1.00 20.00     0.097 N 
ENDROOT
BRANCH   2   4
HETATM    4  C5  UNL     1     -35.136   4.467   4.610  1.00 20.00     0.037 C 
BRANCH   4   5
HETATM    5  C8  UNL     1     -34.281   4.607   5.868  1.00 20.00     0.002 C 
BRANCH   5   6
HETATM    6  C6  UNL     1     -34.701   5.822   6.694  1.00 20.00    -0.004 C 
HETATM    7  C3  UNL     1     -33.637   6.908   6.669  1.00 20.00     0.005 C 
ENDBRANCH   5   6
ENDBRANCH   4   5
ENDBRANCH   2   4
BRANCH   3   8
HETATM    8  C10 UNL     1     -33.214   7.287   3.099  1.00 20.00     0.273 C 
BRANCH   8   9
HETATM    9  C9  UNL     1     -31.817   7.586   2.565  1.00 20.00     0.030 C 
BRANCH   9  10
HETATM   10  C7  UNL     1     -31.841   8.471   1.318  1.00 20.00    -0.003 C 
HETATM   11  C4  UNL     1     -32.550   9.790   1.586  1.00 20.00     0.005 C 
ENDBRANCH   9  10
ENDBRANCH   8   9
ENDBRANCH   3   8
TORSDOF 6
ENDMDL
MODEL 2
REMARK VINA RESULT:      -4.5      1.088      1.758
REMARK  6 active torsions:
REMARK  status: ('A' for Active; 'I' for Inactive)
REMARK    1  A    between atoms: C2_2  and  C5_5 
REMARK    2  A    between atoms: C5_5  and  C8_8 
REMARK    3  A    between atoms: C6_6  and  C8_8 
REMARK    4  A    between atoms: C7_7  and  C9_9 
REMARK    5  A    between atoms: C9_9  and  C10_10 
REMARK    6  A    between atoms: C10_10  and  N11_11 
ROOT
HETATM    1  C1  UNL     1     -32.170   5.646   2.972  1.00 20.00     0.308 A 
HETATM    2  C2  UNL     1     -33.443   6.438   3.147  1.00 20.00     0.251 A 
HETATM    3  N11 UNL     1     -32.190   6.889   3.739  1.00 20.00     0.097 N 
ENDROOT
BRANCH   2   4
HETATM    4  C5  UNL     1     -34.522   5.937   4.043  1.00 20.00     0.037 C 
BRANCH   4   5
HETATM    5  C8  UNL     1     -34.251   6.300   5.502  1.00 20.00     0.002 C 
BRANCH   5   6
HETATM    6  C6  UNL     1     -34.484   5.105   6.425  1.00 20.00    -0.004 C 
HETATM    7  C3  UNL     1     -34.931   3.877   5.646  1.00 20.00     0.005 C 
ENDBRANCH   5   6
ENDBRANCH   4   5
ENDBRANCH   2   4
BRANCH   3   8
HETATM    8  C10 UNL     1     -31.591   8.010   3.025  1.00 20.00     0.273 C 
BRANCH   8   9
HETATM    9  C9  UNL     1     -31.865   7.957   1.526  1.00 20.00     0.030 C 
BRANCH   9  10
HETATM   10  C7  UNL     1     -32.206   9.329   0.941  1.00 20.00    -0.003 C 
HETATM   11  C4  UNL     1     -32.803  10.249   1.995  1.00 20.00     0.005 C 
ENDBRANCH   9  10
ENDBRANCH   8   9
ENDBRANCH   3   8
TORSDOF 6
ENDMDL
MODEL 3
REMARK VINA RESULT:      -4.5      1.124      5.294
REMARK  6 active torsions:
REMARK  status: ('A' for Active; 'I' for Inactive)
REMARK    1  A    between atoms: C2_2  and  C5_5 
REMARK    2  A    between atoms: C5_5  and  C8_8 
REMARK    3  A    between atoms: C6_6  and  C8_8 
REMARK    4  A    between atoms: C7_7  and  C9_9 
REMARK    5  A    between atoms: C9_9  and  C10_10 
REMARK    6  A    between atoms: C10_10  and  N11_11 
ROOT
HETATM    1  C1  UNL     1     -32.170   5.579   3.303  1.00 20.00     0.308 A 
HETATM    2  C2  UNL     1     -32.428   7.066   3.283  1.00 20.00     0.251 A 
HETATM    3  N11 UNL     1     -33.460   6.118   2.882  1.00 20.00     0.097 N 
ENDROOT
BRANCH   2   4
HETATM    4  C5  UNL     1     -31.797   7.923   2.242  1.00 20.00     0.037 C 
BRANCH   4   5
HETATM    5  C8  UNL     1     -32.514   9.267   2.113  1.00 20.00     0.002 C 
BRANCH   5   6
HETATM    6  C6  UNL     1     -32.435   9.804   0.685  1.00 20.00    -0.004 C 
HETATM    7  C3  UNL     1     -32.450   8.677  -0.336  1.00 20.00     0.005 C 
ENDBRANCH   5   6
ENDBRANCH   4   5
ENDBRANCH   2   4
BRANCH   3   8
HETATM    8  C10 UNL     1     -34.504   5.950   3.887  1.00 20.00     0.273 C 
BRANCH   8   9
HETATM    9  C9  UNL     1     -34.024   6.310   5.289  1.00 20.00     0.030 C 
BRANCH   9  10
HETATM   10  C7  UNL     1     -34.515   5.324   6.351  1.00 20.00    -0.003 C 
HETATM   11  C4  UNL     1     -35.012   4.031   5.721  1.00 20.00     0.005 C 
ENDBRANCH   9  10
ENDBRANCH   8   9
ENDBRANCH   3   8
TORSDOF 6
ENDMDL
MODEL 4
REMARK VINA RESULT:      -4.3     11.304     13.240
REMARK  6 active torsions:
REMARK  status: ('A' for Active; 'I' for Inactive)
REMARK    1  A    between atoms: C2_2  and  C5_5 
REMARK    2  A    between atoms: C5_5  and  C8_8 
REMARK    3  A    between atoms: C6_6  and  C8_8 
REMARK    4  A    between atoms: C7_7  and  C9_9 
REMARK    5  A    between atoms: C9_9  and  C10_10 
REMARK    6  A    between atoms: C10_10  and  N11_11 
ROOT
HETATM    1  C1  UNL     1     -33.894  18.080  -5.961  1.00 20.00     0.308 A 
HETATM    2  C2  UNL     1     -34.443  16.682  -5.798  1.00 20.00     0.251 A 
HETATM    3  N11 UNL     1     -33.330  17.153  -4.983  1.00 20.00     0.097 N 
ENDROOT
BRANCH   2   4
HETATM    4  C5  UNL     1     -34.185  15.649  -6.838  1.00 20.00     0.037 C 
BRANCH   4   5
HETATM    5  C8  UNL     1     -35.040  14.402  -6.612  1.00 20.00     0.002 C 
BRANCH   5   6
HETATM    6  C6  UNL     1     -35.659  14.399  -5.216  1.00 20.00    -0.004 C 
HETATM    7  C3  UNL     1     -35.080  13.291  -4.350  1.00 20.00     0.005 C 
ENDBRANCH   5   6
ENDBRANCH   4   5
ENDBRANCH   2   4
BRANCH   3   8
HETATM    8  C10 UNL     1     -33.718  17.466  -3.612  1.00 20.00     0.273 C 
BRANCH   8   9
HETATM    9  C9  UNL     1     -33.606  16.258  -2.687  1.00 20.00     0.030 C 
BRANCH   9  10
HETATM   10  C7  UNL     1     -34.813  16.115  -1.757  1.00 20.00    -0.003 C 
HETATM   11  C4  UNL     1     -34.633  16.929  -0.484  1.00 20.00     0.005 C 
ENDBRANCH   9  10
ENDBRANCH   8   9
ENDBRANCH   3   8
TORSDOF 6
ENDMDL
MODEL 5
REMARK VINA RESULT:      -4.2      0.635      4.674
REMARK  6 active torsions:
REMARK  status: ('A' for Active; 'I' for Inactive)
REMARK    1  A    between atoms: C2_2  and  C5_5 
REMARK    2  A    between atoms: C5_5  and  C8_8 
REMARK    3  A    between atoms: C6_6  and  C8_8 
REMARK    4  A    between atoms: C7_7  and  C9_9 
REMARK    5  A    between atoms: C9_9  and  C10_10 
REMARK    6  A    between atoms: C10_10  and  N11_11 
ROOT
HETATM    1  C1  UNL     1     -34.340   5.131   2.379  1.00 20.00     0.308 A 
HETATM    2  C2  UNL     1     -33.559   5.942   3.386  1.00 20.00     0.251 A 
HETATM    3  N11 UNL     1     -34.942   5.559   3.638  1.00 20.00     0.097 N 
ENDROOT
BRANCH   2   4
HETATM    4  C5  UNL     1     -33.247   7.373   3.117  1.00 20.00     0.037 C 
BRANCH   4   5
HETATM    5  C8  UNL     1     -31.827   7.545   2.579  1.00 20.00     0.002 C 
BRANCH   5   6
HETATM    6  C6  UNL     1     -31.807   8.437   1.339  1.00 20.00    -0.004 C 
HETATM    7  C3  UNL     1     -32.544   9.745   1.580  1.00 20.00     0.005 C 
ENDBRANCH   5   6
ENDBRANCH   4   5
ENDBRANCH   2   4
BRANCH   3   8
HETATM    8  C10 UNL     1     -35.068   4.476   4.608  1.00 20.00     0.273 C 
BRANCH   8   9
HETATM    9  C9  UNL     1     -34.194   4.694   5.839  1.00 20.00     0.030 C 
BRANCH   9  10
HETATM   10  C7  UNL     1     -34.658   5.880   6.687  1.00 20.00    -0.003 C 
HETATM   11  C4  UNL     1     -33.611   6.983   6.720  1.00 20.00     0.005 C 
ENDBRANCH   9  10
ENDBRANCH   8   9
ENDBRANCH   3   8
TORSDOF 6
ENDMDL
MODEL 6
REMARK VINA RESULT:      -4.2     10.943     12.217
REMARK  6 active torsions:
REMARK  status: ('A' for Active; 'I' for Inactive)
REMARK    1  A    between atoms: C2_2  and  C5_5 
REMARK    2  A    between atoms: C5_5  and  C8_8 
REMARK    3  A    between atoms: C6_6  and  C8_8 
REMARK    4  A    between atoms: C7_7  and  C9_9 
REMARK    5  A    between atoms: C9_9  and  C10_10 
REMARK    6  A    between atoms: C10_10  and  N11_11 
ROOT
HETATM    1  C1  UNL     1     -34.636  17.233  -3.019  1.00 20.00     0.308 A 
HETATM    2  C2  UNL     1     -34.175  15.823  -2.740  1.00 20.00     0.251 A 
HETATM    3  N11 UNL     1     -33.774  16.929  -1.880  1.00 20.00     0.097 N 
ENDROOT
BRANCH   2   4
HETATM    4  C5  UNL     1     -33.151  15.182  -3.611  1.00 20.00     0.037 C 
BRANCH   4   5
HETATM    5  C8  UNL     1     -33.424  13.689  -3.791  1.00 20.00     0.002 C 
BRANCH   5   6
HETATM    6  C6  UNL     1     -34.841  13.442  -4.305  1.00 20.00    -0.004 C 
HETATM    7  C3  UNL     1     -35.010  13.934  -5.735  1.00 20.00     0.005 C 
ENDBRANCH   5   6
ENDBRANCH   4   5
ENDBRANCH   2   4
BRANCH   3   8
HETATM    8  C10 UNL     1     -34.483  16.949  -0.606  1.00 20.00     0.273 C 
BRANCH   8   9
HETATM    9  C9  UNL     1     -34.006  18.073   0.308  1.00 20.00     0.030 C 
BRANCH   9  10
HETATM   10  C7  UNL     1     -32.695  18.702  -0.168  1.00 20.00    -0.003 C 
HETATM   11  C4  UNL     1     -31.771  19.011   1.000  1.00 20.00     0.005 C 
ENDBRANCH   9  10
ENDBRANCH   8   9
ENDBRANCH   3   8
TORSDOF 6
ENDMDL
MODEL 7
REMARK VINA RESULT:      -4.1     11.341     12.155
REMARK  6 active torsions:
REMARK  status: ('A' for Active; 'I' for Inactive)
REMARK    1  A    between atoms: C2_2  and  C5_5 
REMARK    2  A    between atoms: C5_5  and  C8_8 
REMARK    3  A    between atoms: C6_6  and  C8_8 
REMARK    4  A    between atoms: C7_7  and  C9_9 
REMARK    5  A    between atoms: C9_9  and  C10_10 
REMARK    6  A    between atoms: C10_10  and  N11_11 
ROOT
HETATM    1  C1  UNL     1     -36.304  14.746  -3.720  1.00 20.00     0.308 A 
HETATM    2  C2  UNL     1     -35.068  15.537  -3.362  1.00 20.00     0.251 A 
HETATM    3  N11 UNL     1     -34.984  14.121  -3.698  1.00 20.00     0.097 N 
ENDROOT
BRANCH   2   4
HETATM    4  C5  UNL     1     -34.828  15.956  -1.954  1.00 20.00     0.037 C 
BRANCH   4   5
HETATM    5  C8  UNL     1     -33.722  17.006  -1.864  1.00 20.00     0.002 C 
BRANCH   5   6
HETATM    6  C6  UNL     1     -33.766  17.747  -0.528  1.00 20.00    -0.004 C 
HETATM    7  C3  UNL     1     -34.957  17.312   0.311  1.00 20.00     0.005 C 
ENDBRANCH   5   6
ENDBRANCH   4   5
ENDBRANCH   2   4
BRANCH   3   8
HETATM    8  C10 UNL     1     -34.444  13.881  -5.032  1.00 20.00     0.273 C 
BRANCH   8   9
HETATM    9  C9  UNL     1     -34.193  15.175  -5.798  1.00 20.00     0.030 C 
BRANCH   9  10
HETATM   10  C7  UNL     1     -34.416  15.021  -7.304  1.00 20.00    -0.003 C 
HETATM   11  C4  UNL     1     -35.831  14.554  -7.611  1.00 20.00     0.005 C 
ENDBRANCH   9  10
ENDBRANCH   8   9
ENDBRANCH   3   8
TORSDOF 6
ENDMDL
MODEL 8
REMARK VINA RESULT:      -4.1     11.010     12.277
REMARK  6 active torsions:
REMARK  status: ('A' for Active; 'I' for Inactive)
REMARK    1  A    between atoms: C2_2  and  C5_5 
REMARK    2  A    between atoms: C5_5  and  C8_8 
REMARK    3  A    between atoms: C6_6  and  C8_8 
REMARK    4  A    between atoms: C7_7  and  C9_9 
REMARK    5  A    between atoms: C9_9  and  C10_10 
REMARK    6  A    between atoms: C10_10  and  N11_11 
ROOT
HETATM    1  C1  UNL     1     -35.048  16.924  -3.175  1.00 20.00     0.308 A 
HETATM    2  C2  UNL     1     -33.973  15.927  -2.813  1.00 20.00     0.251 A 
HETATM    3  N11 UNL     1     -33.752  17.360  -2.662  1.00 20.00     0.097 N 
ENDROOT
BRANCH   2   4
HETATM    4  C5  UNL     1     -33.238  15.196  -3.880  1.00 20.00     0.037 C 
BRANCH   4   5
HETATM    5  C8  UNL     1     -33.502  13.692  -3.813  1.00 20.00     0.002 C 
BRANCH   5   6
HETATM    6  C6  UNL     1     -34.715  13.303  -4.656  1.00 20.00    -0.004 C 
HETATM    7  C3  UNL     1     -34.828  14.165  -5.903  1.00 20.00     0.005 C 
ENDBRANCH   5   6
ENDBRANCH   4   5
ENDBRANCH   2   4
BRANCH   3   8
HETATM    8  C10 UNL     1     -33.808  17.804  -1.273  1.00 20.00     0.273 C 
BRANCH   8   9
HETATM    9  C9  UNL     1     -34.644  16.874  -0.400  1.00 20.00     0.030 C 
BRANCH   9  10
HETATM   10  C7  UNL     1     -35.214  17.579   0.833  1.00 20.00    -0.003 C 
HETATM   11  C4  UNL     1     -34.140  18.365   1.570  1.00 20.00     0.005 C 
ENDBRANCH   9  10
ENDBRANCH   8   9
ENDBRANCH   3   8
TORSDOF 6
ENDMDL
MODEL 9
REMARK VINA RESULT:      -4.0     11.021     12.650
REMARK  6 active torsions:
REMARK  status: ('A' for Active; 'I' for Inactive)
REMARK    1  A    between atoms: C2_2  and  C5_5 
REMARK    2  A    between atoms: C5_5  and  C8_8 
REMARK    3  A    between atoms: C6_6  and  C8_8 
REMARK    4  A    between atoms: C7_7  and  C9_9 
REMARK    5  A    between atoms: C9_9  and  C10_10 
REMARK    6  A    between atoms: C10_10  and  N11_11 
ROOT
HETATM    1  C1  UNL     1     -33.906  17.765  -5.566  1.00 20.00     0.308 A 
HETATM    2  C2  UNL     1     -33.615  17.165  -4.211  1.00 20.00     0.251 A 
HETATM    3  N11 UNL     1     -34.636  16.596  -5.082  1.00 20.00     0.097 N 
ENDROOT
BRANCH   2   4
HETATM    4  C5  UNL     1     -34.040  17.871  -2.971  1.00 20.00     0.037 C 
BRANCH   4   5
HETATM    5  C8  UNL     1     -33.559  17.138  -1.718  1.00 20.00     0.002 C 
BRANCH   5   6
HETATM    6  C6  UNL     1     -34.732  16.556  -0.931  1.00 20.00    -0.004 C 
HETATM    7  C3  UNL     1     -34.977  17.326   0.357  1.00 20.00     0.005 C 
ENDBRANCH   5   6
ENDBRANCH   4   5
ENDBRANCH   2   4
BRANCH   3   8
HETATM    8  C10 UNL     1     -34.215  15.356  -5.722  1.00 20.00     0.273 C 
BRANCH   8   9
HETATM    9  C9  UNL     1     -35.224  14.229  -5.527  1.00 20.00     0.030 C 
BRANCH   9  10
HETATM   10  C7  UNL     1     -34.952  13.407  -4.265  1.00 20.00    -0.003 C 
HETATM   11  C4  UNL     1     -33.510  13.560  -3.803  1.00 20.00     0.005 C 
ENDBRANCH   9  10
ENDBRANCH   8   9
ENDBRANCH   3   8
TORSDOF 6
ENDMDL
