MODEL 1
REMARK VINA RESULT:      -4.8      0.000      0.000
REMARK  1 active torsions:
REMARK  status: ('A' for Active; 'I' for Inactive)
REMARK    1  A    between atoms: C3_3  and  C9_9 
ROOT
HETATM    1  C1  UNL     1     -34.454  13.265  -4.613  1.00 20.00    -0.030 C 
HETATM    2  C2  UNL     1     -33.438  13.593  -3.789  1.00 20.00    -0.029 C 
HETATM    3  C4  UNL     1     -35.109  14.232  -5.579  1.00 20.00     0.032 C 
HETATM    4  C5  UNL     1     -32.840  14.986  -3.686  1.00 20.00     0.044 C 
HETATM    5  C6  UNL     1     -34.530  16.901  -6.062  1.00 20.00     0.007 C 
HETATM    6  C7  UNL     1     -33.442  17.296  -5.010  1.00 20.00     0.018 C 
HETATM    7  C8  UNL     1     -34.197  15.441  -5.679  1.00 20.00     0.005 C 
HETATM    8  C9  UNL     1     -33.856  15.987  -4.248  1.00 20.00     0.027 C 
ENDROOT
BRANCH   8   9
HETATM    9  C3  UNL     1     -35.021  16.238  -3.220  1.00 20.00     0.132 C 
HETATM   10  C10 UNL     1     -34.646  16.256  -1.763  1.00 20.00     0.091 C 
HETATM   11  O11 UNL     1     -36.181  16.412  -3.589  1.00 20.00    -0.298 OA
ENDBRANCH   8   9
TORSDOF 1
ENDMDL
MODEL 2
REMARK VINA RESULT:      -4.8      1.812      3.052
REMARK  1 active torsions:
REMARK  status: ('A' for Active; 'I' for Inactive)
REMARK    1  A    between atoms: C3_3  and  C9_9 
ROOT
HETATM    1  C1  UNL     1     -34.641  15.287  -7.077  1.00 20.00    -0.030 C 
HETATM    2  C2  UNL     1     -33.856  15.980  -6.227  1.00 20.00    -0.029 C 
HETATM    3  C4  UNL     1     -35.962  14.654  -6.687  1.00 20.00     0.032 C 
HETATM    4  C5  UNL     1     -34.167  16.183  -4.754  1.00 20.00     0.044 C 
HETATM    5  C6  UNL     1     -37.264  14.663  -4.239  1.00 20.00     0.007 C 
HETATM    6  C7  UNL     1     -36.282  15.356  -3.239  1.00 20.00     0.018 C 
HETATM    7  C8  UNL     1     -36.355  15.244  -5.346  1.00 20.00     0.005 C 
HETATM    8  C9  UNL     1     -35.173  15.110  -4.323  1.00 20.00     0.027 C 
ENDROOT
BRANCH   8   9
HETATM    9  C3  UNL     1     -34.461  13.717  -4.144  1.00 20.00     0.132 C 
HETATM   10  C10 UNL     1     -33.057  13.739  -3.606  1.00 20.00     0.091 C 
HETATM   11  O11 UNL     1     -35.026  12.662  -4.428  1.00 20.00    -0.298 OA
ENDBRANCH   8   9
TORSDOF 1
ENDMDL
MODEL 3
REMARK VINA RESULT:      -4.6      1.416      3.206
REMARK  1 active torsions:
REMARK  status: ('A' for Active; 'I' for Inactive)
REMARK    1  A    between atoms: C3_3  and  C9_9 
ROOT
HETATM    1  C1  UNL     1     -32.889  14.822  -3.454  1.00 20.00    -0.030 C 
HETATM    2  C2  UNL     1     -33.380  13.642  -3.885  1.00 20.00    -0.029 C 
HETATM    3  C4  UNL     1     -33.748  16.016  -3.087  1.00 20.00     0.032 C 
HETATM    4  C5  UNL     1     -34.858  13.364  -4.105  1.00 20.00     0.044 C 
HETATM    5  C6  UNL     1     -36.509  16.274  -3.117  1.00 20.00     0.007 C 
HETATM    6  C7  UNL     1     -37.052  14.947  -3.742  1.00 20.00     0.018 C 
HETATM    7  C8  UNL     1     -35.173  15.512  -2.961  1.00 20.00     0.005 C 
HETATM    8  C9  UNL     1     -35.584  14.707  -4.244  1.00 20.00     0.027 C 
ENDROOT
BRANCH   8   9
HETATM    9  C3  UNL     1     -35.328  15.336  -5.664  1.00 20.00     0.132 C 
HETATM   10  C10 UNL     1     -35.326  14.390  -6.834  1.00 20.00     0.091 C 
HETATM   11  O11 UNL     1     -35.140  16.543  -5.811  1.00 20.00    -0.298 OA
ENDBRANCH   8   9
TORSDOF 1
ENDMDL
MODEL 4
REMARK VINA RESULT:      -4.6      1.411      2.989
REMARK  1 active torsions:
REMARK  status: ('A' for Active; 'I' for Inactive)
REMARK    1  A    between atoms: C3_3  and  C9_9 
ROOT
HETATM    1  C1  UNL     1     -34.463  13.294  -4.846  1.00 20.00    -0.030 C 
HETATM    2  C2  UNL     1     -35.500  13.911  -5.450  1.00 20.00    -0.029 C 
HETATM    3  C4  UNL     1     -33.731  13.851  -3.641  1.00 20.00     0.032 C 
HETATM    4  C5  UNL     1     -36.046  15.266  -5.032  1.00 20.00     0.044 C 
HETATM    5  C6  UNL     1     -34.183  16.197  -2.234  1.00 20.00     0.007 C 
HETATM    6  C7  UNL     1     -35.299  16.957  -3.025  1.00 20.00     0.018 C 
HETATM    7  C8  UNL     1     -34.589  14.969  -3.081  1.00 20.00     0.005 C 
HETATM    8  C9  UNL     1     -34.969  15.986  -4.213  1.00 20.00     0.027 C 
ENDROOT
BRANCH   8   9
HETATM    9  C3  UNL     1     -33.840  16.553  -5.152  1.00 20.00     0.132 C 
HETATM   10  C10 UNL     1     -34.290  17.281  -6.389  1.00 20.00     0.091 C 
HETATM   11  O11 UNL     1     -32.647  16.409  -4.887  1.00 20.00    -0.298 OA
ENDBRANCH   8   9
TORSDOF 1
ENDMDL
MODEL 5
REMARK VINA RESULT:      -4.4      1.292      2.026
REMARK  1 active torsions:
REMARK  status: ('A' for Active; 'I' for Inactive)
REMARK    1  A    between atoms: C3_3  and  C9_9 
ROOT
HETATM    1  C1  UNL     1     -34.096  14.021  -3.476  1.00 20.00    -0.030 C 
HETATM    2  C2  UNL     1     -33.328  15.125  -3.577  1.00 20.00    -0.029 C 
HETATM    3  C4  UNL     1     -34.979  13.498  -4.592  1.00 20.00     0.032 C 
HETATM    4  C5  UNL     1     -33.277  16.019  -4.805  1.00 20.00     0.044 C 
HETATM    5  C6  UNL     1     -35.358  14.494  -7.152  1.00 20.00     0.007 C 
HETATM    6  C7  UNL     1     -34.563  15.840  -7.205  1.00 20.00     0.018 C 
HETATM    7  C8  UNL     1     -34.555  14.211  -5.862  1.00 20.00     0.005 C 
HETATM    8  C9  UNL     1     -34.538  15.764  -5.637  1.00 20.00     0.027 C 
ENDROOT
BRANCH   8   9
HETATM    9  C3  UNL     1     -35.789  16.462  -4.984  1.00 20.00     0.132 C 
HETATM   10  C10 UNL     1     -35.577  17.841  -4.421  1.00 20.00     0.091 C 
HETATM   11  O11 UNL     1     -36.886  15.909  -4.938  1.00 20.00    -0.298 OA
ENDBRANCH   8   9
TORSDOF 1
ENDMDL
MODEL 6
REMARK VINA RESULT:      -4.4      1.301      2.412
REMARK  1 active torsions:
REMARK  status: ('A' for Active; 'I' for Inactive)
REMARK    1  A    between atoms: C3_3  and  C9_9 
ROOT
HETATM    1  C1  UNL     1     -34.438  14.681  -6.190  1.00 20.00    -0.030 C 
HETATM    2  C2  UNL     1     -34.844  13.660  -5.407  1.00 20.00    -0.029 C 
HETATM    3  C4  UNL     1     -34.008  16.035  -5.661  1.00 20.00     0.032 C 
HETATM    4  C5  UNL     1     -34.966  13.742  -3.895  1.00 20.00     0.044 C 
HETATM    5  C6  UNL     1     -33.851  16.936  -3.043  1.00 20.00     0.007 C 
HETATM    6  C7  UNL     1     -34.447  15.788  -2.164  1.00 20.00     0.018 C 
HETATM    7  C8  UNL     1     -33.790  15.878  -4.169  1.00 20.00     0.005 C 
HETATM    8  C9  UNL     1     -35.047  15.221  -3.499  1.00 20.00     0.027 C 
ENDROOT
BRANCH   8   9
HETATM    9  C3  UNL     1     -36.477  15.803  -3.806  1.00 20.00     0.132 C 
HETATM   10  C10 UNL     1     -37.634  14.846  -3.708  1.00 20.00     0.091 C 
HETATM   11  O11 UNL     1     -36.642  16.984  -4.109  1.00 20.00    -0.298 OA
ENDBRANCH   8   9
TORSDOF 1
ENDMDL
MODEL 7
REMARK VINA RESULT:      -4.4      1.537      3.111
REMARK  1 active torsions:
REMARK  status: ('A' for Active; 'I' for Inactive)
REMARK    1  A    between atoms: C3_3  and  C9_9 
ROOT
HETATM    1  C1  UNL     1     -36.836  16.090  -3.406  1.00 20.00    -0.030 C 
HETATM    2  C2  UNL     1     -35.831  16.540  -2.627  1.00 20.00    -0.029 C 
HETATM    3  C4  UNL     1     -36.735  14.868  -4.298  1.00 20.00     0.032 C 
HETATM    4  C5  UNL     1     -34.449  15.911  -2.570  1.00 20.00     0.044 C 
HETATM    5  C6  UNL     1     -34.605  13.133  -4.673  1.00 20.00     0.007 C 
HETATM    6  C7  UNL     1     -33.413  13.744  -3.865  1.00 20.00     0.018 C 
HETATM    7  C8  UNL     1     -35.493  14.111  -3.870  1.00 20.00     0.005 C 
HETATM    8  C9  UNL     1     -34.252  15.070  -3.836  1.00 20.00     0.027 C 
ENDROOT
BRANCH   8   9
HETATM    9  C3  UNL     1     -33.956  15.992  -5.078  1.00 20.00     0.132 C 
HETATM   10  C10 UNL     1     -33.406  17.362  -4.789  1.00 20.00     0.091 C 
HETATM   11  O11 UNL     1     -34.162  15.610  -6.229  1.00 20.00    -0.298 OA
ENDBRANCH   8   9
TORSDOF 1
ENDMDL
MODEL 8
REMARK VINA RESULT:      -4.3      1.137      3.373
REMARK  1 active torsions:
REMARK  status: ('A' for Active; 'I' for Inactive)
REMARK    1  A    between atoms: C3_3  and  C9_9 
ROOT
HETATM    1  C1  UNL     1     -33.552  17.244  -4.626  1.00 20.00    -0.030 C 
HETATM    2  C2  UNL     1     -33.817  16.934  -5.912  1.00 20.00    -0.029 C 
HETATM    3  C4  UNL     1     -33.596  16.245  -3.487  1.00 20.00     0.032 C 
HETATM    4  C5  UNL     1     -34.237  15.553  -6.387  1.00 20.00     0.044 C 
HETATM    5  C6  UNL     1     -34.172  13.533  -3.543  1.00 20.00     0.007 C 
HETATM    6  C7  UNL     1     -34.601  13.222  -5.015  1.00 20.00     0.018 C 
HETATM    7  C8  UNL     1     -33.627  14.864  -4.112  1.00 20.00     0.005 C 
HETATM    8  C9  UNL     1     -34.773  14.773  -5.181  1.00 20.00     0.027 C 
ENDROOT
BRANCH   8   9
HETATM    9  C3  UNL     1     -36.222  15.258  -4.801  1.00 20.00     0.132 C 
HETATM   10  C10 UNL     1     -37.162  15.539  -5.942  1.00 20.00     0.091 C 
HETATM   11  O11 UNL     1     -36.569  15.399  -3.630  1.00 20.00    -0.298 OA
ENDBRANCH   8   9
TORSDOF 1
ENDMDL
MODEL 9
REMARK VINA RESULT:      -4.3      1.560      3.116
REMARK  1 active torsions:
REMARK  status: ('A' for Active; 'I' for Inactive)
REMARK    1  A    between atoms: C3_3  and  C9_9 
ROOT
HETATM    1  C1  UNL     1     -34.599  17.040  -6.308  1.00 20.00    -0.030 C 
HETATM    2  C2  UNL     1     -35.494  17.355  -5.350  1.00 20.00    -0.029 C 
HETATM    3  C4  UNL     1     -34.054  15.643  -6.533  1.00 20.00     0.032 C 
HETATM    4  C5  UNL     1     -36.044  16.364  -4.338  1.00 20.00     0.044 C 
HETATM    5  C6  UNL     1     -34.634  13.289  -5.187  1.00 20.00     0.007 C 
HETATM    6  C7  UNL     1     -35.570  13.698  -4.003  1.00 20.00     0.018 C 
HETATM    7  C8  UNL     1     -34.945  14.692  -5.757  1.00 20.00     0.005 C 
HETATM    8  C9  UNL     1     -35.089  15.168  -4.269  1.00 20.00     0.027 C 
ENDROOT
BRANCH   8   9
HETATM    9  C3  UNL     1     -33.796  15.532  -3.448  1.00 20.00     0.132 C 
HETATM   10  C10 UNL     1     -33.993  16.363  -2.209  1.00 20.00     0.091 C 
HETATM   11  O11 UNL     1     -32.680  15.155  -3.800  1.00 20.00    -0.298 OA
ENDBRANCH   8   9
TORSDOF 1
ENDMDL
