MODEL 1
REMARK VINA RESULT:      -5.1      0.000      0.000
REMARK  1 active torsions:
REMARK  status: ('A' for Active; 'I' for Inactive)
REMARK    1  A    between atoms: C4_4  and  C7_7 
ROOT
HETATM    1  C1  UNL     1     -33.385  13.943  -3.757  1.00 20.00     0.047 C 
HETATM    2  C2  UNL     1     -33.084  15.154  -3.274  1.00 20.00    -0.006 C 
HETATM    3  C3  UNL     1     -34.776  13.620  -4.150  1.00 20.00     0.149 C 
HETATM    4  C5  UNL     1     -35.817  14.714  -4.090  1.00 20.00     0.088 C 
HETATM    5  C6  UNL     1     -35.530  15.711  -2.960  1.00 20.00     0.007 C 
HETATM    6  C7  UNL     1     -34.080  16.263  -3.023  1.00 20.00     0.031 C 
HETATM    7  C8  UNL     1     -36.611  16.798  -2.940  1.00 20.00     0.012 C 
HETATM    8  C9  UNL     1     -33.713  16.994  -1.722  1.00 20.00     0.027 C 
HETATM    9  O10 UNL     1     -35.044  12.497  -4.572  1.00 20.00    -0.293 OA
ENDROOT
BRANCH   6  10
HETATM   10  C4  UNL     1     -33.876  17.213  -4.177  1.00 20.00     0.244 C 
HETATM   11  O11 UNL     1     -33.017  17.056  -5.037  1.00 20.00    -0.306 OA
ENDBRANCH   6  10
TORSDOF 1
ENDMDL
MODEL 2
REMARK VINA RESULT:      -5.0      1.393      2.222
REMARK  1 active torsions:
REMARK  status: ('A' for Active; 'I' for Inactive)
REMARK    1  A    between atoms: C4_4  and  C7_7 
ROOT
HETATM    1  C1  UNL     1     -35.672  13.769  -4.725  1.00 20.00     0.047 C 
HETATM    2  C2  UNL     1     -34.369  14.068  -4.773  1.00 20.00    -0.006 C 
HETATM    3  C3  UNL     1     -36.577  14.514  -3.820  1.00 20.00     0.149 C 
HETATM    4  C5  UNL     1     -36.018  15.679  -3.037  1.00 20.00     0.088 C 
HETATM    5  C6  UNL     1     -34.544  15.463  -2.672  1.00 20.00     0.007 C 
HETATM    6  C7  UNL     1     -33.682  15.103  -3.913  1.00 20.00     0.031 C 
HETATM    7  C8  UNL     1     -34.023  16.668  -1.880  1.00 20.00     0.012 C 
HETATM    8  C9  UNL     1     -32.300  14.581  -3.490  1.00 20.00     0.027 C 
HETATM    9  O10 UNL     1     -37.769  14.215  -3.770  1.00 20.00    -0.293 OA
ENDROOT
BRANCH   6  10
HETATM   10  C4  UNL     1     -33.484  16.280  -4.836  1.00 20.00     0.244 C 
HETATM   11  O11 UNL     1     -33.672  16.228  -6.046  1.00 20.00    -0.306 OA
ENDBRANCH   6  10
TORSDOF 1
ENDMDL
MODEL 3
REMARK VINA RESULT:      -4.7      1.911      3.313
REMARK  1 active torsions:
REMARK  status: ('A' for Active; 'I' for Inactive)
REMARK    1  A    between atoms: C4_4  and  C7_7 
ROOT
HETATM    1  C1  UNL     1     -33.446  15.516  -3.032  1.00 20.00     0.047 C 
HETATM    2  C2  UNL     1     -33.438  15.108  -4.306  1.00 20.00    -0.006 C 
HETATM    3  C3  UNL     1     -34.724  15.844  -2.360  1.00 20.00     0.149 C 
HETATM    4  C5  UNL     1     -36.016  15.608  -3.110  1.00 20.00     0.088 C 
HETATM    5  C6  UNL     1     -35.844  15.818  -4.619  1.00 20.00     0.007 C 
HETATM    6  C7  UNL     1     -34.657  14.996  -5.192  1.00 20.00     0.031 C 
HETATM    7  C8  UNL     1     -37.177  15.569  -5.333  1.00 20.00     0.012 C 
HETATM    8  C9  UNL     1     -34.302  15.460  -6.613  1.00 20.00     0.027 C 
HETATM    9  O10 UNL     1     -34.717  16.238  -1.196  1.00 20.00    -0.293 OA
ENDROOT
BRANCH   6  10
HETATM   10  C4  UNL     1     -34.951  13.517  -5.233  1.00 20.00     0.244 C 
HETATM   11  O11 UNL     1     -34.507  12.717  -4.417  1.00 20.00    -0.306 OA
ENDBRANCH   6  10
TORSDOF 1
ENDMDL
MODEL 4
REMARK VINA RESULT:      -4.7      1.664      2.337
REMARK  1 active torsions:
REMARK  status: ('A' for Active; 'I' for Inactive)
REMARK    1  A    between atoms: C4_4  and  C7_7 
ROOT
HETATM    1  C1  UNL     1     -34.640  14.517  -5.979  1.00 20.00     0.047 C 
HETATM    2  C2  UNL     1     -34.562  15.852  -5.915  1.00 20.00    -0.006 C 
HETATM    3  C3  UNL     1     -34.655  13.709  -4.739  1.00 20.00     0.149 C 
HETATM    4  C5  UNL     1     -34.685  14.426  -3.409  1.00 20.00     0.088 C 
HETATM    5  C6  UNL     1     -33.936  15.764  -3.467  1.00 20.00     0.007 C 
HETATM    6  C7  UNL     1     -34.423  16.655  -4.643  1.00 20.00     0.031 C 
HETATM    7  C8  UNL     1     -33.993  16.451  -2.098  1.00 20.00     0.012 C 
HETATM    8  C9  UNL     1     -33.459  17.827  -4.880  1.00 20.00     0.027 C 
HETATM    9  O10 UNL     1     -34.705  12.483  -4.812  1.00 20.00    -0.293 OA
ENDROOT
BRANCH   6  10
HETATM   10  C4  UNL     1     -35.804  17.214  -4.405  1.00 20.00     0.244 C 
HETATM   11  O11 UNL     1     -36.655  17.308  -5.282  1.00 20.00    -0.306 OA
ENDBRANCH   6  10
TORSDOF 1
ENDMDL
MODEL 5
REMARK VINA RESULT:      -4.6      1.854      3.172
REMARK  1 active torsions:
REMARK  status: ('A' for Active; 'I' for Inactive)
REMARK    1  A    between atoms: C4_4  and  C7_7 
ROOT
HETATM    1  C1  UNL     1     -34.804  13.467  -5.066  1.00 20.00     0.047 C 
HETATM    2  C2  UNL     1     -35.835  14.279  -5.324  1.00 20.00    -0.006 C 
HETATM    3  C3  UNL     1     -33.877  13.765  -3.950  1.00 20.00     0.149 C 
HETATM    4  C5  UNL     1     -34.182  14.943  -3.053  1.00 20.00     0.088 C 
HETATM    5  C6  UNL     1     -34.884  16.073  -3.816  1.00 20.00     0.007 C 
HETATM    6  C7  UNL     1     -36.132  15.567  -4.590  1.00 20.00     0.031 C 
HETATM    7  C8  UNL     1     -35.170  17.241  -2.866  1.00 20.00     0.012 C 
HETATM    8  C9  UNL     1     -36.624  16.624  -5.591  1.00 20.00     0.027 C 
HETATM    9  O10 UNL     1     -32.921  13.022  -3.737  1.00 20.00    -0.293 OA
ENDROOT
BRANCH   6  10
HETATM   10  C4  UNL     1     -37.274  15.214  -3.670  1.00 20.00     0.244 C 
HETATM   11  O11 UNL     1     -37.913  14.171  -3.754  1.00 20.00    -0.306 OA
ENDBRANCH   6  10
TORSDOF 1
ENDMDL
MODEL 6
REMARK VINA RESULT:      -4.5      1.680      3.921
REMARK  1 active torsions:
REMARK  status: ('A' for Active; 'I' for Inactive)
REMARK    1  A    between atoms: C4_4  and  C7_7 
ROOT
HETATM    1  C1  UNL     1     -34.280  16.358  -2.297  1.00 20.00     0.047 C 
HETATM    2  C2  UNL     1     -34.746  15.167  -2.690  1.00 20.00    -0.006 C 
HETATM    3  C3  UNL     1     -33.943  17.396  -3.298  1.00 20.00     0.149 C 
HETATM    4  C5  UNL     1     -34.235  17.118  -4.755  1.00 20.00     0.088 C 
HETATM    5  C6  UNL     1     -34.092  15.628  -5.088  1.00 20.00     0.007 C 
HETATM    6  C7  UNL     1     -34.920  14.732  -4.127  1.00 20.00     0.031 C 
HETATM    7  C8  UNL     1     -34.396  15.397  -6.573  1.00 20.00     0.012 C 
HETATM    8  C9  UNL     1     -34.517  13.256  -4.266  1.00 20.00     0.027 C 
HETATM    9  O10 UNL     1     -33.495  18.479  -2.925  1.00 20.00    -0.293 OA
ENDROOT
BRANCH   6  10
HETATM   10  C4  UNL     1     -36.404  14.845  -4.372  1.00 20.00     0.244 C 
HETATM   11  O11 UNL     1     -37.235  14.125  -3.830  1.00 20.00    -0.306 OA
ENDBRANCH   6  10
TORSDOF 1
ENDMDL
MODEL 7
REMARK VINA RESULT:      -4.5      1.444      3.607
REMARK  1 active torsions:
REMARK  status: ('A' for Active; 'I' for Inactive)
REMARK    1  A    between atoms: C4_4  and  C7_7 
ROOT
HETATM    1  C1  UNL     1     -34.013  16.227  -6.211  1.00 20.00     0.047 C 
HETATM    2  C2  UNL     1     -34.380  15.069  -5.652  1.00 20.00    -0.006 C 
HETATM    3  C3  UNL     1     -33.731  17.410  -5.366  1.00 20.00     0.149 C 
HETATM    4  C5  UNL     1     -33.768  17.250  -3.863  1.00 20.00     0.088 C 
HETATM    5  C6  UNL     1     -34.797  16.199  -3.429  1.00 20.00     0.007 C 
HETATM    6  C7  UNL     1     -34.604  14.849  -4.173  1.00 20.00     0.031 C 
HETATM    7  C8  UNL     1     -34.797  16.073  -1.901  1.00 20.00     0.012 C 
HETATM    8  C9  UNL     1     -35.818  13.930  -3.970  1.00 20.00     0.027 C 
HETATM    9  O10 UNL     1     -33.415  18.474  -5.893  1.00 20.00    -0.293 OA
ENDROOT
BRANCH   6  10
HETATM   10  C4  UNL     1     -33.368  14.113  -3.717  1.00 20.00     0.244 C 
HETATM   11  O11 UNL     1     -33.130  12.946  -4.009  1.00 20.00    -0.306 OA
ENDBRANCH   6  10
TORSDOF 1
ENDMDL
MODEL 8
REMARK VINA RESULT:      -4.4      1.957      3.400
REMARK  1 active torsions:
REMARK  status: ('A' for Active; 'I' for Inactive)
REMARK    1  A    between atoms: C4_4  and  C7_7 
ROOT
HETATM    1  C1  UNL     1     -37.395  14.917  -4.596  1.00 20.00     0.047 C 
HETATM    2  C2  UNL     1     -36.546  14.788  -3.570  1.00 20.00    -0.006 C 
HETATM    3  C3  UNL     1     -36.909  15.383  -5.915  1.00 20.00     0.149 C 
HETATM    4  C5  UNL     1     -35.426  15.606  -6.101  1.00 20.00     0.088 C 
HETATM    5  C6  UNL     1     -34.755  16.076  -4.805  1.00 20.00     0.007 C 
HETATM    6  C7  UNL     1     -35.076  15.140  -3.608  1.00 20.00     0.031 C 
HETATM    7  C8  UNL     1     -33.256  16.290  -5.044  1.00 20.00     0.012 C 
HETATM    8  C9  UNL     1     -34.673  15.791  -2.276  1.00 20.00     0.027 C 
HETATM    9  O10 UNL     1     -37.704  15.518  -6.844  1.00 20.00    -0.293 OA
ENDROOT
BRANCH   6  10
HETATM   10  C4  UNL     1     -34.378  13.808  -3.717  1.00 20.00     0.244 C 
HETATM   11  O11 UNL     1     -34.928  12.787  -4.117  1.00 20.00    -0.306 OA
ENDBRANCH   6  10
TORSDOF 1
ENDMDL
MODEL 9
REMARK VINA RESULT:      -4.4      1.127      1.221
REMARK  1 active torsions:
REMARK  status: ('A' for Active; 'I' for Inactive)
REMARK    1  A    between atoms: C4_4  and  C7_7 
ROOT
HETATM    1  C1  UNL     1     -33.997  14.099  -3.431  1.00 20.00     0.047 C 
HETATM    2  C2  UNL     1     -33.979  15.389  -3.075  1.00 20.00    -0.006 C 
HETATM    3  C3  UNL     1     -34.854  13.644  -4.549  1.00 20.00     0.149 C 
HETATM    4  C5  UNL     1     -35.620  14.679  -5.341  1.00 20.00     0.088 C 
HETATM    5  C6  UNL     1     -36.034  15.870  -4.468  1.00 20.00     0.007 C 
HETATM    6  C7  UNL     1     -34.829  16.474  -3.695  1.00 20.00     0.031 C 
HETATM    7  C8  UNL     1     -36.807  16.889  -5.313  1.00 20.00     0.012 C 
HETATM    8  C9  UNL     1     -35.307  17.438  -2.598  1.00 20.00     0.027 C 
HETATM    9  O10 UNL     1     -34.878  12.452  -4.852  1.00 20.00    -0.293 OA
ENDROOT
BRANCH   6  10
HETATM   10  C4  UNL     1     -33.880  17.217  -4.602  1.00 20.00     0.244 C 
HETATM   11  O11 UNL     1     -32.863  16.717  -5.071  1.00 20.00    -0.306 OA
ENDBRANCH   6  10
TORSDOF 1
ENDMDL
