MODEL 1
REMARK VINA RESULT:      -4.3      0.000      0.000
REMARK  1 active torsions:
REMARK  status: ('A' for Active; 'I' for Inactive)
REMARK    1  A    between atoms: C1_1  and  C5_5 
ROOT
HETATM    1  C2  UNL     1     -36.102  15.463  -4.253  1.00 20.00     0.015 C 
HETATM    2  C3  UNL     1     -35.740  16.946  -4.215  1.00 20.00     0.026 C 
HETATM    3  C4  UNL     1     -34.197  15.863  -2.758  1.00 20.00     0.038 C 
HETATM    4  C5  UNL     1     -35.184  14.786  -3.229  1.00 20.00     0.074 C 
HETATM    5  C6  UNL     1     -34.266  16.973  -3.813  1.00 20.00     0.034 C 
HETATM    6  C7  UNL     1     -33.824  18.329  -3.278  1.00 20.00     0.032 C 
HETATM    7 CL10 UNL     1     -33.235  16.549  -5.225  1.00 20.00    -0.120 Cl
ENDROOT
BRANCH   4   8
HETATM    8  C1  UNL     1     -34.474  13.607  -3.824  1.00 20.00     0.223 C 
HETATM    9  O8  UNL     1     -35.076  12.741  -4.454  1.00 20.00    -0.279 OA
HETATM   10 CL9  UNL     1     -32.766  13.644  -3.508  1.00 20.00    -0.043 Cl
ENDBRANCH   4   8
TORSDOF 1
ENDMDL
MODEL 2
REMARK VINA RESULT:      -4.3      1.492      2.013
REMARK  1 active torsions:
REMARK  status: ('A' for Active; 'I' for Inactive)
REMARK    1  A    between atoms: C1_1  and  C5_5 
ROOT
HETATM    1  C2  UNL     1     -33.313  15.948  -4.708  1.00 20.00     0.015 C 
HETATM    2  C3  UNL     1     -33.908  17.229  -4.129  1.00 20.00     0.026 C 
HETATM    3  C4  UNL     1     -35.713  15.679  -4.265  1.00 20.00     0.038 C 
HETATM    4  C5  UNL     1     -34.497  14.992  -4.902  1.00 20.00     0.074 C 
HETATM    5  C6  UNL     1     -35.138  16.766  -3.349  1.00 20.00     0.034 C 
HETATM    6  C7  UNL     1     -36.124  17.894  -3.075  1.00 20.00     0.032 C 
HETATM    7 CL10 UNL     1     -34.636  16.048  -1.778  1.00 20.00    -0.120 Cl
ENDROOT
BRANCH   4   8
HETATM    8  C1  UNL     1     -34.229  13.655  -4.281  1.00 20.00     0.223 C 
HETATM    9  O8  UNL     1     -35.030  12.728  -4.373  1.00 20.00    -0.279 OA
HETATM   10 CL9  UNL     1     -32.700  13.611  -3.456  1.00 20.00    -0.043 Cl
ENDBRANCH   4   8
TORSDOF 1
ENDMDL
MODEL 3
REMARK VINA RESULT:      -4.3      1.345      1.610
REMARK  1 active torsions:
REMARK  status: ('A' for Active; 'I' for Inactive)
REMARK    1  A    between atoms: C1_1  and  C5_5 
ROOT
HETATM    1  C2  UNL     1     -36.230  15.863  -4.716  1.00 20.00     0.015 C 
HETATM    2  C3  UNL     1     -35.633  16.965  -3.843  1.00 20.00     0.026 C 
HETATM    3  C4  UNL     1     -34.785  14.916  -2.972  1.00 20.00     0.038 C 
HETATM    4  C5  UNL     1     -35.776  14.542  -4.084  1.00 20.00     0.074 C 
HETATM    5  C6  UNL     1     -34.353  16.356  -3.274  1.00 20.00     0.034 C 
HETATM    6  C7  UNL     1     -33.844  17.093  -2.041  1.00 20.00     0.032 C 
HETATM    7 CL10 UNL     1     -33.058  16.364  -4.522  1.00 20.00    -0.120 Cl
ENDROOT
BRANCH   4   8
HETATM    8  C1  UNL     1     -35.150  13.635  -5.100  1.00 20.00     0.223 C 
HETATM    9  O8  UNL     1     -34.704  12.532  -4.794  1.00 20.00    -0.279 OA
HETATM   10 CL9  UNL     1     -35.148  14.336  -6.690  1.00 20.00    -0.043 Cl
ENDBRANCH   4   8
TORSDOF 1
ENDMDL
MODEL 4
REMARK VINA RESULT:      -4.3      1.830      2.082
REMARK  1 active torsions:
REMARK  status: ('A' for Active; 'I' for Inactive)
REMARK    1  A    between atoms: C1_1  and  C5_5 
ROOT
HETATM    1  C2  UNL     1     -34.159  15.177  -2.751  1.00 20.00     0.015 C 
HETATM    2  C3  UNL     1     -34.066  16.701  -2.738  1.00 20.00     0.026 C 
HETATM    3  C4  UNL     1     -33.335  16.025  -4.903  1.00 20.00     0.038 C 
HETATM    4  C5  UNL     1     -33.580  14.739  -4.102  1.00 20.00     0.074 C 
HETATM    5  C6  UNL     1     -34.170  17.107  -4.208  1.00 20.00     0.034 C 
HETATM    6  C7  UNL     1     -33.653  18.516  -4.471  1.00 20.00     0.032 C 
HETATM    7 CL10 UNL     1     -35.881  17.013  -4.753  1.00 20.00    -0.120 Cl
ENDROOT
BRANCH   4   8
HETATM    8  C1  UNL     1     -34.510  13.808  -4.820  1.00 20.00     0.223 C 
HETATM    9  O8  UNL     1     -34.984  12.818  -4.271  1.00 20.00    -0.279 OA
HETATM   10 CL9  UNL     1     -34.802  14.311  -6.458  1.00 20.00    -0.043 Cl
ENDBRANCH   4   8
TORSDOF 1
ENDMDL
MODEL 5
REMARK VINA RESULT:      -4.2      2.419      3.454
REMARK  1 active torsions:
REMARK  status: ('A' for Active; 'I' for Inactive)
REMARK    1  A    between atoms: C1_1  and  C5_5 
ROOT
HETATM    1  C2  UNL     1     -34.501  14.148  -3.464  1.00 20.00     0.015 C 
HETATM    2  C3  UNL     1     -34.345  13.651  -4.899  1.00 20.00     0.026 C 
HETATM    3  C4  UNL     1     -36.155  15.200  -4.941  1.00 20.00     0.038 C 
HETATM    4  C5  UNL     1     -35.737  15.054  -3.471  1.00 20.00     0.074 C 
HETATM    5  C6  UNL     1     -34.933  14.769  -5.760  1.00 20.00     0.034 C 
HETATM    6  C7  UNL     1     -35.294  14.306  -7.166  1.00 20.00     0.032 C 
HETATM    7 CL10 UNL     1     -33.763  16.129  -5.887  1.00 20.00    -0.120 Cl
ENDROOT
BRANCH   4   8
HETATM    8  C1  UNL     1     -35.445  16.384  -2.844  1.00 20.00     0.223 C 
HETATM    9  O8  UNL     1     -35.767  17.438  -3.386  1.00 20.00    -0.279 OA
HETATM   10 CL9  UNL     1     -34.629  16.223  -1.318  1.00 20.00    -0.043 Cl
ENDBRANCH   4   8
TORSDOF 1
ENDMDL
MODEL 6
REMARK VINA RESULT:      -4.1      2.177      2.510
REMARK  1 active torsions:
REMARK  status: ('A' for Active; 'I' for Inactive)
REMARK    1  A    between atoms: C1_1  and  C5_5 
ROOT
HETATM    1  C2  UNL     1     -34.925  14.319  -6.718  1.00 20.00     0.015 C 
HETATM    2  C3  UNL     1     -34.545  15.673  -7.315  1.00 20.00     0.026 C 
HETATM    3  C4  UNL     1     -35.788  16.159  -5.342  1.00 20.00     0.038 C 
HETATM    4  C5  UNL     1     -35.821  14.634  -5.515  1.00 20.00     0.074 C 
HETATM    5  C6  UNL     1     -34.562  16.636  -6.129  1.00 20.00     0.034 C 
HETATM    6  C7  UNL     1     -34.661  18.096  -6.553  1.00 20.00     0.032 C 
HETATM    7 CL10 UNL     1     -33.073  16.425  -5.142  1.00 20.00    -0.120 Cl
ENDROOT
BRANCH   4   8
HETATM    8  C1  UNL     1     -35.349  13.927  -4.280  1.00 20.00     0.223 C 
HETATM    9  O8  UNL     1     -35.065  12.732  -4.289  1.00 20.00    -0.279 OA
HETATM   10 CL9  UNL     1     -35.265  14.991  -2.908  1.00 20.00    -0.043 Cl
ENDBRANCH   4   8
TORSDOF 1
ENDMDL
MODEL 7
REMARK VINA RESULT:      -4.0     11.301     12.766
REMARK  1 active torsions:
REMARK  status: ('A' for Active; 'I' for Inactive)
REMARK    1  A    between atoms: C1_1  and  C5_5 
ROOT
HETATM    1  C2  UNL     1     -41.208   7.284  -1.469  1.00 20.00     0.015 C 
HETATM    2  C3  UNL     1     -40.996   6.279  -0.338  1.00 20.00     0.026 C 
HETATM    3  C4  UNL     1     -43.245   5.975  -1.064  1.00 20.00     0.038 C 
HETATM    4  C5  UNL     1     -42.687   7.166  -1.855  1.00 20.00     0.074 C 
HETATM    5  C6  UNL     1     -42.019   5.176  -0.605  1.00 20.00     0.034 C 
HETATM    6  C7  UNL     1     -42.296   4.317   0.622  1.00 20.00     0.032 C 
HETATM    7 CL10 UNL     1     -41.443   4.110  -1.934  1.00 20.00    -0.120 Cl
ENDROOT
BRANCH   4   8
HETATM    8  C1  UNL     1     -42.854   6.975  -3.333  1.00 20.00     0.223 C 
HETATM    9  O8  UNL     1     -43.392   5.975  -3.798  1.00 20.00    -0.279 OA
HETATM   10 CL9  UNL     1     -42.208   8.309  -4.242  1.00 20.00    -0.043 Cl
ENDBRANCH   4   8
TORSDOF 1
ENDMDL
MODEL 8
REMARK VINA RESULT:      -4.0      2.153      2.795
REMARK  1 active torsions:
REMARK  status: ('A' for Active; 'I' for Inactive)
REMARK    1  A    between atoms: C1_1  and  C5_5 
ROOT
HETATM    1  C2  UNL     1     -33.889  15.699  -6.120  1.00 20.00     0.015 C 
HETATM    2  C3  UNL     1     -34.861  16.848  -6.382  1.00 20.00     0.026 C 
HETATM    3  C4  UNL     1     -36.215  14.926  -5.993  1.00 20.00     0.038 C 
HETATM    4  C5  UNL     1     -34.758  14.443  -5.984  1.00 20.00     0.074 C 
HETATM    5  C6  UNL     1     -36.153  16.426  -5.683  1.00 20.00     0.034 C 
HETATM    6  C7  UNL     1     -37.373  17.187  -6.187  1.00 20.00     0.032 C 
HETATM    7 CL10 UNL     1     -36.007  16.686  -3.909  1.00 20.00    -0.120 Cl
ENDROOT
BRANCH   4   8
HETATM    8  C1  UNL     1     -34.434  13.685  -4.732  1.00 20.00     0.223 C 
HETATM    9  O8  UNL     1     -35.013  12.642  -4.441  1.00 20.00    -0.279 OA
HETATM   10 CL9  UNL     1     -33.184  14.458  -3.804  1.00 20.00    -0.043 Cl
ENDBRANCH   4   8
TORSDOF 1
ENDMDL
MODEL 9
REMARK VINA RESULT:      -4.0      1.697      2.197
REMARK  1 active torsions:
REMARK  status: ('A' for Active; 'I' for Inactive)
REMARK    1  A    between atoms: C1_1  and  C5_5 
ROOT
HETATM    1  C2  UNL     1     -36.788  14.718  -3.906  1.00 20.00     0.015 C 
HETATM    2  C3  UNL     1     -37.237  15.796  -4.890  1.00 20.00     0.026 C 
HETATM    3  C4  UNL     1     -34.861  15.955  -4.791  1.00 20.00     0.038 C 
HETATM    4  C5  UNL     1     -35.273  14.898  -3.757  1.00 20.00     0.074 C 
HETATM    5  C6  UNL     1     -36.023  16.027  -5.789  1.00 20.00     0.034 C 
HETATM    6  C7  UNL     1     -36.083  17.354  -6.535  1.00 20.00     0.032 C 
HETATM    7 CL10 UNL     1     -35.887  14.697  -6.994  1.00 20.00    -0.120 Cl
ENDROOT
BRANCH   4   8
HETATM    8  C1  UNL     1     -34.544  13.605  -3.967  1.00 20.00     0.223 C 
HETATM    9  O8  UNL     1     -35.120  12.597  -4.367  1.00 20.00    -0.279 OA
HETATM   10 CL9  UNL     1     -32.854  13.736  -3.581  1.00 20.00    -0.043 Cl
ENDBRANCH   4   8
TORSDOF 1
ENDMDL
