MODEL 1
REMARK VINA RESULT:      -4.1      0.000      0.000
REMARK  1 active torsions:
REMARK  status: ('A' for Active; 'I' for Inactive)
REMARK    1  A    between atoms: C2_2  and  C4_4 
ROOT
HETATM    1  C1  UNL     1     -34.159  15.983  -2.695  1.00 20.00     0.131 C 
HETATM    2  C3  UNL     1     -33.319  15.905  -4.696  1.00 20.00     0.191 C 
HETATM    3  C4  UNL     1     -33.480  14.499  -4.155  1.00 20.00     0.219 C 
HETATM    4  C5  UNL     1     -34.741  16.386  -1.390  1.00 20.00     0.099 C 
HETATM    5  N7  UNL     1     -33.946  16.779  -3.693  1.00 20.00    -0.268 NA
HETATM    6  O9  UNL     1     -33.856  14.671  -2.802  1.00 20.00    -0.323 OA
ENDROOT
BRANCH   3   7
HETATM    7  C2  UNL     1     -34.586  13.747  -4.824  1.00 20.00     0.153 C 
HETATM    8  C6  UNL     1     -35.087  14.303  -6.131  1.00 20.00     0.093 C 
HETATM    9  O8  UNL     1     -35.062  12.725  -4.333  1.00 20.00    -0.295 OA
ENDBRANCH   3   7
TORSDOF 1
ENDMDL
MODEL 2
REMARK VINA RESULT:      -4.1      1.421      1.553
REMARK  1 active torsions:
REMARK  status: ('A' for Active; 'I' for Inactive)
REMARK    1  A    between atoms: C2_2  and  C4_4 
ROOT
HETATM    1  C1  UNL     1     -34.644  16.334  -2.162  1.00 20.00     0.131 C 
HETATM    2  C3  UNL     1     -35.201  16.016  -4.237  1.00 20.00     0.191 C 
HETATM    3  C4  UNL     1     -33.847  15.390  -3.970  1.00 20.00     0.219 C 
HETATM    4  C5  UNL     1     -34.584  16.705  -0.726  1.00 20.00     0.099 C 
HETATM    5  N7  UNL     1     -35.682  16.472  -2.925  1.00 20.00    -0.268 NA
HETATM    6  O9  UNL     1     -33.505  15.807  -2.663  1.00 20.00    -0.323 OA
ENDROOT
BRANCH   3   7
HETATM    7  C2  UNL     1     -33.898  13.895  -3.954  1.00 20.00     0.153 C 
HETATM    8  C6  UNL     1     -35.184  13.257  -4.404  1.00 20.00     0.093 C 
HETATM    9  O8  UNL     1     -32.935  13.220  -3.592  1.00 20.00    -0.295 OA
ENDBRANCH   3   7
TORSDOF 1
ENDMDL
MODEL 3
REMARK VINA RESULT:      -3.9      1.793      3.633
REMARK  1 active torsions:
REMARK  status: ('A' for Active; 'I' for Inactive)
REMARK    1  A    between atoms: C2_2  and  C4_4 
ROOT
HETATM    1  C1  UNL     1     -35.539  14.455  -6.307  1.00 20.00     0.131 C 
HETATM    2  C3  UNL     1     -36.396  14.471  -4.312  1.00 20.00     0.191 C 
HETATM    3  C4  UNL     1     -35.269  13.460  -4.375  1.00 20.00     0.219 C 
HETATM    4  C5  UNL     1     -35.189  14.704  -7.728  1.00 20.00     0.099 C 
HETATM    5  N7  UNL     1     -36.367  15.163  -5.609  1.00 20.00    -0.268 NA
HETATM    6  O9  UNL     1     -34.910  13.401  -5.741  1.00 20.00    -0.323 OA
ENDROOT
BRANCH   3   7
HETATM    7  C2  UNL     1     -34.055  13.904  -3.622  1.00 20.00     0.153 C 
HETATM    8  C6  UNL     1     -34.144  15.229  -2.915  1.00 20.00     0.093 C 
HETATM    9  O8  UNL     1     -33.034  13.219  -3.582  1.00 20.00    -0.295 OA
ENDBRANCH   3   7
TORSDOF 1
ENDMDL
MODEL 4
REMARK VINA RESULT:      -3.9     12.078     12.512
REMARK  1 active torsions:
REMARK  status: ('A' for Active; 'I' for Inactive)
REMARK    1  A    between atoms: C2_2  and  C4_4 
ROOT
HETATM    1  C1  UNL     1     -34.595   5.200   5.285  1.00 20.00     0.131 C 
HETATM    2  C3  UNL     1     -34.866   5.607   3.169  1.00 20.00     0.191 C 
HETATM    3  C4  UNL     1     -33.939   6.642   3.773  1.00 20.00     0.219 C 
HETATM    4  C5  UNL     1     -34.616   4.641   6.660  1.00 20.00     0.099 C 
HETATM    5  N7  UNL     1     -35.103   4.628   4.241  1.00 20.00    -0.268 NA
HETATM    6  O9  UNL     1     -33.977   6.395   5.165  1.00 20.00    -0.323 OA
ENDROOT
BRANCH   3   7
HETATM    7  C2  UNL     1     -32.519   6.468   3.337  1.00 20.00     0.153 C 
HETATM    8  C6  UNL     1     -31.615   7.662   3.486  1.00 20.00     0.093 C 
HETATM    9  O8  UNL     1     -32.109   5.402   2.880  1.00 20.00    -0.295 OA
ENDBRANCH   3   7
TORSDOF 1
ENDMDL
MODEL 5
REMARK VINA RESULT:      -3.8      1.574      2.155
REMARK  1 active torsions:
REMARK  status: ('A' for Active; 'I' for Inactive)
REMARK    1  A    between atoms: C2_2  and  C4_4 
ROOT
HETATM    1  C1  UNL     1     -33.651  16.555  -4.538  1.00 20.00     0.131 C 
HETATM    2  C3  UNL     1     -32.894  14.732  -3.632  1.00 20.00     0.191 C 
HETATM    3  C4  UNL     1     -34.347  14.927  -3.249  1.00 20.00     0.219 C 
HETATM    4  C5  UNL     1     -33.844  17.815  -5.300  1.00 20.00     0.099 C 
HETATM    5  N7  UNL     1     -32.606  15.795  -4.607  1.00 20.00    -0.268 NA
HETATM    6  O9  UNL     1     -34.681  16.214  -3.733  1.00 20.00    -0.323 OA
ENDROOT
BRANCH   3   7
HETATM    7  C2  UNL     1     -35.257  13.954  -3.928  1.00 20.00     0.153 C 
HETATM    8  C6  UNL     1     -36.670  14.411  -4.176  1.00 20.00     0.093 C 
HETATM    9  O8  UNL     1     -34.871  12.838  -4.269  1.00 20.00    -0.295 OA
ENDBRANCH   3   7
TORSDOF 1
ENDMDL
MODEL 6
REMARK VINA RESULT:      -3.8      2.173      3.202
REMARK  1 active torsions:
REMARK  status: ('A' for Active; 'I' for Inactive)
REMARK    1  A    between atoms: C2_2  and  C4_4 
ROOT
HETATM    1  C1  UNL     1     -36.196  14.360  -4.237  1.00 20.00     0.131 C 
HETATM    2  C3  UNL     1     -34.402  13.327  -4.893  1.00 20.00     0.191 C 
HETATM    3  C4  UNL     1     -34.129  14.814  -4.800  1.00 20.00     0.219 C 
HETATM    4  C5  UNL     1     -37.554  14.737  -3.772  1.00 20.00     0.099 C 
HETATM    5  N7  UNL     1     -35.756  13.148  -4.349  1.00 20.00    -0.268 NA
HETATM    6  O9  UNL     1     -35.391  15.400  -4.546  1.00 20.00    -0.323 OA
ENDROOT
BRANCH   3   7
HETATM    7  C2  UNL     1     -33.243  15.166  -3.646  1.00 20.00     0.153 C 
HETATM    8  C6  UNL     1     -33.750  16.225  -2.704  1.00 20.00     0.093 C 
HETATM    9  O8  UNL     1     -32.157  14.616  -3.475  1.00 20.00    -0.295 OA
ENDBRANCH   3   7
TORSDOF 1
ENDMDL
MODEL 7
REMARK VINA RESULT:      -3.8      2.771      3.350
REMARK  1 active torsions:
REMARK  status: ('A' for Active; 'I' for Inactive)
REMARK    1  A    between atoms: C2_2  and  C4_4 
ROOT
HETATM    1  C1  UNL     1     -38.111  14.976  -4.405  1.00 20.00     0.131 C 
HETATM    2  C3  UNL     1     -36.236  16.069  -4.306  1.00 20.00     0.191 C 
HETATM    3  C4  UNL     1     -36.045  14.675  -3.744  1.00 20.00     0.219 C 
HETATM    4  C5  UNL     1     -39.508  14.527  -4.631  1.00 20.00     0.099 C 
HETATM    5  N7  UNL     1     -37.604  16.084  -4.845  1.00 20.00    -0.268 NA
HETATM    6  O9  UNL     1     -37.347  14.123  -3.689  1.00 20.00    -0.323 OA
ENDROOT
BRANCH   3   7
HETATM    7  C2  UNL     1     -35.236  13.796  -4.644  1.00 20.00     0.153 C 
HETATM    8  C6  UNL     1     -34.582  14.460  -5.827  1.00 20.00     0.093 C 
HETATM    9  O8  UNL     1     -35.109  12.592  -4.429  1.00 20.00    -0.295 OA
ENDBRANCH   3   7
TORSDOF 1
ENDMDL
MODEL 8
REMARK VINA RESULT:      -3.7      1.953      3.591
REMARK  1 active torsions:
REMARK  status: ('A' for Active; 'I' for Inactive)
REMARK    1  A    between atoms: C2_2  and  C4_4 
ROOT
HETATM    1  C1  UNL     1     -34.474  14.474  -5.577  1.00 20.00     0.131 C 
HETATM    2  C3  UNL     1     -33.902  13.583  -3.681  1.00 20.00     0.191 C 
HETATM    3  C4  UNL     1     -33.876  15.093  -3.563  1.00 20.00     0.219 C 
HETATM    4  C5  UNL     1     -34.909  14.745  -6.970  1.00 20.00     0.099 C 
HETATM    5  N7  UNL     1     -34.459  13.309  -5.014  1.00 20.00    -0.268 NA
HETATM    6  O9  UNL     1     -34.082  15.564  -4.880  1.00 20.00    -0.323 OA
ENDROOT
BRANCH   3   7
HETATM    7  C2  UNL     1     -34.996  15.625  -2.727  1.00 20.00     0.153 C 
HETATM    8  C6  UNL     1     -34.613  16.360  -1.470  1.00 20.00     0.093 C 
HETATM    9  O8  UNL     1     -36.173  15.472  -3.052  1.00 20.00    -0.295 OA
ENDBRANCH   3   7
TORSDOF 1
ENDMDL
MODEL 9
REMARK VINA RESULT:      -3.6      1.693      2.037
REMARK  1 active torsions:
REMARK  status: ('A' for Active; 'I' for Inactive)
REMARK    1  A    between atoms: C2_2  and  C4_4 
ROOT
HETATM    1  C1  UNL     1     -34.523  15.116  -2.974  1.00 20.00     0.131 C 
HETATM    2  C3  UNL     1     -34.025  13.585  -4.432  1.00 20.00     0.191 C 
HETATM    3  C4  UNL     1     -35.503  13.907  -4.516  1.00 20.00     0.219 C 
HETATM    4  C5  UNL     1     -34.515  16.153  -1.912  1.00 20.00     0.099 C 
HETATM    5  N7  UNL     1     -33.470  14.560  -3.482  1.00 20.00    -0.268 NA
HETATM    6  O9  UNL     1     -35.750  14.767  -3.421  1.00 20.00    -0.323 OA
ENDROOT
BRANCH   3   7
HETATM    7  C2  UNL     1     -35.857  14.666  -5.756  1.00 20.00     0.153 C 
HETATM    8  C6  UNL     1     -34.824  14.691  -6.851  1.00 20.00     0.093 C 
HETATM    9  O8  UNL     1     -36.939  15.239  -5.875  1.00 20.00    -0.295 OA
ENDBRANCH   3   7
TORSDOF 1
ENDMDL
