MODEL 1
REMARK VINA RESULT:      -4.0      0.000      0.000
REMARK  1 active torsions:
REMARK  status: ('A' for Active; 'I' for Inactive)
REMARK    1  A    between atoms: C1_1  and  C3_3 
ROOT
HETATM    1  C2  UNL     1     -36.340  16.844  -3.332  1.00 20.00     0.090 C 
HETATM    2  C3  UNL     1     -35.018  14.937  -4.713  1.00 20.00     0.195 C 
HETATM    3  C4  UNL     1     -34.881  16.990  -2.918  1.00 20.00     0.054 C 
HETATM    4  C5  UNL     1     -34.559  16.348  -1.571  1.00 20.00     0.022 C 
HETATM    5  S7  UNL     1     -36.627  15.154  -3.924  1.00 20.00    -0.143 SA
HETATM    6  S8  UNL     1     -33.870  16.253  -4.242  1.00 20.00    -0.139 SA
ENDROOT
BRANCH   2   7
HETATM    7  C1  UNL     1     -34.450  13.628  -4.283  1.00 20.00     0.242 C 
HETATM    8  O6  UNL     1     -35.065  12.577  -4.434  1.00 20.00    -0.278 OA
HETATM    9 CL9  UNL     1     -32.874  13.801  -3.575  1.00 20.00    -0.042 Cl
ENDBRANCH   2   7
TORSDOF 1
ENDMDL
MODEL 2
REMARK VINA RESULT:      -3.9      1.885      1.885
REMARK  1 active torsions:
REMARK  status: ('A' for Active; 'I' for Inactive)
REMARK    1  A    between atoms: C1_1  and  C3_3 
ROOT
HETATM    1  C2  UNL     1     -34.220  17.493  -4.002  1.00 20.00     0.090 C 
HETATM    2  C3  UNL     1     -34.438  14.936  -4.843  1.00 20.00     0.195 C 
HETATM    3  C4  UNL     1     -33.599  16.654  -2.893  1.00 20.00     0.054 C 
HETATM    4  C5  UNL     1     -34.529  16.425  -1.704  1.00 20.00     0.022 C 
HETATM    5  S7  UNL     1     -35.383  16.471  -4.946  1.00 20.00    -0.143 SA
HETATM    6  S8  UNL     1     -33.098  15.067  -3.635  1.00 20.00    -0.139 SA
ENDROOT
BRANCH   2   7
HETATM    7  C1  UNL     1     -35.355  13.840  -4.425  1.00 20.00     0.242 C 
HETATM    8  O6  UNL     1     -35.003  12.664  -4.434  1.00 20.00    -0.278 OA
HETATM    9 CL9  UNL     1     -36.915  14.439  -3.949  1.00 20.00    -0.042 Cl
ENDBRANCH   2   7
TORSDOF 1
ENDMDL
MODEL 3
REMARK VINA RESULT:      -3.9      1.450      2.006
REMARK  1 active torsions:
REMARK  status: ('A' for Active; 'I' for Inactive)
REMARK    1  A    between atoms: C1_1  and  C3_3 
ROOT
HETATM    1  C2  UNL     1     -35.008  17.432  -3.367  1.00 20.00     0.090 C 
HETATM    2  C3  UNL     1     -35.490  14.787  -3.628  1.00 20.00     0.195 C 
HETATM    3  C4  UNL     1     -34.994  17.170  -4.868  1.00 20.00     0.054 C 
HETATM    4  C5  UNL     1     -33.590  17.052  -5.456  1.00 20.00     0.022 C 
HETATM    5  S7  UNL     1     -34.631  15.892  -2.487  1.00 20.00    -0.143 SA
HETATM    6  S8  UNL     1     -35.946  15.643  -5.156  1.00 20.00    -0.139 SA
ENDROOT
BRANCH   2   7
HETATM    7  C1  UNL     1     -34.586  13.653  -3.964  1.00 20.00     0.242 C 
HETATM    8  O6  UNL     1     -35.014  12.605  -4.439  1.00 20.00    -0.278 OA
HETATM    9 CL9  UNL     1     -32.925  14.012  -3.604  1.00 20.00    -0.042 Cl
ENDBRANCH   2   7
TORSDOF 1
ENDMDL
MODEL 4
REMARK VINA RESULT:      -3.7      2.358      3.312
REMARK  1 active torsions:
REMARK  status: ('A' for Active; 'I' for Inactive)
REMARK    1  A    between atoms: C1_1  and  C3_3 
ROOT
HETATM    1  C2  UNL     1     -36.598  15.108  -5.992  1.00 20.00     0.090 C 
HETATM    2  C3  UNL     1     -35.365  14.682  -3.627  1.00 20.00     0.195 C 
HETATM    3  C4  UNL     1     -35.309  14.373  -6.339  1.00 20.00     0.054 C 
HETATM    4  C5  UNL     1     -34.197  15.290  -6.843  1.00 20.00     0.022 C 
HETATM    5  S7  UNL     1     -36.395  15.949  -4.398  1.00 20.00    -0.143 SA
HETATM    6  S8  UNL     1     -34.780  13.478  -4.843  1.00 20.00    -0.139 SA
ENDROOT
BRANCH   2   7
HETATM    7  C1  UNL     1     -34.187  15.343  -3.000  1.00 20.00     0.242 C 
HETATM    8  O6  UNL     1     -33.068  15.277  -3.500  1.00 20.00    -0.278 OA
HETATM    9 CL9  UNL     1     -34.608  16.177  -1.536  1.00 20.00    -0.042 Cl
ENDBRANCH   2   7
TORSDOF 1
ENDMDL
MODEL 5
REMARK VINA RESULT:      -3.6      2.122      2.940
REMARK  1 active torsions:
REMARK  status: ('A' for Active; 'I' for Inactive)
REMARK    1  A    between atoms: C1_1  and  C3_3 
ROOT
HETATM    1  C2  UNL     1     -33.595  16.894  -4.294  1.00 20.00     0.090 C 
HETATM    2  C3  UNL     1     -35.930  15.744  -3.574  1.00 20.00     0.195 C 
HETATM    3  C4  UNL     1     -34.457  16.918  -5.551  1.00 20.00     0.054 C 
HETATM    4  C5  UNL     1     -34.124  15.806  -6.543  1.00 20.00     0.022 C 
HETATM    5  S7  UNL     1     -34.172  15.570  -3.198  1.00 20.00    -0.143 SA
HETATM    6  S8  UNL     1     -36.194  16.806  -5.014  1.00 20.00    -0.139 SA
ENDROOT
BRANCH   2   7
HETATM    7  C1  UNL     1     -36.491  14.395  -3.863  1.00 20.00     0.242 C 
HETATM    8  O6  UNL     1     -37.697  14.174  -3.820  1.00 20.00    -0.278 OA
HETATM    9 CL9  UNL     1     -35.251  13.241  -4.250  1.00 20.00    -0.042 Cl
ENDBRANCH   2   7
TORSDOF 1
ENDMDL
MODEL 6
REMARK VINA RESULT:      -3.6      2.572      2.867
REMARK  1 active torsions:
REMARK  status: ('A' for Active; 'I' for Inactive)
REMARK    1  A    between atoms: C1_1  and  C3_3 
ROOT
HETATM    1  C2  UNL     1     -33.400  16.271  -4.843  1.00 20.00     0.090 C 
HETATM    2  C3  UNL     1     -35.685  14.832  -4.761  1.00 20.00     0.195 C 
HETATM    3  C4  UNL     1     -33.361  15.534  -3.509  1.00 20.00     0.054 C 
HETATM    4  C5  UNL     1     -33.771  16.400  -2.320  1.00 20.00     0.022 C 
HETATM    5  S7  UNL     1     -35.122  16.429  -5.389  1.00 20.00    -0.143 SA
HETATM    6  S8  UNL     1     -34.456  14.086  -3.662  1.00 20.00    -0.139 SA
ENDROOT
BRANCH   2   7
HETATM    7  C1  UNL     1     -36.948  15.038  -4.000  1.00 20.00     0.242 C 
HETATM    8  O6  UNL     1     -37.717  14.111  -3.763  1.00 20.00    -0.278 OA
HETATM    9 CL9  UNL     1     -37.161  16.695  -3.523  1.00 20.00    -0.042 Cl
ENDBRANCH   2   7
TORSDOF 1
ENDMDL
MODEL 7
REMARK VINA RESULT:      -3.6      1.391      2.730
REMARK  1 active torsions:
REMARK  status: ('A' for Active; 'I' for Inactive)
REMARK    1  A    between atoms: C1_1  and  C3_3 
ROOT
HETATM    1  C2  UNL     1     -35.875  17.045  -5.140  1.00 20.00     0.090 C 
HETATM    2  C3  UNL     1     -35.206  14.959  -3.562  1.00 20.00     0.195 C 
HETATM    3  C4  UNL     1     -36.895  15.959  -5.460  1.00 20.00     0.054 C 
HETATM    4  C5  UNL     1     -36.588  15.189  -6.742  1.00 20.00     0.022 C 
HETATM    5  S7  UNL     1     -34.374  16.278  -4.471  1.00 20.00    -0.143 SA
HETATM    6  S8  UNL     1     -36.950  14.834  -4.028  1.00 20.00    -0.139 SA
ENDROOT
BRANCH   2   7
HETATM    7  C1  UNL     1     -34.532  13.668  -3.873  1.00 20.00     0.242 C 
HETATM    8  O6  UNL     1     -35.157  12.698  -4.293  1.00 20.00    -0.278 OA
HETATM    9 CL9  UNL     1     -32.823  13.734  -3.571  1.00 20.00    -0.042 Cl
ENDBRANCH   2   7
TORSDOF 1
ENDMDL
MODEL 8
REMARK VINA RESULT:      -3.6      2.180      2.321
REMARK  1 active torsions:
REMARK  status: ('A' for Active; 'I' for Inactive)
REMARK    1  A    between atoms: C1_1  and  C3_3 
ROOT
HETATM    1  C2  UNL     1     -35.907  17.313  -5.770  1.00 20.00     0.090 C 
HETATM    2  C3  UNL     1     -35.816  14.644  -5.367  1.00 20.00     0.195 C 
HETATM    3  C4  UNL     1     -34.536  16.880  -6.274  1.00 20.00     0.054 C 
HETATM    4  C5  UNL     1     -33.406  17.148  -5.282  1.00 20.00     0.022 C 
HETATM    5  S7  UNL     1     -36.510  16.104  -4.562  1.00 20.00    -0.143 SA
HETATM    6  S8  UNL     1     -34.643  15.104  -6.666  1.00 20.00    -0.139 SA
ENDROOT
BRANCH   2   7
HETATM    7  C1  UNL     1     -35.104  13.829  -4.344  1.00 20.00     0.242 C 
HETATM    8  O6  UNL     1     -34.928  12.623  -4.488  1.00 20.00    -0.278 OA
HETATM    9 CL9  UNL     1     -34.586  14.787  -2.991  1.00 20.00    -0.042 Cl
ENDBRANCH   2   7
TORSDOF 1
ENDMDL
MODEL 9
REMARK VINA RESULT:      -3.6      2.028      2.496
REMARK  1 active torsions:
REMARK  status: ('A' for Active; 'I' for Inactive)
REMARK    1  A    between atoms: C1_1  and  C3_3 
ROOT
HETATM    1  C2  UNL     1     -36.589  15.820  -6.662  1.00 20.00     0.090 C 
HETATM    2  C3  UNL     1     -34.410  14.831  -5.409  1.00 20.00     0.195 C 
HETATM    3  C4  UNL     1     -36.830  16.076  -5.179  1.00 20.00     0.054 C 
HETATM    4  C5  UNL     1     -37.763  15.059  -4.526  1.00 20.00     0.022 C 
HETATM    5  S7  UNL     1     -35.427  14.441  -6.850  1.00 20.00    -0.143 SA
HETATM    6  S8  UNL     1     -35.202  16.076  -4.361  1.00 20.00    -0.139 SA
ENDROOT
BRANCH   2   7
HETATM    7  C1  UNL     1     -34.214  13.588  -4.614  1.00 20.00     0.242 C 
HETATM    8  O6  UNL     1     -34.955  12.617  -4.740  1.00 20.00    -0.278 OA
HETATM    9 CL9  UNL     1     -32.856  13.708  -3.537  1.00 20.00    -0.042 Cl
ENDBRANCH   2   7
TORSDOF 1
ENDMDL
