MODEL 1
REMARK VINA RESULT:      -5.3      0.000      0.000
REMARK  2 active torsions:
REMARK  status: ('A' for Active; 'I' for Inactive)
REMARK    1  A    between atoms: C3_3  and  C5_5 
REMARK    2  A    between atoms: C5_5  and  C9_9 
ROOT
HETATM    1  C1  UNL     1     -33.540  16.629  -4.283  1.00 20.00    -0.012 A 
HETATM    2  C2  UNL     1     -34.018  18.128  -2.316  1.00 20.00    -0.020 A 
HETATM    3  C3  UNL     1     -33.906  15.570  -3.547  1.00 20.00    -0.003 A 
HETATM    4  C4  UNL     1     -34.386  17.069  -1.573  1.00 20.00    -0.083 A 
HETATM    5  C6  UNL     1     -33.559  18.029  -3.742  1.00 20.00     0.055 A 
HETATM    6  C7  UNL     1     -34.366  15.660  -2.122  1.00 20.00     0.075 A 
HETATM    7  C8  UNL     1     -34.839  17.215  -0.150  1.00 20.00     0.043 C 
ENDROOT
BRANCH   3   8
HETATM    8  C5  UNL     1     -33.849  14.249  -4.177  1.00 20.00     0.261 C 
HETATM    9  O10 UNL     1     -33.095  13.376  -3.745  1.00 20.00    -0.283 OA
BRANCH   8  10
HETATM   10  C9  UNL     1     -34.742  14.012  -5.363  1.00 20.00     0.455 C 
HETATM   11  F11 UNL     1     -34.205  14.482  -6.516  1.00 20.00    -0.163 F 
HETATM   12  F12 UNL     1     -35.947  14.618  -5.213  1.00 20.00    -0.163 F 
HETATM   13  F13 UNL     1     -34.986  12.690  -5.554  1.00 20.00    -0.163 F 
ENDBRANCH   8  10
ENDBRANCH   3   8
TORSDOF 2
ENDMDL
MODEL 2
REMARK VINA RESULT:      -5.2      1.842      2.122
REMARK  2 active torsions:
REMARK  status: ('A' for Active; 'I' for Inactive)
REMARK    1  A    between atoms: C3_3  and  C5_5 
REMARK    2  A    between atoms: C5_5  and  C9_9 
ROOT
HETATM    1  C1  UNL     1     -35.530  16.801  -3.759  1.00 20.00    -0.012 A 
HETATM    2  C2  UNL     1     -36.192  17.843  -1.563  1.00 20.00    -0.020 A 
HETATM    3  C3  UNL     1     -34.433  16.298  -3.174  1.00 20.00    -0.003 A 
HETATM    4  C4  UNL     1     -35.092  17.341  -0.972  1.00 20.00    -0.083 A 
HETATM    5  C6  UNL     1     -36.531  17.631  -3.010  1.00 20.00     0.055 A 
HETATM    6  C7  UNL     1     -34.086  16.505  -1.730  1.00 20.00     0.075 A 
HETATM    7  C8  UNL     1     -34.793  17.578   0.479  1.00 20.00     0.043 C 
ENDROOT
BRANCH   3   8
HETATM    8  C5  UNL     1     -33.523  15.502  -4.002  1.00 20.00     0.261 C 
HETATM    9  O10 UNL     1     -32.625  16.042  -4.649  1.00 20.00    -0.283 OA
BRANCH   8  10
HETATM   10  C9  UNL     1     -33.735  14.015  -4.023  1.00 20.00     0.455 C 
HETATM   11  F11 UNL     1     -32.635  13.330  -3.622  1.00 20.00    -0.163 F 
HETATM   12  F12 UNL     1     -34.043  13.569  -5.268  1.00 20.00    -0.163 F 
HETATM   13  F13 UNL     1     -34.751  13.639  -3.206  1.00 20.00    -0.163 F 
ENDBRANCH   8  10
ENDBRANCH   3   8
TORSDOF 2
ENDMDL
MODEL 3
REMARK VINA RESULT:      -5.1      2.762      3.876
REMARK  2 active torsions:
REMARK  status: ('A' for Active; 'I' for Inactive)
REMARK    1  A    between atoms: C3_3  and  C5_5 
REMARK    2  A    between atoms: C5_5  and  C9_9 
ROOT
HETATM    1  C1  UNL     1     -35.342  14.760  -6.097  1.00 20.00    -0.012 A 
HETATM    2  C2  UNL     1     -37.783  15.310  -5.798  1.00 20.00    -0.020 A 
HETATM    3  C3  UNL     1     -35.260  14.478  -4.789  1.00 20.00    -0.003 A 
HETATM    4  C4  UNL     1     -37.704  15.028  -4.485  1.00 20.00    -0.083 A 
HETATM    5  C6  UNL     1     -36.621  15.208  -6.744  1.00 20.00     0.055 A 
HETATM    6  C7  UNL     1     -36.415  14.577  -3.838  1.00 20.00     0.075 A 
HETATM    7  C8  UNL     1     -38.893  15.143  -3.576  1.00 20.00     0.043 C 
ENDROOT
BRANCH   3   8
HETATM    8  C5  UNL     1     -33.961  14.049  -4.264  1.00 20.00     0.261 C 
HETATM    9  O10 UNL     1     -33.643  12.859  -4.262  1.00 20.00    -0.283 OA
BRANCH   8  10
HETATM   10  C9  UNL     1     -33.047  15.117  -3.733  1.00 20.00     0.455 C 
HETATM   11  F11 UNL     1     -32.825  16.105  -4.637  1.00 20.00    -0.163 F 
HETATM   12  F12 UNL     1     -31.832  14.616  -3.394  1.00 20.00    -0.163 F 
HETATM   13  F13 UNL     1     -33.554  15.709  -2.622  1.00 20.00    -0.163 F 
ENDBRANCH   8  10
ENDBRANCH   3   8
TORSDOF 2
ENDMDL
MODEL 4
REMARK VINA RESULT:      -5.0      2.978      4.006
REMARK  2 active torsions:
REMARK  status: ('A' for Active; 'I' for Inactive)
REMARK    1  A    between atoms: C3_3  and  C5_5 
REMARK    2  A    between atoms: C5_5  and  C9_9 
ROOT
HETATM    1  C1  UNL     1     -34.581  14.881  -6.916  1.00 20.00    -0.012 A 
HETATM    2  C2  UNL     1     -36.368  16.577  -7.444  1.00 20.00    -0.020 A 
HETATM    3  C3  UNL     1     -35.133  14.696  -5.709  1.00 20.00    -0.003 A 
HETATM    4  C4  UNL     1     -36.924  16.395  -6.232  1.00 20.00    -0.083 A 
HETATM    5  C6  UNL     1     -35.145  15.847  -7.918  1.00 20.00     0.055 A 
HETATM    6  C7  UNL     1     -36.354  15.421  -5.226  1.00 20.00     0.075 A 
HETATM    7  C8  UNL     1     -38.149  17.148  -5.800  1.00 20.00     0.043 C 
ENDROOT
BRANCH   3   8
HETATM    8  C5  UNL     1     -34.499  13.728  -4.810  1.00 20.00     0.261 C 
HETATM    9  O10 UNL     1     -34.755  12.527  -4.895  1.00 20.00    -0.283 OA
BRANCH   8  10
HETATM   10  C9  UNL     1     -33.534  14.265  -3.790  1.00 20.00     0.455 C 
HETATM   11  F11 UNL     1     -32.841  15.337  -4.249  1.00 20.00    -0.163 F 
HETATM   12  F12 UNL     1     -32.618  13.331  -3.425  1.00 20.00    -0.163 F 
HETATM   13  F13 UNL     1     -34.166  14.661  -2.657  1.00 20.00    -0.163 F 
ENDBRANCH   8  10
ENDBRANCH   3   8
TORSDOF 2
ENDMDL
MODEL 5
REMARK VINA RESULT:      -5.0      1.673      1.796
REMARK  2 active torsions:
REMARK  status: ('A' for Active; 'I' for Inactive)
REMARK    1  A    between atoms: C3_3  and  C5_5 
REMARK    2  A    between atoms: C5_5  and  C9_9 
ROOT
HETATM    1  C1  UNL     1     -34.454  16.990  -3.907  1.00 20.00    -0.012 A 
HETATM    2  C2  UNL     1     -33.651  18.509  -2.064  1.00 20.00    -0.020 A 
HETATM    3  C3  UNL     1     -34.901  16.128  -2.983  1.00 20.00    -0.003 A 
HETATM    4  C4  UNL     1     -34.097  17.647  -1.134  1.00 20.00    -0.083 A 
HETATM    5  C6  UNL     1     -33.778  18.281  -3.543  1.00 20.00     0.055 A 
HETATM    6  C7  UNL     1     -34.777  16.348  -1.504  1.00 20.00     0.075 A 
HETATM    7  C8  UNL     1     -33.948  17.917   0.335  1.00 20.00     0.043 C 
ENDROOT
BRANCH   3   8
HETATM    8  C5  UNL     1     -35.545  14.899  -3.452  1.00 20.00     0.261 C 
HETATM    9  O10 UNL     1     -36.760  14.738  -3.331  1.00 20.00    -0.283 OA
BRANCH   8  10
HETATM   10  C9  UNL     1     -34.663  13.855  -4.078  1.00 20.00     0.455 C 
HETATM   11  F11 UNL     1     -34.240  14.211  -5.316  1.00 20.00    -0.163 F 
HETATM   12  F12 UNL     1     -35.306  12.667  -4.208  1.00 20.00    -0.163 F 
HETATM   13  F13 UNL     1     -33.552  13.623  -3.335  1.00 20.00    -0.163 F 
ENDBRANCH   8  10
ENDBRANCH   3   8
TORSDOF 2
ENDMDL
MODEL 6
REMARK VINA RESULT:      -5.0      1.651      1.936
REMARK  2 active torsions:
REMARK  status: ('A' for Active; 'I' for Inactive)
REMARK    1  A    between atoms: C3_3  and  C5_5 
REMARK    2  A    between atoms: C5_5  and  C9_9 
ROOT
HETATM    1  C1  UNL     1     -34.471  16.953  -3.996  1.00 20.00    -0.012 A 
HETATM    2  C2  UNL     1     -33.655  18.488  -2.173  1.00 20.00    -0.020 A 
HETATM    3  C3  UNL     1     -34.904  16.095  -3.061  1.00 20.00    -0.003 A 
HETATM    4  C4  UNL     1     -34.087  17.630  -1.231  1.00 20.00    -0.083 A 
HETATM    5  C6  UNL     1     -33.797  18.248  -3.648  1.00 20.00     0.055 A 
HETATM    6  C7  UNL     1     -34.766  16.326  -1.585  1.00 20.00     0.075 A 
HETATM    7  C8  UNL     1     -33.924  17.911   0.234  1.00 20.00     0.043 C 
ENDROOT
BRANCH   3   8
HETATM    8  C5  UNL     1     -35.548  14.859  -3.514  1.00 20.00     0.261 C 
HETATM    9  O10 UNL     1     -36.758  14.688  -3.365  1.00 20.00    -0.283 OA
BRANCH   8  10
HETATM   10  C9  UNL     1     -34.671  13.823  -4.159  1.00 20.00     0.455 C 
HETATM   11  F11 UNL     1     -35.267  12.605  -4.216  1.00 20.00    -0.163 F 
HETATM   12  F12 UNL     1     -33.505  13.660  -3.484  1.00 20.00    -0.163 F 
HETATM   13  F13 UNL     1     -34.345  14.161  -5.433  1.00 20.00    -0.163 F 
ENDBRANCH   8  10
ENDBRANCH   3   8
TORSDOF 2
ENDMDL
MODEL 7
REMARK VINA RESULT:      -5.0      2.754      4.145
REMARK  2 active torsions:
REMARK  status: ('A' for Active; 'I' for Inactive)
REMARK    1  A    between atoms: C3_3  and  C5_5 
REMARK    2  A    between atoms: C5_5  and  C9_9 
ROOT
HETATM    1  C1  UNL     1     -34.779  14.382  -6.669  1.00 20.00    -0.012 A 
HETATM    2  C2  UNL     1     -37.051  15.363  -7.144  1.00 20.00    -0.020 A 
HETATM    3  C3  UNL     1     -35.018  14.501  -5.355  1.00 20.00    -0.003 A 
HETATM    4  C4  UNL     1     -37.295  15.485  -5.827  1.00 20.00    -0.083 A 
HETATM    5  C6  UNL     1     -35.777  14.802  -7.709  1.00 20.00     0.055 A 
HETATM    6  C7  UNL     1     -36.287  15.059  -4.783  1.00 20.00     0.075 A 
HETATM    7  C8  UNL     1     -38.584  16.051  -5.307  1.00 20.00     0.043 C 
ENDROOT
BRANCH   3   8
HETATM    8  C5  UNL     1     -33.973  14.058  -4.429  1.00 20.00     0.261 C 
HETATM    9  O10 UNL     1     -33.815  12.862  -4.182  1.00 20.00    -0.283 OA
BRANCH   8  10
HETATM   10  C9  UNL     1     -33.115  15.120  -3.801  1.00 20.00     0.455 C 
HETATM   11  F11 UNL     1     -31.890  14.655  -3.451  1.00 20.00    -0.163 F 
HETATM   12  F12 UNL     1     -33.682  15.623  -2.674  1.00 20.00    -0.163 F 
HETATM   13  F13 UNL     1     -32.912  16.166  -4.641  1.00 20.00    -0.163 F 
ENDBRANCH   8  10
ENDBRANCH   3   8
TORSDOF 2
ENDMDL
MODEL 8
REMARK VINA RESULT:      -5.0     12.684     14.117
REMARK  2 active torsions:
REMARK  status: ('A' for Active; 'I' for Inactive)
REMARK    1  A    between atoms: C3_3  and  C5_5 
REMARK    2  A    between atoms: C5_5  and  C9_9 
ROOT
HETATM    1  C1  UNL     1     -41.291   4.276  -1.169  1.00 20.00    -0.012 A 
HETATM    2  C2  UNL     1     -41.369   6.750  -1.639  1.00 20.00    -0.020 A 
HETATM    3  C3  UNL     1     -42.160   4.073  -2.169  1.00 20.00    -0.003 A 
HETATM    4  C4  UNL     1     -42.242   6.550  -2.643  1.00 20.00    -0.083 A 
HETATM    5  C6  UNL     1     -40.801   5.645  -0.796  1.00 20.00     0.055 A 
HETATM    6  C7  UNL     1     -42.733   5.170  -3.016  1.00 20.00     0.075 A 
HETATM    7  C8  UNL     1     -42.784   7.686  -3.461  1.00 20.00     0.043 C 
ENDROOT
BRANCH   3   8
HETATM    8  C5  UNL     1     -42.572   2.694  -2.445  1.00 20.00     0.261 C 
HETATM    9  O10 UNL     1     -43.417   2.136  -1.745  1.00 20.00    -0.283 OA
BRANCH   8  10
HETATM   10  C9  UNL     1     -41.920   2.001  -3.608  1.00 20.00     0.455 C 
HETATM   11  F11 UNL     1     -41.905   0.652  -3.464  1.00 20.00    -0.163 F 
HETATM   12  F12 UNL     1     -40.630   2.393  -3.769  1.00 20.00    -0.163 F 
HETATM   13  F13 UNL     1     -42.560   2.264  -4.776  1.00 20.00    -0.163 F 
ENDBRANCH   8  10
ENDBRANCH   3   8
TORSDOF 2
ENDMDL
MODEL 9
REMARK VINA RESULT:      -4.9      2.748      4.283
REMARK  2 active torsions:
REMARK  status: ('A' for Active; 'I' for Inactive)
REMARK    1  A    between atoms: C3_3  and  C5_5 
REMARK    2  A    between atoms: C5_5  and  C9_9 
ROOT
HETATM    1  C1  UNL     1     -34.518  14.935  -6.938  1.00 20.00    -0.012 A 
HETATM    2  C2  UNL     1     -36.995  14.987  -7.396  1.00 20.00    -0.020 A 
HETATM    3  C3  UNL     1     -34.750  15.414  -5.707  1.00 20.00    -0.003 A 
HETATM    4  C4  UNL     1     -37.232  15.469  -6.162  1.00 20.00    -0.083 A 
HETATM    5  C6  UNL     1     -35.624  14.669  -7.918  1.00 20.00     0.055 A 
HETATM    6  C7  UNL     1     -36.116  15.735  -5.178  1.00 20.00     0.075 A 
HETATM    7  C8  UNL     1     -38.621  15.773  -5.682  1.00 20.00     0.043 C 
ENDROOT
BRANCH   3   8
HETATM    8  C5  UNL     1     -33.595  15.637  -4.834  1.00 20.00     0.261 C 
HETATM    9  O10 UNL     1     -32.905  16.650  -4.947  1.00 20.00    -0.283 OA
BRANCH   8  10
HETATM   10  C9  UNL     1     -33.295  14.582  -3.806  1.00 20.00     0.455 C 
HETATM   11  F11 UNL     1     -33.571  13.331  -4.253  1.00 20.00    -0.163 F 
HETATM   12  F12 UNL     1     -34.021  14.763  -2.673  1.00 20.00    -0.163 F 
HETATM   13  F13 UNL     1     -31.988  14.589  -3.442  1.00 20.00    -0.163 F 
ENDBRANCH   8  10
ENDBRANCH   3   8
TORSDOF 2
ENDMDL
