MODEL 1
REMARK VINA RESULT:      -5.3      0.000      0.000
REMARK  3 active torsions:
REMARK  status: ('A' for Active; 'I' for Inactive)
REMARK    1  A    between atoms: C4_4  and  C5_5 
REMARK    2  A    between atoms: C6_6  and  C9_9 
REMARK    3  A    between atoms: C7_7  and  C10_10 
ROOT
HETATM    1  C1  UNL     1     -33.818   6.674   6.700  1.00 20.00    -0.029 C 
HETATM    2  C2  UNL     1     -33.225   7.208   5.629  1.00 20.00    -0.021 C 
HETATM    3  C8  UNL     1     -34.662   5.497   6.347  1.00 20.00     0.039 C 
HETATM    4  C9  UNL     1     -33.580   6.486   4.367  1.00 20.00     0.041 C 
HETATM    5  C10 UNL     1     -34.289   5.219   4.884  1.00 20.00     0.062 C 
ENDROOT
BRANCH   4   6
HETATM    6  C6  UNL     1     -32.383   6.156   3.535  1.00 20.00    -0.017 C 
HETATM    7  C5  UNL     1     -31.884   6.970   2.594  1.00 20.00    -0.004 C 
BRANCH   7   8
HETATM    8  C4  UNL     1     -32.454   8.261   2.282  1.00 20.00    -0.011 C 
HETATM    9  C3  UNL     1     -32.112   8.976   1.205  1.00 20.00     0.011 C 
ENDBRANCH   7   8
ENDBRANCH   4   6
BRANCH   5  10
HETATM   10  C7  UNL     1     -35.510   4.924   4.067  1.00 20.00     0.236 C 
HETATM   11  O11 UNL     1     -36.082   5.762   3.379  1.00 20.00    -0.306 OA
ENDBRANCH   5  10
TORSDOF 3
ENDMDL
MODEL 2
REMARK VINA RESULT:      -5.2     10.897     11.766
REMARK  3 active torsions:
REMARK  status: ('A' for Active; 'I' for Inactive)
REMARK    1  A    between atoms: C4_4  and  C5_5 
REMARK    2  A    between atoms: C6_6  and  C9_9 
REMARK    3  A    between atoms: C7_7  and  C10_10 
ROOT
HETATM    1  C1  UNL     1     -34.132  13.188  -4.708  1.00 20.00    -0.029 C 
HETATM    2  C2  UNL     1     -33.554  13.805  -3.675  1.00 20.00    -0.021 C 
HETATM    3  C8  UNL     1     -35.484  13.738  -5.008  1.00 20.00     0.039 C 
HETATM    4  C9  UNL     1     -34.427  14.873  -3.094  1.00 20.00     0.041 C 
HETATM    5  C10 UNL     1     -35.554  15.002  -4.138  1.00 20.00     0.062 C 
ENDROOT
BRANCH   4   6
HETATM    6  C6  UNL     1     -33.702  16.166  -2.894  1.00 20.00    -0.017 C 
HETATM    7  C5  UNL     1     -33.850  16.941  -1.810  1.00 20.00    -0.004 C 
BRANCH   7   8
HETATM    8  C4  UNL     1     -34.732  16.609  -0.715  1.00 20.00    -0.011 C 
HETATM    9  C3  UNL     1     -34.910  17.395   0.352  1.00 20.00     0.011 C 
ENDBRANCH   7   8
ENDBRANCH   4   6
BRANCH   5  10
HETATM   10  C7  UNL     1     -36.888  15.117  -3.467  1.00 20.00     0.236 C 
HETATM   11  O11 UNL     1     -37.798  14.311  -3.628  1.00 20.00    -0.306 OA
ENDBRANCH   5  10
TORSDOF 3
ENDMDL
MODEL 3
REMARK VINA RESULT:      -4.6     11.179     13.028
REMARK  3 active torsions:
REMARK  status: ('A' for Active; 'I' for Inactive)
REMARK    1  A    between atoms: C4_4  and  C5_5 
REMARK    2  A    between atoms: C6_6  and  C9_9 
REMARK    3  A    between atoms: C7_7  and  C10_10 
ROOT
HETATM    1  C1  UNL     1     -34.397  15.342  -7.202  1.00 20.00    -0.029 C 
HETATM    2  C2  UNL     1     -34.053  16.260  -6.296  1.00 20.00    -0.021 C 
HETATM    3  C8  UNL     1     -35.237  14.259  -6.615  1.00 20.00     0.039 C 
HETATM    4  C9  UNL     1     -34.595  15.944  -4.937  1.00 20.00     0.041 C 
HETATM    5  C10 UNL     1     -35.584  14.797  -5.220  1.00 20.00     0.062 C 
ENDROOT
BRANCH   4   6
HETATM    6  C6  UNL     1     -35.268  17.116  -4.297  1.00 20.00    -0.017 C 
HETATM    7  C5  UNL     1     -35.193  17.393  -2.988  1.00 20.00    -0.004 C 
BRANCH   7   8
HETATM    8  C4  UNL     1     -34.449  16.584  -2.050  1.00 20.00    -0.011 C 
HETATM    9  C3  UNL     1     -34.608  16.659  -0.724  1.00 20.00     0.011 C 
ENDBRANCH   7   8
ENDBRANCH   4   6
BRANCH   5  10
HETATM   10  C7  UNL     1     -35.458  13.721  -4.185  1.00 20.00     0.236 C 
HETATM   11  O11 UNL     1     -35.014  12.603  -4.423  1.00 20.00    -0.306 OA
ENDBRANCH   5  10
TORSDOF 3
ENDMDL
MODEL 4
REMARK VINA RESULT:      -4.6      9.197     11.101
REMARK  3 active torsions:
REMARK  status: ('A' for Active; 'I' for Inactive)
REMARK    1  A    between atoms: C4_4  and  C5_5 
REMARK    2  A    between atoms: C6_6  and  C9_9 
REMARK    3  A    between atoms: C7_7  and  C10_10 
ROOT
HETATM    1  C1  UNL     1     -40.608   6.033  -0.165  1.00 20.00    -0.029 C 
HETATM    2  C2  UNL     1     -40.805   4.851  -0.754  1.00 20.00    -0.021 C 
HETATM    3  C8  UNL     1     -41.374   7.126  -0.829  1.00 20.00     0.039 C 
HETATM    4  C9  UNL     1     -41.732   4.949  -1.925  1.00 20.00     0.041 C 
HETATM    5  C10 UNL     1     -42.304   6.374  -1.791  1.00 20.00     0.062 C 
ENDROOT
BRANCH   4   6
HETATM    6  C6  UNL     1     -42.807   3.911  -1.900  1.00 20.00    -0.017 C 
HETATM    7  C5  UNL     1     -42.730   2.743  -2.553  1.00 20.00    -0.004 C 
BRANCH   7   8
HETATM    8  C4  UNL     1     -41.591   2.362  -3.357  1.00 20.00    -0.011 C 
HETATM    9  C3  UNL     1     -41.511   1.201  -4.016  1.00 20.00     0.011 C 
ENDBRANCH   7   8
ENDBRANCH   4   6
BRANCH   5  10
HETATM   10  C7  UNL     1     -42.355   7.053  -3.126  1.00 20.00     0.236 C 
HETATM   11  O11 UNL     1     -43.212   6.818  -3.971  1.00 20.00    -0.306 OA
ENDBRANCH   5  10
TORSDOF 3
ENDMDL
MODEL 5
REMARK VINA RESULT:      -4.5     11.187     12.526
REMARK  3 active torsions:
REMARK  status: ('A' for Active; 'I' for Inactive)
REMARK    1  A    between atoms: C4_4  and  C5_5 
REMARK    2  A    between atoms: C6_6  and  C9_9 
REMARK    3  A    between atoms: C7_7  and  C10_10 
ROOT
HETATM    1  C1  UNL     1     -33.621  16.974  -5.356  1.00 20.00    -0.029 C 
HETATM    2  C2  UNL     1     -33.597  17.087  -4.026  1.00 20.00    -0.021 C 
HETATM    3  C8  UNL     1     -34.071  15.623  -5.798  1.00 20.00     0.039 C 
HETATM    4  C9  UNL     1     -34.018  15.823  -3.343  1.00 20.00     0.041 C 
HETATM    5  C10 UNL     1     -34.583  14.979  -4.502  1.00 20.00     0.062 C 
ENDROOT
BRANCH   4   6
HETATM    6  C6  UNL     1     -35.037  16.057  -2.274  1.00 20.00    -0.017 C 
HETATM    7  C5  UNL     1     -34.802  16.776  -1.167  1.00 20.00    -0.004 C 
BRANCH   7   8
HETATM    8  C4  UNL     1     -33.531  17.404  -0.887  1.00 20.00    -0.011 C 
HETATM    9  C3  UNL     1     -33.378  18.394  -0.001  1.00 20.00     0.011 C 
ENDBRANCH   7   8
ENDBRANCH   4   6
BRANCH   5  10
HETATM   10  C7  UNL     1     -34.125  13.556  -4.394  1.00 20.00     0.236 C 
HETATM   11  O11 UNL     1     -34.874  12.594  -4.521  1.00 20.00    -0.306 OA
ENDBRANCH   5  10
TORSDOF 3
ENDMDL
MODEL 6
REMARK VINA RESULT:      -4.3      1.969      2.761
REMARK  3 active torsions:
REMARK  status: ('A' for Active; 'I' for Inactive)
REMARK    1  A    between atoms: C4_4  and  C5_5 
REMARK    2  A    between atoms: C6_6  and  C9_9 
REMARK    3  A    between atoms: C7_7  and  C10_10 
ROOT
HETATM    1  C1  UNL     1     -35.358   3.933   6.031  1.00 20.00    -0.029 C 
HETATM    2  C2  UNL     1     -34.705   3.969   4.867  1.00 20.00    -0.021 C 
HETATM    3  C8  UNL     1     -35.166   5.182   6.823  1.00 20.00     0.039 C 
HETATM    4  C9  UNL     1     -33.951   5.249   4.681  1.00 20.00     0.041 C 
HETATM    5  C10 UNL     1     -34.482   6.130   5.829  1.00 20.00     0.062 C 
ENDROOT
BRANCH   4   6
HETATM    6  C6  UNL     1     -34.191   5.871   3.343  1.00 20.00    -0.017 C 
HETATM    7  C5  UNL     1     -33.252   6.530   2.649  1.00 20.00    -0.004 C 
BRANCH   7   8
HETATM    8  C4  UNL     1     -31.899   6.710   3.125  1.00 20.00    -0.011 C 
HETATM    9  C3  UNL     1     -31.407   7.891   3.515  1.00 20.00     0.011 C 
ENDBRANCH   7   8
ENDBRANCH   4   6
BRANCH   5  10
HETATM   10  C7  UNL     1     -33.361   6.877   6.485  1.00 20.00     0.236 C 
HETATM   11  O11 UNL     1     -33.534   7.767   7.310  1.00 20.00    -0.306 OA
ENDBRANCH   5  10
TORSDOF 3
ENDMDL
MODEL 7
REMARK VINA RESULT:      -4.3     11.406     12.330
REMARK  3 active torsions:
REMARK  status: ('A' for Active; 'I' for Inactive)
REMARK    1  A    between atoms: C4_4  and  C5_5 
REMARK    2  A    between atoms: C6_6  and  C9_9 
REMARK    3  A    between atoms: C7_7  and  C10_10 
ROOT
HETATM    1  C1  UNL     1     -36.578  14.857  -3.857  1.00 20.00    -0.029 C 
HETATM    2  C2  UNL     1     -36.416  15.902  -3.042  1.00 20.00    -0.021 C 
HETATM    3  C8  UNL     1     -35.290  14.166  -4.149  1.00 20.00     0.039 C 
HETATM    4  C9  UNL     1     -34.984  16.099  -2.653  1.00 20.00     0.041 C 
HETATM    5  C10 UNL     1     -34.311  14.806  -3.155  1.00 20.00     0.062 C 
ENDROOT
BRANCH   4   6
HETATM    6  C6  UNL     1     -34.806  16.284  -1.180  1.00 20.00    -0.017 C 
HETATM    7  C5  UNL     1     -34.279  17.386  -0.627  1.00 20.00    -0.004 C 
BRANCH   7   8
HETATM    8  C4  UNL     1     -33.824  18.518  -1.401  1.00 20.00    -0.011 C 
HETATM    9  C3  UNL     1     -32.766  19.263  -1.064  1.00 20.00     0.011 C 
ENDBRANCH   7   8
ENDBRANCH   4   6
BRANCH   5  10
HETATM   10  C7  UNL     1     -33.002  15.113  -3.816  1.00 20.00     0.236 C 
HETATM   11  O11 UNL     1     -32.774  16.161  -4.411  1.00 20.00    -0.306 OA
ENDBRANCH   5  10
TORSDOF 3
ENDMDL
MODEL 8
REMARK VINA RESULT:      -4.3     11.030     12.416
REMARK  3 active torsions:
REMARK  status: ('A' for Active; 'I' for Inactive)
REMARK    1  A    between atoms: C4_4  and  C5_5 
REMARK    2  A    between atoms: C6_6  and  C9_9 
REMARK    3  A    between atoms: C7_7  and  C10_10 
ROOT
HETATM    1  C1  UNL     1     -33.662  18.346  -3.912  1.00 20.00    -0.029 C 
HETATM    2  C2  UNL     1     -33.725  17.100  -4.388  1.00 20.00    -0.021 C 
HETATM    3  C8  UNL     1     -33.818  18.390  -2.430  1.00 20.00     0.039 C 
HETATM    4  C9  UNL     1     -33.946  16.091  -3.305  1.00 20.00     0.041 C 
HETATM    5  C10 UNL     1     -33.728  16.914  -2.020  1.00 20.00     0.062 C 
ENDROOT
BRANCH   4   6
HETATM    6  C6  UNL     1     -33.003  14.934  -3.393  1.00 20.00    -0.017 C 
HETATM    7  C5  UNL     1     -33.347  13.728  -3.866  1.00 20.00    -0.004 C 
BRANCH   7   8
HETATM    8  C4  UNL     1     -34.675  13.416  -4.343  1.00 20.00    -0.011 C 
HETATM    9  C3  UNL     1     -35.084  13.657  -5.593  1.00 20.00     0.011 C 
ENDBRANCH   7   8
ENDBRANCH   4   6
BRANCH   5  10
HETATM   10  C7  UNL     1     -34.768  16.579  -0.994  1.00 20.00     0.236 C 
HETATM   11  O11 UNL     1     -34.760  17.026   0.148  1.00 20.00    -0.306 OA
ENDBRANCH   5  10
TORSDOF 3
ENDMDL
MODEL 9
REMARK VINA RESULT:      -4.3     11.490     13.200
REMARK  3 active torsions:
REMARK  status: ('A' for Active; 'I' for Inactive)
REMARK    1  A    between atoms: C4_4  and  C5_5 
REMARK    2  A    between atoms: C6_6  and  C9_9 
REMARK    3  A    between atoms: C7_7  and  C10_10 
ROOT
HETATM    1  C1  UNL     1     -35.487  14.568  -7.454  1.00 20.00    -0.029 C 
HETATM    2  C2  UNL     1     -34.438  14.790  -6.659  1.00 20.00    -0.021 C 
HETATM    3  C8  UNL     1     -36.775  14.941  -6.803  1.00 20.00     0.039 C 
HETATM    4  C9  UNL     1     -34.844  15.343  -5.328  1.00 20.00     0.041 C 
HETATM    5  C10 UNL     1     -36.330  15.691  -5.540  1.00 20.00     0.062 C 
ENDROOT
BRANCH   4   6
HETATM    6  C6  UNL     1     -34.041  16.540  -4.931  1.00 20.00    -0.017 C 
HETATM    7  C5  UNL     1     -33.650  16.790  -3.674  1.00 20.00    -0.004 C 
BRANCH   7   8
HETATM    8  C4  UNL     1     -33.964  15.922  -2.561  1.00 20.00    -0.011 C 
HETATM    9  C3  UNL     1     -34.698  16.307  -1.512  1.00 20.00     0.011 C 
ENDBRANCH   7   8
ENDBRANCH   4   6
BRANCH   5  10
HETATM   10  C7  UNL     1     -37.146  15.274  -4.355  1.00 20.00     0.236 C 
HETATM   11  O11 UNL     1     -37.111  14.148  -3.872  1.00 20.00    -0.306 OA
ENDBRANCH   5  10
TORSDOF 3
ENDMDL
