MODEL 1
REMARK VINA RESULT:      -5.3      0.000      0.000
REMARK  0 active torsions:
REMARK  status: ('A' for Active; 'I' for Inactive)
ROOT
HETATM    1  C1  UNL     1     -34.637  14.826  -7.154  1.00 20.00     0.015 C 
HETATM    2  C2  UNL     1     -34.828  14.397  -6.049  1.00 20.00    -0.075 C 
HETATM    3  C3  UNL     1     -33.756  16.494  -2.237  1.00 20.00     0.001 C 
HETATM    4  C4  UNL     1     -35.271  16.200  -2.151  1.00 20.00     0.005 C 
HETATM    5  C5  UNL     1     -33.218  15.601  -3.378  1.00 20.00     0.009 C 
HETATM    6  C6  UNL     1     -36.376  14.329  -3.977  1.00 20.00     0.060 C 
HETATM    7  C7  UNL     1     -35.543  15.546  -3.487  1.00 20.00    -0.003 C 
HETATM    8  C8  UNL     1     -34.323  14.575  -3.531  1.00 20.00     0.040 C 
HETATM    9  C9  UNL     1     -35.057  13.880  -4.722  1.00 20.00     0.162 C 
HETATM   10  O10 UNL     1     -34.896  12.485  -4.714  1.00 20.00    -0.214 OA
ENDROOT
TORSDOF 0
ENDMDL
MODEL 2
REMARK VINA RESULT:      -4.7      1.407      3.681
REMARK  0 active torsions:
REMARK  status: ('A' for Active; 'I' for Inactive)
ROOT
HETATM    1  C1  UNL     1     -34.802  15.900  -2.168  1.00 20.00     0.015 C 
HETATM    2  C2  UNL     1     -35.310  15.284  -3.065  1.00 20.00    -0.075 C 
HETATM    3  C3  UNL     1     -34.947  16.283  -7.418  1.00 20.00     0.001 C 
HETATM    4  C4  UNL     1     -34.447  14.828  -7.271  1.00 20.00     0.005 C 
HETATM    5  C5  UNL     1     -35.710  16.601  -6.112  1.00 20.00     0.009 C 
HETATM    6  C6  UNL     1     -35.047  13.446  -4.866  1.00 20.00     0.060 C 
HETATM    7  C7  UNL     1     -34.559  14.604  -5.779  1.00 20.00    -0.003 C 
HETATM    8  C8  UNL     1     -35.975  15.218  -5.551  1.00 20.00     0.040 C 
HETATM    9  C9  UNL     1     -35.921  14.545  -4.143  1.00 20.00     0.162 C 
HETATM   10  O10 UNL     1     -37.168  14.044  -3.736  1.00 20.00    -0.214 OA
ENDROOT
TORSDOF 0
ENDMDL
MODEL 3
REMARK VINA RESULT:      -4.6      1.289      2.951
REMARK  0 active torsions:
REMARK  status: ('A' for Active; 'I' for Inactive)
ROOT
HETATM    1  C1  UNL     1     -37.966  14.733  -3.815  1.00 20.00     0.015 C 
HETATM    2  C2  UNL     1     -36.826  14.417  -4.013  1.00 20.00    -0.075 C 
HETATM    3  C3  UNL     1     -33.909  16.698  -6.537  1.00 20.00     0.001 C 
HETATM    4  C4  UNL     1     -33.256  16.567  -5.142  1.00 20.00     0.005 C 
HETATM    5  C5  UNL     1     -35.059  15.665  -6.562  1.00 20.00     0.009 C 
HETATM    6  C6  UNL     1     -34.343  14.674  -3.329  1.00 20.00     0.060 C 
HETATM    7  C7  UNL     1     -34.324  15.837  -4.359  1.00 20.00    -0.003 C 
HETATM    8  C8  UNL     1     -34.691  14.747  -5.413  1.00 20.00     0.040 C 
HETATM    9  C9  UNL     1     -35.455  14.035  -4.252  1.00 20.00     0.162 C 
HETATM   10  O10 UNL     1     -35.348  12.636  -4.314  1.00 20.00    -0.214 OA
ENDROOT
TORSDOF 0
ENDMDL
MODEL 4
REMARK VINA RESULT:      -4.5      1.830      2.448
REMARK  0 active torsions:
REMARK  status: ('A' for Active; 'I' for Inactive)
ROOT
HETATM    1  C1  UNL     1     -37.282  15.346  -6.909  1.00 20.00     0.015 C 
HETATM    2  C2  UNL     1     -37.148  15.102  -5.741  1.00 20.00    -0.075 C 
HETATM    3  C3  UNL     1     -33.315  13.852  -3.784  1.00 20.00     0.001 C 
HETATM    4  C4  UNL     1     -33.788  15.115  -3.029  1.00 20.00     0.005 C 
HETATM    5  C5  UNL     1     -34.541  13.357  -4.586  1.00 20.00     0.009 C 
HETATM    6  C6  UNL     1     -36.469  15.968  -3.399  1.00 20.00     0.060 C 
HETATM    7  C7  UNL     1     -35.045  15.485  -3.786  1.00 20.00    -0.003 C 
HETATM    8  C8  UNL     1     -35.686  14.067  -3.892  1.00 20.00     0.040 C 
HETATM    9  C9  UNL     1     -36.987  14.807  -4.337  1.00 20.00     0.162 C 
HETATM   10  O10 UNL     1     -38.151  14.203  -3.835  1.00 20.00    -0.214 OA
ENDROOT
TORSDOF 0
ENDMDL
MODEL 5
REMARK VINA RESULT:      -4.5      2.313      3.905
REMARK  0 active torsions:
REMARK  status: ('A' for Active; 'I' for Inactive)
ROOT
HETATM    1  C1  UNL     1     -34.563  16.962  -0.352  1.00 20.00     0.015 C 
HETATM    2  C2  UNL     1     -34.806  16.891  -1.526  1.00 20.00    -0.075 C 
HETATM    3  C3  UNL     1     -33.783  13.426  -4.177  1.00 20.00     0.001 C 
HETATM    4  C4  UNL     1     -35.309  13.627  -4.307  1.00 20.00     0.005 C 
HETATM    5  C5  UNL     1     -33.240  14.722  -3.532  1.00 20.00     0.009 C 
HETATM    6  C6  UNL     1     -36.422  16.064  -3.370  1.00 20.00     0.060 C 
HETATM    7  C7  UNL     1     -35.562  14.771  -3.350  1.00 20.00    -0.003 C 
HETATM    8  C8  UNL     1     -34.378  15.697  -3.766  1.00 20.00     0.040 C 
HETATM    9  C9  UNL     1     -35.097  16.808  -2.937  1.00 20.00     0.162 C 
HETATM   10  O10 UNL     1     -34.989  18.077  -3.527  1.00 20.00    -0.214 OA
ENDROOT
TORSDOF 0
ENDMDL
MODEL 6
REMARK VINA RESULT:      -4.5      1.479      3.610
REMARK  0 active torsions:
REMARK  status: ('A' for Active; 'I' for Inactive)
ROOT
HETATM    1  C1  UNL     1     -34.270  16.280  -1.890  1.00 20.00     0.015 C 
HETATM    2  C2  UNL     1     -34.485  15.455  -2.735  1.00 20.00    -0.075 C 
HETATM    3  C3  UNL     1     -38.216  15.193  -5.204  1.00 20.00     0.001 C 
HETATM    4  C4  UNL     1     -37.046  15.298  -6.208  1.00 20.00     0.005 C 
HETATM    5  C5  UNL     1     -37.574  14.823  -3.847  1.00 20.00     0.009 C 
HETATM    6  C6  UNL     1     -34.414  14.842  -5.248  1.00 20.00     0.060 C 
HETATM    7  C7  UNL     1     -35.851  15.431  -5.290  1.00 20.00    -0.003 C 
HETATM    8  C8  UNL     1     -36.210  14.312  -4.266  1.00 20.00     0.040 C 
HETATM    9  C9  UNL     1     -34.744  14.463  -3.750  1.00 20.00     0.162 C 
HETATM   10  O10 UNL     1     -34.173  13.235  -3.380  1.00 20.00    -0.214 OA
ENDROOT
TORSDOF 0
ENDMDL
MODEL 7
REMARK VINA RESULT:      -4.4      1.649      3.883
REMARK  0 active torsions:
REMARK  status: ('A' for Active; 'I' for Inactive)
ROOT
HETATM    1  C1  UNL     1     -34.678  16.258  -1.700  1.00 20.00     0.015 C 
HETATM    2  C2  UNL     1     -34.089  15.899  -2.683  1.00 20.00    -0.075 C 
HETATM    3  C3  UNL     1     -36.007  14.625  -6.527  1.00 20.00     0.001 C 
HETATM    4  C4  UNL     1     -35.045  15.779  -6.892  1.00 20.00     0.005 C 
HETATM    5  C5  UNL     1     -35.592  14.162  -5.112  1.00 20.00     0.009 C 
HETATM    6  C6  UNL     1     -33.091  16.545  -4.981  1.00 20.00     0.060 C 
HETATM    7  C7  UNL     1     -34.491  16.169  -5.539  1.00 20.00    -0.003 C 
HETATM    8  C8  UNL     1     -34.198  14.743  -4.980  1.00 20.00     0.040 C 
HETATM    9  C9  UNL     1     -33.381  15.467  -3.864  1.00 20.00     0.162 C 
HETATM   10  O10 UNL     1     -32.223  14.761  -3.499  1.00 20.00    -0.214 OA
ENDROOT
TORSDOF 0
ENDMDL
MODEL 8
REMARK VINA RESULT:      -4.3      2.179      3.038
REMARK  0 active torsions:
REMARK  status: ('A' for Active; 'I' for Inactive)
ROOT
HETATM    1  C1  UNL     1     -35.187  13.310  -4.254  1.00 20.00     0.015 C 
HETATM    2  C2  UNL     1     -34.348  14.132  -4.004  1.00 20.00    -0.075 C 
HETATM    3  C3  UNL     1     -34.077  18.201  -5.860  1.00 20.00     0.001 C 
HETATM    4  C4  UNL     1     -34.150  18.432  -4.334  1.00 20.00     0.005 C 
HETATM    5  C5  UNL     1     -33.727  16.707  -6.044  1.00 20.00     0.009 C 
HETATM    6  C6  UNL     1     -33.684  16.217  -2.623  1.00 20.00     0.060 C 
HETATM    7  C7  UNL     1     -34.288  17.021  -3.806  1.00 20.00    -0.003 C 
HETATM    8  C8  UNL     1     -33.193  16.332  -4.676  1.00 20.00     0.040 C 
HETATM    9  C9  UNL     1     -33.338  15.118  -3.704  1.00 20.00     0.162 C 
HETATM   10  O10 UNL     1     -32.112  14.488  -3.441  1.00 20.00    -0.214 OA
ENDROOT
TORSDOF 0
ENDMDL
MODEL 9
REMARK VINA RESULT:      -4.3     11.615     12.476
REMARK  0 active torsions:
REMARK  status: ('A' for Active; 'I' for Inactive)
ROOT
HETATM    1  C1  UNL     1     -34.870   3.801   5.938  1.00 20.00     0.015 C 
HETATM    2  C2  UNL     1     -34.917   4.550   5.001  1.00 20.00    -0.075 C 
HETATM    3  C3  UNL     1     -31.764   7.548   3.926  1.00 20.00     0.001 C 
HETATM    4  C4  UNL     1     -31.949   6.657   2.678  1.00 20.00     0.005 C 
HETATM    5  C5  UNL     1     -32.996   7.281   4.821  1.00 20.00     0.009 C 
HETATM    6  C6  UNL     1     -34.254   5.007   2.542  1.00 20.00     0.060 C 
HETATM    7  C7  UNL     1     -32.982   5.658   3.151  1.00 20.00    -0.003 C 
HETATM    8  C8  UNL     1     -33.968   6.646   3.846  1.00 20.00     0.040 C 
HETATM    9  C9  UNL     1     -34.974   5.452   3.876  1.00 20.00     0.162 C 
HETATM   10  O10 UNL     1     -36.299   5.856   3.649  1.00 20.00    -0.214 OA
ENDROOT
TORSDOF 0
ENDMDL
