MODEL 1
REMARK VINA RESULT:      -4.4      0.000      0.000
REMARK  1 active torsions:
REMARK  status: ('A' for Active; 'I' for Inactive)
REMARK    1  A    between atoms: C1_1  and  C3_3 
ROOT
HETATM    1  C2  UNL     1     -35.213   5.820   3.958  1.00 20.00     0.056 A 
HETATM    2  C3  UNL     1     -33.808   5.328   3.846  1.00 20.00     0.067 A 
HETATM    3  C4  UNL     1     -34.462   5.395   5.191  1.00 20.00     0.122 A 
HETATM    4 CL7  UNL     1     -34.023   6.642   6.353  1.00 20.00    -0.101 Cl
HETATM    5 CL8  UNL     1     -34.907   3.865   5.943  1.00 20.00    -0.101 Cl
ENDROOT
BRANCH   2   6
HETATM    6  C1  UNL     1     -32.739   6.308   3.477  1.00 20.00     0.090 C 
HETATM    7  N6  UNL     1     -32.976   7.252   2.635  1.00 20.00    -0.310 NA
HETATM    8  C5  UNL     1     -31.821   8.111   2.390  1.00 20.00     0.176 C 
ENDBRANCH   2   6
TORSDOF 1
ENDMDL
MODEL 2
REMARK VINA RESULT:      -3.8      2.891      4.130
REMARK  1 active torsions:
REMARK  status: ('A' for Active; 'I' for Inactive)
REMARK    1  A    between atoms: C1_1  and  C3_3 
ROOT
HETATM    1  C2  UNL     1     -32.167   5.860   2.764  1.00 20.00     0.056 A 
HETATM    2  C3  UNL     1     -33.364   6.579   3.291  1.00 20.00     0.067 A 
HETATM    3  C4  UNL     1     -32.102   7.340   3.029  1.00 20.00     0.122 A 
HETATM    4 CL7  UNL     1     -31.083   7.892   4.354  1.00 20.00    -0.101 Cl
HETATM    5 CL8  UNL     1     -32.095   8.428   1.643  1.00 20.00    -0.101 Cl
ENDROOT
BRANCH   2   6
HETATM    6  C1  UNL     1     -33.800   6.300   4.695  1.00 20.00     0.090 C 
HETATM    7  N6  UNL     1     -34.491   5.250   4.972  1.00 20.00    -0.310 NA
HETATM    8  C5  UNL     1     -34.831   5.140   6.388  1.00 20.00     0.176 C 
ENDBRANCH   2   6
TORSDOF 1
ENDMDL
MODEL 3
REMARK VINA RESULT:      -3.5     11.516     12.514
REMARK  1 active torsions:
REMARK  status: ('A' for Active; 'I' for Inactive)
REMARK    1  A    between atoms: C1_1  and  C3_3 
ROOT
HETATM    1  C2  UNL     1     -34.791  13.609  -3.817  1.00 20.00     0.056 A 
HETATM    2  C3  UNL     1     -35.334  14.722  -4.651  1.00 20.00     0.067 A 
HETATM    3  C4  UNL     1     -34.360  15.027  -3.557  1.00 20.00     0.122 A 
HETATM    4 CL7  UNL     1     -34.884  15.782  -2.056  1.00 20.00    -0.101 Cl
HETATM    5 CL8  UNL     1     -32.732  15.497  -4.042  1.00 20.00    -0.101 Cl
ENDROOT
BRANCH   2   6
HETATM    6  C1  UNL     1     -36.778  15.085  -4.498  1.00 20.00     0.090 C 
HETATM    7  N6  UNL     1     -37.586  14.313  -3.860  1.00 20.00    -0.310 NA
HETATM    8  C5  UNL     1     -38.954  14.821  -3.812  1.00 20.00     0.176 C 
ENDBRANCH   2   6
TORSDOF 1
ENDMDL
MODEL 4
REMARK VINA RESULT:      -3.5     12.055     12.617
REMARK  1 active torsions:
REMARK  status: ('A' for Active; 'I' for Inactive)
REMARK    1  A    between atoms: C1_1  and  C3_3 
ROOT
HETATM    1  C2  UNL     1     -33.315  14.115  -3.716  1.00 20.00     0.056 A 
HETATM    2  C3  UNL     1     -34.419  14.969  -3.189  1.00 20.00     0.067 A 
HETATM    3  C4  UNL     1     -34.080  15.017  -4.646  1.00 20.00     0.122 A 
HETATM    4 CL7  UNL     1     -33.230  16.395  -5.337  1.00 20.00    -0.101 Cl
HETATM    5 CL8  UNL     1     -35.226  14.274  -5.761  1.00 20.00    -0.101 Cl
ENDROOT
BRANCH   2   6
HETATM    6  C1  UNL     1     -34.067  16.115  -2.294  1.00 20.00     0.090 C 
HETATM    7  N6  UNL     1     -34.696  16.302  -1.187  1.00 20.00    -0.310 NA
HETATM    8  C5  UNL     1     -34.224  17.467  -0.444  1.00 20.00     0.176 C 
ENDBRANCH   2   6
TORSDOF 1
ENDMDL
MODEL 5
REMARK VINA RESULT:      -3.4     11.907     12.736
REMARK  1 active torsions:
REMARK  status: ('A' for Active; 'I' for Inactive)
REMARK    1  A    between atoms: C1_1  and  C3_3 
ROOT
HETATM    1  C2  UNL     1     -34.471  16.025  -3.823  1.00 20.00     0.056 A 
HETATM    2  C3  UNL     1     -35.505  15.053  -3.361  1.00 20.00     0.067 A 
HETATM    3  C4  UNL     1     -34.462  14.612  -4.338  1.00 20.00     0.122 A 
HETATM    4 CL7  UNL     1     -34.855  14.355  -6.034  1.00 20.00    -0.101 Cl
HETATM    5 CL8  UNL     1     -33.212  13.522  -3.739  1.00 20.00    -0.101 Cl
ENDROOT
BRANCH   2   6
HETATM    6  C1  UNL     1     -36.920  15.254  -3.806  1.00 20.00     0.090 C 
HETATM    7  N6  UNL     1     -37.765  14.284  -3.767  1.00 20.00    -0.310 NA
HETATM    8  C5  UNL     1     -39.094  14.658  -4.242  1.00 20.00     0.176 C 
ENDBRANCH   2   6
TORSDOF 1
ENDMDL
MODEL 6
REMARK VINA RESULT:      -3.4     11.634     12.694
REMARK  1 active torsions:
REMARK  status: ('A' for Active; 'I' for Inactive)
REMARK    1  A    between atoms: C1_1  and  C3_3 
ROOT
HETATM    1  C2  UNL     1     -34.091  14.020  -3.534  1.00 20.00     0.056 A 
HETATM    2  C3  UNL     1     -34.024  15.304  -4.291  1.00 20.00     0.067 A 
HETATM    3  C4  UNL     1     -34.972  15.175  -3.140  1.00 20.00     0.122 A 
HETATM    4 CL7  UNL     1     -36.705  15.012  -3.403  1.00 20.00    -0.101 Cl
HETATM    5 CL8  UNL     1     -34.570  16.055  -1.667  1.00 20.00    -0.101 Cl
ENDROOT
BRANCH   2   6
HETATM    6  C1  UNL     1     -34.541  15.330  -5.694  1.00 20.00     0.090 C 
HETATM    7  N6  UNL     1     -34.942  14.249  -6.267  1.00 20.00    -0.310 NA
HETATM    8  C5  UNL     1     -35.410  14.458  -7.634  1.00 20.00     0.176 C 
ENDBRANCH   2   6
TORSDOF 1
ENDMDL
MODEL 7
REMARK VINA RESULT:      -3.4     11.814     12.291
REMARK  1 active torsions:
REMARK  status: ('A' for Active; 'I' for Inactive)
REMARK    1  A    between atoms: C1_1  and  C3_3 
ROOT
HETATM    1  C2  UNL     1     -33.773  16.322  -3.950  1.00 20.00     0.056 A 
HETATM    2  C3  UNL     1     -33.763  15.993  -2.494  1.00 20.00     0.067 A 
HETATM    3  C4  UNL     1     -34.275  14.985  -3.475  1.00 20.00     0.122 A 
HETATM    4 CL7  UNL     1     -35.997  14.656  -3.625  1.00 20.00    -0.101 Cl
HETATM    5 CL8  UNL     1     -33.266  13.571  -3.771  1.00 20.00    -0.101 Cl
ENDROOT
BRANCH   2   6
HETATM    6  C1  UNL     1     -34.713  16.720  -1.595  1.00 20.00     0.090 C 
HETATM    7  N6  UNL     1     -34.383  17.005  -0.384  1.00 20.00    -0.310 NA
HETATM    8  C5  UNL     1     -35.430  17.711   0.349  1.00 20.00     0.176 C 
ENDBRANCH   2   6
TORSDOF 1
ENDMDL
MODEL 8
REMARK VINA RESULT:      -3.3     12.221     12.757
REMARK  1 active torsions:
REMARK  status: ('A' for Active; 'I' for Inactive)
REMARK    1  A    between atoms: C1_1  and  C3_3 
ROOT
HETATM    1  C2  UNL     1     -34.656  16.584  -0.915  1.00 20.00     0.056 A 
HETATM    2  C3  UNL     1     -34.016  16.226  -2.215  1.00 20.00     0.067 A 
HETATM    3  C4  UNL     1     -34.520  17.619  -1.999  1.00 20.00     0.122 A 
HETATM    4 CL7  UNL     1     -35.991  18.185  -2.782  1.00 20.00    -0.101 Cl
HETATM    5 CL8  UNL     1     -33.312  18.885  -1.787  1.00 20.00    -0.101 Cl
ENDROOT
BRANCH   2   6
HETATM    6  C1  UNL     1     -34.743  15.294  -3.132  1.00 20.00     0.090 C 
HETATM    7  N6  UNL     1     -34.270  14.126  -3.392  1.00 20.00    -0.310 NA
HETATM    8  C5  UNL     1     -35.106  13.354  -4.307  1.00 20.00     0.176 C 
ENDBRANCH   2   6
TORSDOF 1
ENDMDL
MODEL 9
REMARK VINA RESULT:      -3.3     12.181     13.174
REMARK  1 active torsions:
REMARK  status: ('A' for Active; 'I' for Inactive)
REMARK    1  A    between atoms: C1_1  and  C3_3 
ROOT
HETATM    1  C2  UNL     1     -33.263  16.151  -4.266  1.00 20.00     0.056 A 
HETATM    2  C3  UNL     1     -34.726  16.288  -4.528  1.00 20.00     0.067 A 
HETATM    3  C4  UNL     1     -34.256  15.439  -3.389  1.00 20.00     0.122 A 
HETATM    4 CL7  UNL     1     -34.317  13.682  -3.479  1.00 20.00    -0.101 Cl
HETATM    5 CL8  UNL     1     -34.519  16.063  -1.762  1.00 20.00    -0.101 Cl
ENDROOT
BRANCH   2   6
HETATM    6  C1  UNL     1     -35.289  15.653  -5.760  1.00 20.00     0.090 C 
HETATM    7  N6  UNL     1     -34.512  15.215  -6.688  1.00 20.00    -0.310 NA
HETATM    8  C5  UNL     1     -35.231  14.631  -7.816  1.00 20.00     0.176 C 
ENDBRANCH   2   6
TORSDOF 1
ENDMDL
