MODEL 1
REMARK VINA RESULT:      -5.1      0.000      0.000
REMARK  1 active torsions:
REMARK  status: ('A' for Active; 'I' for Inactive)
REMARK    1  A    between atoms: C3_3  and  C6_6 
ROOT
HETATM    1  C1  UNL     1     -33.733  13.753  -4.021  1.00 20.00    -0.022 C 
HETATM    2  C2  UNL     1     -33.012  14.837  -3.698  1.00 20.00    -0.022 C 
HETATM    3  C4  UNL     1     -35.066  14.240  -4.543  1.00 20.00     0.053 C 
HETATM    4  C5  UNL     1     -33.859  16.051  -4.010  1.00 20.00     0.047 C 
HETATM    5  C6  UNL     1     -35.840  14.815  -3.329  1.00 20.00     0.062 C 
HETATM    6  C7  UNL     1     -35.053  16.135  -3.017  1.00 20.00     0.003 C 
HETATM    7  C8  UNL     1     -34.592  15.518  -5.242  1.00 20.00     0.186 C 
HETATM    8  C9  UNL     1     -34.654  16.261  -1.553  1.00 20.00     0.011 C 
HETATM    9  F11 UNL     1     -33.753  15.262  -6.270  1.00 20.00    -0.248 F 
ENDROOT
BRANCH   5  10
HETATM   10  C3  UNL     1     -37.268  15.083  -3.693  1.00 20.00     0.236 C 
HETATM   11  O10 UNL     1     -38.134  14.215  -3.718  1.00 20.00    -0.306 OA
ENDBRANCH   5  10
TORSDOF 1
ENDMDL
MODEL 2
REMARK VINA RESULT:      -4.9      1.717      2.676
REMARK  1 active torsions:
REMARK  status: ('A' for Active; 'I' for Inactive)
REMARK    1  A    between atoms: C3_3  and  C6_6 
ROOT
HETATM    1  C1  UNL     1     -33.889  16.655  -4.252  1.00 20.00    -0.022 C 
HETATM    2  C2  UNL     1     -33.142  15.573  -3.985  1.00 20.00    -0.022 C 
HETATM    3  C4  UNL     1     -35.216  16.468  -3.553  1.00 20.00     0.053 C 
HETATM    4  C5  UNL     1     -33.967  14.664  -3.101  1.00 20.00     0.047 C 
HETATM    5  C6  UNL     1     -35.966  15.341  -4.308  1.00 20.00     0.062 C 
HETATM    6  C7  UNL     1     -35.149  14.063  -3.913  1.00 20.00     0.003 C 
HETATM    7  C8  UNL     1     -34.722  15.729  -2.305  1.00 20.00     0.186 C 
HETATM    8  C9  UNL     1     -34.733  13.224  -5.114  1.00 20.00     0.011 C 
HETATM    9  F11 UNL     1     -33.899  16.489  -1.549  1.00 20.00    -0.248 F 
ENDROOT
BRANCH   5  10
HETATM   10  C3  UNL     1     -37.392  15.261  -3.855  1.00 20.00     0.236 C 
HETATM   11  O10 UNL     1     -37.988  14.202  -3.685  1.00 20.00    -0.306 OA
ENDBRANCH   5  10
TORSDOF 1
ENDMDL
MODEL 3
REMARK VINA RESULT:      -4.8      2.287      3.394
REMARK  1 active torsions:
REMARK  status: ('A' for Active; 'I' for Inactive)
REMARK    1  A    between atoms: C3_3  and  C6_6 
ROOT
HETATM    1  C1  UNL     1     -36.171  16.786  -3.112  1.00 20.00    -0.022 C 
HETATM    2  C2  UNL     1     -35.191  17.700  -3.164  1.00 20.00    -0.022 C 
HETATM    3  C4  UNL     1     -35.524  15.450  -2.824  1.00 20.00     0.053 C 
HETATM    4  C5  UNL     1     -33.888  16.978  -2.905  1.00 20.00     0.047 C 
HETATM    5  C6  UNL     1     -34.747  15.043  -4.102  1.00 20.00     0.062 C 
HETATM    6  C7  UNL     1     -33.545  16.051  -4.106  1.00 20.00     0.003 C 
HETATM    7  C8  UNL     1     -34.391  15.930  -1.911  1.00 20.00     0.186 C 
HETATM    8  C9  UNL     1     -33.374  16.772  -5.436  1.00 20.00     0.011 C 
HETATM    9  F11 UNL     1     -34.850  16.483  -0.767  1.00 20.00    -0.248 F 
ENDROOT
BRANCH   5  10
HETATM   10  C3  UNL     1     -34.288  13.620  -4.010  1.00 20.00     0.236 C 
HETATM   11  O10 UNL     1     -34.940  12.671  -4.433  1.00 20.00    -0.306 OA
ENDBRANCH   5  10
TORSDOF 1
ENDMDL
MODEL 4
REMARK VINA RESULT:      -4.8      1.873      2.962
REMARK  1 active torsions:
REMARK  status: ('A' for Active; 'I' for Inactive)
REMARK    1  A    between atoms: C3_3  and  C6_6 
ROOT
HETATM    1  C1  UNL     1     -34.536  16.256  -1.741  1.00 20.00    -0.022 C 
HETATM    2  C2  UNL     1     -35.536  16.994  -2.245  1.00 20.00    -0.022 C 
HETATM    3  C4  UNL     1     -33.860  15.562  -2.902  1.00 20.00     0.053 C 
HETATM    4  C5  UNL     1     -35.527  16.800  -3.745  1.00 20.00     0.047 C 
HETATM    5  C6  UNL     1     -34.851  14.487  -3.419  1.00 20.00     0.062 C 
HETATM    6  C7  UNL     1     -35.970  15.352  -4.096  1.00 20.00     0.003 C 
HETATM    7  C8  UNL     1     -34.018  16.662  -3.957  1.00 20.00     0.186 C 
HETATM    8  C9  UNL     1     -37.373  14.986  -3.630  1.00 20.00     0.011 C 
HETATM    9  F11 UNL     1     -33.346  17.788  -3.631  1.00 20.00    -0.248 F 
ENDROOT
BRANCH   5  10
HETATM   10  C3  UNL     1     -34.176  13.575  -4.397  1.00 20.00     0.236 C 
HETATM   11  O10 UNL     1     -34.706  12.570  -4.861  1.00 20.00    -0.306 OA
ENDBRANCH   5  10
TORSDOF 1
ENDMDL
MODEL 5
REMARK VINA RESULT:      -4.6      2.607      3.669
REMARK  1 active torsions:
REMARK  status: ('A' for Active; 'I' for Inactive)
REMARK    1  A    between atoms: C3_3  and  C6_6 
ROOT
HETATM    1  C1  UNL     1     -32.920  14.467  -3.634  1.00 20.00    -0.022 C 
HETATM    2  C2  UNL     1     -34.052  13.750  -3.695  1.00 20.00    -0.022 C 
HETATM    3  C4  UNL     1     -33.296  15.918  -3.835  1.00 20.00     0.053 C 
HETATM    4  C5  UNL     1     -35.188  14.722  -3.931  1.00 20.00     0.047 C 
HETATM    5  C6  UNL     1     -33.716  16.071  -5.319  1.00 20.00     0.062 C 
HETATM    6  C7  UNL     1     -35.090  15.317  -5.364  1.00 20.00     0.003 C 
HETATM    7  C8  UNL     1     -34.655  15.909  -3.127  1.00 20.00     0.186 C 
HETATM    8  C9  UNL     1     -35.171  14.289  -6.485  1.00 20.00     0.011 C 
HETATM    9  F11 UNL     1     -34.546  15.632  -1.808  1.00 20.00    -0.248 F 
ENDROOT
BRANCH   5  10
HETATM   10  C3  UNL     1     -33.856  17.518  -5.681  1.00 20.00     0.236 C 
HETATM   11  O10 UNL     1     -33.292  18.424  -5.077  1.00 20.00    -0.306 OA
ENDBRANCH   5  10
TORSDOF 1
ENDMDL
MODEL 6
REMARK VINA RESULT:      -4.6      1.771      2.233
REMARK  1 active torsions:
REMARK  status: ('A' for Active; 'I' for Inactive)
REMARK    1  A    between atoms: C3_3  and  C6_6 
ROOT
HETATM    1  C1  UNL     1     -33.202  16.588  -5.051  1.00 20.00    -0.022 C 
HETATM    2  C2  UNL     1     -33.768  17.549  -4.307  1.00 20.00    -0.022 C 
HETATM    3  C4  UNL     1     -34.251  15.524  -5.285  1.00 20.00     0.053 C 
HETATM    4  C5  UNL     1     -35.199  17.133  -4.048  1.00 20.00     0.047 C 
HETATM    5  C6  UNL     1     -34.479  14.813  -3.927  1.00 20.00     0.062 C 
HETATM    6  C7  UNL     1     -35.231  15.907  -3.092  1.00 20.00     0.003 C 
HETATM    7  C8  UNL     1     -35.485  16.427  -5.375  1.00 20.00     0.186 C 
HETATM    8  C9  UNL     1     -34.606  16.151  -1.725  1.00 20.00     0.011 C 
HETATM    9  F11 UNL     1     -35.431  17.270  -6.429  1.00 20.00    -0.248 F 
ENDROOT
BRANCH   5  10
HETATM   10  C3  UNL     1     -35.306  13.578  -4.110  1.00 20.00     0.236 C 
HETATM   11  O10 UNL     1     -34.883  12.554  -4.638  1.00 20.00    -0.306 OA
ENDBRANCH   5  10
TORSDOF 1
ENDMDL
MODEL 7
REMARK VINA RESULT:      -4.6      2.153      3.531
REMARK  1 active torsions:
REMARK  status: ('A' for Active; 'I' for Inactive)
REMARK    1  A    between atoms: C3_3  and  C6_6 
ROOT
HETATM    1  C1  UNL     1     -35.642  17.230  -5.500  1.00 20.00    -0.022 C 
HETATM    2  C2  UNL     1     -34.993  17.180  -6.672  1.00 20.00    -0.022 C 
HETATM    3  C4  UNL     1     -35.094  16.119  -4.634  1.00 20.00     0.053 C 
HETATM    4  C5  UNL     1     -34.004  16.038  -6.590  1.00 20.00     0.047 C 
HETATM    5  C6  UNL     1     -35.597  14.786  -5.245  1.00 20.00     0.062 C 
HETATM    6  C7  UNL     1     -34.761  14.680  -6.568  1.00 20.00     0.003 C 
HETATM    7  C8  UNL     1     -33.638  16.148  -5.109  1.00 20.00     0.186 C 
HETATM    8  C9  UNL     1     -35.619  14.411  -7.797  1.00 20.00     0.011 C 
HETATM    9  F11 UNL     1     -33.023  17.315  -4.815  1.00 20.00    -0.248 F 
ENDROOT
BRANCH   5  10
HETATM   10  C3  UNL     1     -35.325  13.643  -4.315  1.00 20.00     0.236 C 
HETATM   11  O10 UNL     1     -34.844  12.575  -4.679  1.00 20.00    -0.306 OA
ENDBRANCH   5  10
TORSDOF 1
ENDMDL
MODEL 8
REMARK VINA RESULT:      -4.6      2.097      3.046
REMARK  1 active torsions:
REMARK  status: ('A' for Active; 'I' for Inactive)
REMARK    1  A    between atoms: C3_3  and  C6_6 
ROOT
HETATM    1  C1  UNL     1     -33.663  15.630  -4.976  1.00 20.00    -0.022 C 
HETATM    2  C2  UNL     1     -34.629  14.786  -5.369  1.00 20.00    -0.022 C 
HETATM    3  C4  UNL     1     -33.553  15.518  -3.472  1.00 20.00     0.053 C 
HETATM    4  C5  UNL     1     -35.163  14.104  -4.129  1.00 20.00     0.047 C 
HETATM    5  C6  UNL     1     -34.832  16.164  -2.881  1.00 20.00     0.062 C 
HETATM    6  C7  UNL     1     -35.945  15.125  -3.256  1.00 20.00     0.003 C 
HETATM    7  C8  UNL     1     -33.864  14.025  -3.325  1.00 20.00     0.186 C 
HETATM    8  C9  UNL     1     -37.148  15.759  -3.943  1.00 20.00     0.011 C 
HETATM    9  F11 UNL     1     -32.935  13.244  -3.920  1.00 20.00    -0.248 F 
ENDROOT
BRANCH   5  10
HETATM   10  C3  UNL     1     -34.699  16.336  -1.399  1.00 20.00     0.236 C 
HETATM   11  O10 UNL     1     -33.869  17.072  -0.875  1.00 20.00    -0.306 OA
ENDBRANCH   5  10
TORSDOF 1
ENDMDL
MODEL 9
REMARK VINA RESULT:      -4.6      2.225      3.009
REMARK  1 active torsions:
REMARK  status: ('A' for Active; 'I' for Inactive)
REMARK    1  A    between atoms: C3_3  and  C6_6 
ROOT
HETATM    1  C1  UNL     1     -35.229  15.397  -2.932  1.00 20.00    -0.022 C 
HETATM    2  C2  UNL     1     -33.999  15.904  -2.757  1.00 20.00    -0.022 C 
HETATM    3  C4  UNL     1     -35.202  14.585  -4.208  1.00 20.00     0.053 C 
HETATM    4  C5  UNL     1     -33.147  15.427  -3.912  1.00 20.00     0.047 C 
HETATM    5  C6  UNL     1     -35.080  15.594  -5.378  1.00 20.00     0.062 C 
HETATM    6  C7  UNL     1     -33.606  16.111  -5.230  1.00 20.00     0.003 C 
HETATM    7  C8  UNL     1     -33.771  14.045  -4.113  1.00 20.00     0.186 C 
HETATM    8  C9  UNL     1     -33.504  17.631  -5.227  1.00 20.00     0.011 C 
HETATM    9  F11 UNL     1     -33.595  13.239  -3.043  1.00 20.00    -0.248 F 
ENDROOT
BRANCH   5  10
HETATM   10  C3  UNL     1     -35.306  14.909  -6.691  1.00 20.00     0.236 C 
HETATM   11  O10 UNL     1     -34.445  14.807  -7.558  1.00 20.00    -0.306 OA
ENDBRANCH   5  10
TORSDOF 1
ENDMDL
