MODEL 1
REMARK VINA RESULT:      -4.6      0.000      0.000
REMARK  1 active torsions:
REMARK  status: ('A' for Active; 'I' for Inactive)
REMARK    1  A    between atoms: C4_4  and  C10_10 
ROOT
HETATM    1  C1  UNL     1     -34.662  18.261  -3.130  1.00 20.00     0.174 C 
HETATM    2  C2  UNL     1     -35.220  17.736  -1.855  1.00 20.00     0.025 A 
HETATM    3  C3  UNL     1     -34.623  16.396  -1.646  1.00 20.00     0.030 A 
HETATM    4  C4  UNL     1     -33.708  16.147  -2.803  1.00 20.00     0.130 C 
HETATM    5  C5  UNL     1     -34.395  17.481  -0.607  1.00 20.00    -0.035 A 
HETATM    6  C6  UNL     1     -33.037  18.113  -0.449  1.00 20.00     0.016 C 
HETATM    7  C7  UNL     1     -35.146  17.351   0.694  1.00 20.00     0.016 C 
HETATM    8  O11 UNL     1     -33.580  17.395  -3.515  1.00 20.00    -0.385 OA
ENDROOT
BRANCH   4   9
HETATM    9  C10 UNL     1     -34.257  15.100  -3.762  1.00 20.00     0.007 C 
HETATM   10  C8  UNL     1     -33.400  13.835  -3.733  1.00 20.00     0.012 C 
HETATM   11  C9  UNL     1     -35.711  14.768  -3.427  1.00 20.00     0.012 C 
ENDBRANCH   4   9
TORSDOF 1
ENDMDL
MODEL 2
REMARK VINA RESULT:      -4.6      1.243      4.059
REMARK  1 active torsions:
REMARK  status: ('A' for Active; 'I' for Inactive)
REMARK    1  A    between atoms: C4_4  and  C10_10 
ROOT
HETATM    1  C1  UNL     1     -33.291  16.738  -4.546  1.00 20.00     0.174 C 
HETATM    2  C2  UNL     1     -33.589  15.322  -4.200  1.00 20.00     0.025 A 
HETATM    3  C3  UNL     1     -34.445  15.348  -2.990  1.00 20.00     0.030 A 
HETATM    4  C4  UNL     1     -34.650  16.788  -2.638  1.00 20.00     0.130 C 
HETATM    5  C5  UNL     1     -34.975  14.706  -4.262  1.00 20.00    -0.035 A 
HETATM    6  C6  UNL     1     -36.071  15.371  -5.053  1.00 20.00     0.016 C 
HETATM    7  C7  UNL     1     -35.053  13.200  -4.285  1.00 20.00     0.016 C 
HETATM    8  O11 UNL     1     -34.152  17.567  -3.745  1.00 20.00    -0.385 OA
ENDROOT
BRANCH   4   9
HETATM    9  C10 UNL     1     -33.887  17.192  -1.385  1.00 20.00     0.007 C 
HETATM   10  C8  UNL     1     -33.396  18.636  -1.491  1.00 20.00     0.012 C 
HETATM   11  C9  UNL     1     -34.756  17.015  -0.140  1.00 20.00     0.012 C 
ENDBRANCH   4   9
TORSDOF 1
ENDMDL
MODEL 3
REMARK VINA RESULT:      -4.6      0.515      1.070
REMARK  1 active torsions:
REMARK  status: ('A' for Active; 'I' for Inactive)
REMARK    1  A    between atoms: C4_4  and  C10_10 
ROOT
HETATM    1  C1  UNL     1     -34.821  18.106  -3.264  1.00 20.00     0.174 C 
HETATM    2  C2  UNL     1     -35.278  17.569  -1.954  1.00 20.00     0.025 A 
HETATM    3  C3  UNL     1     -34.561  16.289  -1.743  1.00 20.00     0.030 A 
HETATM    4  C4  UNL     1     -33.678  16.088  -2.935  1.00 20.00     0.130 C 
HETATM    5  C5  UNL     1     -34.381  17.416  -0.740  1.00 20.00    -0.035 A 
HETATM    6  C6  UNL     1     -33.075  18.163  -0.657  1.00 20.00     0.016 C 
HETATM    7  C7  UNL     1     -35.061  17.257   0.597  1.00 20.00     0.016 C 
HETATM    8  O11 UNL     1     -33.687  17.323  -3.679  1.00 20.00    -0.385 OA
ENDROOT
BRANCH   4   9
HETATM    9  C10 UNL     1     -34.178  14.975  -3.845  1.00 20.00     0.007 C 
HETATM   10  C8  UNL     1     -34.144  15.415  -5.308  1.00 20.00     0.012 C 
HETATM   11  C9  UNL     1     -33.352  13.704  -3.651  1.00 20.00     0.012 C 
ENDBRANCH   4   9
TORSDOF 1
ENDMDL
MODEL 4
REMARK VINA RESULT:      -4.5      1.110      4.006
REMARK  1 active torsions:
REMARK  status: ('A' for Active; 'I' for Inactive)
REMARK    1  A    between atoms: C4_4  and  C10_10 
ROOT
HETATM    1  C1  UNL     1     -35.299  17.605  -3.517  1.00 20.00     0.174 C 
HETATM    2  C2  UNL     1     -33.992  16.894  -3.508  1.00 20.00     0.025 A 
HETATM    3  C3  UNL     1     -33.794  16.381  -2.132  1.00 20.00     0.030 A 
HETATM    4  C4  UNL     1     -34.996  16.792  -1.341  1.00 20.00     0.130 C 
HETATM    5  C5  UNL     1     -33.840  15.400  -3.291  1.00 20.00    -0.035 A 
HETATM    6  C6  UNL     1     -35.020  14.479  -3.464  1.00 20.00     0.016 C 
HETATM    7  C7  UNL     1     -32.533  14.777  -3.712  1.00 20.00     0.016 C 
HETATM    8  O11 UNL     1     -35.968  17.293  -2.281  1.00 20.00    -0.385 OA
ENDROOT
BRANCH   4   9
HETATM    9  C10 UNL     1     -34.683  17.895  -0.340  1.00 20.00     0.007 C 
HETATM   10  C8  UNL     1     -35.197  17.527   1.051  1.00 20.00     0.012 C 
HETATM   11  C9  UNL     1     -33.181  18.177  -0.296  1.00 20.00     0.012 C 
ENDBRANCH   4   9
TORSDOF 1
ENDMDL
MODEL 5
REMARK VINA RESULT:      -4.4      1.643      1.971
REMARK  1 active torsions:
REMARK  status: ('A' for Active; 'I' for Inactive)
REMARK    1  A    between atoms: C4_4  and  C10_10 
ROOT
HETATM    1  C1  UNL     1     -35.966  16.913  -4.327  1.00 20.00     0.174 C 
HETATM    2  C2  UNL     1     -35.732  16.455  -2.930  1.00 20.00     0.025 A 
HETATM    3  C3  UNL     1     -34.508  15.620  -2.953  1.00 20.00     0.030 A 
HETATM    4  C4  UNL     1     -34.025  15.602  -4.370  1.00 20.00     0.130 C 
HETATM    5  C5  UNL     1     -34.540  16.870  -2.089  1.00 20.00    -0.035 A 
HETATM    6  C6  UNL     1     -33.725  18.080  -2.464  1.00 20.00     0.016 C 
HETATM    7  C7  UNL     1     -34.652  16.667  -0.598  1.00 20.00     0.016 C 
HETATM    8  O11 UNL     1     -34.787  16.594  -5.087  1.00 20.00    -0.385 OA
ENDROOT
BRANCH   4   9
HETATM    9  C10 UNL     1     -34.242  14.252  -5.039  1.00 20.00     0.007 C 
HETATM   10  C8  UNL     1     -35.111  13.348  -4.165  1.00 20.00     0.012 C 
HETATM   11  C9  UNL     1     -34.875  14.427  -6.419  1.00 20.00     0.012 C 
ENDBRANCH   4   9
TORSDOF 1
ENDMDL
MODEL 6
REMARK VINA RESULT:      -4.4      1.804      4.497
REMARK  1 active torsions:
REMARK  status: ('A' for Active; 'I' for Inactive)
REMARK    1  A    between atoms: C4_4  and  C10_10 
ROOT
HETATM    1  C1  UNL     1     -36.397  15.440  -3.614  1.00 20.00     0.174 C 
HETATM    2  C2  UNL     1     -35.632  15.771  -4.846  1.00 20.00     0.025 A 
HETATM    3  C3  UNL     1     -34.198  15.778  -4.471  1.00 20.00     0.030 A 
HETATM    4  C4  UNL     1     -34.132  15.441  -3.014  1.00 20.00     0.130 C 
HETATM    5  C5  UNL     1     -34.682  14.812  -5.540  1.00 20.00    -0.035 A 
HETATM    6  C6  UNL     1     -34.749  13.334  -5.258  1.00 20.00     0.016 C 
HETATM    7  C7  UNL     1     -34.310  15.130  -6.967  1.00 20.00     0.016 C 
HETATM    8  O11 UNL     1     -35.449  15.002  -2.623  1.00 20.00    -0.385 OA
ENDROOT
BRANCH   4   9
HETATM    9  C10 UNL     1     -33.753  16.641  -2.158  1.00 20.00     0.007 C 
HETATM   10  C8  UNL     1     -33.886  17.939  -2.955  1.00 20.00     0.012 C 
HETATM   11  C9  UNL     1     -34.612  16.700  -0.895  1.00 20.00     0.012 C 
ENDBRANCH   4   9
TORSDOF 1
ENDMDL
MODEL 7
REMARK VINA RESULT:      -4.2      2.659      4.352
REMARK  1 active torsions:
REMARK  status: ('A' for Active; 'I' for Inactive)
REMARK    1  A    between atoms: C4_4  and  C10_10 
ROOT
HETATM    1  C1  UNL     1     -36.786  14.541  -4.099  1.00 20.00     0.174 C 
HETATM    2  C2  UNL     1     -35.434  13.926  -4.191  1.00 20.00     0.025 A 
HETATM    3  C3  UNL     1     -34.643  14.769  -5.119  1.00 20.00     0.030 A 
HETATM    4  C4  UNL     1     -35.540  15.883  -5.560  1.00 20.00     0.130 C 
HETATM    5  C5  UNL     1     -34.165  14.587  -3.688  1.00 20.00    -0.035 A 
HETATM    6  C6  UNL     1     -34.235  15.729  -2.708  1.00 20.00     0.016 C 
HETATM    7  C7  UNL     1     -32.967  13.694  -3.476  1.00 20.00     0.016 C 
HETATM    8  O11 UNL     1     -36.713  15.836  -4.723  1.00 20.00    -0.385 OA
ENDROOT
BRANCH   4   9
HETATM    9  C10 UNL     1     -35.977  15.736  -7.010  1.00 20.00     0.007 C 
HETATM   10  C8  UNL     1     -35.686  17.013  -7.797  1.00 20.00     0.012 C 
HETATM   11  C9  UNL     1     -35.289  14.538  -7.665  1.00 20.00     0.012 C 
ENDBRANCH   4   9
TORSDOF 1
ENDMDL
MODEL 8
REMARK VINA RESULT:      -4.2      2.166      3.500
REMARK  1 active torsions:
REMARK  status: ('A' for Active; 'I' for Inactive)
REMARK    1  A    between atoms: C4_4  and  C10_10 
ROOT
HETATM    1  C1  UNL     1     -33.215  14.183  -3.740  1.00 20.00     0.174 C 
HETATM    2  C2  UNL     1     -33.124  15.668  -3.720  1.00 20.00     0.025 A 
HETATM    3  C3  UNL     1     -34.344  16.180  -4.387  1.00 20.00     0.030 A 
HETATM    4  C4  UNL     1     -35.151  14.985  -4.788  1.00 20.00     0.130 C 
HETATM    5  C5  UNL     1     -34.068  16.566  -2.943  1.00 20.00    -0.035 A 
HETATM    6  C6  UNL     1     -34.911  16.005  -1.828  1.00 20.00     0.016 C 
HETATM    7  C7  UNL     1     -33.611  17.981  -2.689  1.00 20.00     0.016 C 
HETATM    8  O11 UNL     1     -34.551  13.839  -4.151  1.00 20.00    -0.385 OA
ENDROOT
BRANCH   4   9
HETATM    9  C10 UNL     1     -35.141  14.758  -6.293  1.00 20.00     0.007 C 
HETATM   10  C8  UNL     1     -36.554  14.858  -6.866  1.00 20.00     0.012 C 
HETATM   11  C9  UNL     1     -34.213  15.756  -6.986  1.00 20.00     0.012 C 
ENDBRANCH   4   9
TORSDOF 1
ENDMDL
MODEL 9
REMARK VINA RESULT:      -4.1      1.579      3.885
REMARK  1 active torsions:
REMARK  status: ('A' for Active; 'I' for Inactive)
REMARK    1  A    between atoms: C4_4  and  C10_10 
ROOT
HETATM    1  C1  UNL     1     -34.466  16.267  -1.871  1.00 20.00     0.174 C 
HETATM    2  C2  UNL     1     -35.117  15.352  -2.847  1.00 20.00     0.025 A 
HETATM    3  C3  UNL     1     -34.735  15.826  -4.198  1.00 20.00     0.030 A 
HETATM    4  C4  UNL     1     -33.850  17.018  -4.003  1.00 20.00     0.130 C 
HETATM    5  C5  UNL     1     -34.359  14.417  -3.770  1.00 20.00    -0.035 A 
HETATM    6  C6  UNL     1     -32.923  14.062  -3.487  1.00 20.00     0.016 C 
HETATM    7  C7  UNL     1     -35.141  13.284  -4.388  1.00 20.00     0.016 C 
HETATM    8  O11 UNL     1     -33.523  17.074  -2.599  1.00 20.00    -0.385 OA
ENDROOT
BRANCH   4   9
HETATM    9  C10 UNL     1     -34.538  18.319  -4.388  1.00 20.00     0.007 C 
HETATM   10  C8  UNL     1     -33.561  19.262  -5.089  1.00 20.00     0.012 C 
HETATM   11  C9  UNL     1     -35.750  18.049  -5.280  1.00 20.00     0.012 C 
ENDBRANCH   4   9
TORSDOF 1
ENDMDL
