MODEL 1
REMARK VINA RESULT:      -4.8      0.000      0.000
REMARK  0 active torsions:
REMARK  status: ('A' for Active; 'I' for Inactive)
ROOT
HETATM    1  C1  UNL     1     -31.811   7.643   2.833  1.00 20.00     0.015 C 
HETATM    2  C2  UNL     1     -32.639   7.073   3.487  1.00 20.00    -0.076 C 
HETATM    3  C3  UNL     1     -33.958   5.308   6.528  1.00 20.00     0.004 C 
HETATM    4  C4  UNL     1     -35.279   4.751   6.013  1.00 20.00     0.003 C 
HETATM    5  C5  UNL     1     -33.556   6.569   5.764  1.00 20.00     0.055 C 
HETATM    6  C6  UNL     1     -35.143   4.274   4.570  1.00 20.00     0.042 C 
HETATM    7  C7  UNL     1     -33.630   6.393   4.270  1.00 20.00     0.154 A 
HETATM    8  C8  UNL     1     -34.465   5.267   3.661  1.00 20.00     0.102 A 
HETATM    9  C9  UNL     1     -34.249   4.812   2.248  1.00 20.00     0.050 C 
HETATM   10  O10 UNL     1     -34.964   6.602   3.759  1.00 20.00    -0.350 OA
ENDROOT
TORSDOF 0
ENDMDL
MODEL 2
REMARK VINA RESULT:      -4.6     11.706     13.517
REMARK  0 active torsions:
REMARK  status: ('A' for Active; 'I' for Inactive)
ROOT
HETATM    1  C1  UNL     1     -33.542  18.798  -5.118  1.00 20.00     0.015 C 
HETATM    2  C2  UNL     1     -33.639  17.605  -5.032  1.00 20.00    -0.076 C 
HETATM    3  C3  UNL     1     -35.012  14.225  -5.919  1.00 20.00     0.004 C 
HETATM    4  C4  UNL     1     -34.449  13.359  -4.800  1.00 20.00     0.003 C 
HETATM    5  C5  UNL     1     -34.116  15.433  -6.186  1.00 20.00     0.055 C 
HETATM    6  C6  UNL     1     -34.451  14.114  -3.473  1.00 20.00     0.042 C 
HETATM    7  C7  UNL     1     -33.754  16.179  -4.929  1.00 20.00     0.154 A 
HETATM    8  C8  UNL     1     -33.877  15.504  -3.563  1.00 20.00     0.102 A 
HETATM    9  C9  UNL     1     -33.922  16.308  -2.297  1.00 20.00     0.050 C 
HETATM   10  O10 UNL     1     -32.626  15.590  -4.247  1.00 20.00    -0.350 OA
ENDROOT
TORSDOF 0
ENDMDL
MODEL 3
REMARK VINA RESULT:      -4.6     12.211     13.785
REMARK  0 active torsions:
REMARK  status: ('A' for Active; 'I' for Inactive)
ROOT
HETATM    1  C1  UNL     1     -34.591  14.801  -7.153  1.00 20.00     0.015 C 
HETATM    2  C2  UNL     1     -34.331  15.209  -6.055  1.00 20.00    -0.076 C 
HETATM    3  C3  UNL     1     -34.863  15.638  -2.364  1.00 20.00     0.004 C 
HETATM    4  C4  UNL     1     -33.853  16.727  -2.030  1.00 20.00     0.003 C 
HETATM    5  C5  UNL     1     -34.420  14.828  -3.580  1.00 20.00     0.055 C 
HETATM    6  C6  UNL     1     -33.779  17.763  -3.149  1.00 20.00     0.042 C 
HETATM    7  C7  UNL     1     -34.018  15.697  -4.743  1.00 20.00     0.154 A 
HETATM    8  C8  UNL     1     -33.650  17.164  -4.525  1.00 20.00     0.102 A 
HETATM    9  C9  UNL     1     -33.643  18.144  -5.662  1.00 20.00     0.050 C 
HETATM   10  O10 UNL     1     -32.651  16.150  -4.643  1.00 20.00    -0.350 OA
ENDROOT
TORSDOF 0
ENDMDL
MODEL 4
REMARK VINA RESULT:      -4.6     11.939     13.330
REMARK  0 active torsions:
REMARK  status: ('A' for Active; 'I' for Inactive)
ROOT
HETATM    1  C1  UNL     1     -34.420  16.627  -1.130  1.00 20.00     0.015 C 
HETATM    2  C2  UNL     1     -34.574  16.178  -2.232  1.00 20.00    -0.076 C 
HETATM    3  C3  UNL     1     -34.413  13.527  -4.886  1.00 20.00     0.004 C 
HETATM    4  C4  UNL     1     -34.727  14.327  -6.143  1.00 20.00     0.003 C 
HETATM    5  C5  UNL     1     -35.045  14.167  -3.651  1.00 20.00     0.055 C 
HETATM    6  C6  UNL     1     -34.084  15.711  -6.081  1.00 20.00     0.042 C 
HETATM    7  C7  UNL     1     -34.759  15.642  -3.550  1.00 20.00     0.154 A 
HETATM    8  C8  UNL     1     -34.320  16.435  -4.781  1.00 20.00     0.102 A 
HETATM    9  C9  UNL     1     -33.649  17.770  -4.651  1.00 20.00     0.050 C 
HETATM   10  O10 UNL     1     -35.677  16.434  -4.335  1.00 20.00    -0.350 OA
ENDROOT
TORSDOF 0
ENDMDL
MODEL 5
REMARK VINA RESULT:      -4.6     12.017     13.096
REMARK  0 active torsions:
REMARK  status: ('A' for Active; 'I' for Inactive)
ROOT
HETATM    1  C1  UNL     1     -34.664  16.521  -0.938  1.00 20.00     0.015 C 
HETATM    2  C2  UNL     1     -34.584  16.119  -2.066  1.00 20.00    -0.076 C 
HETATM    3  C3  UNL     1     -33.559  16.276  -5.674  1.00 20.00     0.004 C 
HETATM    4  C4  UNL     1     -34.346  15.117  -6.271  1.00 20.00     0.003 C 
HETATM    5  C5  UNL     1     -33.264  16.039  -4.194  1.00 20.00     0.055 C 
HETATM    6  C6  UNL     1     -35.731  15.016  -5.636  1.00 20.00     0.042 C 
HETATM    7  C7  UNL     1     -34.488  15.638  -3.414  1.00 20.00     0.154 A 
HETATM    8  C8  UNL     1     -35.717  15.078  -4.130  1.00 20.00     0.102 A 
HETATM    9  C9  UNL     1     -37.062  15.052  -3.467  1.00 20.00     0.050 C 
HETATM   10  O10 UNL     1     -34.758  14.223  -3.506  1.00 20.00    -0.350 OA
ENDROOT
TORSDOF 0
ENDMDL
MODEL 6
REMARK VINA RESULT:      -4.5     11.514     13.579
REMARK  0 active torsions:
REMARK  status: ('A' for Active; 'I' for Inactive)
ROOT
HETATM    1  C1  UNL     1     -34.483  16.497  -1.240  1.00 20.00     0.015 C 
HETATM    2  C2  UNL     1     -34.298  16.366  -2.419  1.00 20.00    -0.076 C 
HETATM    3  C3  UNL     1     -34.691  17.247  -6.047  1.00 20.00     0.004 C 
HETATM    4  C4  UNL     1     -34.080  16.031  -6.729  1.00 20.00     0.003 C 
HETATM    5  C5  UNL     1     -34.088  17.465  -4.661  1.00 20.00     0.055 C 
HETATM    6  C6  UNL     1     -34.430  14.751  -5.975  1.00 20.00     0.042 C 
HETATM    7  C7  UNL     1     -34.077  16.211  -3.828  1.00 20.00     0.154 A 
HETATM    8  C8  UNL     1     -34.202  14.838  -4.488  1.00 20.00     0.102 A 
HETATM    9  C9  UNL     1     -34.598  13.625  -3.698  1.00 20.00     0.050 C 
HETATM   10  O10 UNL     1     -32.934  15.375  -4.109  1.00 20.00    -0.350 OA
ENDROOT
TORSDOF 0
ENDMDL
MODEL 7
REMARK VINA RESULT:      -4.3     11.819     13.645
REMARK  0 active torsions:
REMARK  status: ('A' for Active; 'I' for Inactive)
ROOT
HETATM    1  C1  UNL     1     -34.236  18.025  -7.134  1.00 20.00     0.015 C 
HETATM    2  C2  UNL     1     -34.267  17.122  -6.344  1.00 20.00    -0.076 C 
HETATM    3  C3  UNL     1     -32.866  14.866  -3.690  1.00 20.00     0.004 C 
HETATM    4  C4  UNL     1     -33.933  13.783  -3.609  1.00 20.00     0.003 C 
HETATM    5  C5  UNL     1     -33.459  16.192  -4.162  1.00 20.00     0.055 C 
HETATM    6  C6  UNL     1     -34.488  13.461  -4.995  1.00 20.00     0.042 C 
HETATM    7  C7  UNL     1     -34.305  16.044  -5.399  1.00 20.00     0.154 A 
HETATM    8  C8  UNL     1     -34.865  14.679  -5.798  1.00 20.00     0.102 A 
HETATM    9  C9  UNL     1     -35.351  14.412  -7.192  1.00 20.00     0.050 C 
HETATM   10  O10 UNL     1     -35.656  15.637  -5.093  1.00 20.00    -0.350 OA
ENDROOT
TORSDOF 0
ENDMDL
MODEL 8
REMARK VINA RESULT:      -4.2     11.555     12.861
REMARK  0 active torsions:
REMARK  status: ('A' for Active; 'I' for Inactive)
ROOT
HETATM    1  C1  UNL     1     -38.489  14.762  -3.874  1.00 20.00     0.015 C 
HETATM    2  C2  UNL     1     -37.293  14.863  -3.905  1.00 20.00    -0.076 C 
HETATM    3  C3  UNL     1     -33.761  13.609  -3.681  1.00 20.00     0.004 C 
HETATM    4  C4  UNL     1     -32.971  14.910  -3.669  1.00 20.00     0.003 C 
HETATM    5  C5  UNL     1     -35.092  13.778  -4.412  1.00 20.00     0.055 C 
HETATM    6  C6  UNL     1     -33.697  15.980  -2.858  1.00 20.00     0.042 C 
HETATM    7  C7  UNL     1     -35.864  14.983  -3.943  1.00 20.00     0.154 A 
HETATM    8  C8  UNL     1     -35.158  16.117  -3.201  1.00 20.00     0.102 A 
HETATM    9  C9  UNL     1     -35.927  17.110  -2.380  1.00 20.00     0.050 C 
HETATM   10  O10 UNL     1     -35.438  16.196  -4.599  1.00 20.00    -0.350 OA
ENDROOT
TORSDOF 0
ENDMDL
MODEL 9
REMARK VINA RESULT:      -4.2      9.117     10.804
REMARK  0 active torsions:
REMARK  status: ('A' for Active; 'I' for Inactive)
ROOT
HETATM    1  C1  UNL     1     -41.806   2.553  -3.056  1.00 20.00     0.015 C 
HETATM    2  C2  UNL     1     -42.011   3.685  -2.714  1.00 20.00    -0.076 C 
HETATM    3  C3  UNL     1     -42.538   7.364  -3.246  1.00 20.00     0.004 C 
HETATM    4  C4  UNL     1     -42.460   7.897  -1.821  1.00 20.00     0.003 C 
HETATM    5  C5  UNL     1     -43.015   5.913  -3.267  1.00 20.00     0.055 C 
HETATM    6  C6  UNL     1     -41.396   7.152  -1.019  1.00 20.00     0.042 C 
HETATM    7  C7  UNL     1     -42.258   5.037  -2.304  1.00 20.00     0.154 A 
HETATM    8  C8  UNL     1     -41.478   5.653  -1.142  1.00 20.00     0.102 A 
HETATM    9  C9  UNL     1     -40.409   4.883  -0.425  1.00 20.00     0.050 C 
HETATM   10  O10 UNL     1     -42.788   5.111  -0.963  1.00 20.00    -0.350 OA
ENDROOT
TORSDOF 0
ENDMDL
