MODEL 1
REMARK VINA RESULT:      -4.4      0.000      0.000
REMARK  0 active torsions:
REMARK  status: ('A' for Active; 'I' for Inactive)
ROOT
HETATM    1  C1  UNL     1     -33.860  15.233  -3.279  1.00 20.00    -0.013 C 
HETATM    2  C2  UNL     1     -33.581  13.966  -3.657  1.00 20.00     0.004 C 
HETATM    3  C3  UNL     1     -36.420  14.112  -4.299  1.00 20.00     0.341 C 
HETATM    4  C4  UNL     1     -34.979  16.024  -3.949  1.00 20.00     0.127 C 
HETATM    5  C5  UNL     1     -34.746  14.431  -5.784  1.00 20.00     0.137 C 
HETATM    6  C6  UNL     1     -34.356  13.341  -4.810  1.00 20.00     0.169 C 
HETATM    7  N7  UNL     1     -35.648  15.129  -4.899  1.00 20.00    -0.222 NA
HETATM    8  O8  UNL     1     -37.501  14.219  -3.738  1.00 20.00    -0.245 OA
HETATM    9  O9  UNL     1     -35.668  12.945  -4.333  1.00 20.00    -0.298 OA
ENDROOT
TORSDOF 0
ENDMDL
MODEL 2
REMARK VINA RESULT:      -4.3      1.470      2.148
REMARK  0 active torsions:
REMARK  status: ('A' for Active; 'I' for Inactive)
ROOT
HETATM    1  C1  UNL     1     -35.385  15.856  -2.693  1.00 20.00    -0.013 C 
HETATM    2  C2  UNL     1     -34.049  15.794  -2.501  1.00 20.00     0.004 C 
HETATM    3  C3  UNL     1     -34.418  13.655  -4.445  1.00 20.00     0.341 C 
HETATM    4  C4  UNL     1     -36.008  15.428  -4.018  1.00 20.00     0.127 C 
HETATM    5  C5  UNL     1     -33.779  15.762  -4.955  1.00 20.00     0.137 C 
HETATM    6  C6  UNL     1     -33.148  15.346  -3.645  1.00 20.00     0.169 C 
HETATM    7  N7  UNL     1     -34.933  14.899  -4.864  1.00 20.00    -0.222 NA
HETATM    8  O8  UNL     1     -34.943  12.554  -4.536  1.00 20.00    -0.245 OA
HETATM    9  O9  UNL     1     -33.231  13.902  -3.769  1.00 20.00    -0.298 OA
ENDROOT
TORSDOF 0
ENDMDL
MODEL 3
REMARK VINA RESULT:      -4.2      1.564      2.658
REMARK  0 active torsions:
REMARK  status: ('A' for Active; 'I' for Inactive)
ROOT
HETATM    1  C1  UNL     1     -34.090  15.535  -5.963  1.00 20.00    -0.013 C 
HETATM    2  C2  UNL     1     -35.086  14.643  -6.157  1.00 20.00     0.004 C 
HETATM    3  C3  UNL     1     -33.744  13.468  -3.852  1.00 20.00     0.341 C 
HETATM    4  C4  UNL     1     -33.499  15.764  -4.575  1.00 20.00     0.127 C 
HETATM    5  C5  UNL     1     -35.574  14.788  -3.740  1.00 20.00     0.137 C 
HETATM    6  C6  UNL     1     -35.667  13.899  -4.960  1.00 20.00     0.169 C 
HETATM    7  N7  UNL     1     -34.133  14.809  -3.660  1.00 20.00    -0.222 NA
HETATM    8  O8  UNL     1     -32.679  12.943  -3.557  1.00 20.00    -0.245 OA
HETATM    9  O9  UNL     1     -34.750  12.841  -4.575  1.00 20.00    -0.298 OA
ENDROOT
TORSDOF 0
ENDMDL
MODEL 4
REMARK VINA RESULT:      -4.0      1.406      2.487
REMARK  0 active torsions:
REMARK  status: ('A' for Active; 'I' for Inactive)
ROOT
HETATM    1  C1  UNL     1     -33.259  16.035  -4.746  1.00 20.00    -0.013 C 
HETATM    2  C2  UNL     1     -34.488  16.487  -5.078  1.00 20.00     0.004 C 
HETATM    3  C3  UNL     1     -35.130  13.801  -4.145  1.00 20.00     0.341 C 
HETATM    4  C4  UNL     1     -33.077  14.984  -3.655  1.00 20.00     0.127 C 
HETATM    5  C5  UNL     1     -35.290  15.673  -2.889  1.00 20.00     0.137 C 
HETATM    6  C6  UNL     1     -35.704  15.982  -4.310  1.00 20.00     0.169 C 
HETATM    7  N7  UNL     1     -34.412  14.572  -3.207  1.00 20.00    -0.222 NA
HETATM    8  O8  UNL     1     -34.945  12.633  -4.458  1.00 20.00    -0.245 OA
HETATM    9  O9  UNL     1     -36.032  14.647  -4.776  1.00 20.00    -0.298 OA
ENDROOT
TORSDOF 0
ENDMDL
MODEL 5
REMARK VINA RESULT:      -4.0      1.248      2.125
REMARK  0 active torsions:
REMARK  status: ('A' for Active; 'I' for Inactive)
ROOT
HETATM    1  C1  UNL     1     -34.347  15.418  -6.072  1.00 20.00    -0.013 C 
HETATM    2  C2  UNL     1     -33.832  15.895  -4.918  1.00 20.00     0.004 C 
HETATM    3  C3  UNL     1     -35.965  14.191  -3.897  1.00 20.00     0.341 C 
HETATM    4  C4  UNL     1     -35.028  14.053  -6.123  1.00 20.00     0.127 C 
HETATM    5  C5  UNL     1     -33.797  13.576  -4.070  1.00 20.00     0.137 C 
HETATM    6  C6  UNL     1     -33.878  15.030  -3.664  1.00 20.00     0.169 C 
HETATM    7  N7  UNL     1     -35.066  13.524  -4.755  1.00 20.00    -0.222 NA
HETATM    8  O8  UNL     1     -37.186  14.126  -3.887  1.00 20.00    -0.245 OA
HETATM    9  O9  UNL     1     -35.222  15.068  -3.118  1.00 20.00    -0.298 OA
ENDROOT
TORSDOF 0
ENDMDL
MODEL 6
REMARK VINA RESULT:      -3.9      1.895      2.520
REMARK  0 active torsions:
REMARK  status: ('A' for Active; 'I' for Inactive)
ROOT
HETATM    1  C1  UNL     1     -33.561  13.622  -3.896  1.00 20.00    -0.013 C 
HETATM    2  C2  UNL     1     -34.879  13.503  -4.167  1.00 20.00     0.004 C 
HETATM    3  C3  UNL     1     -34.884  15.883  -2.485  1.00 20.00     0.341 C 
HETATM    4  C4  UNL     1     -32.938  14.986  -3.609  1.00 20.00     0.127 C 
HETATM    5  C5  UNL     1     -34.894  15.904  -4.745  1.00 20.00     0.137 C 
HETATM    6  C6  UNL     1     -35.743  14.755  -4.247  1.00 20.00     0.169 C 
HETATM    7  N7  UNL     1     -34.021  15.975  -3.597  1.00 20.00    -0.222 NA
HETATM    8  O8  UNL     1     -34.659  16.211  -1.328  1.00 20.00    -0.245 OA
HETATM    9  O9  UNL     1     -36.028  15.214  -2.900  1.00 20.00    -0.298 OA
ENDROOT
TORSDOF 0
ENDMDL
MODEL 7
REMARK VINA RESULT:      -3.9      2.239      2.900
REMARK  0 active torsions:
REMARK  status: ('A' for Active; 'I' for Inactive)
ROOT
HETATM    1  C1  UNL     1     -33.408  13.689  -3.808  1.00 20.00    -0.013 C 
HETATM    2  C2  UNL     1     -32.892  14.926  -3.634  1.00 20.00     0.004 C 
HETATM    3  C3  UNL     1     -34.300  15.276  -6.161  1.00 20.00     0.341 C 
HETATM    4  C4  UNL     1     -34.703  13.481  -4.589  1.00 20.00     0.127 C 
HETATM    5  C5  UNL     1     -35.130  15.842  -4.136  1.00 20.00     0.137 C 
HETATM    6  C6  UNL     1     -33.647  16.135  -4.174  1.00 20.00     0.169 C 
HETATM    7  N7  UNL     1     -35.115  14.785  -5.120  1.00 20.00    -0.222 NA
HETATM    8  O8  UNL     1     -34.249  14.892  -7.321  1.00 20.00    -0.245 OA
HETATM    9  O9  UNL     1     -33.439  16.214  -5.608  1.00 20.00    -0.298 OA
ENDROOT
TORSDOF 0
ENDMDL
MODEL 8
REMARK VINA RESULT:      -3.9      1.405      2.662
REMARK  0 active torsions:
REMARK  status: ('A' for Active; 'I' for Inactive)
ROOT
HETATM    1  C1  UNL     1     -35.595  16.134  -5.687  1.00 20.00    -0.013 C 
HETATM    2  C2  UNL     1     -36.751  15.992  -5.002  1.00 20.00     0.004 C 
HETATM    3  C3  UNL     1     -35.336  13.579  -4.186  1.00 20.00     0.341 C 
HETATM    4  C4  UNL     1     -34.294  15.529  -5.167  1.00 20.00     0.127 C 
HETATM    5  C5  UNL     1     -35.403  15.497  -2.993  1.00 20.00     0.137 C 
HETATM    6  C6  UNL     1     -36.741  15.270  -3.660  1.00 20.00     0.169 C 
HETATM    7  N7  UNL     1     -34.612  14.767  -3.955  1.00 20.00    -0.222 NA
HETATM    8  O8  UNL     1     -34.927  12.528  -4.661  1.00 20.00    -0.245 OA
HETATM    9  O9  UNL     1     -36.669  13.840  -3.897  1.00 20.00    -0.298 OA
ENDROOT
TORSDOF 0
ENDMDL
MODEL 9
REMARK VINA RESULT:      -3.9      2.154      2.975
REMARK  0 active torsions:
REMARK  status: ('A' for Active; 'I' for Inactive)
ROOT
HETATM    1  C1  UNL     1     -35.130  13.857  -5.772  1.00 20.00    -0.013 C 
HETATM    2  C2  UNL     1     -34.451  13.243  -4.778  1.00 20.00     0.004 C 
HETATM    3  C3  UNL     1     -33.524  15.988  -4.455  1.00 20.00     0.341 C 
HETATM    4  C4  UNL     1     -35.512  15.331  -5.670  1.00 20.00     0.127 C 
HETATM    5  C5  UNL     1     -35.200  15.046  -3.265  1.00 20.00     0.137 C 
HETATM    6  C6  UNL     1     -34.116  14.020  -3.510  1.00 20.00     0.169 C 
HETATM    7  N7  UNL     1     -34.928  15.855  -4.430  1.00 20.00    -0.222 NA
HETATM    8  O8  UNL     1     -32.858  16.825  -5.046  1.00 20.00    -0.245 OA
HETATM    9  O9  UNL     1     -32.991  14.897  -3.782  1.00 20.00    -0.298 OA
ENDROOT
TORSDOF 0
ENDMDL
