MODEL 1
REMARK VINA RESULT:      -5.7      0.000      0.000
REMARK  1 active torsions:
REMARK  status: ('A' for Active; 'I' for Inactive)
REMARK    1  A    between atoms: C5_5  and  C8_8 
ROOT
HETATM    1  C1  UNL     1     -34.923   4.787   6.228  1.00 20.00    -0.004 C 
HETATM    2  C2  UNL     1     -34.109   5.963   6.534  1.00 20.00    -0.004 C 
HETATM    3  C3  UNL     1     -35.167   4.186   5.043  1.00 20.00    -0.026 C 
HETATM    4  C4  UNL     1     -33.767   6.934   5.663  1.00 20.00    -0.021 C 
HETATM    5  C6  UNL     1     -34.664   4.555   3.654  1.00 20.00     0.033 C 
HETATM    6  C7  UNL     1     -34.168   6.896   4.260  1.00 20.00     0.026 A 
HETATM    7  C8  UNL     1     -33.420   6.910   2.970  1.00 20.00     0.085 A 
HETATM    8  C9  UNL     1     -33.601   5.598   3.676  1.00 20.00     0.011 A 
ENDROOT
BRANCH   7   9
HETATM    9  C5  UNL     1     -32.092   7.533   2.914  1.00 20.00     0.224 C 
HETATM   10  O10 UNL     1     -31.274   7.387   3.816  1.00 20.00    -0.279 OA
HETATM   11 CL11 UNL     1     -31.864   8.457   1.460  1.00 20.00    -0.043 Cl
ENDBRANCH   7   9
TORSDOF 1
ENDMDL
MODEL 2
REMARK VINA RESULT:      -5.3      1.304      2.317
REMARK  1 active torsions:
REMARK  status: ('A' for Active; 'I' for Inactive)
REMARK    1  A    between atoms: C5_5  and  C8_8 
ROOT
HETATM    1  C1  UNL     1     -35.081   5.112   5.020  1.00 20.00    -0.004 C 
HETATM    2  C2  UNL     1     -35.020   5.156   3.559  1.00 20.00    -0.004 C 
HETATM    3  C3  UNL     1     -34.366   5.798   5.938  1.00 20.00    -0.026 C 
HETATM    4  C4  UNL     1     -33.968   5.574   2.826  1.00 20.00    -0.021 C 
HETATM    5  C6  UNL     1     -33.269   6.833   5.728  1.00 20.00     0.033 C 
HETATM    6  C7  UNL     1     -32.742   6.074   3.440  1.00 20.00     0.026 A 
HETATM    7  C8  UNL     1     -31.990   7.358   3.352  1.00 20.00     0.085 A 
HETATM    8  C9  UNL     1     -33.141   7.269   4.310  1.00 20.00     0.011 A 
ENDROOT
BRANCH   7   9
HETATM    9  C5  UNL     1     -32.107   8.180   2.142  1.00 20.00     0.224 C 
HETATM   10  O10 UNL     1     -31.690   7.791   1.056  1.00 20.00    -0.279 OA
HETATM   11 CL11 UNL     1     -32.884   9.702   2.457  1.00 20.00    -0.043 Cl
ENDBRANCH   7   9
TORSDOF 1
ENDMDL
MODEL 3
REMARK VINA RESULT:      -5.0     11.099     12.730
REMARK  1 active torsions:
REMARK  status: ('A' for Active; 'I' for Inactive)
REMARK    1  A    between atoms: C5_5  and  C8_8 
ROOT
HETATM    1  C1  UNL     1     -33.774  18.630  -2.823  1.00 20.00    -0.004 C 
HETATM    2  C2  UNL     1     -33.615  17.949  -4.107  1.00 20.00    -0.004 C 
HETATM    3  C3  UNL     1     -34.176  18.145  -1.628  1.00 20.00    -0.026 C 
HETATM    4  C4  UNL     1     -34.223  16.802  -4.472  1.00 20.00    -0.021 C 
HETATM    5  C6  UNL     1     -34.590  16.728  -1.253  1.00 20.00     0.033 C 
HETATM    6  C7  UNL     1     -35.118  16.077  -3.575  1.00 20.00     0.026 A 
HETATM    7  C8  UNL     1     -35.130  14.693  -3.021  1.00 20.00     0.085 A 
HETATM    8  C9  UNL     1     -34.304  15.733  -2.325  1.00 20.00     0.011 A 
ENDROOT
BRANCH   7   9
HETATM    9  C5  UNL     1     -34.470  13.614  -3.767  1.00 20.00     0.224 C 
HETATM   10  O10 UNL     1     -35.110  12.800  -4.424  1.00 20.00    -0.279 OA
HETATM   11 CL11 UNL     1     -32.742  13.660  -3.590  1.00 20.00    -0.043 Cl
ENDBRANCH   7   9
TORSDOF 1
ENDMDL
MODEL 4
REMARK VINA RESULT:      -5.0     11.615     12.912
REMARK  1 active torsions:
REMARK  status: ('A' for Active; 'I' for Inactive)
REMARK    1  A    between atoms: C5_5  and  C8_8 
ROOT
HETATM    1  C1  UNL     1     -34.043  18.417  -2.223  1.00 20.00    -0.004 C 
HETATM    2  C2  UNL     1     -34.571  17.258  -1.504  1.00 20.00    -0.004 C 
HETATM    3  C3  UNL     1     -33.707  18.551  -3.525  1.00 20.00    -0.026 C 
HETATM    4  C4  UNL     1     -34.449  15.971  -1.886  1.00 20.00    -0.021 C 
HETATM    5  C6  UNL     1     -33.777  17.525  -4.648  1.00 20.00     0.033 C 
HETATM    6  C7  UNL     1     -33.772  15.587  -3.120  1.00 20.00     0.026 A 
HETATM    7  C8  UNL     1     -34.185  14.825  -4.333  1.00 20.00     0.085 A 
HETATM    8  C9  UNL     1     -34.511  16.287  -4.264  1.00 20.00     0.011 A 
ENDROOT
BRANCH   7   9
HETATM    9  C5  UNL     1     -35.260  13.831  -4.227  1.00 20.00     0.224 C 
HETATM   10  O10 UNL     1     -35.033  12.627  -4.292  1.00 20.00    -0.279 OA
HETATM   11 CL11 UNL     1     -36.817  14.571  -4.007  1.00 20.00    -0.043 Cl
ENDBRANCH   7   9
TORSDOF 1
ENDMDL
MODEL 5
REMARK VINA RESULT:      -5.0     11.454     12.828
REMARK  1 active torsions:
REMARK  status: ('A' for Active; 'I' for Inactive)
REMARK    1  A    between atoms: C5_5  and  C8_8 
ROOT
HETATM    1  C1  UNL     1     -34.797  14.388  -6.308  1.00 20.00    -0.004 C 
HETATM    2  C2  UNL     1     -34.541  15.824  -6.211  1.00 20.00    -0.004 C 
HETATM    3  C3  UNL     1     -34.800  13.440  -5.345  1.00 20.00    -0.026 C 
HETATM    4  C4  UNL     1     -33.855  16.438  -5.225  1.00 20.00    -0.021 C 
HETATM    5  C6  UNL     1     -34.535  13.583  -3.852  1.00 20.00     0.033 C 
HETATM    6  C7  UNL     1     -33.298  15.705  -4.093  1.00 20.00     0.026 A 
HETATM    7  C8  UNL     1     -33.471  15.796  -2.615  1.00 20.00     0.085 A 
HETATM    8  C9  UNL     1     -34.470  15.002  -3.404  1.00 20.00     0.011 A 
ENDROOT
BRANCH   7   9
HETATM    9  C5  UNL     1     -33.865  17.075  -2.014  1.00 20.00     0.224 C 
HETATM   10  O10 UNL     1     -33.587  18.148  -2.541  1.00 20.00    -0.279 OA
HETATM   11 CL11 UNL     1     -34.737  16.858  -0.526  1.00 20.00    -0.043 Cl
ENDBRANCH   7   9
TORSDOF 1
ENDMDL
MODEL 6
REMARK VINA RESULT:      -4.7     11.656     13.451
REMARK  1 active torsions:
REMARK  status: ('A' for Active; 'I' for Inactive)
REMARK    1  A    between atoms: C5_5  and  C8_8 
ROOT
HETATM    1  C1  UNL     1     -36.440  16.060  -7.615  1.00 20.00    -0.004 C 
HETATM    2  C2  UNL     1     -35.012  15.743  -7.613  1.00 20.00    -0.004 C 
HETATM    3  C3  UNL     1     -37.382  15.821  -6.676  1.00 20.00    -0.026 C 
HETATM    4  C4  UNL     1     -34.417  14.790  -6.869  1.00 20.00    -0.021 C 
HETATM    5  C6  UNL     1     -37.241  15.143  -5.320  1.00 20.00     0.033 C 
HETATM    6  C7  UNL     1     -35.163  13.959  -5.928  1.00 20.00     0.026 A 
HETATM    7  C8  UNL     1     -35.059  13.708  -4.462  1.00 20.00     0.085 A 
HETATM    8  C9  UNL     1     -35.823  14.912  -4.928  1.00 20.00     0.011 A 
ENDROOT
BRANCH   7   9
HETATM    9  C5  UNL     1     -33.764  13.878  -3.793  1.00 20.00     0.224 C 
HETATM   10  O10 UNL     1     -32.917  12.990  -3.792  1.00 20.00    -0.279 OA
HETATM   11 CL11 UNL     1     -33.615  15.438  -3.043  1.00 20.00    -0.043 Cl
ENDBRANCH   7   9
TORSDOF 1
ENDMDL
MODEL 7
REMARK VINA RESULT:      -4.7     11.100     12.736
REMARK  1 active torsions:
REMARK  status: ('A' for Active; 'I' for Inactive)
REMARK    1  A    between atoms: C5_5  and  C8_8 
ROOT
HETATM    1  C1  UNL     1     -37.431  15.430  -6.462  1.00 20.00    -0.004 C 
HETATM    2  C2  UNL     1     -36.075  15.197  -6.958  1.00 20.00    -0.004 C 
HETATM    3  C3  UNL     1     -37.949  15.236  -5.229  1.00 20.00    -0.026 C 
HETATM    4  C4  UNL     1     -35.168  14.363  -6.412  1.00 20.00    -0.021 C 
HETATM    5  C6  UNL     1     -37.269  14.713  -3.970  1.00 20.00     0.033 C 
HETATM    6  C7  UNL     1     -35.448  13.593  -5.204  1.00 20.00     0.026 A 
HETATM    7  C8  UNL     1     -34.803  13.502  -3.863  1.00 20.00     0.085 A 
HETATM    8  C9  UNL     1     -35.790  14.605  -4.107  1.00 20.00     0.011 A 
ENDROOT
BRANCH   7   9
HETATM    9  C5  UNL     1     -33.375  13.815  -3.728  1.00 20.00     0.224 C 
HETATM   10  O10 UNL     1     -32.535  12.935  -3.575  1.00 20.00    -0.279 OA
HETATM   11 CL11 UNL     1     -33.069  15.524  -3.812  1.00 20.00    -0.043 Cl
ENDBRANCH   7   9
TORSDOF 1
ENDMDL
MODEL 8
REMARK VINA RESULT:      -4.7     11.535     12.739
REMARK  1 active torsions:
REMARK  status: ('A' for Active; 'I' for Inactive)
REMARK    1  A    between atoms: C5_5  and  C8_8 
ROOT
HETATM    1  C1  UNL     1     -35.553  14.595  -5.960  1.00 20.00    -0.004 C 
HETATM    2  C2  UNL     1     -35.799  15.985  -5.574  1.00 20.00    -0.004 C 
HETATM    3  C3  UNL     1     -34.862  13.626  -5.321  1.00 20.00    -0.026 C 
HETATM    4  C4  UNL     1     -35.053  16.707  -4.713  1.00 20.00    -0.021 C 
HETATM    5  C6  UNL     1     -34.123  13.688  -3.991  1.00 20.00     0.033 C 
HETATM    6  C7  UNL     1     -33.892  16.145  -4.029  1.00 20.00     0.026 A 
HETATM    7  C8  UNL     1     -33.517  15.979  -2.596  1.00 20.00     0.085 A 
HETATM    8  C9  UNL     1     -34.394  14.940  -3.229  1.00 20.00     0.011 A 
ENDROOT
BRANCH   7   9
HETATM    9  C5  UNL     1     -34.075  16.895  -1.594  1.00 20.00     0.224 C 
HETATM   10  O10 UNL     1     -34.741  16.486  -0.648  1.00 20.00    -0.279 OA
HETATM   11 CL11 UNL     1     -33.675  18.552  -1.928  1.00 20.00    -0.043 Cl
ENDBRANCH   7   9
TORSDOF 1
ENDMDL
MODEL 9
REMARK VINA RESULT:      -4.7     11.523     12.676
REMARK  1 active torsions:
REMARK  status: ('A' for Active; 'I' for Inactive)
REMARK    1  A    between atoms: C5_5  and  C8_8 
ROOT
HETATM    1  C1  UNL     1     -36.002  18.063  -2.364  1.00 20.00    -0.004 C 
HETATM    2  C2  UNL     1     -36.762  17.309  -3.361  1.00 20.00    -0.004 C 
HETATM    3  C3  UNL     1     -34.797  17.800  -1.812  1.00 20.00    -0.026 C 
HETATM    4  C4  UNL     1     -36.620  15.996  -3.634  1.00 20.00    -0.021 C 
HETATM    5  C6  UNL     1     -33.858  16.627  -2.062  1.00 20.00     0.033 C 
HETATM    6  C7  UNL     1     -35.633  15.163  -2.954  1.00 20.00     0.026 A 
HETATM    7  C8  UNL     1     -34.493  14.322  -3.418  1.00 20.00     0.085 A 
HETATM    8  C9  UNL     1     -34.264  15.792  -3.227  1.00 20.00     0.011 A 
ENDROOT
BRANCH   7   9
HETATM    9  C5  UNL     1     -34.521  13.757  -4.773  1.00 20.00     0.224 C 
HETATM   10  O10 UNL     1     -34.715  12.561  -4.968  1.00 20.00    -0.279 OA
HETATM   11 CL11 UNL     1     -34.252  14.966  -5.992  1.00 20.00    -0.043 Cl
ENDBRANCH   7   9
TORSDOF 1
ENDMDL
