MODEL 1
REMARK VINA RESULT:      -5.3      0.000      0.000
REMARK  1 active torsions:
REMARK  status: ('A' for Active; 'I' for Inactive)
REMARK    1  A    between atoms: C1_1  and  C8_8 
ROOT
HETATM    1  C2  UNL     1     -34.812   4.524   6.186  1.00 20.00     0.001 C 
HETATM    2  C3  UNL     1     -34.552   5.957   6.619  1.00 20.00     0.001 C 
HETATM    3  C4  UNL     1     -34.968   4.647   4.674  1.00 20.00     0.010 C 
HETATM    4  C5  UNL     1     -33.555   6.459   5.579  1.00 20.00     0.010 C 
HETATM    5  C6  UNL     1     -34.427   6.663   3.113  1.00 20.00     0.023 C 
HETATM    6  C7  UNL     1     -32.792   5.309   3.363  1.00 20.00     0.023 C 
HETATM    7  C8  UNL     1     -32.986   6.613   2.553  1.00 20.00     0.073 C 
HETATM    8  C9  UNL     1     -33.970   5.744   4.282  1.00 20.00    -0.039 C 
ENDROOT
BRANCH   7   9
HETATM    9  C1  UNL     1     -32.055   7.792   2.865  1.00 20.00     0.223 C 
HETATM   10  O10 UNL     1     -31.187   7.717   3.729  1.00 20.00    -0.279 OA
HETATM   11 CL11 UNL     1     -32.394   9.174   1.867  1.00 20.00    -0.043 Cl
ENDBRANCH   7   9
TORSDOF 1
ENDMDL
MODEL 2
REMARK VINA RESULT:      -4.9     11.500     12.367
REMARK  1 active torsions:
REMARK  status: ('A' for Active; 'I' for Inactive)
REMARK    1  A    between atoms: C1_1  and  C8_8 
ROOT
HETATM    1  C2  UNL     1     -34.224  18.259  -1.257  1.00 20.00     0.001 C 
HETATM    2  C3  UNL     1     -34.484  16.934  -0.561  1.00 20.00     0.001 C 
HETATM    3  C4  UNL     1     -33.544  17.836  -2.554  1.00 20.00     0.010 C 
HETATM    4  C5  UNL     1     -35.009  16.048  -1.685  1.00 20.00     0.010 C 
HETATM    5  C6  UNL     1     -33.322  15.462  -3.609  1.00 20.00     0.023 C 
HETATM    6  C7  UNL     1     -35.061  16.528  -4.251  1.00 20.00     0.023 C 
HETATM    7  C8  UNL     1     -34.479  15.133  -4.582  1.00 20.00     0.073 C 
HETATM    8  C9  UNL     1     -34.238  16.521  -2.930  1.00 20.00    -0.039 C 
ENDROOT
BRANCH   7   9
HETATM    9  C1  UNL     1     -35.347  13.906  -4.273  1.00 20.00     0.223 C 
HETATM   10  O10 UNL     1     -34.868  12.778  -4.204  1.00 20.00    -0.279 OA
HETATM   11 CL11 UNL     1     -37.018  14.327  -4.048  1.00 20.00    -0.043 Cl
ENDBRANCH   7   9
TORSDOF 1
ENDMDL
MODEL 3
REMARK VINA RESULT:      -4.8     11.199     12.392
REMARK  1 active torsions:
REMARK  status: ('A' for Active; 'I' for Inactive)
REMARK    1  A    between atoms: C1_1  and  C8_8 
ROOT
HETATM    1  C2  UNL     1     -35.298  18.251  -1.634  1.00 20.00     0.001 C 
HETATM    2  C3  UNL     1     -34.444  17.200  -0.946  1.00 20.00     0.001 C 
HETATM    3  C4  UNL     1     -34.923  18.089  -3.103  1.00 20.00     0.010 C 
HETATM    4  C5  UNL     1     -34.591  15.984  -1.854  1.00 20.00     0.010 C 
HETATM    5  C6  UNL     1     -33.575  16.184  -4.265  1.00 20.00     0.023 C 
HETATM    6  C7  UNL     1     -35.685  15.839  -4.220  1.00 20.00     0.023 C 
HETATM    7  C8  UNL     1     -34.484  15.046  -4.790  1.00 20.00     0.073 C 
HETATM    8  C9  UNL     1     -34.702  16.580  -3.268  1.00 20.00    -0.039 C 
ENDROOT
BRANCH   7   9
HETATM    9  C1  UNL     1     -34.242  13.631  -4.250  1.00 20.00     0.223 C 
HETATM   10  O10 UNL     1     -35.080  12.742  -4.373  1.00 20.00    -0.279 OA
HETATM   11 CL11 UNL     1     -32.692  13.480  -3.479  1.00 20.00    -0.043 Cl
ENDBRANCH   7   9
TORSDOF 1
ENDMDL
MODEL 4
REMARK VINA RESULT:      -4.7     11.227     13.337
REMARK  1 active torsions:
REMARK  status: ('A' for Active; 'I' for Inactive)
REMARK    1  A    between atoms: C1_1  and  C8_8 
ROOT
HETATM    1  C2  UNL     1     -33.592  19.118  -4.621  1.00 20.00     0.001 C 
HETATM    2  C3  UNL     1     -33.604  18.225  -5.850  1.00 20.00     0.001 C 
HETATM    3  C4  UNL     1     -34.512  18.381  -3.654  1.00 20.00     0.010 C 
HETATM    4  C5  UNL     1     -33.470  16.824  -5.263  1.00 20.00     0.010 C 
HETATM    5  C6  UNL     1     -35.471  15.961  -3.801  1.00 20.00     0.023 C 
HETATM    6  C7  UNL     1     -33.606  16.084  -2.763  1.00 20.00     0.023 C 
HETATM    7  C8  UNL     1     -34.566  14.919  -3.101  1.00 20.00     0.073 C 
HETATM    8  C9  UNL     1     -34.235  16.898  -3.931  1.00 20.00    -0.039 C 
ENDROOT
BRANCH   7   9
HETATM    9  C1  UNL     1     -34.018  13.764  -3.948  1.00 20.00     0.223 C 
HETATM   10  O10 UNL     1     -33.013  13.142  -3.617  1.00 20.00    -0.279 OA
HETATM   11 CL11 UNL     1     -34.978  13.481  -5.369  1.00 20.00    -0.043 Cl
ENDBRANCH   7   9
TORSDOF 1
ENDMDL
MODEL 5
REMARK VINA RESULT:      -4.6     11.954     12.521
REMARK  1 active torsions:
REMARK  status: ('A' for Active; 'I' for Inactive)
REMARK    1  A    between atoms: C1_1  and  C8_8 
ROOT
HETATM    1  C2  UNL     1     -34.930  16.930  -1.144  1.00 20.00     0.001 C 
HETATM    2  C3  UNL     1     -33.634  16.708  -1.906  1.00 20.00     0.001 C 
HETATM    3  C4  UNL     1     -35.971  17.003  -2.255  1.00 20.00     0.010 C 
HETATM    4  C5  UNL     1     -34.017  15.660  -2.946  1.00 20.00     0.010 C 
HETATM    5  C6  UNL     1     -35.743  16.396  -4.780  1.00 20.00     0.023 C 
HETATM    6  C7  UNL     1     -36.391  14.764  -3.560  1.00 20.00     0.023 C 
HETATM    7  C8  UNL     1     -36.123  14.925  -5.075  1.00 20.00     0.073 C 
HETATM    8  C9  UNL     1     -35.476  15.996  -3.300  1.00 20.00    -0.039 C 
ENDROOT
BRANCH   7   9
HETATM    9  C1  UNL     1     -35.055  14.024  -5.711  1.00 20.00     0.223 C 
HETATM   10  O10 UNL     1     -34.787  12.919  -5.250  1.00 20.00    -0.279 OA
HETATM   11 CL11 UNL     1     -34.323  14.762  -7.104  1.00 20.00    -0.043 Cl
ENDBRANCH   7   9
TORSDOF 1
ENDMDL
MODEL 6
REMARK VINA RESULT:      -4.6     11.599     12.608
REMARK  1 active torsions:
REMARK  status: ('A' for Active; 'I' for Inactive)
REMARK    1  A    between atoms: C1_1  and  C8_8 
ROOT
HETATM    1  C2  UNL     1     -33.637  17.402  -1.390  1.00 20.00     0.001 C 
HETATM    2  C3  UNL     1     -33.993  18.140  -2.669  1.00 20.00     0.001 C 
HETATM    3  C4  UNL     1     -34.646  16.259  -1.362  1.00 20.00     0.010 C 
HETATM    4  C5  UNL     1     -34.207  17.012  -3.673  1.00 20.00     0.010 C 
HETATM    5  C6  UNL     1     -36.249  15.420  -3.240  1.00 20.00     0.023 C 
HETATM    6  C7  UNL     1     -34.347  14.442  -3.234  1.00 20.00     0.023 C 
HETATM    7  C8  UNL     1     -35.617  14.304  -4.106  1.00 20.00     0.073 C 
HETATM    8  C9  UNL     1     -34.815  15.873  -2.837  1.00 20.00    -0.039 C 
ENDROOT
BRANCH   7   9
HETATM    9  C1  UNL     1     -35.479  14.559  -5.613  1.00 20.00     0.223 C 
HETATM   10  O10 UNL     1     -34.435  14.325  -6.213  1.00 20.00    -0.279 OA
HETATM   11 CL11 UNL     1     -36.942  15.193  -6.305  1.00 20.00    -0.043 Cl
ENDBRANCH   7   9
TORSDOF 1
ENDMDL
MODEL 7
REMARK VINA RESULT:      -4.5     11.679     13.116
REMARK  1 active torsions:
REMARK  status: ('A' for Active; 'I' for Inactive)
REMARK    1  A    between atoms: C1_1  and  C8_8 
ROOT
HETATM    1  C2  UNL     1     -35.992  14.819  -6.672  1.00 20.00     0.001 C 
HETATM    2  C3  UNL     1     -36.127  16.315  -6.447  1.00 20.00     0.001 C 
HETATM    3  C4  UNL     1     -34.640  14.499  -6.043  1.00 20.00     0.010 C 
HETATM    4  C5  UNL     1     -35.663  16.493  -5.005  1.00 20.00     0.010 C 
HETATM    5  C6  UNL     1     -33.138  15.976  -4.508  1.00 20.00     0.023 C 
HETATM    6  C7  UNL     1     -34.521  14.749  -3.433  1.00 20.00     0.023 C 
HETATM    7  C8  UNL     1     -33.434  15.763  -3.004  1.00 20.00     0.073 C 
HETATM    8  C9  UNL     1     -34.561  15.434  -4.830  1.00 20.00    -0.039 C 
ENDROOT
BRANCH   7   9
HETATM    9  C1  UNL     1     -33.877  16.980  -2.182  1.00 20.00     0.223 C 
HETATM   10  O10 UNL     1     -33.646  18.127  -2.552  1.00 20.00    -0.279 OA
HETATM   11 CL11 UNL     1     -34.709  16.519  -0.727  1.00 20.00    -0.043 Cl
ENDBRANCH   7   9
TORSDOF 1
ENDMDL
MODEL 8
REMARK VINA RESULT:      -4.5     11.592     12.464
REMARK  1 active torsions:
REMARK  status: ('A' for Active; 'I' for Inactive)
REMARK    1  A    between atoms: C1_1  and  C8_8 
ROOT
HETATM    1  C2  UNL     1     -34.544  13.732  -4.358  1.00 20.00     0.001 C 
HETATM    2  C3  UNL     1     -33.170  13.998  -3.766  1.00 20.00     0.001 C 
HETATM    3  C4  UNL     1     -35.475  14.482  -3.412  1.00 20.00     0.010 C 
HETATM    4  C5  UNL     1     -33.218  15.484  -3.430  1.00 20.00     0.010 C 
HETATM    5  C6  UNL     1     -34.899  16.215  -1.551  1.00 20.00     0.023 C 
HETATM    6  C7  UNL     1     -35.270  17.098  -3.462  1.00 20.00     0.023 C 
HETATM    7  C8  UNL     1     -34.913  17.672  -2.070  1.00 20.00     0.073 C 
HETATM    8  C9  UNL     1     -34.678  15.730  -3.014  1.00 20.00    -0.039 C 
ENDROOT
BRANCH   7   9
HETATM    9  C1  UNL     1     -33.621  18.490  -1.945  1.00 20.00     0.223 C 
HETATM   10  O10 UNL     1     -33.220  19.205  -2.858  1.00 20.00    -0.279 OA
HETATM   11 CL11 UNL     1     -32.852  18.264  -0.403  1.00 20.00    -0.043 Cl
ENDBRANCH   7   9
TORSDOF 1
ENDMDL
MODEL 9
REMARK VINA RESULT:      -4.5     11.530     12.993
REMARK  1 active torsions:
REMARK  status: ('A' for Active; 'I' for Inactive)
REMARK    1  A    between atoms: C1_1  and  C8_8 
ROOT
HETATM    1  C2  UNL     1     -34.890  18.909  -3.256  1.00 20.00     0.001 C 
HETATM    2  C3  UNL     1     -36.164  18.122  -3.516  1.00 20.00     0.001 C 
HETATM    3  C4  UNL     1     -33.944  17.852  -2.698  1.00 20.00     0.010 C 
HETATM    4  C5  UNL     1     -35.654  16.839  -4.163  1.00 20.00     0.010 C 
HETATM    5  C6  UNL     1     -34.198  15.257  -2.657  1.00 20.00     0.023 C 
HETATM    6  C7  UNL     1     -33.195  15.995  -4.396  1.00 20.00     0.023 C 
HETATM    7  C8  UNL     1     -33.573  14.579  -3.900  1.00 20.00     0.073 C 
HETATM    8  C9  UNL     1     -34.304  16.579  -3.473  1.00 20.00    -0.039 C 
ENDROOT
BRANCH   7   9
HETATM    9  C1  UNL     1     -34.491  13.732  -4.791  1.00 20.00     0.223 C 
HETATM   10  O10 UNL     1     -35.032  12.713  -4.375  1.00 20.00    -0.279 OA
HETATM   11 CL11 UNL     1     -34.642  14.395  -6.391  1.00 20.00    -0.043 Cl
ENDBRANCH   7   9
TORSDOF 1
ENDMDL
