MODEL 1
REMARK VINA RESULT:      -4.9      0.000      0.000
REMARK  0 active torsions:
REMARK  status: ('A' for Active; 'I' for Inactive)
ROOT
HETATM    1  C1  UNL     1     -34.472  13.799  -3.820  1.00 20.00     0.066 C 
HETATM    2  C2  UNL     1     -33.574  17.433  -1.471  1.00 20.00     0.031 C 
HETATM    3  C3  UNL     1     -34.728  16.477  -1.160  1.00 20.00     0.009 C 
HETATM    4  C4  UNL     1     -33.755  18.137  -2.822  1.00 20.00     0.272 C 
HETATM    5  C5  UNL     1     -33.475  16.062  -4.091  1.00 20.00     0.292 C 
HETATM    6  C6  UNL     1     -35.603  16.750  -3.473  1.00 20.00     0.278 C 
HETATM    7  C7  UNL     1     -34.022  15.008  -3.110  1.00 20.00     0.127 C 
HETATM    8  C8  UNL     1     -35.198  15.724  -2.420  1.00 20.00     0.033 C 
HETATM    9  N9  UNL     1     -34.827  12.846  -4.380  1.00 20.00    -0.197 NA
HETATM   10  N10 UNL     1     -34.296  17.280  -3.899  1.00 20.00     0.090 N 
ENDROOT
TORSDOF 0
ENDMDL
MODEL 2
REMARK VINA RESULT:      -4.6      1.500      3.626
REMARK  0 active torsions:
REMARK  status: ('A' for Active; 'I' for Inactive)
ROOT
HETATM    1  C1  UNL     1     -34.405  16.488  -1.556  1.00 20.00     0.066 C 
HETATM    2  C2  UNL     1     -34.665  13.452  -4.757  1.00 20.00     0.031 C 
HETATM    3  C3  UNL     1     -33.440  13.646  -3.859  1.00 20.00     0.009 C 
HETATM    4  C4  UNL     1     -34.925  14.672  -5.651  1.00 20.00     0.272 C 
HETATM    5  C5  UNL     1     -35.509  16.103  -3.752  1.00 20.00     0.292 C 
HETATM    6  C6  UNL     1     -33.318  16.044  -4.511  1.00 20.00     0.278 C 
HETATM    7  C7  UNL     1     -34.657  15.501  -2.619  1.00 20.00     0.127 C 
HETATM    8  C8  UNL     1     -33.351  15.088  -3.323  1.00 20.00     0.033 C 
HETATM    9  N9  UNL     1     -34.206  17.266  -0.718  1.00 20.00    -0.197 NA
HETATM   10  N10 UNL     1     -34.709  15.978  -4.992  1.00 20.00     0.090 N 
ENDROOT
TORSDOF 0
ENDMDL
MODEL 3
REMARK VINA RESULT:      -4.5      2.058      3.409
REMARK  0 active torsions:
REMARK  status: ('A' for Active; 'I' for Inactive)
ROOT
HETATM    1  C1  UNL     1     -37.440  14.745  -4.045  1.00 20.00     0.066 C 
HETATM    2  C2  UNL     1     -33.418  16.180  -5.184  1.00 20.00     0.031 C 
HETATM    3  C3  UNL     1     -34.316  15.340  -6.096  1.00 20.00     0.009 C 
HETATM    4  C4  UNL     1     -32.981  15.408  -3.932  1.00 20.00     0.272 C 
HETATM    5  C5  UNL     1     -35.252  15.340  -3.020  1.00 20.00     0.292 C 
HETATM    6  C6  UNL     1     -34.493  13.588  -4.337  1.00 20.00     0.278 C 
HETATM    7  C7  UNL     1     -36.113  15.332  -4.298  1.00 20.00     0.127 C 
HETATM    8  C8  UNL     1     -35.298  14.473  -5.283  1.00 20.00     0.033 C 
HETATM    9  N9  UNL     1     -38.486  14.283  -3.846  1.00 20.00    -0.197 NA
HETATM   10  N10 UNL     1     -34.032  14.560  -3.330  1.00 20.00     0.090 N 
ENDROOT
TORSDOF 0
ENDMDL
MODEL 4
REMARK VINA RESULT:      -4.2      1.950      2.394
REMARK  0 active torsions:
REMARK  status: ('A' for Active; 'I' for Inactive)
ROOT
HETATM    1  C1  UNL     1     -37.345  14.560  -3.861  1.00 20.00     0.066 C 
HETATM    2  C2  UNL     1     -33.039  15.495  -3.519  1.00 20.00     0.031 C 
HETATM    3  C3  UNL     1     -34.076  15.834  -2.445  1.00 20.00     0.009 C 
HETATM    4  C4  UNL     1     -33.283  16.266  -4.823  1.00 20.00     0.272 C 
HETATM    5  C5  UNL     1     -35.374  15.079  -5.288  1.00 20.00     0.292 C 
HETATM    6  C6  UNL     1     -35.428  17.084  -4.120  1.00 20.00     0.278 C 
HETATM    7  C7  UNL     1     -35.886  14.761  -3.870  1.00 20.00     0.127 C 
HETATM    8  C8  UNL     1     -35.485  16.000  -3.048  1.00 20.00     0.033 C 
HETATM    9  N9  UNL     1     -38.495  14.402  -3.854  1.00 20.00    -0.197 NA
HETATM   10  N10 UNL     1     -34.705  16.399  -5.206  1.00 20.00     0.090 N 
ENDROOT
TORSDOF 0
ENDMDL
MODEL 5
REMARK VINA RESULT:      -4.2      1.822      3.775
REMARK  0 active torsions:
REMARK  status: ('A' for Active; 'I' for Inactive)
ROOT
HETATM    1  C1  UNL     1     -34.528  16.137  -1.908  1.00 20.00     0.066 C 
HETATM    2  C2  UNL     1     -34.493  14.997  -6.178  1.00 20.00     0.031 C 
HETATM    3  C3  UNL     1     -35.338  16.138  -5.603  1.00 20.00     0.009 C 
HETATM    4  C4  UNL     1     -34.924  13.628  -5.634  1.00 20.00     0.272 C 
HETATM    5  C5  UNL     1     -34.176  14.149  -3.361  1.00 20.00     0.292 C 
HETATM    6  C6  UNL     1     -36.374  14.572  -3.970  1.00 20.00     0.278 C 
HETATM    7  C7  UNL     1     -34.374  15.675  -3.298  1.00 20.00     0.127 C 
HETATM    8  C8  UNL     1     -35.659  15.912  -4.113  1.00 20.00     0.033 C 
HETATM    9  N9  UNL     1     -34.648  16.501  -0.812  1.00 20.00    -0.197 NA
HETATM   10  N10 UNL     1     -35.276  13.616  -4.198  1.00 20.00     0.090 N 
ENDROOT
TORSDOF 0
ENDMDL
MODEL 6
REMARK VINA RESULT:      -4.1     11.857     13.376
REMARK  0 active torsions:
REMARK  status: ('A' for Active; 'I' for Inactive)
ROOT
HETATM    1  C1  UNL     1     -41.825   3.262  -2.694  1.00 20.00     0.066 C 
HETATM    2  C2  UNL     1     -41.150   7.225  -0.857  1.00 20.00     0.031 C 
HETATM    3  C3  UNL     1     -40.743   5.899  -0.207  1.00 20.00     0.009 C 
HETATM    4  C4  UNL     1     -42.673   7.354  -1.001  1.00 20.00     0.272 C 
HETATM    5  C5  UNL     1     -42.804   5.549  -2.650  1.00 20.00     0.292 C 
HETATM    6  C6  UNL     1     -43.081   5.066  -0.397  1.00 20.00     0.278 C 
HETATM    7  C7  UNL     1     -41.626   4.647  -2.234  1.00 20.00     0.127 C 
HETATM    8  C8  UNL     1     -41.622   4.733  -0.697  1.00 20.00     0.033 C 
HETATM    9  N9  UNL     1     -41.982   2.170  -3.057  1.00 20.00    -0.197 NA
HETATM   10  N10 UNL     1     -43.365   6.110  -1.398  1.00 20.00     0.090 N 
ENDROOT
TORSDOF 0
ENDMDL
MODEL 7
REMARK VINA RESULT:      -4.0      3.029      4.372
REMARK  0 active torsions:
REMARK  status: ('A' for Active; 'I' for Inactive)
ROOT
HETATM    1  C1  UNL     1     -34.080  13.576  -4.482  1.00 20.00     0.066 C 
HETATM    2  C2  UNL     1     -36.754  14.888  -7.747  1.00 20.00     0.031 C 
HETATM    3  C3  UNL     1     -35.253  14.638  -7.918  1.00 20.00     0.009 C 
HETATM    4  C4  UNL     1     -37.040  16.063  -6.802  1.00 20.00     0.272 C 
HETATM    5  C5  UNL     1     -36.171  14.874  -4.846  1.00 20.00     0.292 C 
HETATM    6  C6  UNL     1     -34.757  16.240  -6.079  1.00 20.00     0.278 C 
HETATM    7  C7  UNL     1     -35.098  13.963  -5.472  1.00 20.00     0.127 C 
HETATM    8  C8  UNL     1     -34.491  14.829  -6.592  1.00 20.00     0.033 C 
HETATM    9  N9  UNL     1     -33.278  13.270  -3.700  1.00 20.00    -0.197 NA
HETATM   10  N10 UNL     1     -36.154  16.137  -5.620  1.00 20.00     0.090 N 
ENDROOT
TORSDOF 0
ENDMDL
MODEL 8
REMARK VINA RESULT:      -4.0      2.180      3.008
REMARK  0 active torsions:
REMARK  status: ('A' for Active; 'I' for Inactive)
ROOT
HETATM    1  C1  UNL     1     -35.576  14.660  -7.030  1.00 20.00     0.066 C 
HETATM    2  C2  UNL     1     -32.876  14.832  -3.536  1.00 20.00     0.031 C 
HETATM    3  C3  UNL     1     -33.611  13.567  -3.988  1.00 20.00     0.009 C 
HETATM    4  C4  UNL     1     -33.844  15.925  -3.064  1.00 20.00     0.272 C 
HETATM    5  C5  UNL     1     -34.766  16.261  -5.307  1.00 20.00     0.292 C 
HETATM    6  C6  UNL     1     -35.789  14.764  -3.860  1.00 20.00     0.278 C 
HETATM    7  C7  UNL     1     -34.618  14.860  -5.931  1.00 20.00     0.127 C 
HETATM    8  C8  UNL     1     -34.903  13.905  -4.757  1.00 20.00     0.033 C 
HETATM    9  N9  UNL     1     -36.331  14.503  -7.898  1.00 20.00    -0.197 NA
HETATM   10  N10 UNL     1     -35.075  16.053  -3.873  1.00 20.00     0.090 N 
ENDROOT
TORSDOF 0
ENDMDL
MODEL 9
REMARK VINA RESULT:      -3.9      1.322      2.334
REMARK  0 active torsions:
REMARK  status: ('A' for Active; 'I' for Inactive)
ROOT
HETATM    1  C1  UNL     1     -34.843  13.721  -4.661  1.00 20.00     0.066 C 
HETATM    2  C2  UNL     1     -34.607  18.134  -4.678  1.00 20.00     0.031 C 
HETATM    3  C3  UNL     1     -33.429  17.212  -5.004  1.00 20.00     0.009 C 
HETATM    4  C4  UNL     1     -35.069  17.988  -3.221  1.00 20.00     0.272 C 
HETATM    5  C5  UNL     1     -35.876  15.702  -3.567  1.00 20.00     0.292 C 
HETATM    6  C6  UNL     1     -33.707  16.051  -2.821  1.00 20.00     0.278 C 
HETATM    7  C7  UNL     1     -34.932  15.190  -4.672  1.00 20.00     0.127 C 
HETATM    8  C8  UNL     1     -33.578  15.837  -4.326  1.00 20.00     0.033 C 
HETATM    9  N9  UNL     1     -34.773  12.562  -4.652  1.00 20.00    -0.197 NA
HETATM   10  N10 UNL     1     -35.070  16.601  -2.709  1.00 20.00     0.090 N 
ENDROOT
TORSDOF 0
ENDMDL
