MODEL 1
REMARK VINA RESULT:      -4.1      0.000      0.000
REMARK  1 active torsions:
REMARK  status: ('A' for Active; 'I' for Inactive)
REMARK    1  A    between atoms: C6_6  and  N10_10 
ROOT
HETATM    1  C1  UNL     1     -37.263  14.530  -4.013  1.00 20.00     0.066 C 
HETATM    2  C2  UNL     1     -33.980  14.176  -3.641  1.00 20.00    -0.054 C 
HETATM    3  C3  UNL     1     -32.670  13.995  -3.470  1.00 20.00     0.016 C 
HETATM    4  C4  UNL     1     -35.020  13.435  -4.457  1.00 20.00     0.057 C 
HETATM    5  C5  UNL     1     -35.857  14.737  -4.302  1.00 20.00     0.134 C 
HETATM    6  C6  UNL     1     -34.987  15.156  -3.076  1.00 20.00     0.268 C 
HETATM    7  N9  UNL     1     -38.388  14.364  -3.783  1.00 20.00    -0.197 NA
ENDROOT
BRANCH   6   8
HETATM    8  N10 UNL     1     -34.603  16.553  -3.256  1.00 20.00     0.089 N 
HETATM    9  C7  UNL     1     -33.759  17.001  -2.148  1.00 20.00     0.310 C 
HETATM   10  C8  UNL     1     -35.791  17.401  -3.367  1.00 20.00     0.310 C 
ENDBRANCH   6   8
TORSDOF 1
ENDMDL
MODEL 2
REMARK VINA RESULT:      -4.1      1.693      2.739
REMARK  1 active torsions:
REMARK  status: ('A' for Active; 'I' for Inactive)
REMARK    1  A    between atoms: C6_6  and  N10_10 
ROOT
HETATM    1  C1  UNL     1     -34.624  13.718  -4.547  1.00 20.00     0.066 C 
HETATM    2  C2  UNL     1     -34.044  16.235  -2.457  1.00 20.00    -0.054 C 
HETATM    3  C3  UNL     1     -33.797  17.215  -1.586  1.00 20.00     0.016 C 
HETATM    4  C4  UNL     1     -33.141  15.270  -3.199  1.00 20.00     0.057 C 
HETATM    5  C5  UNL     1     -34.361  15.087  -4.147  1.00 20.00     0.134 C 
HETATM    6  C6  UNL     1     -35.310  15.644  -3.041  1.00 20.00     0.268 C 
HETATM    7  N9  UNL     1     -34.834  12.623  -4.868  1.00 20.00    -0.197 NA
ENDROOT
BRANCH   6   8
HETATM    8  N10 UNL     1     -36.184  16.636  -3.659  1.00 20.00     0.089 N 
HETATM    9  C7  UNL     1     -36.913  17.388  -2.637  1.00 20.00     0.310 C 
HETATM   10  C8  UNL     1     -37.119  15.992  -4.582  1.00 20.00     0.310 C 
ENDBRANCH   6   8
TORSDOF 1
ENDMDL
MODEL 3
REMARK VINA RESULT:      -3.9      2.165      2.745
REMARK  1 active torsions:
REMARK  status: ('A' for Active; 'I' for Inactive)
REMARK    1  A    between atoms: C6_6  and  N10_10 
ROOT
HETATM    1  C1  UNL     1     -34.590  14.700  -5.795  1.00 20.00     0.066 C 
HETATM    2  C2  UNL     1     -34.534  15.860  -2.682  1.00 20.00    -0.054 C 
HETATM    3  C3  UNL     1     -34.552  16.307  -1.425  1.00 20.00     0.016 C 
HETATM    4  C4  UNL     1     -34.429  14.471  -3.276  1.00 20.00     0.057 C 
HETATM    5  C5  UNL     1     -34.003  15.215  -4.573  1.00 20.00     0.134 C 
HETATM    6  C6  UNL     1     -34.648  16.530  -4.035  1.00 20.00     0.268 C 
HETATM    7  N9  UNL     1     -35.059  14.287  -6.772  1.00 20.00    -0.197 NA
ENDROOT
BRANCH   6   8
HETATM    8  N10 UNL     1     -33.688  17.613  -4.232  1.00 20.00     0.089 N 
HETATM    9  C7  UNL     1     -34.078  18.792  -3.459  1.00 20.00     0.310 C 
HETATM   10  C8  UNL     1     -33.577  17.948  -5.652  1.00 20.00     0.310 C 
ENDBRANCH   6   8
TORSDOF 1
ENDMDL
MODEL 4
REMARK VINA RESULT:      -3.9      2.432      3.438
REMARK  1 active torsions:
REMARK  status: ('A' for Active; 'I' for Inactive)
REMARK    1  A    between atoms: C6_6  and  N10_10 
ROOT
HETATM    1  C1  UNL     1     -34.415  13.742  -4.264  1.00 20.00     0.066 C 
HETATM    2  C2  UNL     1     -33.979  16.973  -3.628  1.00 20.00    -0.054 C 
HETATM    3  C3  UNL     1     -33.835  18.268  -3.339  1.00 20.00     0.016 C 
HETATM    4  C4  UNL     1     -33.643  15.708  -2.865  1.00 20.00     0.057 C 
HETATM    5  C5  UNL     1     -33.730  15.020  -4.256  1.00 20.00     0.134 C 
HETATM    6  C6  UNL     1     -34.565  16.219  -4.803  1.00 20.00     0.268 C 
HETATM    7  N9  UNL     1     -34.963  12.719  -4.271  1.00 20.00    -0.197 NA
ENDROOT
BRANCH   6   8
HETATM    8  N10 UNL     1     -33.997  16.612  -6.089  1.00 20.00     0.089 N 
HETATM    9  C7  UNL     1     -34.568  17.882  -6.537  1.00 20.00     0.310 C 
HETATM   10  C8  UNL     1     -34.225  15.569  -7.090  1.00 20.00     0.310 C 
ENDBRANCH   6   8
TORSDOF 1
ENDMDL
MODEL 5
REMARK VINA RESULT:      -3.8      2.320      2.908
REMARK  1 active torsions:
REMARK  status: ('A' for Active; 'I' for Inactive)
REMARK    1  A    between atoms: C6_6  and  N10_10 
ROOT
HETATM    1  C1  UNL     1     -34.677  13.871  -4.808  1.00 20.00     0.066 C 
HETATM    2  C2  UNL     1     -33.922  17.010  -5.591  1.00 20.00    -0.054 C 
HETATM    3  C3  UNL     1     -33.582  18.255  -5.930  1.00 20.00     0.016 C 
HETATM    4  C4  UNL     1     -34.450  15.836  -6.391  1.00 20.00     0.057 C 
HETATM    5  C5  UNL     1     -34.907  15.288  -5.009  1.00 20.00     0.134 C 
HETATM    6  C6  UNL     1     -33.889  16.230  -4.294  1.00 20.00     0.268 C 
HETATM    7  N9  UNL     1     -34.494  12.737  -4.646  1.00 20.00    -0.197 NA
ENDROOT
BRANCH   6   8
HETATM    8  N10 UNL     1     -34.587  16.894  -3.197  1.00 20.00     0.089 N 
HETATM    9  C7  UNL     1     -33.802  18.022  -2.696  1.00 20.00     0.310 C 
HETATM   10  C8  UNL     1     -34.865  15.947  -2.117  1.00 20.00     0.310 C 
ENDBRANCH   6   8
TORSDOF 1
ENDMDL
MODEL 6
REMARK VINA RESULT:      -3.8      1.750      2.978
REMARK  1 active torsions:
REMARK  status: ('A' for Active; 'I' for Inactive)
REMARK    1  A    between atoms: C6_6  and  N10_10 
ROOT
HETATM    1  C1  UNL     1     -35.855  14.800  -3.511  1.00 20.00     0.066 C 
HETATM    2  C2  UNL     1     -34.178  17.372  -2.242  1.00 20.00    -0.054 C 
HETATM    3  C3  UNL     1     -33.542  18.417  -1.710  1.00 20.00     0.016 C 
HETATM    4  C4  UNL     1     -34.732  16.095  -1.644  1.00 20.00     0.057 C 
HETATM    5  C5  UNL     1     -34.692  15.566  -3.106  1.00 20.00     0.134 C 
HETATM    6  C6  UNL     1     -34.649  17.031  -3.640  1.00 20.00     0.268 C 
HETATM    7  N9  UNL     1     -36.786  14.187  -3.835  1.00 20.00    -0.197 NA
ENDROOT
BRANCH   6   8
HETATM    8  N10 UNL     1     -33.594  17.111  -4.646  1.00 20.00     0.089 N 
HETATM    9  C7  UNL     1     -33.503  18.466  -5.189  1.00 20.00     0.310 C 
HETATM   10  C8  UNL     1     -33.835  16.146  -5.720  1.00 20.00     0.310 C 
ENDBRANCH   6   8
TORSDOF 1
ENDMDL
MODEL 7
REMARK VINA RESULT:      -3.8      2.795      3.284
REMARK  1 active torsions:
REMARK  status: ('A' for Active; 'I' for Inactive)
REMARK    1  A    between atoms: C6_6  and  N10_10 
ROOT
HETATM    1  C1  UNL     1     -34.946  13.618  -5.047  1.00 20.00     0.066 C 
HETATM    2  C2  UNL     1     -34.687  16.236  -7.076  1.00 20.00    -0.054 C 
HETATM    3  C3  UNL     1     -34.555  17.263  -7.918  1.00 20.00     0.016 C 
HETATM    4  C4  UNL     1     -35.333  14.872  -7.215  1.00 20.00     0.057 C 
HETATM    5  C5  UNL     1     -35.331  14.875  -5.660  1.00 20.00     0.134 C 
HETATM    6  C6  UNL     1     -34.224  15.974  -5.659  1.00 20.00     0.268 C 
HETATM    7  N9  UNL     1     -34.640  12.612  -4.557  1.00 20.00    -0.197 NA
ENDROOT
BRANCH   6   8
HETATM    8  N10 UNL     1     -34.624  17.013  -4.714  1.00 20.00     0.089 N 
HETATM    9  C7  UNL     1     -33.684  18.133  -4.752  1.00 20.00     0.310 C 
HETATM   10  C8  UNL     1     -34.713  16.467  -3.359  1.00 20.00     0.310 C 
ENDBRANCH   6   8
TORSDOF 1
ENDMDL
MODEL 8
REMARK VINA RESULT:      -3.7      2.624      4.254
REMARK  1 active torsions:
REMARK  status: ('A' for Active; 'I' for Inactive)
REMARK    1  A    between atoms: C6_6  and  N10_10 
ROOT
HETATM    1  C1  UNL     1     -33.623  17.698  -4.960  1.00 20.00     0.066 C 
HETATM    2  C2  UNL     1     -34.994  15.348  -6.867  1.00 20.00    -0.054 C 
HETATM    3  C3  UNL     1     -35.580  14.433  -7.641  1.00 20.00     0.016 C 
HETATM    4  C4  UNL     1     -34.362  16.692  -7.166  1.00 20.00     0.057 C 
HETATM    5  C5  UNL     1     -33.667  16.507  -5.787  1.00 20.00     0.134 C 
HETATM    6  C6  UNL     1     -34.747  15.459  -5.378  1.00 20.00     0.268 C 
HETATM    7  N9  UNL     1     -33.587  18.650  -4.299  1.00 20.00    -0.197 NA
ENDROOT
BRANCH   6   8
HETATM    8  N10 UNL     1     -34.058  14.302  -4.814  1.00 20.00     0.089 N 
HETATM    9  C7  UNL     1     -35.021  13.285  -4.391  1.00 20.00     0.310 C 
HETATM   10  C8  UNL     1     -33.216  14.706  -3.687  1.00 20.00     0.310 C 
ENDBRANCH   6   8
TORSDOF 1
ENDMDL
MODEL 9
REMARK VINA RESULT:      -3.7      2.168      3.995
REMARK  1 active torsions:
REMARK  status: ('A' for Active; 'I' for Inactive)
REMARK    1  A    between atoms: C6_6  and  N10_10 
ROOT
HETATM    1  C1  UNL     1     -34.159  16.427  -2.085  1.00 20.00     0.066 C 
HETATM    2  C2  UNL     1     -34.206  17.008  -5.356  1.00 20.00    -0.054 C 
HETATM    3  C3  UNL     1     -34.255  17.275  -6.662  1.00 20.00     0.016 C 
HETATM    4  C4  UNL     1     -33.656  17.775  -4.171  1.00 20.00     0.057 C 
HETATM    5  C5  UNL     1     -33.679  16.395  -3.453  1.00 20.00     0.134 C 
HETATM    6  C6  UNL     1     -34.707  15.863  -4.500  1.00 20.00     0.268 C 
HETATM    7  N9  UNL     1     -34.542  16.452  -0.990  1.00 20.00    -0.197 NA
ENDROOT
BRANCH   6   8
HETATM    8  N10 UNL     1     -34.247  14.553  -4.953  1.00 20.00     0.089 N 
HETATM    9  C7  UNL     1     -35.089  14.062  -6.044  1.00 20.00     0.310 C 
HETATM   10  C8  UNL     1     -34.243  13.600  -3.843  1.00 20.00     0.310 C 
ENDBRANCH   6   8
TORSDOF 1
ENDMDL
