MODEL 1
REMARK VINA RESULT:      -4.0      0.000      0.000
REMARK  3 active torsions:
REMARK  status: ('A' for Active; 'I' for Inactive)
REMARK    1  A    between atoms: C1_1  and  C7_7 
REMARK    2  A    between atoms: C7_7  and  O10_10 
REMARK    3  A    between atoms: C8_8  and  N9_9 
ROOT
HETATM    1  C1  UNL     1     -34.898  15.037  -3.689  1.00 20.00     0.032 C 
HETATM    2  C2  UNL     1     -33.405  15.024  -3.451  1.00 20.00     0.068 C 
HETATM    3  N9  UNL     1     -35.698  15.948  -3.245  1.00 20.00    -0.287 NA
ENDROOT
BRANCH   1   4
HETATM    4  C7  UNL     1     -35.505  13.932  -4.544  1.00 20.00     0.161 C 
HETATM    5  C3  UNL     1     -35.090  14.072  -5.997  1.00 20.00     0.045 C 
BRANCH   4   6
HETATM    6  O10 UNL     1     -35.081  12.674  -4.053  1.00 20.00    -0.390 OA
HETATM    7  H27 UNL     1     -34.316  12.834  -3.475  1.00 20.00     0.210 HD
ENDBRANCH   4   6
ENDBRANCH   1   4
BRANCH   3   8
HETATM    8  C8  UNL     1     -35.146  17.037  -2.455  1.00 20.00     0.043 C 
HETATM    9  C4  UNL     1     -34.040  17.711  -3.268  1.00 20.00     0.039 C 
HETATM   10  C5  UNL     1     -36.275  18.024  -2.162  1.00 20.00     0.039 C 
HETATM   11  C6  UNL     1     -34.587  16.456  -1.156  1.00 20.00     0.039 C 
ENDBRANCH   3   8
TORSDOF 3
ENDMDL
MODEL 2
REMARK VINA RESULT:      -4.0      0.130      1.409
REMARK  3 active torsions:
REMARK  status: ('A' for Active; 'I' for Inactive)
REMARK    1  A    between atoms: C1_1  and  C7_7 
REMARK    2  A    between atoms: C7_7  and  O10_10 
REMARK    3  A    between atoms: C8_8  and  N9_9 
ROOT
HETATM    1  C1  UNL     1     -34.926  15.057  -3.632  1.00 20.00     0.032 C 
HETATM    2  C2  UNL     1     -33.428  15.134  -3.440  1.00 20.00     0.068 C 
HETATM    3  N9  UNL     1     -35.766  15.914  -3.154  1.00 20.00    -0.287 NA
ENDROOT
BRANCH   1   4
HETATM    4  C7  UNL     1     -35.491  13.924  -4.479  1.00 20.00     0.161 C 
HETATM    5  C3  UNL     1     -35.093  14.078  -5.936  1.00 20.00     0.045 C 
BRANCH   4   6
HETATM    6  O10 UNL     1     -35.009  12.687  -3.988  1.00 20.00    -0.390 OA
HETATM    7  H27 UNL     1     -35.299  11.999  -4.611  1.00 20.00     0.210 HD
ENDBRANCH   4   6
ENDBRANCH   1   4
BRANCH   3   8
HETATM    8  C8  UNL     1     -35.257  17.028  -2.370  1.00 20.00     0.043 C 
HETATM    9  C4  UNL     1     -36.430  17.939  -2.008  1.00 20.00     0.039 C 
HETATM   10  C5  UNL     1     -34.610  16.457  -1.109  1.00 20.00     0.039 C 
HETATM   11  C6  UNL     1     -34.226  17.779  -3.212  1.00 20.00     0.039 C 
ENDBRANCH   3   8
TORSDOF 3
ENDMDL
MODEL 3
REMARK VINA RESULT:      -4.0      2.066      2.781
REMARK  3 active torsions:
REMARK  status: ('A' for Active; 'I' for Inactive)
REMARK    1  A    between atoms: C1_1  and  C7_7 
REMARK    2  A    between atoms: C7_7  and  O10_10 
REMARK    3  A    between atoms: C8_8  and  N9_9 
ROOT
HETATM    1  C1  UNL     1     -33.871  15.979  -2.794  1.00 20.00     0.032 C 
HETATM    2  C2  UNL     1     -35.355  15.694  -2.732  1.00 20.00     0.068 C 
HETATM    3  N9  UNL     1     -33.288  16.940  -2.159  1.00 20.00    -0.287 NA
ENDROOT
BRANCH   1   4
HETATM    4  C7  UNL     1     -32.990  15.055  -3.624  1.00 20.00     0.161 C 
HETATM    5  C3  UNL     1     -33.761  13.833  -4.089  1.00 20.00     0.045 C 
BRANCH   4   6
HETATM    6  O10 UNL     1     -32.503  15.760  -4.752  1.00 20.00    -0.390 OA
HETATM    7  H27 UNL     1     -31.583  15.478  -4.891  1.00 20.00     0.210 HD
ENDBRANCH   4   6
ENDBRANCH   1   4
BRANCH   3   8
HETATM    8  C8  UNL     1     -34.096  17.819  -1.329  1.00 20.00     0.043 C 
HETATM    9  C4  UNL     1     -34.778  16.976  -0.252  1.00 20.00     0.039 C 
HETATM   10  C5  UNL     1     -33.164  18.852  -0.694  1.00 20.00     0.039 C 
HETATM   11  C6  UNL     1     -35.132  18.505  -2.219  1.00 20.00     0.039 C 
ENDBRANCH   3   8
TORSDOF 3
ENDMDL
MODEL 4
REMARK VINA RESULT:      -4.0      2.079      3.188
REMARK  3 active torsions:
REMARK  status: ('A' for Active; 'I' for Inactive)
REMARK    1  A    between atoms: C1_1  and  C7_7 
REMARK    2  A    between atoms: C7_7  and  O10_10 
REMARK    3  A    between atoms: C8_8  and  N9_9 
ROOT
HETATM    1  C1  UNL     1     -34.956  14.481  -5.563  1.00 20.00     0.032 C 
HETATM    2  C2  UNL     1     -35.280  14.296  -7.028  1.00 20.00     0.068 C 
HETATM    3  N9  UNL     1     -35.179  15.565  -4.899  1.00 20.00    -0.287 NA
ENDROOT
BRANCH   1   4
HETATM    4  C7  UNL     1     -34.366  13.303  -4.797  1.00 20.00     0.161 C 
HETATM    5  C3  UNL     1     -33.381  13.774  -3.742  1.00 20.00     0.045 C 
BRANCH   4   6
HETATM    6  O10 UNL     1     -35.411  12.579  -4.174  1.00 20.00    -0.390 OA
HETATM    7  H27 UNL     1     -36.106  13.218  -3.945  1.00 20.00     0.210 HD
ENDBRANCH   4   6
ENDBRANCH   1   4
BRANCH   3   8
HETATM    8  C8  UNL     1     -35.775  16.697  -5.591  1.00 20.00     0.043 C 
HETATM    9  C4  UNL     1     -37.138  16.269  -6.135  1.00 20.00     0.039 C 
HETATM   10  C5  UNL     1     -35.931  17.835  -4.583  1.00 20.00     0.039 C 
HETATM   11  C6  UNL     1     -34.842  17.111  -6.730  1.00 20.00     0.039 C 
ENDBRANCH   3   8
TORSDOF 3
ENDMDL
MODEL 5
REMARK VINA RESULT:      -3.9      2.636      3.632
REMARK  3 active torsions:
REMARK  status: ('A' for Active; 'I' for Inactive)
REMARK    1  A    between atoms: C1_1  and  C7_7 
REMARK    2  A    between atoms: C7_7  and  O10_10 
REMARK    3  A    between atoms: C8_8  and  N9_9 
ROOT
HETATM    1  C1  UNL     1     -35.121  14.376  -5.662  1.00 20.00     0.032 C 
HETATM    2  C2  UNL     1     -34.453  14.855  -6.931  1.00 20.00     0.068 C 
HETATM    3  N9  UNL     1     -36.287  14.761  -5.263  1.00 20.00    -0.287 NA
ENDROOT
BRANCH   1   4
HETATM    4  C7  UNL     1     -34.400  13.339  -4.811  1.00 20.00     0.161 C 
HETATM    5  C3  UNL     1     -33.500  14.003  -3.784  1.00 20.00     0.045 C 
BRANCH   4   6
HETATM    6  O10 UNL     1     -35.355  12.532  -4.147  1.00 20.00    -0.390 OA
HETATM    7  H27 UNL     1     -36.156  12.525  -4.697  1.00 20.00     0.210 HD
ENDBRANCH   4   6
ENDBRANCH   1   4
BRANCH   3   8
HETATM    8  C8  UNL     1     -37.018  15.724  -6.071  1.00 20.00     0.043 C 
HETATM    9  C4  UNL     1     -37.175  15.153  -7.480  1.00 20.00     0.039 C 
HETATM   10  C5  UNL     1     -38.386  15.939  -5.423  1.00 20.00     0.039 C 
HETATM   11  C6  UNL     1     -36.226  17.031  -6.100  1.00 20.00     0.039 C 
ENDBRANCH   3   8
TORSDOF 3
ENDMDL
MODEL 6
REMARK VINA RESULT:      -3.8      1.944      3.912
REMARK  3 active torsions:
REMARK  status: ('A' for Active; 'I' for Inactive)
REMARK    1  A    between atoms: C1_1  and  C7_7 
REMARK    2  A    between atoms: C7_7  and  O10_10 
REMARK    3  A    between atoms: C8_8  and  N9_9 
ROOT
HETATM    1  C1  UNL     1     -34.431  15.575  -3.210  1.00 20.00     0.032 C 
HETATM    2  C2  UNL     1     -33.032  15.091  -3.517  1.00 20.00     0.068 C 
HETATM    3  N9  UNL     1     -35.418  15.522  -4.042  1.00 20.00    -0.287 NA
ENDROOT
BRANCH   1   4
HETATM    4  C7  UNL     1     -34.720  16.123  -1.819  1.00 20.00     0.161 C 
HETATM    5  C3  UNL     1     -33.718  17.198  -1.435  1.00 20.00     0.045 C 
BRANCH   4   6
HETATM    6  O10 UNL     1     -36.027  16.668  -1.791  1.00 20.00    -0.390 OA
HETATM    7  H27 UNL     1     -35.934  17.635  -1.762  1.00 20.00     0.210 HD
ENDBRANCH   4   6
ENDBRANCH   1   4
BRANCH   3   8
HETATM    8  C8  UNL     1     -35.185  14.971  -5.367  1.00 20.00     0.043 C 
HETATM    9  C4  UNL     1     -34.773  13.507  -5.216  1.00 20.00     0.039 C 
HETATM   10  C5  UNL     1     -36.488  15.085  -6.158  1.00 20.00     0.039 C 
HETATM   11  C6  UNL     1     -34.076  15.781  -6.038  1.00 20.00     0.039 C 
ENDBRANCH   3   8
TORSDOF 3
ENDMDL
MODEL 7
REMARK VINA RESULT:      -3.7      1.931      3.944
REMARK  3 active torsions:
REMARK  status: ('A' for Active; 'I' for Inactive)
REMARK    1  A    between atoms: C1_1  and  C7_7 
REMARK    2  A    between atoms: C7_7  and  O10_10 
REMARK    3  A    between atoms: C8_8  and  N9_9 
ROOT
HETATM    1  C1  UNL     1     -34.439  15.566  -3.255  1.00 20.00     0.032 C 
HETATM    2  C2  UNL     1     -33.043  15.071  -3.560  1.00 20.00     0.068 C 
HETATM    3  N9  UNL     1     -35.421  15.535  -4.093  1.00 20.00    -0.287 NA
ENDROOT
BRANCH   1   4
HETATM    4  C7  UNL     1     -34.729  16.101  -1.859  1.00 20.00     0.161 C 
HETATM    5  C3  UNL     1     -33.739  17.184  -1.470  1.00 20.00     0.045 C 
BRANCH   4   6
HETATM    6  O10 UNL     1     -36.042  16.629  -1.823  1.00 20.00    -0.390 OA
HETATM    7  H27 UNL     1     -36.087  17.235  -1.064  1.00 20.00     0.210 HD
ENDBRANCH   4   6
ENDBRANCH   1   4
BRANCH   3   8
HETATM    8  C8  UNL     1     -35.187  14.998  -5.423  1.00 20.00     0.043 C 
HETATM    9  C4  UNL     1     -34.071  15.809  -6.082  1.00 20.00     0.039 C 
HETATM   10  C5  UNL     1     -34.772  13.535  -5.273  1.00 20.00     0.039 C 
HETATM   11  C6  UNL     1     -36.484  15.110  -6.224  1.00 20.00     0.039 C 
ENDBRANCH   3   8
TORSDOF 3
ENDMDL
MODEL 8
REMARK VINA RESULT:      -3.7      1.947      3.913
REMARK  3 active torsions:
REMARK  status: ('A' for Active; 'I' for Inactive)
REMARK    1  A    between atoms: C1_1  and  C7_7 
REMARK    2  A    between atoms: C7_7  and  O10_10 
REMARK    3  A    between atoms: C8_8  and  N9_9 
ROOT
HETATM    1  C1  UNL     1     -34.450  15.585  -3.214  1.00 20.00     0.032 C 
HETATM    2  C2  UNL     1     -33.045  15.117  -3.522  1.00 20.00     0.068 C 
HETATM    3  N9  UNL     1     -35.435  15.525  -4.045  1.00 20.00    -0.287 NA
ENDROOT
BRANCH   1   4
HETATM    4  C7  UNL     1     -34.744  16.124  -1.820  1.00 20.00     0.161 C 
HETATM    5  C3  UNL     1     -33.729  17.179  -1.415  1.00 20.00     0.045 C 
BRANCH   4   6
HETATM    6  O10 UNL     1     -36.041  16.690  -1.801  1.00 20.00    -0.390 OA
HETATM    7  H27 UNL     1     -35.997  17.491  -1.252  1.00 20.00     0.210 HD
ENDBRANCH   4   6
ENDBRANCH   1   4
BRANCH   3   8
HETATM    8  C8  UNL     1     -35.197  14.982  -5.373  1.00 20.00     0.043 C 
HETATM    9  C4  UNL     1     -36.491  15.091  -6.179  1.00 20.00     0.039 C 
HETATM   10  C5  UNL     1     -34.087  15.806  -6.024  1.00 20.00     0.039 C 
HETATM   11  C6  UNL     1     -34.769  13.522  -5.228  1.00 20.00     0.039 C 
ENDBRANCH   3   8
TORSDOF 3
ENDMDL
MODEL 9
REMARK VINA RESULT:      -3.7      2.215      3.172
REMARK  3 active torsions:
REMARK  status: ('A' for Active; 'I' for Inactive)
REMARK    1  A    between atoms: C1_1  and  C7_7 
REMARK    2  A    between atoms: C7_7  and  O10_10 
REMARK    3  A    between atoms: C8_8  and  N9_9 
ROOT
HETATM    1  C1  UNL     1     -35.920  15.065  -4.039  1.00 20.00     0.032 C 
HETATM    2  C2  UNL     1     -35.321  13.684  -4.179  1.00 20.00     0.068 C 
HETATM    3  N9  UNL     1     -35.354  16.149  -4.454  1.00 20.00    -0.287 NA
ENDROOT
BRANCH   1   4
HETATM    4  C7  UNL     1     -37.300  15.196  -3.409  1.00 20.00     0.161 C 
HETATM    5  C3  UNL     1     -37.954  16.513  -3.789  1.00 20.00     0.045 C 
BRANCH   4   6
HETATM    6  O10 UNL     1     -38.117  14.124  -3.843  1.00 20.00    -0.390 OA
HETATM    7  H27 UNL     1     -37.554  13.333  -3.885  1.00 20.00     0.210 HD
ENDBRANCH   4   6
ENDBRANCH   1   4
BRANCH   3   8
HETATM    8  C8  UNL     1     -34.051  16.056  -5.092  1.00 20.00     0.043 C 
HETATM    9  C4  UNL     1     -34.189  15.198  -6.350  1.00 20.00     0.039 C 
HETATM   10  C5  UNL     1     -33.603  17.472  -5.454  1.00 20.00     0.039 C 
HETATM   11  C6  UNL     1     -33.073  15.418  -4.105  1.00 20.00     0.039 C 
ENDBRANCH   3   8
TORSDOF 3
ENDMDL
