MODEL 1
REMARK VINA RESULT:      -5.0      0.000      0.000
REMARK  2 active torsions:
REMARK  status: ('A' for Active; 'I' for Inactive)
REMARK    1  A    between atoms: C4_4  and  O11_11 
REMARK    2  A    between atoms: C10_10  and  O11_11 
ROOT
HETATM    1  C1  UNL     1     -34.661   5.076   4.614  1.00 20.00    -0.075 C 
HETATM    2  C2  UNL     1     -33.991   6.208   4.798  1.00 20.00    -0.049 C 
HETATM    3  C5  UNL     1     -35.186   4.498   5.864  1.00 20.00     0.034 C 
HETATM    4  C6  UNL     1     -34.814   4.712   3.193  1.00 20.00     0.037 C 
HETATM    5  C7  UNL     1     -33.929   6.624   6.211  1.00 20.00     0.037 C 
HETATM    6  C8  UNL     1     -34.480   5.371   6.924  1.00 20.00     0.009 C 
HETATM    7  C9  UNL     1     -33.858   5.715   2.516  1.00 20.00     0.041 C 
HETATM    8  C10 UNL     1     -33.564   6.838   3.535  1.00 20.00     0.157 C 
ENDROOT
BRANCH   8   9
HETATM    9  O11 UNL     1     -32.184   7.149   3.568  1.00 20.00    -0.354 OA
BRANCH   9  10
HETATM   10  C4  UNL     1     -31.692   7.668   2.447  1.00 20.00     0.125 C 
HETATM   11  C3  UNL     1     -32.138   8.779   1.858  1.00 20.00     0.037 C 
ENDBRANCH   9  10
ENDBRANCH   8   9
TORSDOF 2
ENDMDL
MODEL 2
REMARK VINA RESULT:      -4.9     11.157     13.070
REMARK  2 active torsions:
REMARK  status: ('A' for Active; 'I' for Inactive)
REMARK    1  A    between atoms: C4_4  and  O11_11 
REMARK    2  A    between atoms: C10_10  and  O11_11 
ROOT
HETATM    1  C1  UNL     1     -34.680  14.357  -5.695  1.00 20.00    -0.075 C 
HETATM    2  C2  UNL     1     -33.953  15.383  -5.267  1.00 20.00    -0.049 C 
HETATM    3  C5  UNL     1     -35.231  14.556  -7.048  1.00 20.00     0.034 C 
HETATM    4  C6  UNL     1     -34.685  13.215  -4.763  1.00 20.00     0.037 C 
HETATM    5  C7  UNL     1     -33.864  16.482  -6.246  1.00 20.00     0.037 C 
HETATM    6  C8  UNL     1     -34.914  16.047  -7.290  1.00 20.00     0.009 C 
HETATM    7  C9  UNL     1     -34.024  13.836  -3.515  1.00 20.00     0.041 C 
HETATM    8  C10 UNL     1     -33.314  15.133  -3.962  1.00 20.00     0.157 C 
ENDROOT
BRANCH   8   9
HETATM    9  O11 UNL     1     -33.576  16.193  -3.062  1.00 20.00    -0.354 OA
BRANCH   9  10
HETATM   10  C4  UNL     1     -34.564  15.976  -2.199  1.00 20.00     0.125 C 
HETATM   11  C3  UNL     1     -34.675  16.555  -1.002  1.00 20.00     0.037 C 
ENDBRANCH   9  10
ENDBRANCH   8   9
TORSDOF 2
ENDMDL
MODEL 3
REMARK VINA RESULT:      -4.5      1.013      2.197
REMARK  2 active torsions:
REMARK  status: ('A' for Active; 'I' for Inactive)
REMARK    1  A    between atoms: C4_4  and  O11_11 
REMARK    2  A    between atoms: C10_10  and  O11_11 
ROOT
HETATM    1  C1  UNL     1     -34.033   5.962   5.613  1.00 20.00    -0.075 C 
HETATM    2  C2  UNL     1     -33.736   5.830   4.326  1.00 20.00    -0.049 C 
HETATM    3  C5  UNL     1     -35.059   5.010   6.077  1.00 20.00     0.034 C 
HETATM    4  C6  UNL     1     -33.197   6.959   6.307  1.00 20.00     0.037 C 
HETATM    5  C7  UNL     1     -34.500   4.759   3.659  1.00 20.00     0.037 C 
HETATM    6  C8  UNL     1     -35.545   4.411   4.740  1.00 20.00     0.009 C 
HETATM    7  C9  UNL     1     -32.481   7.637   5.120  1.00 20.00     0.041 C 
HETATM    8  C10 UNL     1     -32.632   6.708   3.895  1.00 20.00     0.157 C 
ENDROOT
BRANCH   8   9
HETATM    9  O11 UNL     1     -32.993   7.441   2.740  1.00 20.00    -0.354 OA
BRANCH   9  10
HETATM   10  C4  UNL     1     -32.005   8.120   2.166  1.00 20.00     0.125 C 
HETATM   11  C3  UNL     1     -32.167   9.077   1.250  1.00 20.00     0.037 C 
ENDBRANCH   9  10
ENDBRANCH   8   9
TORSDOF 2
ENDMDL
MODEL 4
REMARK VINA RESULT:      -4.5      9.451     11.138
REMARK  2 active torsions:
REMARK  status: ('A' for Active; 'I' for Inactive)
REMARK    1  A    between atoms: C4_4  and  O11_11 
REMARK    2  A    between atoms: C10_10  and  O11_11 
ROOT
HETATM    1  C1  UNL     1     -41.669   6.516  -1.566  1.00 20.00    -0.075 C 
HETATM    2  C2  UNL     1     -42.131   5.472  -2.245  1.00 20.00    -0.049 C 
HETATM    3  C5  UNL     1     -42.217   7.804  -2.031  1.00 20.00     0.034 C 
HETATM    4  C6  UNL     1     -40.796   6.141  -0.439  1.00 20.00     0.037 C 
HETATM    5  C7  UNL     1     -43.086   5.844  -3.305  1.00 20.00     0.037 C 
HETATM    6  C8  UNL     1     -42.932   7.379  -3.331  1.00 20.00     0.009 C 
HETATM    7  C9  UNL     1     -40.577   4.638  -0.709  1.00 20.00     0.041 C 
HETATM    8  C10 UNL     1     -41.667   4.181  -1.705  1.00 20.00     0.157 C 
ENDROOT
BRANCH   8   9
HETATM    9  O11 UNL     1     -41.116   3.375  -2.729  1.00 20.00    -0.354 OA
BRANCH   9  10
HETATM   10  C4  UNL     1     -41.872   2.352  -3.116  1.00 20.00     0.125 C 
HETATM   11  C3  UNL     1     -41.504   1.420  -3.997  1.00 20.00     0.037 C 
ENDBRANCH   9  10
ENDBRANCH   8   9
TORSDOF 2
ENDMDL
MODEL 5
REMARK VINA RESULT:      -4.4      9.548     11.070
REMARK  2 active torsions:
REMARK  status: ('A' for Active; 'I' for Inactive)
REMARK    1  A    between atoms: C4_4  and  O11_11 
REMARK    2  A    between atoms: C10_10  and  O11_11 
ROOT
HETATM    1  C1  UNL     1     -41.950   6.431  -1.834  1.00 20.00    -0.075 C 
HETATM    2  C2  UNL     1     -41.703   5.128  -1.784  1.00 20.00    -0.049 C 
HETATM    3  C5  UNL     1     -41.153   7.215  -0.872  1.00 20.00     0.034 C 
HETATM    4  C6  UNL     1     -42.888   6.808  -2.908  1.00 20.00     0.037 C 
HETATM    5  C7  UNL     1     -40.687   4.766  -0.778  1.00 20.00     0.037 C 
HETATM    6  C8  UNL     1     -40.530   6.096  -0.010  1.00 20.00     0.009 C 
HETATM    7  C9  UNL     1     -43.402   5.426  -3.363  1.00 20.00     0.041 C 
HETATM    8  C10 UNL     1     -42.420   4.364  -2.821  1.00 20.00     0.157 C 
ENDROOT
BRANCH   8   9
HETATM    9  O11 UNL     1     -43.115   3.270  -2.252  1.00 20.00    -0.354 OA
BRANCH   9  10
HETATM   10  C4  UNL     1     -42.767   2.073  -2.714  1.00 20.00     0.125 C 
HETATM   11  C3  UNL     1     -41.738   1.838  -3.531  1.00 20.00     0.037 C 
ENDBRANCH   9  10
ENDBRANCH   8   9
TORSDOF 2
ENDMDL
MODEL 6
REMARK VINA RESULT:      -4.4     11.321     12.567
REMARK  2 active torsions:
REMARK  status: ('A' for Active; 'I' for Inactive)
REMARK    1  A    between atoms: C4_4  and  O11_11 
REMARK    2  A    between atoms: C10_10  and  O11_11 
ROOT
HETATM    1  C1  UNL     1     -34.337  15.059  -3.107  1.00 20.00    -0.075 C 
HETATM    2  C2  UNL     1     -35.499  15.120  -3.748  1.00 20.00    -0.049 C 
HETATM    3  C5  UNL     1     -34.180  16.104  -2.079  1.00 20.00     0.034 C 
HETATM    4  C6  UNL     1     -33.514  13.900  -3.500  1.00 20.00     0.037 C 
HETATM    5  C7  UNL     1     -36.364  16.219  -3.279  1.00 20.00     0.037 C 
HETATM    6  C8  UNL     1     -35.391  17.012  -2.381  1.00 20.00     0.009 C 
HETATM    7  C9  UNL     1     -34.284  13.382  -4.732  1.00 20.00     0.041 C 
HETATM    8  C10 UNL     1     -35.695  14.008  -4.695  1.00 20.00     0.157 C 
ENDROOT
BRANCH   8   9
HETATM    9  O11 UNL     1     -36.072  14.493  -5.970  1.00 20.00    -0.354 OA
BRANCH   9  10
HETATM   10  C4  UNL     1     -35.076  14.644  -6.838  1.00 20.00     0.125 C 
HETATM   11  C3  UNL     1     -34.686  15.809  -7.360  1.00 20.00     0.037 C 
ENDBRANCH   9  10
ENDBRANCH   8   9
TORSDOF 2
ENDMDL
MODEL 7
REMARK VINA RESULT:      -4.3     11.395     13.745
REMARK  2 active torsions:
REMARK  status: ('A' for Active; 'I' for Inactive)
REMARK    1  A    between atoms: C4_4  and  O11_11 
REMARK    2  A    between atoms: C10_10  and  O11_11 
ROOT
HETATM    1  C1  UNL     1     -33.987  15.508  -5.049  1.00 20.00    -0.075 C 
HETATM    2  C2  UNL     1     -34.484  14.493  -5.745  1.00 20.00    -0.049 C 
HETATM    3  C5  UNL     1     -33.679  15.163  -3.649  1.00 20.00     0.034 C 
HETATM    4  C6  UNL     1     -33.760  16.718  -5.861  1.00 20.00     0.037 C 
HETATM    5  C7  UNL     1     -34.612  13.254  -4.956  1.00 20.00     0.037 C 
HETATM    6  C8  UNL     1     -34.334  13.770  -3.528  1.00 20.00     0.009 C 
HETATM    7  C9  UNL     1     -34.479  16.344  -7.174  1.00 20.00     0.041 C 
HETATM    8  C10 UNL     1     -34.686  14.813  -7.170  1.00 20.00     0.157 C 
ENDROOT
BRANCH   8   9
HETATM    9  O11 UNL     1     -35.996  14.475  -7.582  1.00 20.00    -0.354 OA
BRANCH   9  10
HETATM   10  C4  UNL     1     -36.910  15.425  -7.409  1.00 20.00     0.125 C 
HETATM   11  C3  UNL     1     -37.988  15.317  -6.629  1.00 20.00     0.037 C 
ENDBRANCH   9  10
ENDBRANCH   8   9
TORSDOF 2
ENDMDL
MODEL 8
REMARK VINA RESULT:      -4.3     11.898     12.951
REMARK  2 active torsions:
REMARK  status: ('A' for Active; 'I' for Inactive)
REMARK    1  A    between atoms: C4_4  and  O11_11 
REMARK    2  A    between atoms: C10_10  and  O11_11 
ROOT
HETATM    1  C1  UNL     1     -33.049  18.302  -0.017  1.00 20.00    -0.075 C 
HETATM    2  C2  UNL     1     -33.824  18.193   1.057  1.00 20.00    -0.049 C 
HETATM    3  C5  UNL     1     -33.629  17.682  -1.222  1.00 20.00     0.034 C 
HETATM    4  C6  UNL     1     -31.836  19.107   0.218  1.00 20.00     0.037 C 
HETATM    5  C7  UNL     1     -35.086  17.478   0.793  1.00 20.00     0.037 C 
HETATM    6  C8  UNL     1     -34.831  16.920  -0.624  1.00 20.00     0.009 C 
HETATM    7  C9  UNL     1     -31.864  19.262   1.753  1.00 20.00     0.041 C 
HETATM    8  C10 UNL     1     -33.291  18.910   2.229  1.00 20.00     0.157 C 
ENDROOT
BRANCH   8   9
HETATM    9  O11 UNL     1     -33.255  18.066   3.364  1.00 20.00    -0.354 OA
BRANCH   9  10
HETATM   10  C4  UNL     1     -33.841  18.552   4.454  1.00 20.00     0.125 C 
HETATM   11  C3  UNL     1     -33.232  18.755   5.623  1.00 20.00     0.037 C 
ENDBRANCH   9  10
ENDBRANCH   8   9
TORSDOF 2
ENDMDL
MODEL 9
REMARK VINA RESULT:      -4.3      9.181     10.506
REMARK  2 active torsions:
REMARK  status: ('A' for Active; 'I' for Inactive)
REMARK    1  A    between atoms: C4_4  and  O11_11 
REMARK    2  A    between atoms: C10_10  and  O11_11 
ROOT
HETATM    1  C1  UNL     1     -42.771   3.873  -0.788  1.00 20.00    -0.075 C 
HETATM    2  C2  UNL     1     -41.709   4.289  -1.467  1.00 20.00    -0.049 C 
HETATM    3  C5  UNL     1     -43.417   2.688  -1.381  1.00 20.00     0.034 C 
HETATM    4  C6  UNL     1     -43.000   4.627   0.459  1.00 20.00     0.037 C 
HETATM    5  C7  UNL     1     -41.421   3.468  -2.658  1.00 20.00     0.037 C 
HETATM    6  C8  UNL     1     -42.690   2.593  -2.739  1.00 20.00     0.009 C 
HETATM    7  C9  UNL     1     -42.011   5.799   0.293  1.00 20.00     0.041 C 
HETATM    8  C10 UNL     1     -41.003   5.404  -0.809  1.00 20.00     0.157 C 
ENDROOT
BRANCH   8   9
HETATM    9  O11 UNL     1     -40.793   6.471  -1.714  1.00 20.00    -0.354 OA
BRANCH   9  10
HETATM   10  C4  UNL     1     -41.864   7.213  -1.978  1.00 20.00     0.125 C 
HETATM   11  C3  UNL     1     -42.303   7.515  -3.202  1.00 20.00     0.037 C 
ENDBRANCH   9  10
ENDBRANCH   8   9
TORSDOF 2
ENDMDL
