MODEL 1
REMARK VINA RESULT:      -6.0      0.000      0.000
REMARK  1 active torsions:
REMARK  status: ('A' for Active; 'I' for Inactive)
REMARK    1  A    between atoms: C8_8  and  C9_9 
ROOT
HETATM    1  C1  UNL     1     -34.951   4.519   4.243  1.00 20.00     0.008 A 
HETATM    2  C2  UNL     1     -33.495   5.969   2.775  1.00 20.00     0.026 A 
HETATM    3  C3  UNL     1     -32.601   7.416   4.333  1.00 20.00     0.026 A 
HETATM    4  C4  UNL     1     -35.322   4.354   5.526  1.00 20.00    -0.022 A 
HETATM    5  C5  UNL     1     -33.847   6.320   6.242  1.00 20.00    -0.011 A 
HETATM    6  C6  UNL     1     -34.030   5.578   3.944  1.00 20.00    -0.026 A 
HETATM    7  C7  UNL     1     -33.490   6.469   4.960  1.00 20.00    -0.029 A 
HETATM    8  C8  UNL     1     -32.615   7.102   3.025  1.00 20.00     0.003 A 
HETATM    9  C10 UNL     1     -34.815   5.230   6.662  1.00 20.00     0.055 A 
ENDROOT
BRANCH   8  10
HETATM   10  C9  UNL     1     -31.853   7.807   2.009  1.00 20.00     0.269 C 
HETATM   11  O11 UNL     1     -32.213   8.880   1.523  1.00 20.00    -0.301 OA
ENDBRANCH   8  10
TORSDOF 1
ENDMDL
MODEL 2
REMARK VINA RESULT:      -4.9     11.346     12.699
REMARK  1 active torsions:
REMARK  status: ('A' for Active; 'I' for Inactive)
REMARK    1  A    between atoms: C8_8  and  C9_9 
ROOT
HETATM    1  C1  UNL     1     -34.404  16.601  -1.068  1.00 20.00     0.008 A 
HETATM    2  C2  UNL     1     -34.660  14.874  -2.893  1.00 20.00     0.026 A 
HETATM    3  C3  UNL     1     -34.041  16.098  -4.747  1.00 20.00     0.026 A 
HETATM    4  C4  UNL     1     -34.051  17.884  -0.873  1.00 20.00    -0.022 A 
HETATM    5  C5  UNL     1     -33.614  18.182  -3.378  1.00 20.00    -0.011 A 
HETATM    6  C6  UNL     1     -34.367  16.093  -2.410  1.00 20.00    -0.026 A 
HETATM    7  C7  UNL     1     -33.969  16.902  -3.552  1.00 20.00    -0.029 A 
HETATM    8  C8  UNL     1     -34.456  14.888  -4.335  1.00 20.00     0.003 A 
HETATM    9  C10 UNL     1     -33.619  18.813  -1.998  1.00 20.00     0.055 A 
ENDROOT
BRANCH   8  10
HETATM   10  C9  UNL     1     -34.669  13.754  -5.218  1.00 20.00     0.269 C 
HETATM   11  O11 UNL     1     -34.799  12.600  -4.810  1.00 20.00    -0.301 OA
ENDBRANCH   8  10
TORSDOF 1
ENDMDL
MODEL 3
REMARK VINA RESULT:      -4.9     11.314     12.725
REMARK  1 active torsions:
REMARK  status: ('A' for Active; 'I' for Inactive)
REMARK    1  A    between atoms: C8_8  and  C9_9 
ROOT
HETATM    1  C1  UNL     1     -33.617  18.376  -3.305  1.00 20.00     0.008 A 
HETATM    2  C2  UNL     1     -33.999  16.247  -4.610  1.00 20.00     0.026 A 
HETATM    3  C3  UNL     1     -34.631  14.805  -2.924  1.00 20.00     0.026 A 
HETATM    4  C4  UNL     1     -33.667  18.869  -2.054  1.00 20.00    -0.022 A 
HETATM    5  C5  UNL     1     -34.411  16.593  -1.148  1.00 20.00    -0.011 A 
HETATM    6  C6  UNL     1     -33.961  16.996  -3.494  1.00 20.00    -0.026 A 
HETATM    7  C7  UNL     1     -34.355  16.120  -2.400  1.00 20.00    -0.029 A 
HETATM    8  C8  UNL     1     -34.414  14.899  -4.248  1.00 20.00     0.003 A 
HETATM    9  C10 UNL     1     -34.067  18.039  -0.844  1.00 20.00     0.055 A 
ENDROOT
BRANCH   8  10
HETATM   10  C9  UNL     1     -34.573  13.797  -5.180  1.00 20.00     0.269 C 
HETATM   11  O11 UNL     1     -34.734  12.630  -4.821  1.00 20.00    -0.301 OA
ENDBRANCH   8  10
TORSDOF 1
ENDMDL
MODEL 4
REMARK VINA RESULT:      -4.8     10.349     11.509
REMARK  1 active torsions:
REMARK  status: ('A' for Active; 'I' for Inactive)
REMARK    1  A    between atoms: C8_8  and  C9_9 
ROOT
HETATM    1  C1  UNL     1     -42.589   6.635  -1.809  1.00 20.00     0.008 A 
HETATM    2  C2  UNL     1     -43.270   4.723  -3.313  1.00 20.00     0.026 A 
HETATM    3  C3  UNL     1     -41.748   3.108  -2.688  1.00 20.00     0.026 A 
HETATM    4  C4  UNL     1     -41.700   6.959  -0.853  1.00 20.00    -0.022 A 
HETATM    5  C5  UNL     1     -40.652   4.627  -0.988  1.00 20.00    -0.011 A 
HETATM    6  C6  UNL     1     -42.523   5.313  -2.363  1.00 20.00    -0.026 A 
HETATM    7  C7  UNL     1     -41.545   4.323  -1.938  1.00 20.00    -0.029 A 
HETATM    8  C8  UNL     1     -42.784   3.364  -3.505  1.00 20.00     0.003 A 
HETATM    9  C10 UNL     1     -40.638   5.999  -0.338  1.00 20.00     0.055 A 
ENDROOT
BRANCH   8  10
HETATM   10  C9  UNL     1     -43.334   2.407  -4.449  1.00 20.00     0.269 C 
HETATM   11  O11 UNL     1     -42.790   2.130  -5.518  1.00 20.00    -0.301 OA
ENDBRANCH   8  10
TORSDOF 1
ENDMDL
MODEL 5
REMARK VINA RESULT:      -4.7     10.404     11.583
REMARK  1 active torsions:
REMARK  status: ('A' for Active; 'I' for Inactive)
REMARK    1  A    between atoms: C8_8  and  C9_9 
ROOT
HETATM    1  C1  UNL     1     -40.606   4.640  -0.951  1.00 20.00     0.008 A 
HETATM    2  C2  UNL     1     -41.723   3.147  -2.654  1.00 20.00     0.026 A 
HETATM    3  C3  UNL     1     -43.415   4.523  -3.403  1.00 20.00     0.026 A 
HETATM    4  C4  UNL     1     -40.691   5.867  -0.407  1.00 20.00    -0.022 A 
HETATM    5  C5  UNL     1     -42.723   6.410  -1.866  1.00 20.00    -0.011 A 
HETATM    6  C6  UNL     1     -41.569   4.282  -1.952  1.00 20.00    -0.026 A 
HETATM    7  C7  UNL     1     -42.622   5.184  -2.396  1.00 20.00    -0.029 A 
HETATM    8  C8  UNL     1     -42.863   3.306  -3.546  1.00 20.00     0.003 A 
HETATM    9  C10 UNL     1     -41.752   6.884  -0.801  1.00 20.00     0.055 A 
ENDROOT
BRANCH   8  10
HETATM   10  C9  UNL     1     -43.349   2.294  -4.468  1.00 20.00     0.269 C 
HETATM   11  O11 UNL     1     -42.848   2.099  -5.576  1.00 20.00    -0.301 OA
ENDBRANCH   8  10
TORSDOF 1
ENDMDL
MODEL 6
REMARK VINA RESULT:      -4.6     11.578     13.005
REMARK  1 active torsions:
REMARK  status: ('A' for Active; 'I' for Inactive)
REMARK    1  A    between atoms: C8_8  and  C9_9 
ROOT
HETATM    1  C1  UNL     1     -35.161  13.930  -5.048  1.00 20.00     0.008 A 
HETATM    2  C2  UNL     1     -34.736  15.151  -2.878  1.00 20.00     0.026 A 
HETATM    3  C3  UNL     1     -33.713  17.070  -3.646  1.00 20.00     0.026 A 
HETATM    4  C4  UNL     1     -34.989  14.051  -6.376  1.00 20.00    -0.022 A 
HETATM    5  C5  UNL     1     -33.877  16.335  -6.061  1.00 20.00    -0.011 A 
HETATM    6  C6  UNL     1     -34.698  15.001  -4.213  1.00 20.00    -0.026 A 
HETATM    7  C7  UNL     1     -34.056  16.196  -4.741  1.00 20.00    -0.029 A 
HETATM    8  C8  UNL     1     -34.127  16.430  -2.539  1.00 20.00     0.003 A 
HETATM    9  C10 UNL     1     -34.333  15.258  -7.028  1.00 20.00     0.055 A 
ENDROOT
BRANCH   8  10
HETATM   10  C9  UNL     1     -33.979  16.952  -1.191  1.00 20.00     0.269 C 
HETATM   11  O11 UNL     1     -34.750  16.668  -0.273  1.00 20.00    -0.301 OA
ENDBRANCH   8  10
TORSDOF 1
ENDMDL
MODEL 7
REMARK VINA RESULT:      -4.6     11.664     12.360
REMARK  1 active torsions:
REMARK  status: ('A' for Active; 'I' for Inactive)
REMARK    1  A    between atoms: C8_8  and  C9_9 
ROOT
HETATM    1  C1  UNL     1     -32.869  19.046   1.108  1.00 20.00     0.008 A 
HETATM    2  C2  UNL     1     -32.990  17.873  -1.125  1.00 20.00     0.026 A 
HETATM    3  C3  UNL     1     -34.925  16.644  -0.873  1.00 20.00     0.026 A 
HETATM    4  C4  UNL     1     -33.526  19.159   2.277  1.00 20.00    -0.022 A 
HETATM    5  C5  UNL     1     -35.316  17.516   1.470  1.00 20.00    -0.011 A 
HETATM    6  C6  UNL     1     -33.421  18.175   0.111  1.00 20.00    -0.026 A 
HETATM    7  C7  UNL     1     -34.648  17.417   0.313  1.00 20.00    -0.029 A 
HETATM    8  C8  UNL     1     -33.924  16.929  -1.723  1.00 20.00     0.003 A 
HETATM    9  C10 UNL     1     -34.814  18.412   2.587  1.00 20.00     0.055 A 
ENDROOT
BRANCH   8  10
HETATM   10  C9  UNL     1     -33.799  16.364  -3.056  1.00 20.00     0.269 C 
HETATM   11  O11 UNL     1     -33.063  15.411  -3.315  1.00 20.00    -0.301 OA
ENDBRANCH   8  10
TORSDOF 1
ENDMDL
MODEL 8
REMARK VINA RESULT:      -4.5     11.451     12.785
REMARK  1 active torsions:
REMARK  status: ('A' for Active; 'I' for Inactive)
REMARK    1  A    between atoms: C8_8  and  C9_9 
ROOT
HETATM    1  C1  UNL     1     -34.017  15.951  -5.803  1.00 20.00     0.008 A 
HETATM    2  C2  UNL     1     -33.694  17.287  -3.683  1.00 20.00     0.026 A 
HETATM    3  C3  UNL     1     -34.409  15.774  -2.096  1.00 20.00     0.026 A 
HETATM    4  C4  UNL     1     -34.436  14.748  -6.237  1.00 20.00    -0.022 A 
HETATM    5  C5  UNL     1     -34.926  14.011  -3.835  1.00 20.00    -0.011 A 
HETATM    6  C6  UNL     1     -34.046  16.199  -4.390  1.00 20.00    -0.026 A 
HETATM    7  C7  UNL     1     -34.506  15.214  -3.422  1.00 20.00    -0.029 A 
HETATM    8  C8  UNL     1     -33.922  17.014  -2.271  1.00 20.00     0.003 A 
HETATM    9  C10 UNL     1     -34.934  13.651  -5.309  1.00 20.00     0.055 A 
ENDROOT
BRANCH   8  10
HETATM   10  C9  UNL     1     -33.662  17.949  -1.190  1.00 20.00     0.269 C 
HETATM   11  O11 UNL     1     -33.953  17.716  -0.016  1.00 20.00    -0.301 OA
ENDBRANCH   8  10
TORSDOF 1
ENDMDL
MODEL 9
REMARK VINA RESULT:      -4.5     11.634     12.279
REMARK  1 active torsions:
REMARK  status: ('A' for Active; 'I' for Inactive)
REMARK    1  A    between atoms: C8_8  and  C9_9 
ROOT
HETATM    1  C1  UNL     1     -35.410  17.512   2.007  1.00 20.00     0.008 A 
HETATM    2  C2  UNL     1     -34.899  16.935  -0.398  1.00 20.00     0.026 A 
HETATM    3  C3  UNL     1     -32.999  18.191  -0.758  1.00 20.00     0.026 A 
HETATM    4  C4  UNL     1     -34.954  18.253   3.033  1.00 20.00    -0.022 A 
HETATM    5  C5  UNL     1     -33.015  19.110   1.599  1.00 20.00    -0.011 A 
HETATM    6  C6  UNL     1     -34.681  17.559   0.772  1.00 20.00    -0.026 A 
HETATM    7  C7  UNL     1     -33.484  18.366   0.589  1.00 20.00    -0.029 A 
HETATM    8  C8  UNL     1     -33.857  17.331  -1.335  1.00 20.00     0.003 A 
HETATM    9  C10 UNL     1     -33.714  19.129   2.946  1.00 20.00     0.055 A 
ENDROOT
BRANCH   8  10
HETATM   10  C9  UNL     1     -33.749  16.868  -2.707  1.00 20.00     0.269 C 
HETATM   11  O11 UNL     1     -33.545  15.691  -3.005  1.00 20.00    -0.301 OA
ENDBRANCH   8  10
TORSDOF 1
ENDMDL
