MODEL 1
REMARK VINA RESULT:      -4.4      0.000      0.000
REMARK  2 active torsions:
REMARK  status: ('A' for Active; 'I' for Inactive)
REMARK    1  A    between atoms: C2_2  and  C7_7 
REMARK    2  A    between atoms: C3_3  and  C6_6 
ROOT
HETATM    1  C4  UNL     1     -34.854  13.376  -4.144  1.00 20.00     0.014 C 
HETATM    2  C5  UNL     1     -33.580  14.146  -3.748  1.00 20.00     0.015 C 
HETATM    3  C6  UNL     1     -35.470  14.727  -4.589  1.00 20.00     0.067 C 
HETATM    4  C7  UNL     1     -34.452  15.430  -3.616  1.00 20.00    -0.011 C 
HETATM    5  C10 UNL     1     -34.941  15.699  -2.193  1.00 20.00     0.021 C 
ENDROOT
BRANCH   4   6
HETATM    6  C2  UNL     1     -33.821  16.642  -4.200  1.00 20.00    -0.084 C 
HETATM    7  C1  UNL     1     -33.323  16.652  -5.445  1.00 20.00     0.015 C 
HETATM    8  C8  UNL     1     -33.773  17.855  -3.317  1.00 20.00     0.043 C 
ENDBRANCH   4   6
BRANCH   3   9
HETATM    9  C3  UNL     1     -36.969  14.947  -4.359  1.00 20.00     0.128 C 
HETATM   10  C9  UNL     1     -37.571  16.186  -4.966  1.00 20.00     0.091 C 
HETATM   11  O11 UNL     1     -37.647  14.150  -3.713  1.00 20.00    -0.298 OA
ENDBRANCH   3   9
TORSDOF 2
ENDMDL
MODEL 2
REMARK VINA RESULT:      -4.3      1.434      3.028
REMARK  2 active torsions:
REMARK  status: ('A' for Active; 'I' for Inactive)
REMARK    1  A    between atoms: C2_2  and  C7_7 
REMARK    2  A    between atoms: C3_3  and  C6_6 
ROOT
HETATM    1  C4  UNL     1     -36.844  14.706  -3.824  1.00 20.00     0.014 C 
HETATM    2  C5  UNL     1     -36.778  16.230  -3.606  1.00 20.00     0.015 C 
HETATM    3  C6  UNL     1     -35.385  14.621  -3.310  1.00 20.00     0.067 C 
HETATM    4  C7  UNL     1     -35.227  16.132  -3.720  1.00 20.00    -0.011 C 
HETATM    5  C10 UNL     1     -34.695  16.408  -5.126  1.00 20.00     0.021 C 
ENDROOT
BRANCH   4   6
HETATM    6  C2  UNL     1     -34.503  16.944  -2.708  1.00 20.00    -0.084 C 
HETATM    7  C1  UNL     1     -34.436  16.577  -1.419  1.00 20.00     0.015 C 
HETATM    8  C8  UNL     1     -33.848  18.198  -3.210  1.00 20.00     0.043 C 
ENDBRANCH   4   6
BRANCH   3   9
HETATM    9  C3  UNL     1     -34.452  13.590  -3.955  1.00 20.00     0.128 C 
HETATM   10  C9  UNL     1     -32.992  13.684  -3.601  1.00 20.00     0.091 C 
HETATM   11  O11 UNL     1     -34.876  12.726  -4.721  1.00 20.00    -0.298 OA
ENDBRANCH   3   9
TORSDOF 2
ENDMDL
MODEL 3
REMARK VINA RESULT:      -4.2      1.646      3.390
REMARK  2 active torsions:
REMARK  status: ('A' for Active; 'I' for Inactive)
REMARK    1  A    between atoms: C2_2  and  C7_7 
REMARK    2  A    between atoms: C3_3  and  C6_6 
ROOT
HETATM    1  C4  UNL     1     -36.931  14.873  -4.625  1.00 20.00     0.014 C 
HETATM    2  C5  UNL     1     -36.884  15.898  -5.774  1.00 20.00     0.015 C 
HETATM    3  C6  UNL     1     -35.384  14.946  -4.566  1.00 20.00     0.067 C 
HETATM    4  C7  UNL     1     -35.421  15.443  -6.058  1.00 20.00    -0.011 C 
HETATM    5  C10 UNL     1     -35.310  14.369  -7.140  1.00 20.00     0.021 C 
ENDROOT
BRANCH   4   6
HETATM    6  C2  UNL     1     -34.489  16.569  -6.327  1.00 20.00    -0.084 C 
HETATM    7  C1  UNL     1     -33.612  16.999  -5.408  1.00 20.00     0.015 C 
HETATM    8  C8  UNL     1     -34.582  17.195  -7.688  1.00 20.00     0.043 C 
ENDBRANCH   4   6
BRANCH   3   9
HETATM    9  C3  UNL     1     -34.613  13.661  -4.244  1.00 20.00     0.128 C 
HETATM   10  C9  UNL     1     -33.221  13.826  -3.698  1.00 20.00     0.091 C 
HETATM   11  O11 UNL     1     -35.110  12.549  -4.422  1.00 20.00    -0.298 OA
ENDBRANCH   3   9
TORSDOF 2
ENDMDL
MODEL 4
REMARK VINA RESULT:      -4.2      1.903      3.732
REMARK  2 active torsions:
REMARK  status: ('A' for Active; 'I' for Inactive)
REMARK    1  A    between atoms: C2_2  and  C7_7 
REMARK    2  A    between atoms: C3_3  and  C6_6 
ROOT
HETATM    1  C4  UNL     1     -33.498  17.553  -4.827  1.00 20.00     0.014 C 
HETATM    2  C5  UNL     1     -33.699  16.253  -5.627  1.00 20.00     0.015 C 
HETATM    3  C6  UNL     1     -33.703  16.728  -3.531  1.00 20.00     0.067 C 
HETATM    4  C7  UNL     1     -34.482  15.679  -4.408  1.00 20.00    -0.011 C 
HETATM    5  C10 UNL     1     -35.996  15.861  -4.508  1.00 20.00     0.021 C 
ENDROOT
BRANCH   4   6
HETATM    6  C2  UNL     1     -34.135  14.269  -4.087  1.00 20.00    -0.084 C 
HETATM    7  C1  UNL     1     -32.942  13.931  -3.577  1.00 20.00     0.015 C 
HETATM    8  C8  UNL     1     -35.198  13.247  -4.365  1.00 20.00     0.043 C 
ENDBRANCH   4   6
BRANCH   3   9
HETATM    9  C3  UNL     1     -34.439  17.391  -2.362  1.00 20.00     0.128 C 
HETATM   10  C9  UNL     1     -34.531  16.599  -1.085  1.00 20.00     0.091 C 
HETATM   11  O11 UNL     1     -34.928  18.515  -2.462  1.00 20.00    -0.298 OA
ENDBRANCH   3   9
TORSDOF 2
ENDMDL
MODEL 5
REMARK VINA RESULT:      -4.1      2.152      3.788
REMARK  2 active torsions:
REMARK  status: ('A' for Active; 'I' for Inactive)
REMARK    1  A    between atoms: C2_2  and  C7_7 
REMARK    2  A    between atoms: C3_3  and  C6_6 
ROOT
HETATM    1  C4  UNL     1     -34.355  17.489  -2.413  1.00 20.00     0.014 C 
HETATM    2  C5  UNL     1     -34.620  16.061  -1.901  1.00 20.00     0.015 C 
HETATM    3  C6  UNL     1     -34.804  17.013  -3.818  1.00 20.00     0.067 C 
HETATM    4  C7  UNL     1     -34.437  15.552  -3.362  1.00 20.00    -0.011 C 
HETATM    5  C10 UNL     1     -33.019  15.074  -3.674  1.00 20.00     0.021 C 
ENDROOT
BRANCH   4   6
HETATM    6  C2  UNL     1     -35.443  14.538  -3.771  1.00 20.00    -0.084 C 
HETATM    7  C1  UNL     1     -36.761  14.776  -3.698  1.00 20.00     0.015 C 
HETATM    8  C8  UNL     1     -34.901  13.231  -4.272  1.00 20.00     0.043 C 
ENDBRANCH   4   6
BRANCH   3   9
HETATM    9  C3  UNL     1     -34.086  17.597  -5.040  1.00 20.00     0.128 C 
HETATM   10  C9  UNL     1     -34.497  17.060  -6.385  1.00 20.00     0.091 C 
HETATM   11  O11 UNL     1     -33.220  18.463  -4.928  1.00 20.00    -0.298 OA
ENDBRANCH   3   9
TORSDOF 2
ENDMDL
MODEL 6
REMARK VINA RESULT:      -4.1      1.732      2.288
REMARK  2 active torsions:
REMARK  status: ('A' for Active; 'I' for Inactive)
REMARK    1  A    between atoms: C2_2  and  C7_7 
REMARK    2  A    between atoms: C3_3  and  C6_6 
ROOT
HETATM    1  C4  UNL     1     -33.171  14.559  -3.368  1.00 20.00     0.014 C 
HETATM    2  C5  UNL     1     -33.542  15.951  -2.824  1.00 20.00     0.015 C 
HETATM    3  C6  UNL     1     -33.924  14.925  -4.673  1.00 20.00     0.067 C 
HETATM    4  C7  UNL     1     -34.735  15.974  -3.826  1.00 20.00    -0.011 C 
HETATM    5  C10 UNL     1     -36.055  15.493  -3.223  1.00 20.00     0.021 C 
ENDROOT
BRANCH   4   6
HETATM    6  C2  UNL     1     -34.909  17.279  -4.516  1.00 20.00    -0.084 C 
HETATM    7  C1  UNL     1     -33.869  17.959  -5.021  1.00 20.00     0.015 C 
HETATM    8  C8  UNL     1     -36.316  17.792  -4.616  1.00 20.00     0.043 C 
ENDBRANCH   4   6
BRANCH   3   9
HETATM    9  C3  UNL     1     -34.697  13.816  -5.395  1.00 20.00     0.128 C 
HETATM   10  C9  UNL     1     -35.304  14.172  -6.725  1.00 20.00     0.091 C 
HETATM   11  O11 UNL     1     -34.813  12.691  -4.912  1.00 20.00    -0.298 OA
ENDBRANCH   3   9
TORSDOF 2
ENDMDL
MODEL 7
REMARK VINA RESULT:      -4.1      1.929      3.738
REMARK  2 active torsions:
REMARK  status: ('A' for Active; 'I' for Inactive)
REMARK    1  A    between atoms: C2_2  and  C7_7 
REMARK    2  A    between atoms: C3_3  and  C6_6 
ROOT
HETATM    1  C4  UNL     1     -33.883  13.923  -3.748  1.00 20.00     0.014 C 
HETATM    2  C5  UNL     1     -35.143  13.243  -4.315  1.00 20.00     0.015 C 
HETATM    3  C6  UNL     1     -34.574  15.290  -3.991  1.00 20.00     0.067 C 
HETATM    4  C7  UNL     1     -35.462  14.568  -5.071  1.00 20.00    -0.011 C 
HETATM    5  C10 UNL     1     -34.946  14.594  -6.510  1.00 20.00     0.021 C 
ENDROOT
BRANCH   4   6
HETATM    6  C2  UNL     1     -36.895  14.958  -5.012  1.00 20.00    -0.084 C 
HETATM    7  C1  UNL     1     -37.642  14.749  -3.917  1.00 20.00     0.015 C 
HETATM    8  C8  UNL     1     -37.458  15.600  -6.246  1.00 20.00     0.043 C 
ENDBRANCH   4   6
BRANCH   3   9
HETATM    9  C3  UNL     1     -33.703  16.470  -4.434  1.00 20.00     0.128 C 
HETATM   10  C9  UNL     1     -34.300  17.843  -4.287  1.00 20.00     0.091 C 
HETATM   11  O11 UNL     1     -32.571  16.303  -4.884  1.00 20.00    -0.298 OA
ENDBRANCH   3   9
TORSDOF 2
ENDMDL
MODEL 8
REMARK VINA RESULT:      -4.1      1.344      2.111
REMARK  2 active torsions:
REMARK  status: ('A' for Active; 'I' for Inactive)
REMARK    1  A    between atoms: C2_2  and  C7_7 
REMARK    2  A    between atoms: C3_3  and  C6_6 
ROOT
HETATM    1  C4  UNL     1     -36.329  14.780  -6.561  1.00 20.00     0.014 C 
HETATM    2  C5  UNL     1     -34.804  14.599  -6.681  1.00 20.00     0.015 C 
HETATM    3  C6  UNL     1     -36.087  15.497  -5.209  1.00 20.00     0.067 C 
HETATM    4  C7  UNL     1     -34.714  14.733  -5.131  1.00 20.00    -0.011 C 
HETATM    5  C10 UNL     1     -34.718  13.392  -4.396  1.00 20.00     0.021 C 
ENDROOT
BRANCH   4   6
HETATM    6  C2  UNL     1     -33.589  15.588  -4.671  1.00 20.00    -0.084 C 
HETATM    7  C1  UNL     1     -33.364  16.804  -5.191  1.00 20.00     0.015 C 
HETATM    8  C8  UNL     1     -32.720  15.015  -3.590  1.00 20.00     0.043 C 
ENDBRANCH   4   6
BRANCH   3   9
HETATM    9  C3  UNL     1     -37.106  15.282  -4.085  1.00 20.00     0.128 C 
HETATM   10  C9  UNL     1     -37.369  16.453  -3.177  1.00 20.00     0.091 C 
HETATM   11  O11 UNL     1     -37.683  14.206  -3.935  1.00 20.00    -0.298 OA
ENDBRANCH   3   9
TORSDOF 2
ENDMDL
MODEL 9
REMARK VINA RESULT:      -4.0      2.204      3.457
REMARK  2 active torsions:
REMARK  status: ('A' for Active; 'I' for Inactive)
REMARK    1  A    between atoms: C2_2  and  C7_7 
REMARK    2  A    between atoms: C3_3  and  C6_6 
ROOT
HETATM    1  C4  UNL     1     -34.555  15.103  -7.178  1.00 20.00     0.014 C 
HETATM    2  C5  UNL     1     -34.941  14.051  -6.121  1.00 20.00     0.015 C 
HETATM    3  C6  UNL     1     -33.986  15.973  -6.029  1.00 20.00     0.067 C 
HETATM    4  C7  UNL     1     -34.942  15.188  -5.056  1.00 20.00    -0.011 C 
HETATM    5  C10 UNL     1     -36.321  15.800  -4.810  1.00 20.00     0.021 C 
ENDROOT
BRANCH   4   6
HETATM    6  C2  UNL     1     -34.293  14.805  -3.775  1.00 20.00    -0.084 C 
HETATM    7  C1  UNL     1     -33.385  13.820  -3.706  1.00 20.00     0.015 C 
HETATM    8  C8  UNL     1     -34.710  15.585  -2.563  1.00 20.00     0.043 C 
ENDBRANCH   4   6
BRANCH   3   9
HETATM    9  C3  UNL     1     -34.140  17.494  -6.132  1.00 20.00     0.128 C 
HETATM   10  C9  UNL     1     -33.499  18.314  -5.045  1.00 20.00     0.091 C 
HETATM   11  O11 UNL     1     -34.755  18.019  -7.059  1.00 20.00    -0.298 OA
ENDBRANCH   3   9
TORSDOF 2
ENDMDL
