MODEL 1
REMARK VINA RESULT:      -5.0      0.000      0.000
REMARK  0 active torsions:
REMARK  status: ('A' for Active; 'I' for Inactive)
ROOT
HETATM    1  C1  UNL     1     -33.903   5.242   3.790  1.00 20.00     0.251 C 
HETATM    2  C2  UNL     1     -33.656   6.516   4.571  1.00 20.00     0.251 C 
HETATM    3  C3  UNL     1     -35.189   4.659   4.338  1.00 20.00     0.271 C 
HETATM    4  C4  UNL     1     -33.742   6.140   6.036  1.00 20.00     0.271 C 
HETATM    5  F5  UNL     1     -34.049   5.526   2.473  1.00 20.00    -0.242 F 
HETATM    6  F6  UNL     1     -32.409   6.982   4.296  1.00 20.00    -0.242 F 
HETATM    7  F7  UNL     1     -36.238   5.400   3.893  1.00 20.00    -0.235 F 
HETATM    8  F8  UNL     1     -34.061   7.234   6.770  1.00 20.00    -0.235 F 
HETATM    9  S9  UNL     1     -35.039   4.880   6.133  1.00 20.00    -0.089 SA
ENDROOT
TORSDOF 0
ENDMDL
MODEL 2
REMARK VINA RESULT:      -4.7      1.352      2.929
REMARK  0 active torsions:
REMARK  status: ('A' for Active; 'I' for Inactive)
ROOT
HETATM    1  C1  UNL     1     -34.004   6.537   5.680  1.00 20.00     0.251 C 
HETATM    2  C2  UNL     1     -33.318   6.205   4.371  1.00 20.00     0.251 C 
HETATM    3  C3  UNL     1     -34.749   5.283   6.091  1.00 20.00     0.271 C 
HETATM    4  C4  UNL     1     -34.390   5.639   3.461  1.00 20.00     0.271 C 
HETATM    5  F5  UNL     1     -33.082   6.854   6.621  1.00 20.00    -0.242 F 
HETATM    6  F6  UNL     1     -32.813   7.341   3.823  1.00 20.00    -0.242 F 
HETATM    7  F7  UNL     1     -33.855   4.360   6.535  1.00 20.00    -0.235 F 
HETATM    8  F8  UNL     1     -33.818   4.851   2.518  1.00 20.00    -0.235 F 
HETATM    9  S9  UNL     1     -35.484   4.684   4.543  1.00 20.00    -0.089 SA
ENDROOT
TORSDOF 0
ENDMDL
MODEL 3
REMARK VINA RESULT:      -4.6      1.563      2.668
REMARK  0 active torsions:
REMARK  status: ('A' for Active; 'I' for Inactive)
ROOT
HETATM    1  C1  UNL     1     -34.631   5.604   3.734  1.00 20.00     0.251 C 
HETATM    2  C2  UNL     1     -34.493   4.499   4.761  1.00 20.00     0.251 C 
HETATM    3  C3  UNL     1     -33.607   6.654   4.110  1.00 20.00     0.271 C 
HETATM    4  C4  UNL     1     -34.572   5.169   6.118  1.00 20.00     0.271 C 
HETATM    5  F5  UNL     1     -34.364   5.123   2.496  1.00 20.00    -0.242 F 
HETATM    6  F6  UNL     1     -35.525   3.625   4.628  1.00 20.00    -0.242 F 
HETATM    7  F7  UNL     1     -32.366   6.202   3.786  1.00 20.00    -0.235 F 
HETATM    8  F8  UNL     1     -33.951   4.397   7.044  1.00 20.00    -0.235 F 
HETATM    9  S9  UNL     1     -33.734   6.761   5.918  1.00 20.00    -0.089 SA
ENDROOT
TORSDOF 0
ENDMDL
MODEL 4
REMARK VINA RESULT:      -4.5      1.728      2.729
REMARK  0 active torsions:
REMARK  status: ('A' for Active; 'I' for Inactive)
ROOT
HETATM    1  C1  UNL     1     -34.936   5.712   5.711  1.00 20.00     0.251 C 
HETATM    2  C2  UNL     1     -33.470   6.019   5.488  1.00 20.00     0.251 C 
HETATM    3  C3  UNL     1     -35.334   4.750   4.611  1.00 20.00     0.271 C 
HETATM    4  C4  UNL     1     -33.340   6.444   4.040  1.00 20.00     0.271 C 
HETATM    5  F5  UNL     1     -35.110   5.126   6.920  1.00 20.00    -0.242 F 
HETATM    6  F6  UNL     1     -33.094   7.044   6.296  1.00 20.00    -0.242 F 
HETATM    7  F7  UNL     1     -34.806   3.525   4.879  1.00 20.00    -0.235 F 
HETATM    8  F8  UNL     1     -32.072   6.228   3.613  1.00 20.00    -0.235 F 
HETATM    9  S9  UNL     1     -34.525   5.420   3.130  1.00 20.00    -0.089 SA
ENDROOT
TORSDOF 0
ENDMDL
MODEL 5
REMARK VINA RESULT:      -4.4      1.736      3.529
REMARK  0 active torsions:
REMARK  status: ('A' for Active; 'I' for Inactive)
ROOT
HETATM    1  C1  UNL     1     -33.844   4.858   5.809  1.00 20.00     0.251 C 
HETATM    2  C2  UNL     1     -35.129   4.708   5.021  1.00 20.00     0.251 C 
HETATM    3  C3  UNL     1     -33.481   6.327   5.743  1.00 20.00     0.271 C 
HETATM    4  C4  UNL     1     -34.878   5.356   3.674  1.00 20.00     0.271 C 
HETATM    5  F5  UNL     1     -34.045   4.492   7.099  1.00 20.00    -0.242 F 
HETATM    6  F6  UNL     1     -35.401   3.389   4.844  1.00 20.00    -0.242 F 
HETATM    7  F7  UNL     1     -34.321   7.030   6.548  1.00 20.00    -0.235 F 
HETATM    8  F8  UNL     1     -36.057   5.740   3.126  1.00 20.00    -0.235 F 
HETATM    9  S9  UNL     1     -33.815   6.781   4.017  1.00 20.00    -0.089 SA
ENDROOT
TORSDOF 0
ENDMDL
MODEL 6
REMARK VINA RESULT:      -4.1     12.657     13.389
REMARK  0 active torsions:
REMARK  status: ('A' for Active; 'I' for Inactive)
ROOT
HETATM    1  C1  UNL     1     -35.342  14.762  -5.499  1.00 20.00     0.251 C 
HETATM    2  C2  UNL     1     -34.475  13.705  -4.846  1.00 20.00     0.251 C 
HETATM    3  C3  UNL     1     -34.398  15.860  -5.944  1.00 20.00     0.271 C 
HETATM    4  C4  UNL     1     -33.630  14.427  -3.817  1.00 20.00     0.271 C 
HETATM    5  F5  UNL     1     -35.980  14.239  -6.575  1.00 20.00    -0.242 F 
HETATM    6  F6  UNL     1     -35.266  12.793  -4.223  1.00 20.00    -0.242 F 
HETATM    7  F7  UNL     1     -33.704  15.435  -7.034  1.00 20.00    -0.235 F 
HETATM    8  F8  UNL     1     -32.502  13.714  -3.573  1.00 20.00    -0.235 F 
HETATM    9  S9  UNL     1     -33.246  16.036  -4.552  1.00 20.00    -0.089 SA
ENDROOT
TORSDOF 0
ENDMDL
MODEL 7
REMARK VINA RESULT:      -4.1      8.597      9.832
REMARK  0 active torsions:
REMARK  status: ('A' for Active; 'I' for Inactive)
ROOT
HETATM    1  C1  UNL     1     -41.364   6.025  -0.219  1.00 20.00     0.251 C 
HETATM    2  C2  UNL     1     -41.242   7.018  -1.355  1.00 20.00     0.251 C 
HETATM    3  C3  UNL     1     -41.448   4.658  -0.866  1.00 20.00     0.271 C 
HETATM    4  C4  UNL     1     -42.378   6.712  -2.311  1.00 20.00     0.271 C 
HETATM    5  F5  UNL     1     -40.268   6.091   0.576  1.00 20.00    -0.242 F 
HETATM    6  F6  UNL     1     -41.386   8.280  -0.872  1.00 20.00    -0.242 F 
HETATM    7  F7  UNL     1     -40.220   4.311  -1.335  1.00 20.00    -0.235 F 
HETATM    8  F8  UNL     1     -42.061   7.153  -3.553  1.00 20.00    -0.235 F 
HETATM    9  S9  UNL     1     -42.561   4.911  -2.278  1.00 20.00    -0.089 SA
ENDROOT
TORSDOF 0
ENDMDL
MODEL 8
REMARK VINA RESULT:      -4.1     12.649     13.452
REMARK  0 active torsions:
REMARK  status: ('A' for Active; 'I' for Inactive)
ROOT
HETATM    1  C1  UNL     1     -34.009  15.431  -3.530  1.00 20.00     0.251 C 
HETATM    2  C2  UNL     1     -33.543  15.899  -4.893  1.00 20.00     0.251 C 
HETATM    3  C3  UNL     1     -34.070  13.919  -3.605  1.00 20.00     0.271 C 
HETATM    4  C4  UNL     1     -34.457  15.236  -5.904  1.00 20.00     0.271 C 
HETATM    5  F5  UNL     1     -33.119  15.809  -2.580  1.00 20.00    -0.242 F 
HETATM    6  F6  UNL     1     -33.676  17.248  -4.978  1.00 20.00    -0.242 F 
HETATM    7  F7  UNL     1     -32.805  13.422  -3.591  1.00 20.00    -0.235 F 
HETATM    8  F8  UNL     1     -33.828  15.156  -7.102  1.00 20.00    -0.235 F 
HETATM    9  S9  UNL     1     -34.806  13.592  -5.232  1.00 20.00    -0.089 SA
ENDROOT
TORSDOF 0
ENDMDL
MODEL 9
REMARK VINA RESULT:      -4.0     12.107     12.694
REMARK  0 active torsions:
REMARK  status: ('A' for Active; 'I' for Inactive)
ROOT
HETATM    1  C1  UNL     1     -33.207  15.042  -4.003  1.00 20.00     0.251 C 
HETATM    2  C2  UNL     1     -34.258  13.955  -3.916  1.00 20.00     0.251 C 
HETATM    3  C3  UNL     1     -33.787  16.243  -3.284  1.00 20.00     0.271 C 
HETATM    4  C4  UNL     1     -35.550  14.573  -4.413  1.00 20.00     0.271 C 
HETATM    5  F5  UNL     1     -32.070  14.639  -3.385  1.00 20.00    -0.242 F 
HETATM    6  F6  UNL     1     -33.910  12.922  -4.727  1.00 20.00    -0.242 F 
HETATM    7  F7  UNL     1     -33.761  16.014  -1.944  1.00 20.00    -0.235 F 
HETATM    8  F8  UNL     1     -36.606  13.898  -3.897  1.00 20.00    -0.235 F 
HETATM    9  S9  UNL     1     -35.516  16.288  -3.833  1.00 20.00    -0.089 SA
ENDROOT
TORSDOF 0
ENDMDL
