MODEL 1
REMARK VINA RESULT:      -4.8      0.000      0.000
REMARK  1 active torsions:
REMARK  status: ('A' for Active; 'I' for Inactive)
REMARK    1  A    between atoms: C9_9  and  N10_10 
ROOT
HETATM    1  C1  UNL     1     -35.236  13.426  -4.287  1.00 20.00     0.072 A 
HETATM    2  C2  UNL     1     -33.909  13.590  -4.305  1.00 20.00    -0.002 A 
HETATM    3  C5  UNL     1     -35.801  14.586  -3.573  1.00 20.00     0.243 A 
HETATM    4  C8  UNL     1     -33.464  14.837  -3.625  1.00 20.00     0.154 A 
HETATM    5  N10 UNL     1     -34.730  15.385  -3.203  1.00 20.00    -0.340 N 
HETATM    6  O11 UNL     1     -36.995  14.750  -3.378  1.00 20.00    -0.268 OA
ENDROOT
BRANCH   5   7
HETATM    7  C9  UNL     1     -34.866  16.621  -2.482  1.00 20.00     0.094 C 
HETATM    8  C6  UNL     1     -34.680  16.444  -0.970  1.00 20.00     0.052 C 
HETATM    9  C3  UNL     1     -33.993  17.708  -0.575  1.00 20.00    -0.029 C 
HETATM   10  C4  UNL     1     -33.533  18.378  -1.634  1.00 20.00    -0.029 C 
HETATM   11  C7  UNL     1     -33.838  17.673  -2.914  1.00 20.00     0.052 C 
ENDBRANCH   5   7
TORSDOF 1
ENDMDL
MODEL 2
REMARK VINA RESULT:      -4.7      1.397      2.147
REMARK  1 active torsions:
REMARK  status: ('A' for Active; 'I' for Inactive)
REMARK    1  A    between atoms: C9_9  and  N10_10 
ROOT
HETATM    1  C1  UNL     1     -35.261  13.296  -4.349  1.00 20.00     0.072 A 
HETATM    2  C2  UNL     1     -36.335  14.086  -4.251  1.00 20.00    -0.002 A 
HETATM    3  C5  UNL     1     -34.162  13.978  -3.638  1.00 20.00     0.243 A 
HETATM    4  C8  UNL     1     -36.074  15.337  -3.488  1.00 20.00     0.154 A 
HETATM    5  N10 UNL     1     -34.683  15.167  -3.151  1.00 20.00    -0.340 N 
HETATM    6  O11 UNL     1     -33.033  13.526  -3.536  1.00 20.00    -0.268 OA
ENDROOT
BRANCH   5   7
HETATM    7  C9  UNL     1     -33.921  16.122  -2.394  1.00 20.00     0.094 C 
HETATM    8  C6  UNL     1     -33.775  17.467  -3.118  1.00 20.00     0.052 C 
HETATM    9  C3  UNL     1     -33.819  18.449  -1.997  1.00 20.00    -0.029 C 
HETATM   10  C4  UNL     1     -34.245  17.891  -0.861  1.00 20.00    -0.029 C 
HETATM   11  C7  UNL     1     -34.555  16.442  -1.036  1.00 20.00     0.052 C 
ENDBRANCH   5   7
TORSDOF 1
ENDMDL
MODEL 3
REMARK VINA RESULT:      -4.6      2.051      2.459
REMARK  1 active torsions:
REMARK  status: ('A' for Active; 'I' for Inactive)
REMARK    1  A    between atoms: C9_9  and  N10_10 
ROOT
HETATM    1  C1  UNL     1     -35.073  14.075  -6.760  1.00 20.00     0.072 A 
HETATM    2  C2  UNL     1     -35.094  15.404  -6.901  1.00 20.00    -0.002 A 
HETATM    3  C5  UNL     1     -34.891  13.800  -5.322  1.00 20.00     0.243 A 
HETATM    4  C8  UNL     1     -34.932  16.132  -5.612  1.00 20.00     0.154 A 
HETATM    5  N10 UNL     1     -34.813  15.032  -4.689  1.00 20.00    -0.340 N 
HETATM    6  O11 UNL     1     -34.828  12.678  -4.845  1.00 20.00    -0.268 OA
ENDROOT
BRANCH   5   7
HETATM    7  C9  UNL     1     -34.634  15.192  -3.272  1.00 20.00     0.094 C 
HETATM    8  C6  UNL     1     -33.362  15.975  -2.923  1.00 20.00     0.052 C 
HETATM    9  C3  UNL     1     -33.777  16.756  -1.722  1.00 20.00    -0.029 C 
HETATM   10  C4  UNL     1     -35.102  16.744  -1.553  1.00 20.00    -0.029 C 
HETATM   11  C7  UNL     1     -35.791  15.952  -2.613  1.00 20.00     0.052 C 
ENDBRANCH   5   7
TORSDOF 1
ENDMDL
MODEL 4
REMARK VINA RESULT:      -4.5      2.189      2.920
REMARK  1 active torsions:
REMARK  status: ('A' for Active; 'I' for Inactive)
REMARK    1  A    between atoms: C9_9  and  N10_10 
ROOT
HETATM    1  C1  UNL     1     -33.452  16.425  -5.384  1.00 20.00     0.072 A 
HETATM    2  C2  UNL     1     -33.907  17.679  -5.311  1.00 20.00    -0.002 A 
HETATM    3  C5  UNL     1     -33.240  15.964  -3.998  1.00 20.00     0.243 A 
HETATM    4  C8  UNL     1     -34.043  18.172  -3.912  1.00 20.00     0.154 A 
HETATM    5  N10 UNL     1     -33.598  17.018  -3.171  1.00 20.00    -0.340 N 
HETATM    6  O11 UNL     1     -32.825  14.855  -3.705  1.00 20.00    -0.268 OA
ENDROOT
BRANCH   5   7
HETATM    7  C9  UNL     1     -33.534  16.965  -1.736  1.00 20.00     0.094 C 
HETATM    8  C6  UNL     1     -33.287  18.341  -1.106  1.00 20.00     0.052 C 
HETATM    9  C3  UNL     1     -34.090  18.276   0.149  1.00 20.00    -0.029 C 
HETATM   10  C4  UNL     1     -34.932  17.239   0.150  1.00 20.00    -0.029 C 
HETATM   11  C7  UNL     1     -34.828  16.439  -1.106  1.00 20.00     0.052 C 
ENDBRANCH   5   7
TORSDOF 1
ENDMDL
MODEL 5
REMARK VINA RESULT:      -4.4      1.808      4.425
REMARK  1 active torsions:
REMARK  status: ('A' for Active; 'I' for Inactive)
REMARK    1  A    between atoms: C9_9  and  N10_10 
ROOT
HETATM    1  C1  UNL     1     -33.798  18.791  -1.193  1.00 20.00     0.072 A 
HETATM    2  C2  UNL     1     -34.193  17.831  -0.351  1.00 20.00    -0.002 A 
HETATM    3  C5  UNL     1     -33.773  18.195  -2.542  1.00 20.00     0.243 A 
HETATM    4  C8  UNL     1     -34.464  16.533  -1.030  1.00 20.00     0.154 A 
HETATM    5  N10 UNL     1     -34.169  16.874  -2.399  1.00 20.00    -0.340 N 
HETATM    6  O11 UNL     1     -33.453  18.804  -3.550  1.00 20.00    -0.268 OA
ENDROOT
BRANCH   5   7
HETATM    7  C9  UNL     1     -34.274  15.948  -3.494  1.00 20.00     0.094 C 
HETATM    8  C6  UNL     1     -33.059  15.019  -3.599  1.00 20.00     0.052 C 
HETATM    9  C3  UNL     1     -33.666  13.736  -4.057  1.00 20.00    -0.029 C 
HETATM   10  C4  UNL     1     -34.996  13.742  -3.936  1.00 20.00    -0.029 C 
HETATM   11  C7  UNL     1     -35.497  15.032  -3.377  1.00 20.00     0.052 C 
ENDBRANCH   5   7
TORSDOF 1
ENDMDL
MODEL 6
REMARK VINA RESULT:      -4.4     12.017     14.383
REMARK  1 active torsions:
REMARK  status: ('A' for Active; 'I' for Inactive)
REMARK    1  A    between atoms: C9_9  and  N10_10 
ROOT
HETATM    1  C1  UNL     1     -41.226   6.708  -1.312  1.00 20.00     0.072 A 
HETATM    2  C2  UNL     1     -40.620   5.793  -0.548  1.00 20.00    -0.002 A 
HETATM    3  C5  UNL     1     -42.004   5.972  -2.327  1.00 20.00     0.243 A 
HETATM    4  C8  UNL     1     -40.922   4.395  -0.961  1.00 20.00     0.154 A 
HETATM    5  N10 UNL     1     -41.797   4.623  -2.083  1.00 20.00    -0.340 N 
HETATM    6  O11 UNL     1     -42.681   6.510  -3.189  1.00 20.00    -0.268 OA
ENDROOT
BRANCH   5   7
HETATM    7  C9  UNL     1     -42.389   3.570  -2.863  1.00 20.00     0.094 C 
HETATM    8  C6  UNL     1     -41.353   2.562  -3.375  1.00 20.00     0.052 C 
HETATM    9  C3  UNL     1     -42.095   1.270  -3.315  1.00 20.00    -0.029 C 
HETATM   10  C4  UNL     1     -43.220   1.374  -2.603  1.00 20.00    -0.029 C 
HETATM   11  C7  UNL     1     -43.415   2.754  -2.070  1.00 20.00     0.052 C 
ENDBRANCH   5   7
TORSDOF 1
ENDMDL
MODEL 7
REMARK VINA RESULT:      -4.4      1.532      4.206
REMARK  1 active torsions:
REMARK  status: ('A' for Active; 'I' for Inactive)
REMARK    1  A    between atoms: C9_9  and  N10_10 
ROOT
HETATM    1  C1  UNL     1     -33.878  18.520  -1.851  1.00 20.00     0.072 A 
HETATM    2  C2  UNL     1     -33.641  18.613  -3.164  1.00 20.00    -0.002 A 
HETATM    3  C5  UNL     1     -34.217  17.111  -1.576  1.00 20.00     0.243 A 
HETATM    4  C8  UNL     1     -33.793  17.316  -3.879  1.00 20.00     0.154 A 
HETATM    5  N10 UNL     1     -34.156  16.444  -2.790  1.00 20.00    -0.340 N 
HETATM    6  O11 UNL     1     -34.491  16.681  -0.468  1.00 20.00    -0.268 OA
ENDROOT
BRANCH   5   7
HETATM    7  C9  UNL     1     -34.423  15.040  -2.945  1.00 20.00     0.094 C 
HETATM    8  C6  UNL     1     -35.781  14.768  -3.604  1.00 20.00     0.052 C 
HETATM    9  C3  UNL     1     -35.506  13.558  -4.432  1.00 20.00    -0.029 C 
HETATM   10  C4  UNL     1     -34.197  13.320  -4.550  1.00 20.00    -0.029 C 
HETATM   11  C7  UNL     1     -33.381  14.333  -3.818  1.00 20.00     0.052 C 
ENDBRANCH   5   7
TORSDOF 1
ENDMDL
MODEL 8
REMARK VINA RESULT:      -4.3      2.930      4.426
REMARK  1 active torsions:
REMARK  status: ('A' for Active; 'I' for Inactive)
REMARK    1  A    between atoms: C9_9  and  N10_10 
ROOT
HETATM    1  C1  UNL     1     -33.272  13.887  -3.668  1.00 20.00     0.072 A 
HETATM    2  C2  UNL     1     -32.935  15.175  -3.791  1.00 20.00    -0.002 A 
HETATM    3  C5  UNL     1     -34.272  13.604  -4.715  1.00 20.00     0.243 A 
HETATM    4  C8  UNL     1     -33.653  15.865  -4.898  1.00 20.00     0.154 A 
HETATM    5  N10 UNL     1     -34.465  14.789  -5.410  1.00 20.00    -0.340 N 
HETATM    6  O11 UNL     1     -34.793  12.513  -4.882  1.00 20.00    -0.268 OA
ENDROOT
BRANCH   5   7
HETATM    7  C9  UNL     1     -35.372  14.927  -6.517  1.00 20.00     0.094 C 
HETATM    8  C6  UNL     1     -36.801  15.258  -6.070  1.00 20.00     0.052 C 
HETATM    9  C3  UNL     1     -37.279  16.171  -7.149  1.00 20.00    -0.029 C 
HETATM   10  C4  UNL     1     -36.276  16.601  -7.918  1.00 20.00    -0.029 C 
HETATM   11  C7  UNL     1     -34.961  16.046  -7.480  1.00 20.00     0.052 C 
ENDBRANCH   5   7
TORSDOF 1
ENDMDL
MODEL 9
REMARK VINA RESULT:      -4.2      2.961      4.786
REMARK  1 active torsions:
REMARK  status: ('A' for Active; 'I' for Inactive)
REMARK    1  A    between atoms: C9_9  and  N10_10 
ROOT
HETATM    1  C1  UNL     1     -32.767  14.833  -3.599  1.00 20.00     0.072 A 
HETATM    2  C2  UNL     1     -33.447  13.684  -3.669  1.00 20.00    -0.002 A 
HETATM    3  C5  UNL     1     -33.322  15.723  -4.636  1.00 20.00     0.243 A 
HETATM    4  C8  UNL     1     -34.493  13.687  -4.728  1.00 20.00     0.154 A 
HETATM    5  N10 UNL     1     -34.328  15.011  -5.272  1.00 20.00    -0.340 N 
HETATM    6  O11 UNL     1     -32.925  16.858  -4.844  1.00 20.00    -0.268 OA
ENDROOT
BRANCH   5   7
HETATM    7  C9  UNL     1     -35.118  15.537  -6.352  1.00 20.00     0.094 C 
HETATM    8  C6  UNL     1     -35.356  14.507  -7.463  1.00 20.00     0.052 C 
HETATM    9  C3  UNL     1     -36.740  14.829  -7.918  1.00 20.00    -0.029 C 
HETATM   10  C4  UNL     1     -37.369  15.641  -7.064  1.00 20.00    -0.029 C 
HETATM   11  C7  UNL     1     -36.508  15.996  -5.898  1.00 20.00     0.052 C 
ENDBRANCH   5   7
TORSDOF 1
ENDMDL
