MODEL 1
REMARK VINA RESULT:      -4.8      0.000      0.000
REMARK  0 active torsions:
REMARK  status: ('A' for Active; 'I' for Inactive)
ROOT
HETATM    1  C1  UNL     1     -35.340  14.479  -7.121  1.00 20.00     0.027 C 
HETATM    2  C2  UNL     1     -35.246  15.838  -7.593  1.00 20.00     0.027 C 
HETATM    3  C3  UNL     1     -34.612  14.381  -5.945  1.00 20.00     0.012 C 
HETATM    4  C4  UNL     1     -34.460  16.502  -6.686  1.00 20.00     0.012 C 
HETATM    5  C5  UNL     1     -34.478  13.363  -4.867  1.00 20.00     0.057 C 
HETATM    6  C6  UNL     1     -33.990  17.844  -6.279  1.00 20.00     0.059 C 
HETATM    7  C7  UNL     1     -33.497  13.807  -3.753  1.00 20.00     0.008 C 
HETATM    8  C8  UNL     1     -33.601  17.593  -4.783  1.00 20.00     0.032 C 
HETATM    9  C9  UNL     1     -33.553  15.323  -3.452  1.00 20.00     0.026 C 
HETATM   10  C10 UNL     1     -33.208  16.103  -4.717  1.00 20.00     0.090 C 
HETATM   11  N11 UNL     1     -33.993  15.571  -5.821  1.00 20.00    -0.349 N 
ENDROOT
TORSDOF 0
ENDMDL
MODEL 2
REMARK VINA RESULT:      -4.8      0.948      3.019
REMARK  0 active torsions:
REMARK  status: ('A' for Active; 'I' for Inactive)
ROOT
HETATM    1  C1  UNL     1     -34.180  16.390  -6.843  1.00 20.00     0.027 C 
HETATM    2  C2  UNL     1     -34.469  14.986  -7.002  1.00 20.00     0.027 C 
HETATM    3  C3  UNL     1     -34.155  16.673  -5.485  1.00 20.00     0.012 C 
HETATM    4  C4  UNL     1     -34.612  14.481  -5.735  1.00 20.00     0.012 C 
HETATM    5  C5  UNL     1     -33.717  17.827  -4.654  1.00 20.00     0.057 C 
HETATM    6  C6  UNL     1     -34.739  13.226  -4.965  1.00 20.00     0.059 C 
HETATM    7  C7  UNL     1     -33.918  17.574  -3.139  1.00 20.00     0.008 C 
HETATM    8  C8  UNL     1     -34.260  13.686  -3.546  1.00 20.00     0.032 C 
HETATM    9  C9  UNL     1     -33.655  16.110  -2.718  1.00 20.00     0.026 C 
HETATM   10  C10 UNL     1     -34.606  15.188  -3.476  1.00 20.00     0.090 C 
HETATM   11  N11 UNL     1     -34.566  15.536  -4.888  1.00 20.00    -0.349 N 
ENDROOT
TORSDOF 0
ENDMDL
MODEL 3
REMARK VINA RESULT:      -4.8      0.997      3.098
REMARK  0 active torsions:
REMARK  status: ('A' for Active; 'I' for Inactive)
ROOT
HETATM    1  C1  UNL     1     -34.471  13.402  -4.964  1.00 20.00     0.027 C 
HETATM    2  C2  UNL     1     -34.370  13.640  -3.545  1.00 20.00     0.027 C 
HETATM    3  C3  UNL     1     -34.519  14.631  -5.604  1.00 20.00     0.012 C 
HETATM    4  C4  UNL     1     -34.366  15.002  -3.388  1.00 20.00     0.012 C 
HETATM    5  C5  UNL     1     -34.406  15.094  -7.014  1.00 20.00     0.057 C 
HETATM    6  C6  UNL     1     -34.146  16.083  -2.403  1.00 20.00     0.059 C 
HETATM    7  C7  UNL     1     -34.526  16.633  -7.143  1.00 20.00     0.008 C 
HETATM    8  C8  UNL     1     -33.804  17.289  -3.342  1.00 20.00     0.032 C 
HETATM    9  C9  UNL     1     -33.875  17.402  -5.970  1.00 20.00     0.026 C 
HETATM   10  C10 UNL     1     -34.543  16.989  -4.662  1.00 20.00     0.090 C 
HETATM   11  N11 UNL     1     -34.604  15.536  -4.609  1.00 20.00    -0.349 N 
ENDROOT
TORSDOF 0
ENDMDL
MODEL 4
REMARK VINA RESULT:      -4.8      1.061      2.746
REMARK  0 active torsions:
REMARK  status: ('A' for Active; 'I' for Inactive)
ROOT
HETATM    1  C1  UNL     1     -34.708  13.606  -3.739  1.00 20.00     0.027 C 
HETATM    2  C2  UNL     1     -34.765  13.333  -5.154  1.00 20.00     0.027 C 
HETATM    3  C3  UNL     1     -34.332  14.930  -3.572  1.00 20.00     0.012 C 
HETATM    4  C4  UNL     1     -34.416  14.501  -5.781  1.00 20.00     0.012 C 
HETATM    5  C5  UNL     1     -34.299  15.883  -2.429  1.00 20.00     0.057 C 
HETATM    6  C6  UNL     1     -34.361  15.172  -7.098  1.00 20.00     0.059 C 
HETATM    7  C7  UNL     1     -33.780  17.283  -2.841  1.00 20.00     0.008 C 
HETATM    8  C8  UNL     1     -34.363  16.680  -6.674  1.00 20.00     0.032 C 
HETATM    9  C9  UNL     1     -34.226  17.713  -4.258  1.00 20.00     0.026 C 
HETATM   10  C10 UNL     1     -33.708  16.704  -5.278  1.00 20.00     0.090 C 
HETATM   11  N11 UNL     1     -34.028  15.363  -4.812  1.00 20.00    -0.349 N 
ENDROOT
TORSDOF 0
ENDMDL
MODEL 5
REMARK VINA RESULT:      -4.7      1.255      2.757
REMARK  0 active torsions:
REMARK  status: ('A' for Active; 'I' for Inactive)
ROOT
HETATM    1  C1  UNL     1     -33.780  17.185  -6.062  1.00 20.00     0.027 C 
HETATM    2  C2  UNL     1     -33.576  18.034  -4.914  1.00 20.00     0.027 C 
HETATM    3  C3  UNL     1     -34.073  15.909  -5.605  1.00 20.00     0.012 C 
HETATM    4  C4  UNL     1     -33.748  17.234  -3.814  1.00 20.00     0.012 C 
HETATM    5  C5  UNL     1     -34.586  14.657  -6.226  1.00 20.00     0.057 C 
HETATM    6  C6  UNL     1     -33.890  17.253  -2.342  1.00 20.00     0.059 C 
HETATM    7  C7  UNL     1     -34.735  13.506  -5.199  1.00 20.00     0.008 C 
HETATM    8  C8  UNL     1     -34.624  15.893  -2.086  1.00 20.00     0.032 C 
HETATM    9  C9  UNL     1     -35.198  13.983  -3.802  1.00 20.00     0.026 C 
HETATM   10  C10 UNL     1     -34.183  14.977  -3.246  1.00 20.00     0.090 C 
HETATM   11  N11 UNL     1     -33.891  15.968  -4.271  1.00 20.00    -0.349 N 
ENDROOT
TORSDOF 0
ENDMDL
MODEL 6
REMARK VINA RESULT:      -4.6      0.480      2.691
REMARK  0 active torsions:
REMARK  status: ('A' for Active; 'I' for Inactive)
ROOT
HETATM    1  C1  UNL     1     -33.435  17.363  -4.936  1.00 20.00     0.027 C 
HETATM    2  C2  UNL     1     -33.948  17.637  -6.256  1.00 20.00     0.027 C 
HETATM    3  C3  UNL     1     -33.847  16.089  -4.571  1.00 20.00     0.012 C 
HETATM    4  C4  UNL     1     -34.652  16.521  -6.630  1.00 20.00     0.012 C 
HETATM    5  C5  UNL     1     -33.499  15.139  -3.479  1.00 20.00     0.057 C 
HETATM    6  C6  UNL     1     -35.325  15.870  -7.773  1.00 20.00     0.059 C 
HETATM    7  C7  UNL     1     -34.291  13.811  -3.577  1.00 20.00     0.008 C 
HETATM    8  C8  UNL     1     -35.309  14.369  -7.326  1.00 20.00     0.032 C 
HETATM    9  C9  UNL     1     -34.530  13.342  -5.031  1.00 20.00     0.026 C 
HETATM   10  C10 UNL     1     -35.316  14.411  -5.784  1.00 20.00     0.090 C 
HETATM   11  N11 UNL     1     -34.687  15.703  -5.551  1.00 20.00    -0.349 N 
ENDROOT
TORSDOF 0
ENDMDL
MODEL 7
REMARK VINA RESULT:      -4.5     11.992     13.410
REMARK  0 active torsions:
REMARK  status: ('A' for Active; 'I' for Inactive)
ROOT
HETATM    1  C1  UNL     1     -42.684   7.695  -2.740  1.00 20.00     0.027 C 
HETATM    2  C2  UNL     1     -43.386   6.776  -3.602  1.00 20.00     0.027 C 
HETATM    3  C3  UNL     1     -42.014   6.955  -1.777  1.00 20.00     0.012 C 
HETATM    4  C4  UNL     1     -43.115   5.521  -3.122  1.00 20.00     0.012 C 
HETATM    5  C5  UNL     1     -40.970   7.246  -0.758  1.00 20.00     0.057 C 
HETATM    6  C6  UNL     1     -43.244   4.080  -3.425  1.00 20.00     0.059 C 
HETATM    7  C7  UNL     1     -40.576   5.991   0.060  1.00 20.00     0.008 C 
HETATM    8  C8  UNL     1     -42.107   3.475  -2.534  1.00 20.00     0.032 C 
HETATM    9  C9  UNL     1     -40.572   4.688  -0.774  1.00 20.00     0.026 C 
HETATM   10  C10 UNL     1     -41.965   4.453  -1.349  1.00 20.00     0.090 C 
HETATM   11  N11 UNL     1     -42.429   5.686  -1.966  1.00 20.00    -0.349 N 
ENDROOT
TORSDOF 0
ENDMDL
MODEL 8
REMARK VINA RESULT:      -4.5      0.743      3.928
REMARK  0 active torsions:
REMARK  status: ('A' for Active; 'I' for Inactive)
ROOT
HETATM    1  C1  UNL     1     -33.754  17.327  -3.963  1.00 20.00     0.027 C 
HETATM    2  C2  UNL     1     -33.666  16.255  -3.002  1.00 20.00     0.027 C 
HETATM    3  C3  UNL     1     -34.098  16.778  -5.189  1.00 20.00     0.012 C 
HETATM    4  C4  UNL     1     -33.955  15.104  -3.689  1.00 20.00     0.012 C 
HETATM    5  C5  UNL     1     -34.551  17.320  -6.500  1.00 20.00     0.057 C 
HETATM    6  C6  UNL     1     -34.249  13.665  -3.524  1.00 20.00     0.059 C 
HETATM    7  C7  UNL     1     -34.810  16.204  -7.543  1.00 20.00     0.008 C 
HETATM    8  C8  UNL     1     -35.011  13.351  -4.855  1.00 20.00     0.032 C 
HETATM    9  C9  UNL     1     -35.413  14.918  -6.931  1.00 20.00     0.026 C 
HETATM   10  C10 UNL     1     -34.457  14.361  -5.880  1.00 20.00     0.090 C 
HETATM   11  N11 UNL     1     -34.056  15.445  -4.996  1.00 20.00    -0.349 N 
ENDROOT
TORSDOF 0
ENDMDL
MODEL 9
REMARK VINA RESULT:      -4.5      1.074      3.369
REMARK  0 active torsions:
REMARK  status: ('A' for Active; 'I' for Inactive)
ROOT
HETATM    1  C1  UNL     1     -33.792  18.342  -5.559  1.00 20.00     0.027 C 
HETATM    2  C2  UNL     1     -33.599  18.334  -4.130  1.00 20.00     0.027 C 
HETATM    3  C3  UNL     1     -33.997  17.034  -5.972  1.00 20.00     0.012 C 
HETATM    4  C4  UNL     1     -33.690  17.023  -3.741  1.00 20.00     0.012 C 
HETATM    5  C5  UNL     1     -34.459  16.382  -7.228  1.00 20.00     0.057 C 
HETATM    6  C6  UNL     1     -33.785  16.138  -2.560  1.00 20.00     0.059 C 
HETATM    7  C7  UNL     1     -34.508  14.839  -7.110  1.00 20.00     0.008 C 
HETATM    8  C8  UNL     1     -34.431  14.857  -3.186  1.00 20.00     0.032 C 
HETATM    9  C9  UNL     1     -34.951  14.342  -5.714  1.00 20.00     0.026 C 
HETATM   10  C10 UNL     1     -33.977  14.860  -4.660  1.00 20.00     0.090 C 
HETATM   11  N11 UNL     1     -33.776  16.285  -4.873  1.00 20.00    -0.349 N 
ENDROOT
TORSDOF 0
ENDMDL
