MODEL 1
REMARK VINA RESULT:      -4.7      0.000      0.000
REMARK  1 active torsions:
REMARK  status: ('A' for Active; 'I' for Inactive)
REMARK    1  A    between atoms: C7_7  and  O11_11 
ROOT
HETATM    1  C1  UNL     1     -33.247  13.426  -3.712  1.00 20.00    -0.029 C 
HETATM    2  C2  UNL     1     -34.097  16.240  -2.406  1.00 20.00    -0.022 C 
HETATM    3  C3  UNL     1     -35.426  16.138  -2.299  1.00 20.00     0.002 C 
HETATM    4  C4  UNL     1     -34.517  13.606  -4.091  1.00 20.00    -0.018 C 
HETATM    5  C5  UNL     1     -32.496  14.714  -3.639  1.00 20.00     0.036 C 
HETATM    6  C6  UNL     1     -33.597  15.776  -3.749  1.00 20.00     0.026 C 
HETATM    7  C7  UNL     1     -36.044  15.623  -3.558  1.00 20.00     0.155 C 
HETATM    8  C8  UNL     1     -34.840  15.060  -4.350  1.00 20.00     0.010 C 
HETATM    9  C9  UNL     1     -34.992  15.293  -5.853  1.00 20.00     0.023 C 
ENDROOT
BRANCH   7  10
HETATM   10  O11 UNL     1     -37.022  14.631  -3.298  1.00 20.00    -0.386 OA
HETATM   11  C10 UNL     1     -38.238  14.897  -3.988  1.00 20.00     0.202 C 
ENDBRANCH   7  10
TORSDOF 1
ENDMDL
MODEL 2
REMARK VINA RESULT:      -4.6      1.501      2.905
REMARK  1 active torsions:
REMARK  status: ('A' for Active; 'I' for Inactive)
REMARK    1  A    between atoms: C7_7  and  O11_11 
ROOT
HETATM    1  C1  UNL     1     -35.160  15.878  -2.522  1.00 20.00    -0.029 C 
HETATM    2  C2  UNL     1     -33.367  16.779  -5.035  1.00 20.00    -0.022 C 
HETATM    3  C3  UNL     1     -33.989  16.211  -6.073  1.00 20.00     0.002 C 
HETATM    4  C4  UNL     1     -35.374  14.936  -3.446  1.00 20.00    -0.018 C 
HETATM    5  C5  UNL     1     -33.761  16.397  -2.563  1.00 20.00     0.036 C 
HETATM    6  C6  UNL     1     -33.209  15.830  -3.877  1.00 20.00     0.026 C 
HETATM    7  C7  UNL     1     -34.321  14.780  -5.802  1.00 20.00     0.155 C 
HETATM    8  C8  UNL     1     -34.141  14.648  -4.271  1.00 20.00     0.010 C 
HETATM    9  C9  UNL     1     -33.569  13.284  -3.884  1.00 20.00     0.023 C 
ENDROOT
BRANCH   7  10
HETATM   10  O11 UNL     1     -35.639  14.458  -6.213  1.00 20.00    -0.386 OA
HETATM   11  C10 UNL     1     -35.796  14.578  -7.622  1.00 20.00     0.202 C 
ENDBRANCH   7  10
TORSDOF 1
ENDMDL
MODEL 3
REMARK VINA RESULT:      -4.5      2.014      3.307
REMARK  1 active torsions:
REMARK  status: ('A' for Active; 'I' for Inactive)
REMARK    1  A    between atoms: C7_7  and  O11_11 
ROOT
HETATM    1  C1  UNL     1     -33.342  13.943  -3.832  1.00 20.00    -0.029 C 
HETATM    2  C2  UNL     1     -35.908  15.422  -5.085  1.00 20.00    -0.022 C 
HETATM    3  C3  UNL     1     -35.489  16.683  -5.239  1.00 20.00     0.002 C 
HETATM    4  C4  UNL     1     -33.194  15.227  -3.490  1.00 20.00    -0.018 C 
HETATM    5  C5  UNL     1     -34.775  13.527  -3.844  1.00 20.00     0.036 C 
HETATM    6  C6  UNL     1     -35.533  14.858  -3.741  1.00 20.00     0.026 C 
HETATM    7  C7  UNL     1     -34.796  17.187  -4.016  1.00 20.00     0.155 C 
HETATM    8  C8  UNL     1     -34.515  15.902  -3.201  1.00 20.00     0.010 C 
HETATM    9  C9  UNL     1     -34.651  16.144  -1.697  1.00 20.00     0.023 C 
ENDROOT
BRANCH   7  10
HETATM   10  O11 UNL     1     -33.605  17.886  -4.335  1.00 20.00    -0.386 OA
HETATM   11  C10 UNL     1     -33.589  18.306  -5.695  1.00 20.00     0.202 C 
ENDBRANCH   7  10
TORSDOF 1
ENDMDL
MODEL 4
REMARK VINA RESULT:      -4.5      1.659      2.878
REMARK  1 active torsions:
REMARK  status: ('A' for Active; 'I' for Inactive)
REMARK    1  A    between atoms: C7_7  and  O11_11 
ROOT
HETATM    1  C1  UNL     1     -34.509  13.236  -4.821  1.00 20.00    -0.029 C 
HETATM    2  C2  UNL     1     -33.895  16.295  -5.602  1.00 20.00    -0.022 C 
HETATM    3  C3  UNL     1     -33.560  16.847  -4.432  1.00 20.00     0.002 C 
HETATM    4  C4  UNL     1     -34.721  13.923  -3.694  1.00 20.00    -0.018 C 
HETATM    5  C5  UNL     1     -34.903  14.012  -6.034  1.00 20.00     0.036 C 
HETATM    6  C6  UNL     1     -35.123  15.431  -5.493  1.00 20.00     0.026 C 
HETATM    7  C7  UNL     1     -34.522  16.477  -3.351  1.00 20.00     0.155 C 
HETATM    8  C8  UNL     1     -35.309  15.291  -3.955  1.00 20.00     0.010 C 
HETATM    9  C9  UNL     1     -36.778  15.309  -3.529  1.00 20.00     0.023 C 
ENDROOT
BRANCH   7  10
HETATM   10  O11 UNL     1     -33.857  16.120  -2.152  1.00 20.00    -0.386 OA
HETATM   11  C10 UNL     1     -34.502  16.669  -1.008  1.00 20.00     0.202 C 
ENDBRANCH   7  10
TORSDOF 1
ENDMDL
MODEL 5
REMARK VINA RESULT:      -4.5      1.399      2.498
REMARK  1 active torsions:
REMARK  status: ('A' for Active; 'I' for Inactive)
REMARK    1  A    between atoms: C7_7  and  O11_11 
ROOT
HETATM    1  C1  UNL     1     -32.980  15.909  -4.346  1.00 20.00    -0.029 C 
HETATM    2  C2  UNL     1     -35.274  13.671  -4.083  1.00 20.00    -0.022 C 
HETATM    3  C3  UNL     1     -36.404  14.377  -4.189  1.00 20.00     0.002 C 
HETATM    4  C4  UNL     1     -34.049  16.572  -3.892  1.00 20.00    -0.018 C 
HETATM    5  C5  UNL     1     -32.905  14.522  -3.800  1.00 20.00     0.036 C 
HETATM    6  C6  UNL     1     -34.282  14.319  -3.154  1.00 20.00     0.026 C 
HETATM    7  C7  UNL     1     -36.376  15.597  -3.327  1.00 20.00     0.155 C 
HETATM    8  C8  UNL     1     -34.883  15.739  -2.946  1.00 20.00     0.010 C 
HETATM    9  C9  UNL     1     -34.710  16.255  -1.517  1.00 20.00     0.023 C 
ENDROOT
BRANCH   7  10
HETATM   10  O11 UNL     1     -36.862  16.739  -4.011  1.00 20.00    -0.386 OA
HETATM   11  C10 UNL     1     -37.610  16.380  -5.168  1.00 20.00     0.202 C 
ENDBRANCH   7  10
TORSDOF 1
ENDMDL
MODEL 6
REMARK VINA RESULT:      -4.4      1.770      3.100
REMARK  1 active torsions:
REMARK  status: ('A' for Active; 'I' for Inactive)
REMARK    1  A    between atoms: C7_7  and  O11_11 
ROOT
HETATM    1  C1  UNL     1     -33.667  16.786  -3.695  1.00 20.00    -0.029 C 
HETATM    2  C2  UNL     1     -34.310  13.638  -3.558  1.00 20.00    -0.022 C 
HETATM    3  C3  UNL     1     -34.415  13.291  -4.845  1.00 20.00     0.002 C 
HETATM    4  C4  UNL     1     -34.312  16.522  -4.837  1.00 20.00    -0.018 C 
HETATM    5  C5  UNL     1     -34.175  15.962  -2.560  1.00 20.00     0.036 C 
HETATM    6  C6  UNL     1     -35.054  14.910  -3.249  1.00 20.00     0.026 C 
HETATM    7  C7  UNL     1     -35.272  14.248  -5.607  1.00 20.00     0.155 C 
HETATM    8  C8  UNL     1     -35.382  15.469  -4.662  1.00 20.00     0.010 C 
HETATM    9  C9  UNL     1     -36.763  16.122  -4.739  1.00 20.00     0.023 C 
ENDROOT
BRANCH   7  10
HETATM   10  O11 UNL     1     -34.698  14.592  -6.856  1.00 20.00    -0.386 OA
HETATM   11  C10 UNL     1     -35.639  14.474  -7.917  1.00 20.00     0.202 C 
ENDBRANCH   7  10
TORSDOF 1
ENDMDL
MODEL 7
REMARK VINA RESULT:      -4.4      1.540      3.267
REMARK  1 active torsions:
REMARK  status: ('A' for Active; 'I' for Inactive)
REMARK    1  A    between atoms: C7_7  and  O11_11 
ROOT
HETATM    1  C1  UNL     1     -36.555  15.413  -6.244  1.00 20.00    -0.029 C 
HETATM    2  C2  UNL     1     -34.545  13.289  -4.906  1.00 20.00    -0.022 C 
HETATM    3  C3  UNL     1     -34.512  13.665  -3.623  1.00 20.00     0.002 C 
HETATM    4  C4  UNL     1     -36.062  16.042  -5.172  1.00 20.00    -0.018 C 
HETATM    5  C5  UNL     1     -35.546  14.517  -6.882  1.00 20.00     0.036 C 
HETATM    6  C6  UNL     1     -34.416  14.458  -5.845  1.00 20.00     0.026 C 
HETATM    7  C7  UNL     1     -34.322  15.141  -3.485  1.00 20.00     0.155 C 
HETATM    8  C8  UNL     1     -34.619  15.680  -4.904  1.00 20.00     0.010 C 
HETATM    9  C9  UNL     1     -33.718  16.862  -5.261  1.00 20.00     0.023 C 
ENDROOT
BRANCH   7  10
HETATM   10  O11 UNL     1     -35.190  15.696  -2.512  1.00 20.00    -0.386 OA
HETATM   11  C10 UNL     1     -34.472  16.411  -1.513  1.00 20.00     0.202 C 
ENDBRANCH   7  10
TORSDOF 1
ENDMDL
MODEL 8
REMARK VINA RESULT:      -4.4      1.429      3.090
REMARK  1 active torsions:
REMARK  status: ('A' for Active; 'I' for Inactive)
REMARK    1  A    between atoms: C7_7  and  O11_11 
ROOT
HETATM    1  C1  UNL     1     -34.100  15.720  -6.285  1.00 20.00    -0.029 C 
HETATM    2  C2  UNL     1     -36.537  14.541  -4.548  1.00 20.00    -0.022 C 
HETATM    3  C3  UNL     1     -36.462  15.233  -3.407  1.00 20.00     0.002 C 
HETATM    4  C4  UNL     1     -33.747  15.937  -5.014  1.00 20.00    -0.018 C 
HETATM    5  C5  UNL     1     -34.862  14.446  -6.445  1.00 20.00     0.036 C 
HETATM    6  C6  UNL     1     -35.191  14.043  -5.002  1.00 20.00     0.026 C 
HETATM    7  C7  UNL     1     -35.063  15.288  -2.885  1.00 20.00     0.155 C 
HETATM    8  C8  UNL     1     -34.207  14.832  -4.091  1.00 20.00     0.010 C 
HETATM    9  C9  UNL     1     -33.005  13.997  -3.649  1.00 20.00     0.023 C 
ENDROOT
BRANCH   7  10
HETATM   10  O11 UNL     1     -34.714  16.589  -2.446  1.00 20.00    -0.386 OA
HETATM   11  C10 UNL     1     -34.459  16.621  -1.046  1.00 20.00     0.202 C 
ENDBRANCH   7  10
TORSDOF 1
ENDMDL
MODEL 9
REMARK VINA RESULT:      -4.4      1.038      2.292
REMARK  1 active torsions:
REMARK  status: ('A' for Active; 'I' for Inactive)
REMARK    1  A    between atoms: C7_7  and  O11_11 
ROOT
HETATM    1  C1  UNL     1     -34.109  16.467  -2.664  1.00 20.00    -0.029 C 
HETATM    2  C2  UNL     1     -35.436  16.459  -5.593  1.00 20.00    -0.022 C 
HETATM    3  C3  UNL     1     -36.514  15.684  -5.438  1.00 20.00     0.002 C 
HETATM    4  C4  UNL     1     -34.807  15.329  -2.716  1.00 20.00    -0.018 C 
HETATM    5  C5  UNL     1     -33.513  16.821  -3.986  1.00 20.00     0.036 C 
HETATM    6  C6  UNL     1     -34.208  15.861  -4.959  1.00 20.00     0.026 C 
HETATM    7  C7  UNL     1     -36.187  14.423  -4.707  1.00 20.00     0.155 C 
HETATM    8  C8  UNL     1     -34.795  14.708  -4.095  1.00 20.00     0.010 C 
HETATM    9  C9  UNL     1     -33.912  13.460  -4.089  1.00 20.00     0.023 C 
ENDROOT
BRANCH   7  10
HETATM   10  O11 UNL     1     -37.154  14.123  -3.714  1.00 20.00    -0.386 OA
HETATM   11  C10 UNL     1     -38.377  14.811  -3.947  1.00 20.00     0.202 C 
ENDBRANCH   7  10
TORSDOF 1
ENDMDL
