MODEL 1
REMARK VINA RESULT:      -4.1      0.000      0.000
REMARK  2 active torsions:
REMARK  status: ('A' for Active; 'I' for Inactive)
REMARK    1  A    between atoms: C3_3  and  C5_5 
REMARK    2  A    between atoms: C3_3  and  O8_8 
ROOT
HETATM    1  C1  UNL     1     -33.876   6.531   5.554  1.00 20.00    -0.005 C 
HETATM    2  C2  UNL     1     -34.306   5.454   6.215  1.00 20.00     0.042 C 
HETATM    3  C4  UNL     1     -34.971   5.310   3.731  1.00 20.00     0.097 C 
HETATM    4  C5  UNL     1     -34.055   6.489   4.068  1.00 20.00     0.118 C 
HETATM    5  S9  UNL     1     -34.985   4.227   5.206  1.00 20.00    -0.141 SA
ENDROOT
BRANCH   4   6
HETATM    6  C3  UNL     1     -32.693   6.323   3.466  1.00 20.00     0.267 C 
HETATM    7  O7  UNL     1     -32.241   5.254   3.076  1.00 20.00    -0.265 OA
BRANCH   6   8
HETATM    8  O8  UNL     1     -32.062   7.531   3.425  1.00 20.00    -0.326 OA
HETATM    9  C6  UNL     1     -32.059   8.182   2.150  1.00 20.00     0.213 C 
ENDBRANCH   6   8
ENDBRANCH   4   6
TORSDOF 2
ENDMDL
MODEL 2
REMARK VINA RESULT:      -3.8     11.765     12.545
REMARK  2 active torsions:
REMARK  status: ('A' for Active; 'I' for Inactive)
REMARK    1  A    between atoms: C3_3  and  C5_5 
REMARK    2  A    between atoms: C3_3  and  O8_8 
ROOT
HETATM    1  C1  UNL     1     -35.310  15.345  -3.007  1.00 20.00    -0.005 C 
HETATM    2  C2  UNL     1     -35.290  16.643  -3.323  1.00 20.00     0.042 C 
HETATM    3  C4  UNL     1     -33.037  15.538  -3.907  1.00 20.00     0.097 C 
HETATM    4  C5  UNL     1     -34.119  14.555  -3.450  1.00 20.00     0.118 C 
HETATM    5  S9  UNL     1     -33.877  17.139  -4.186  1.00 20.00    -0.141 SA
ENDROOT
BRANCH   4   6
HETATM    6  C3  UNL     1     -34.571  13.668  -4.570  1.00 20.00     0.267 C 
HETATM    7  O7  UNL     1     -35.127  12.590  -4.409  1.00 20.00    -0.265 OA
BRANCH   6   8
HETATM    8  O8  UNL     1     -34.266  14.250  -5.765  1.00 20.00    -0.326 OA
HETATM    9  C6  UNL     1     -35.346  14.340  -6.699  1.00 20.00     0.213 C 
ENDBRANCH   6   8
ENDBRANCH   4   6
TORSDOF 2
ENDMDL
MODEL 3
REMARK VINA RESULT:      -3.6     11.377     12.295
REMARK  2 active torsions:
REMARK  status: ('A' for Active; 'I' for Inactive)
REMARK    1  A    between atoms: C3_3  and  C5_5 
REMARK    2  A    between atoms: C3_3  and  O8_8 
ROOT
HETATM    1  C1  UNL     1     -35.034  13.877  -5.876  1.00 20.00    -0.005 C 
HETATM    2  C2  UNL     1     -35.647  14.955  -6.373  1.00 20.00     0.042 C 
HETATM    3  C4  UNL     1     -36.588  14.375  -4.046  1.00 20.00     0.097 C 
HETATM    4  C5  UNL     1     -35.376  13.537  -4.460  1.00 20.00     0.118 C 
HETATM    5  S9  UNL     1     -36.715  15.736  -5.262  1.00 20.00    -0.141 SA
ENDROOT
BRANCH   4   6
HETATM    6  C3  UNL     1     -34.172  13.856  -3.628  1.00 20.00     0.267 C 
HETATM    7  O7  UNL     1     -33.123  13.227  -3.670  1.00 20.00    -0.265 OA
BRANCH   6   8
HETATM    8  O8  UNL     1     -34.435  14.937  -2.839  1.00 20.00    -0.326 OA
HETATM    9  C6  UNL     1     -33.556  16.053  -3.011  1.00 20.00     0.213 C 
ENDBRANCH   6   8
ENDBRANCH   4   6
TORSDOF 2
ENDMDL
MODEL 4
REMARK VINA RESULT:      -3.6     11.593     12.261
REMARK  2 active torsions:
REMARK  status: ('A' for Active; 'I' for Inactive)
REMARK    1  A    between atoms: C3_3  and  C5_5 
REMARK    2  A    between atoms: C3_3  and  O8_8 
ROOT
HETATM    1  C1  UNL     1     -34.682  13.565  -3.846  1.00 20.00    -0.005 C 
HETATM    2  C2  UNL     1     -34.771  13.209  -5.130  1.00 20.00     0.042 C 
HETATM    3  C4  UNL     1     -35.375  15.696  -4.841  1.00 20.00     0.097 C 
HETATM    4  C5  UNL     1     -34.848  15.027  -3.570  1.00 20.00     0.118 C 
HETATM    5  S9  UNL     1     -35.061  14.525  -6.212  1.00 20.00    -0.141 SA
ENDROOT
BRANCH   4   6
HETATM    6  C3  UNL     1     -33.501  15.557  -3.182  1.00 20.00     0.267 C 
HETATM    7  O7  UNL     1     -32.441  15.085  -3.571  1.00 20.00    -0.265 OA
BRANCH   6   8
HETATM    8  O8  UNL     1     -33.654  16.624  -2.347  1.00 20.00    -0.326 OA
HETATM    9  C6  UNL     1     -34.579  16.436  -1.271  1.00 20.00     0.213 C 
ENDBRANCH   6   8
ENDBRANCH   4   6
TORSDOF 2
ENDMDL
MODEL 5
REMARK VINA RESULT:      -3.6     11.797     12.614
REMARK  2 active torsions:
REMARK  status: ('A' for Active; 'I' for Inactive)
REMARK    1  A    between atoms: C3_3  and  C5_5 
REMARK    2  A    between atoms: C3_3  and  O8_8 
ROOT
HETATM    1  C1  UNL     1     -34.104  13.956  -3.727  1.00 20.00    -0.005 C 
HETATM    2  C2  UNL     1     -35.221  13.477  -4.282  1.00 20.00     0.042 C 
HETATM    3  C4  UNL     1     -35.726  15.620  -2.945  1.00 20.00     0.097 C 
HETATM    4  C5  UNL     1     -34.236  15.290  -3.062  1.00 20.00     0.118 C 
HETATM    5  S9  UNL     1     -36.595  14.510  -4.112  1.00 20.00    -0.141 SA
ENDROOT
BRANCH   4   6
HETATM    6  C3  UNL     1     -33.514  16.283  -3.921  1.00 20.00     0.267 C 
HETATM    7  O7  UNL     1     -32.602  15.994  -4.684  1.00 20.00    -0.265 OA
BRANCH   6   8
HETATM    8  O8  UNL     1     -34.030  17.528  -3.713  1.00 20.00    -0.326 OA
HETATM    9  C6  UNL     1     -33.596  18.536  -4.631  1.00 20.00     0.213 C 
ENDBRANCH   6   8
ENDBRANCH   4   6
TORSDOF 2
ENDMDL
MODEL 6
REMARK VINA RESULT:      -3.5     11.919     12.739
REMARK  2 active torsions:
REMARK  status: ('A' for Active; 'I' for Inactive)
REMARK    1  A    between atoms: C3_3  and  C5_5 
REMARK    2  A    between atoms: C3_3  and  O8_8 
ROOT
HETATM    1  C1  UNL     1     -34.023  14.180  -3.603  1.00 20.00    -0.005 C 
HETATM    2  C2  UNL     1     -33.027  15.064  -3.713  1.00 20.00     0.042 C 
HETATM    3  C4  UNL     1     -34.827  15.507  -5.502  1.00 20.00     0.097 C 
HETATM    4  C5  UNL     1     -35.209  14.434  -4.480  1.00 20.00     0.118 C 
HETATM    5  S9  UNL     1     -33.323  16.325  -4.855  1.00 20.00    -0.141 SA
ENDROOT
BRANCH   4   6
HETATM    6  C3  UNL     1     -36.325  14.890  -3.590  1.00 20.00     0.267 C 
HETATM    7  O7  UNL     1     -36.244  15.839  -2.820  1.00 20.00    -0.265 OA
BRANCH   6   8
HETATM    8  O8  UNL     1     -37.414  14.091  -3.777  1.00 20.00    -0.326 OA
HETATM    9  C6  UNL     1     -38.630  14.774  -4.096  1.00 20.00     0.213 C 
ENDBRANCH   6   8
ENDBRANCH   4   6
TORSDOF 2
ENDMDL
MODEL 7
REMARK VINA RESULT:      -3.5     11.477     12.678
REMARK  2 active torsions:
REMARK  status: ('A' for Active; 'I' for Inactive)
REMARK    1  A    between atoms: C3_3  and  C5_5 
REMARK    2  A    between atoms: C3_3  and  O8_8 
ROOT
HETATM    1  C1  UNL     1     -33.937  15.716  -5.469  1.00 20.00    -0.005 C 
HETATM    2  C2  UNL     1     -34.702  14.687  -5.842  1.00 20.00     0.042 C 
HETATM    3  C4  UNL     1     -33.411  14.117  -3.686  1.00 20.00     0.097 C 
HETATM    4  C5  UNL     1     -33.264  15.571  -4.140  1.00 20.00     0.118 C 
HETATM    5  S9  UNL     1     -34.752  13.392  -4.698  1.00 20.00    -0.141 SA
ENDROOT
BRANCH   4   6
HETATM    6  C3  UNL     1     -33.943  16.518  -3.198  1.00 20.00     0.267 C 
HETATM    7  O7  UNL     1     -34.032  17.724  -3.384  1.00 20.00    -0.265 OA
BRANCH   6   8
HETATM    8  O8  UNL     1     -34.431  15.826  -2.129  1.00 20.00    -0.326 OA
HETATM    9  C6  UNL     1     -34.615  16.590  -0.933  1.00 20.00     0.213 C 
ENDBRANCH   6   8
ENDBRANCH   4   6
TORSDOF 2
ENDMDL
MODEL 8
REMARK VINA RESULT:      -3.5     11.771     12.569
REMARK  2 active torsions:
REMARK  status: ('A' for Active; 'I' for Inactive)
REMARK    1  A    between atoms: C3_3  and  C5_5 
REMARK    2  A    between atoms: C3_3  and  O8_8 
ROOT
HETATM    1  C1  UNL     1     -33.444  16.239  -4.648  1.00 20.00    -0.005 C 
HETATM    2  C2  UNL     1     -33.989  15.786  -5.780  1.00 20.00     0.042 C 
HETATM    3  C4  UNL     1     -33.956  13.933  -3.991  1.00 20.00     0.097 C 
HETATM    4  C5  UNL     1     -33.518  15.307  -3.479  1.00 20.00     0.118 C 
HETATM    5  S9  UNL     1     -34.671  14.204  -5.653  1.00 20.00    -0.141 SA
ENDROOT
BRANCH   4   6
HETATM    6  C3  UNL     1     -34.513  15.884  -2.519  1.00 20.00     0.267 C 
HETATM    7  O7  UNL     1     -35.722  15.716  -2.601  1.00 20.00    -0.265 OA
BRANCH   6   8
HETATM    8  O8  UNL     1     -33.860  16.607  -1.565  1.00 20.00    -0.326 OA
HETATM    9  C6  UNL     1     -34.640  16.957  -0.417  1.00 20.00     0.213 C 
ENDBRANCH   6   8
ENDBRANCH   4   6
TORSDOF 2
ENDMDL
MODEL 9
REMARK VINA RESULT:      -3.4     11.621     12.711
REMARK  2 active torsions:
REMARK  status: ('A' for Active; 'I' for Inactive)
REMARK    1  A    between atoms: C3_3  and  C5_5 
REMARK    2  A    between atoms: C3_3  and  O8_8 
ROOT
HETATM    1  C1  UNL     1     -35.097  13.413  -4.292  1.00 20.00    -0.005 C 
HETATM    2  C2  UNL     1     -33.910  13.692  -3.747  1.00 20.00     0.042 C 
HETATM    3  C4  UNL     1     -34.790  15.717  -5.073  1.00 20.00     0.097 C 
HETATM    4  C5  UNL     1     -35.790  14.565  -4.950  1.00 20.00     0.118 C 
HETATM    5  S9  UNL     1     -33.422  15.340  -3.918  1.00 20.00    -0.141 SA
ENDROOT
BRANCH   4   6
HETATM    6  C3  UNL     1     -36.955  14.932  -4.081  1.00 20.00     0.267 C 
HETATM    7  O7  UNL     1     -37.823  14.144  -3.730  1.00 20.00    -0.265 OA
BRANCH   6   8
HETATM    8  O8  UNL     1     -36.884  16.254  -3.758  1.00 20.00    -0.326 OA
HETATM    9  C6  UNL     1     -38.085  16.823  -3.225  1.00 20.00     0.213 C 
ENDBRANCH   6   8
ENDBRANCH   4   6
TORSDOF 2
ENDMDL
