MODEL 1
REMARK VINA RESULT:      -4.6      0.000      0.000
REMARK  0 active torsions:
REMARK  status: ('A' for Active; 'I' for Inactive)
ROOT
HETATM    1  C1  UNL     1     -33.568  13.711  -3.899  1.00 20.00     0.037 C 
HETATM    2  C2  UNL     1     -35.018  13.263  -4.168  1.00 20.00     0.019 C 
HETATM    3  C3  UNL     1     -33.293  16.204  -4.577  1.00 20.00     0.051 C 
HETATM    4  C4  UNL     1     -35.700  16.896  -4.362  1.00 20.00     0.052 C 
HETATM    5  C5  UNL     1     -33.471  15.177  -3.418  1.00 20.00     0.224 C 
HETATM    6  C6  UNL     1     -35.840  15.615  -3.529  1.00 20.00     0.237 C 
HETATM    7  C7  UNL     1     -35.917  14.437  -4.558  1.00 20.00     0.081 C 
HETATM    8  C8  UNL     1     -34.579  16.573  -5.340  1.00 20.00     0.052 C 
HETATM    9  C9  UNL     1     -34.512  16.482  -1.633  1.00 20.00     0.310 C 
HETATM   10  N10 UNL     1     -34.682  15.431  -2.627  1.00 20.00     0.094 N 
HETATM   11  S11 UNL     1     -35.296  15.116  -6.142  1.00 20.00    -0.157 SA
ENDROOT
TORSDOF 0
ENDMDL
MODEL 2
REMARK VINA RESULT:      -4.6      1.790      3.087
REMARK  0 active torsions:
REMARK  status: ('A' for Active; 'I' for Inactive)
ROOT
HETATM    1  C1  UNL     1     -33.486  13.583  -3.867  1.00 20.00     0.037 C 
HETATM    2  C2  UNL     1     -32.740  14.915  -3.661  1.00 20.00     0.019 C 
HETATM    3  C3  UNL     1     -36.036  14.039  -4.058  1.00 20.00     0.051 C 
HETATM    4  C4  UNL     1     -35.910  16.430  -4.826  1.00 20.00     0.052 C 
HETATM    5  C5  UNL     1     -34.707  13.716  -4.805  1.00 20.00     0.224 C 
HETATM    6  C6  UNL     1     -34.457  16.085  -5.178  1.00 20.00     0.237 C 
HETATM    7  C7  UNL     1     -33.665  16.121  -3.826  1.00 20.00     0.081 C 
HETATM    8  C8  UNL     1     -36.227  15.514  -3.652  1.00 20.00     0.052 C 
HETATM    9  C9  UNL     1     -35.070  14.599  -7.055  1.00 20.00     0.310 C 
HETATM   10  N10 UNL     1     -34.356  14.744  -5.793  1.00 20.00     0.094 N 
HETATM   11  S11 UNL     1     -34.931  16.041  -2.504  1.00 20.00    -0.157 SA
ENDROOT
TORSDOF 0
ENDMDL
MODEL 3
REMARK VINA RESULT:      -4.4      1.797      3.043
REMARK  0 active torsions:
REMARK  status: ('A' for Active; 'I' for Inactive)
ROOT
HETATM    1  C1  UNL     1     -34.814  13.317  -4.338  1.00 20.00     0.037 C 
HETATM    2  C2  UNL     1     -33.455  13.752  -3.757  1.00 20.00     0.019 C 
HETATM    3  C3  UNL     1     -36.346  15.397  -4.610  1.00 20.00     0.051 C 
HETATM    4  C4  UNL     1     -34.544  17.145  -4.760  1.00 20.00     0.052 C 
HETATM    5  C5  UNL     1     -35.415  14.359  -5.307  1.00 20.00     0.224 C 
HETATM    6  C6  UNL     1     -33.624  15.956  -5.072  1.00 20.00     0.237 C 
HETATM    7  C7  UNL     1     -33.320  15.274  -3.695  1.00 20.00     0.081 C 
HETATM    8  C8  UNL     1     -35.626  16.543  -3.874  1.00 20.00     0.052 C 
HETATM    9  C9  UNL     1     -34.615  15.534  -7.296  1.00 20.00     0.310 C 
HETATM   10  N10 UNL     1     -34.278  14.994  -5.985  1.00 20.00     0.094 N 
HETATM   11  S11 UNL     1     -34.590  15.903  -2.534  1.00 20.00    -0.157 SA
ENDROOT
TORSDOF 0
ENDMDL
MODEL 4
REMARK VINA RESULT:      -4.3      1.773      3.177
REMARK  0 active torsions:
REMARK  status: ('A' for Active; 'I' for Inactive)
ROOT
HETATM    1  C1  UNL     1     -34.391  14.961  -6.687  1.00 20.00     0.037 C 
HETATM    2  C2  UNL     1     -33.903  16.334  -6.185  1.00 20.00     0.019 C 
HETATM    3  C3  UNL     1     -34.962  13.448  -4.654  1.00 20.00     0.051 C 
HETATM    4  C4  UNL     1     -35.407  15.267  -2.975  1.00 20.00     0.052 C 
HETATM    5  C5  UNL     1     -35.502  14.356  -5.800  1.00 20.00     0.224 C 
HETATM    6  C6  UNL     1     -35.542  16.169  -4.209  1.00 20.00     0.237 C 
HETATM    7  C7  UNL     1     -34.080  16.487  -4.674  1.00 20.00     0.081 C 
HETATM    8  C8  UNL     1     -34.423  14.192  -3.417  1.00 20.00     0.052 C 
HETATM    9  C9  UNL     1     -37.660  15.139  -4.959  1.00 20.00     0.310 C 
HETATM   10  N10 UNL     1     -36.286  15.490  -5.293  1.00 20.00     0.094 N 
HETATM   11  S11 UNL     1     -33.014  15.241  -3.856  1.00 20.00    -0.157 SA
ENDROOT
TORSDOF 0
ENDMDL
MODEL 5
REMARK VINA RESULT:      -4.2      1.643      2.988
REMARK  0 active torsions:
REMARK  status: ('A' for Active; 'I' for Inactive)
ROOT
HETATM    1  C1  UNL     1     -33.413  16.681  -4.942  1.00 20.00     0.037 C 
HETATM    2  C2  UNL     1     -33.490  16.444  -3.421  1.00 20.00     0.019 C 
HETATM    3  C3  UNL     1     -34.565  14.713  -6.186  1.00 20.00     0.051 C 
HETATM    4  C4  UNL     1     -36.082  13.961  -4.326  1.00 20.00     0.052 C 
HETATM    5  C5  UNL     1     -34.671  16.188  -5.692  1.00 20.00     0.224 C 
HETATM    6  C6  UNL     1     -35.795  15.346  -3.732  1.00 20.00     0.237 C 
HETATM    7  C7  UNL     1     -34.378  15.248  -3.073  1.00 20.00     0.081 C 
HETATM    8  C8  UNL     1     -34.820  13.636  -5.114  1.00 20.00     0.052 C 
HETATM    9  C9  UNL     1     -37.076  16.558  -5.464  1.00 20.00     0.310 C 
HETATM   10  N10 UNL     1     -35.801  16.392  -4.777  1.00 20.00     0.094 N 
HETATM   11  S11 UNL     1     -33.600  13.748  -3.781  1.00 20.00    -0.157 SA
ENDROOT
TORSDOF 0
ENDMDL
MODEL 6
REMARK VINA RESULT:      -4.2      0.807      2.845
REMARK  0 active torsions:
REMARK  status: ('A' for Active; 'I' for Inactive)
ROOT
HETATM    1  C1  UNL     1     -36.070  17.034  -4.945  1.00 20.00     0.037 C 
HETATM    2  C2  UNL     1     -34.727  16.934  -5.696  1.00 20.00     0.019 C 
HETATM    3  C3  UNL     1     -36.557  14.787  -3.737  1.00 20.00     0.051 C 
HETATM    4  C4  UNL     1     -34.187  13.966  -3.550  1.00 20.00     0.052 C 
HETATM    5  C5  UNL     1     -36.070  16.262  -3.607  1.00 20.00     0.224 C 
HETATM    6  C6  UNL     1     -33.816  15.431  -3.818  1.00 20.00     0.237 C 
HETATM    7  C7  UNL     1     -33.980  15.642  -5.361  1.00 20.00     0.081 C 
HETATM    8  C8  UNL     1     -35.513  13.789  -4.276  1.00 20.00     0.052 C 
HETATM    9  C9  UNL     1     -34.635  16.233  -1.628  1.00 20.00     0.310 C 
HETATM   10  N10 UNL     1     -34.702  16.355  -3.078  1.00 20.00     0.094 N 
HETATM   11  S11 UNL     1     -34.996  14.237  -5.952  1.00 20.00    -0.157 SA
ENDROOT
TORSDOF 0
ENDMDL
MODEL 7
REMARK VINA RESULT:      -4.2      1.689      2.408
REMARK  0 active torsions:
REMARK  status: ('A' for Active; 'I' for Inactive)
ROOT
HETATM    1  C1  UNL     1     -34.623  13.615  -5.187  1.00 20.00     0.037 C 
HETATM    2  C2  UNL     1     -34.645  14.540  -6.419  1.00 20.00     0.019 C 
HETATM    3  C3  UNL     1     -34.588  15.054  -3.024  1.00 20.00     0.051 C 
HETATM    4  C4  UNL     1     -35.620  17.142  -3.973  1.00 20.00     0.052 C 
HETATM    5  C5  UNL     1     -35.434  14.178  -3.997  1.00 20.00     0.224 C 
HETATM    6  C6  UNL     1     -36.086  16.218  -5.106  1.00 20.00     0.237 C 
HETATM    7  C7  UNL     1     -34.840  16.006  -6.031  1.00 20.00     0.081 C 
HETATM    8  C8  UNL     1     -34.327  16.499  -3.490  1.00 20.00     0.052 C 
HETATM    9  C9  UNL     1     -37.714  15.005  -3.697  1.00 20.00     0.310 C 
HETATM   10  N10 UNL     1     -36.560  14.919  -4.581  1.00 20.00     0.094 N 
HETATM   11  S11 UNL     1     -33.388  16.520  -5.038  1.00 20.00    -0.157 SA
ENDROOT
TORSDOF 0
ENDMDL
MODEL 8
REMARK VINA RESULT:      -4.2      1.606      2.563
REMARK  0 active torsions:
REMARK  status: ('A' for Active; 'I' for Inactive)
ROOT
HETATM    1  C1  UNL     1     -33.113  15.952  -4.272  1.00 20.00     0.037 C 
HETATM    2  C2  UNL     1     -33.989  15.336  -3.164  1.00 20.00     0.019 C 
HETATM    3  C3  UNL     1     -34.129  15.387  -6.595  1.00 20.00     0.051 C 
HETATM    4  C4  UNL     1     -36.506  15.020  -5.860  1.00 20.00     0.052 C 
HETATM    5  C5  UNL     1     -33.936  16.458  -5.478  1.00 20.00     0.224 C 
HETATM    6  C6  UNL     1     -36.077  15.781  -4.598  1.00 20.00     0.237 C 
HETATM    7  C7  UNL     1     -35.288  14.752  -3.720  1.00 20.00     0.081 C 
HETATM    8  C8  UNL     1     -35.226  14.339  -6.326  1.00 20.00     0.052 C 
HETATM    9  C9  UNL     1     -35.850  17.951  -5.761  1.00 20.00     0.310 C 
HETATM   10  N10 UNL     1     -35.214  16.935  -4.933  1.00 20.00     0.094 N 
HETATM   11  S11 UNL     1     -34.847  13.372  -4.843  1.00 20.00    -0.157 SA
ENDROOT
TORSDOF 0
ENDMDL
MODEL 9
REMARK VINA RESULT:      -4.1      1.769      3.301
REMARK  0 active torsions:
REMARK  status: ('A' for Active; 'I' for Inactive)
ROOT
HETATM    1  C1  UNL     1     -35.610  17.463  -4.781  1.00 20.00     0.037 C 
HETATM    2  C2  UNL     1     -36.517  16.889  -3.676  1.00 20.00     0.019 C 
HETATM    3  C3  UNL     1     -33.325  16.227  -4.755  1.00 20.00     0.051 C 
HETATM    4  C4  UNL     1     -34.092  14.093  -3.668  1.00 20.00     0.052 C 
HETATM    5  C5  UNL     1     -34.715  16.391  -5.442  1.00 20.00     0.224 C 
HETATM    6  C6  UNL     1     -35.494  14.563  -4.075  1.00 20.00     0.237 C 
HETATM    7  C7  UNL     1     -35.909  15.647  -3.024  1.00 20.00     0.081 C 
HETATM    8  C8  UNL     1     -33.320  15.389  -3.462  1.00 20.00     0.052 C 
HETATM    9  C9  UNL     1     -35.108  14.219  -6.492  1.00 20.00     0.310 C 
HETATM   10  N10 UNL     1     -35.493  15.145  -5.435  1.00 20.00     0.094 N 
HETATM   11  S11 UNL     1     -34.358  16.154  -2.191  1.00 20.00    -0.157 SA
ENDROOT
TORSDOF 0
ENDMDL
