MODEL 1
REMARK VINA RESULT:      -5.8      0.000      0.000
REMARK  1 active torsions:
REMARK  status: ('A' for Active; 'I' for Inactive)
REMARK    1  A    between atoms: C1_1  and  C6_6 
ROOT
HETATM    1  C2  UNL     1     -33.135   6.601   5.329  1.00 20.00     0.019 C 
HETATM    2  C3  UNL     1     -34.333   5.248   3.555  1.00 20.00     0.019 C 
HETATM    3  C4  UNL     1     -34.216   6.232   6.339  1.00 20.00     0.080 C 
HETATM    4  C5  UNL     1     -35.413   4.879   4.567  1.00 20.00     0.080 C 
HETATM    5  C6  UNL     1     -33.673   6.587   3.896  1.00 20.00     0.072 C 
HETATM    6  C7  UNL     1     -34.879   4.911   5.988  1.00 20.00     0.243 C 
HETATM    7  F9  UNL     1     -35.890   4.668   6.857  1.00 20.00    -0.206 F 
HETATM    8  F10 UNL     1     -33.981   3.904   6.151  1.00 20.00    -0.206 F 
ENDROOT
BRANCH   5   9
HETATM    9  C1  UNL     1     -32.560   6.867   2.930  1.00 20.00     0.223 C 
HETATM   10  O8  UNL     1     -31.749   6.001   2.611  1.00 20.00    -0.279 OA
HETATM   11 CL11 UNL     1     -32.584   8.507   2.359  1.00 20.00    -0.043 Cl
ENDBRANCH   5   9
TORSDOF 1
ENDMDL
MODEL 2
REMARK VINA RESULT:      -5.0     12.480     13.053
REMARK  1 active torsions:
REMARK  status: ('A' for Active; 'I' for Inactive)
REMARK    1  A    between atoms: C1_1  and  C6_6 
ROOT
HETATM    1  C2  UNL     1     -35.375  15.945  -3.160  1.00 20.00     0.019 C 
HETATM    2  C3  UNL     1     -35.295  13.882  -4.627  1.00 20.00     0.019 C 
HETATM    3  C4  UNL     1     -33.928  15.703  -2.742  1.00 20.00     0.080 C 
HETATM    4  C5  UNL     1     -33.847  13.642  -4.208  1.00 20.00     0.080 C 
HETATM    5  C6  UNL     1     -36.076  14.641  -3.549  1.00 20.00     0.072 C 
HETATM    6  C7  UNL     1     -33.162  14.937  -3.807  1.00 20.00     0.243 C 
HETATM    7  F9  UNL     1     -31.912  14.666  -3.357  1.00 20.00    -0.206 F 
HETATM    8  F10 UNL     1     -33.014  15.724  -4.904  1.00 20.00    -0.206 F 
ENDROOT
BRANCH   5   9
HETATM    9  C1  UNL     1     -37.464  14.933  -4.037  1.00 20.00     0.223 C 
HETATM   10  O8  UNL     1     -38.412  14.204  -3.759  1.00 20.00    -0.279 OA
HETATM   11 CL11 UNL     1     -37.529  16.376  -5.002  1.00 20.00    -0.043 Cl
ENDBRANCH   5   9
TORSDOF 1
ENDMDL
MODEL 3
REMARK VINA RESULT:      -4.9     12.290     12.811
REMARK  1 active torsions:
REMARK  status: ('A' for Active; 'I' for Inactive)
REMARK    1  A    between atoms: C1_1  and  C6_6 
ROOT
HETATM    1  C2  UNL     1     -33.421  15.366  -3.130  1.00 20.00     0.019 C 
HETATM    2  C3  UNL     1     -35.936  15.382  -3.432  1.00 20.00     0.019 C 
HETATM    3  C4  UNL     1     -33.351  13.997  -3.799  1.00 20.00     0.080 C 
HETATM    4  C5  UNL     1     -35.863  14.013  -4.102  1.00 20.00     0.080 C 
HETATM    5  C6  UNL     1     -34.776  15.595  -2.454  1.00 20.00     0.072 C 
HETATM    6  C7  UNL     1     -34.512  13.785  -4.756  1.00 20.00     0.243 C 
HETATM    7  F9  UNL     1     -34.459  12.526  -5.258  1.00 20.00    -0.206 F 
HETATM    8  F10 UNL     1     -34.379  14.627  -5.814  1.00 20.00    -0.206 F 
ENDROOT
BRANCH   5   9
HETATM    9  C1  UNL     1     -34.836  16.982  -1.887  1.00 20.00     0.223 C 
HETATM   10  O8  UNL     1     -34.952  17.970  -2.608  1.00 20.00    -0.279 OA
HETATM   11 CL11 UNL     1     -34.721  16.987  -0.154  1.00 20.00    -0.043 Cl
ENDBRANCH   5   9
TORSDOF 1
ENDMDL
MODEL 4
REMARK VINA RESULT:      -4.8     12.894     13.732
REMARK  1 active torsions:
REMARK  status: ('A' for Active; 'I' for Inactive)
REMARK    1  A    between atoms: C1_1  and  C6_6 
ROOT
HETATM    1  C2  UNL     1     -34.520  15.086  -3.091  1.00 20.00     0.019 C 
HETATM    2  C3  UNL     1     -34.095  16.097  -5.374  1.00 20.00     0.019 C 
HETATM    3  C4  UNL     1     -33.858  16.293  -2.435  1.00 20.00     0.080 C 
HETATM    4  C5  UNL     1     -33.434  17.304  -4.715  1.00 20.00     0.080 C 
HETATM    5  C6  UNL     1     -33.978  14.844  -4.502  1.00 20.00     0.072 C 
HETATM    6  C7  UNL     1     -33.963  17.531  -3.310  1.00 20.00     0.243 C 
HETATM    7  F9  UNL     1     -33.286  18.553  -2.731  1.00 20.00    -0.206 F 
HETATM    8  F10 UNL     1     -35.263  17.920  -3.378  1.00 20.00    -0.206 F 
ENDROOT
BRANCH   5   9
HETATM    9  C1  UNL     1     -34.717  13.706  -5.144  1.00 20.00     0.223 C 
HETATM   10  O8  UNL     1     -34.886  12.637  -4.564  1.00 20.00    -0.279 OA
HETATM   11 CL11 UNL     1     -35.267  14.102  -6.743  1.00 20.00    -0.043 Cl
ENDBRANCH   5   9
TORSDOF 1
ENDMDL
MODEL 5
REMARK VINA RESULT:      -4.8      9.937     10.764
REMARK  1 active torsions:
REMARK  status: ('A' for Active; 'I' for Inactive)
REMARK    1  A    between atoms: C1_1  and  C6_6 
ROOT
HETATM    1  C2  UNL     1     -41.354   4.618  -0.644  1.00 20.00     0.019 C 
HETATM    2  C3  UNL     1     -42.466   5.595  -2.699  1.00 20.00     0.019 C 
HETATM    3  C4  UNL     1     -40.729   5.975  -0.338  1.00 20.00     0.080 C 
HETATM    4  C5  UNL     1     -41.840   6.952  -2.391  1.00 20.00     0.080 C 
HETATM    5  C6  UNL     1     -41.623   4.444  -2.141  1.00 20.00     0.072 C 
HETATM    6  C7  UNL     1     -41.561   7.112  -0.907  1.00 20.00     0.243 C 
HETATM    7  F9  UNL     1     -40.924   8.289  -0.691  1.00 20.00    -0.206 F 
HETATM    8  F10 UNL     1     -42.739   7.183  -0.234  1.00 20.00    -0.206 F 
ENDROOT
BRANCH   5   9
HETATM    9  C1  UNL     1     -42.318   3.138  -2.387  1.00 20.00     0.223 C 
HETATM   10  O8  UNL     1     -43.373   2.852  -1.827  1.00 20.00    -0.279 OA
HETATM   11 CL11 UNL     1     -41.457   2.142  -3.520  1.00 20.00    -0.043 Cl
ENDBRANCH   5   9
TORSDOF 1
ENDMDL
MODEL 6
REMARK VINA RESULT:      -4.7      1.690      2.393
REMARK  1 active torsions:
REMARK  status: ('A' for Active; 'I' for Inactive)
REMARK    1  A    between atoms: C1_1  and  C6_6 
ROOT
HETATM    1  C2  UNL     1     -33.332   5.915   2.634  1.00 20.00     0.019 C 
HETATM    2  C3  UNL     1     -33.435   6.730   5.030  1.00 20.00     0.019 C 
HETATM    3  C4  UNL     1     -34.228   4.735   2.999  1.00 20.00     0.080 C 
HETATM    4  C5  UNL     1     -34.332   5.550   5.392  1.00 20.00     0.080 C 
HETATM    5  C6  UNL     1     -32.527   6.405   3.840  1.00 20.00     0.072 C 
HETATM    6  C7  UNL     1     -35.116   5.057   4.189  1.00 20.00     0.243 C 
HETATM    7  F9  UNL     1     -35.827   3.955   4.533  1.00 20.00    -0.206 F 
HETATM    8  F10 UNL     1     -36.022   6.003   3.827  1.00 20.00    -0.206 F 
ENDROOT
BRANCH   5   9
HETATM    9  C1  UNL     1     -31.729   7.618   3.462  1.00 20.00     0.223 C 
HETATM   10  O8  UNL     1     -30.893   8.102   4.220  1.00 20.00    -0.279 OA
HETATM   11 CL11 UNL     1     -32.141   8.205   1.880  1.00 20.00    -0.043 Cl
ENDBRANCH   5   9
TORSDOF 1
ENDMDL
MODEL 7
REMARK VINA RESULT:      -4.6     12.339     12.810
REMARK  1 active torsions:
REMARK  status: ('A' for Active; 'I' for Inactive)
REMARK    1  A    between atoms: C1_1  and  C6_6 
ROOT
HETATM    1  C2  UNL     1     -33.611  15.235  -3.378  1.00 20.00     0.019 C 
HETATM    2  C3  UNL     1     -36.134  15.453  -3.368  1.00 20.00     0.019 C 
HETATM    3  C4  UNL     1     -33.494  16.556  -2.625  1.00 20.00     0.080 C 
HETATM    4  C5  UNL     1     -36.015  16.775  -2.614  1.00 20.00     0.080 C 
HETATM    5  C6  UNL     1     -34.890  15.174  -4.216  1.00 20.00     0.072 C 
HETATM    6  C7  UNL     1     -34.737  16.837  -1.797  1.00 20.00     0.243 C 
HETATM    7  F9  UNL     1     -34.629  18.059  -1.219  1.00 20.00    -0.206 F 
HETATM    8  F10 UNL     1     -34.810  15.936  -0.782  1.00 20.00    -0.206 F 
ENDROOT
BRANCH   5   9
HETATM    9  C1  UNL     1     -35.010  13.828  -4.868  1.00 20.00     0.223 C 
HETATM   10  O8  UNL     1     -34.985  12.790  -4.212  1.00 20.00    -0.279 OA
HETATM   11 CL11 UNL     1     -35.179  13.947  -6.592  1.00 20.00    -0.043 Cl
ENDBRANCH   5   9
TORSDOF 1
ENDMDL
MODEL 8
REMARK VINA RESULT:      -4.5     12.493     13.274
REMARK  1 active torsions:
REMARK  status: ('A' for Active; 'I' for Inactive)
REMARK    1  A    between atoms: C1_1  and  C6_6 
ROOT
HETATM    1  C2  UNL     1     -35.302  15.262  -2.898  1.00 20.00     0.019 C 
HETATM    2  C3  UNL     1     -33.545  16.322  -4.381  1.00 20.00     0.019 C 
HETATM    3  C4  UNL     1     -35.778  14.411  -4.071  1.00 20.00     0.080 C 
HETATM    4  C5  UNL     1     -34.022  15.470  -5.553  1.00 20.00     0.080 C 
HETATM    5  C6  UNL     1     -34.668  16.572  -3.371  1.00 20.00     0.072 C 
HETATM    6  C7  UNL     1     -34.664  14.179  -5.079  1.00 20.00     0.243 C 
HETATM    7  F9  UNL     1     -35.154  13.499  -6.144  1.00 20.00    -0.206 F 
HETATM    8  F10 UNL     1     -33.714  13.386  -4.519  1.00 20.00    -0.206 F 
ENDROOT
BRANCH   5   9
HETATM    9  C1  UNL     1     -34.134  17.335  -2.194  1.00 20.00     0.223 C 
HETATM   10  O8  UNL     1     -33.473  18.360  -2.337  1.00 20.00    -0.279 OA
HETATM   11 CL11 UNL     1     -34.566  16.595  -0.684  1.00 20.00    -0.043 Cl
ENDBRANCH   5   9
TORSDOF 1
ENDMDL
MODEL 9
REMARK VINA RESULT:      -4.5     12.390     13.416
REMARK  1 active torsions:
REMARK  status: ('A' for Active; 'I' for Inactive)
REMARK    1  A    between atoms: C1_1  and  C6_6 
ROOT
HETATM    1  C2  UNL     1     -35.400  13.869  -4.139  1.00 20.00     0.019 C 
HETATM    2  C3  UNL     1     -34.926  16.192  -5.029  1.00 20.00     0.019 C 
HETATM    3  C4  UNL     1     -33.909  13.662  -3.890  1.00 20.00     0.080 C 
HETATM    4  C5  UNL     1     -33.436  15.983  -4.779  1.00 20.00     0.080 C 
HETATM    5  C6  UNL     1     -35.649  14.864  -5.275  1.00 20.00     0.072 C 
HETATM    6  C7  UNL     1     -33.193  14.982  -3.662  1.00 20.00     0.243 C 
HETATM    7  F9  UNL     1     -31.862  14.759  -3.536  1.00 20.00    -0.206 F 
HETATM    8  F10 UNL     1     -33.608  15.517  -2.484  1.00 20.00    -0.206 F 
ENDROOT
BRANCH   5   9
HETATM    9  C1  UNL     1     -37.122  15.107  -5.427  1.00 20.00     0.223 C 
HETATM   10  O8  UNL     1     -37.599  15.543  -6.471  1.00 20.00    -0.279 OA
HETATM   11 CL11 UNL     1     -38.004  14.703  -3.986  1.00 20.00    -0.043 Cl
ENDBRANCH   5   9
TORSDOF 1
ENDMDL
