MODEL 1
REMARK VINA RESULT:      -5.0      0.000      0.000
REMARK  4 active torsions:
REMARK  status: ('A' for Active; 'I' for Inactive)
REMARK    1  A    between atoms: C1_1  and  C3_3 
REMARK    2  A    between atoms: C1_1  and  O10_10 
REMARK    3  A    between atoms: C4_4  and  C7_7 
REMARK    4  A    between atoms: C7_7  and  C8_8 
ROOT
HETATM    1  C2  UNL     1     -34.046   5.672   2.526  1.00 20.00     0.020 A 
HETATM    2  C3  UNL     1     -32.804   5.922   3.342  1.00 20.00     0.090 A 
HETATM    3  C4  UNL     1     -34.172   5.989   3.992  1.00 20.00    -0.000 A 
ENDROOT
BRANCH   2   4
HETATM    4  C1  UNL     1     -32.050   7.164   3.139  1.00 20.00     0.263 C 
HETATM    5  O9  UNL     1     -31.368   7.701   4.002  1.00 20.00    -0.265 OA
BRANCH   4   6
HETATM    6  O10 UNL     1     -32.235   7.605   1.862  1.00 20.00    -0.326 OA
HETATM    7  C6  UNL     1     -32.258   9.028   1.701  1.00 20.00     0.213 C 
ENDBRANCH   4   6
ENDBRANCH   2   4
BRANCH   3   8
HETATM    8  C7  UNL     1     -34.595   4.934   4.954  1.00 20.00     0.005 C 
BRANCH   8   9
HETATM    9  C8  UNL     1     -34.647   5.445   6.405  1.00 20.00    -0.004 C 
HETATM   10  C5  UNL     1     -33.905   6.759   6.587  1.00 20.00     0.005 C 
ENDBRANCH   8   9
ENDBRANCH   3   8
TORSDOF 4
ENDMDL
MODEL 2
REMARK VINA RESULT:      -4.8      2.380      4.381
REMARK  4 active torsions:
REMARK  status: ('A' for Active; 'I' for Inactive)
REMARK    1  A    between atoms: C1_1  and  C3_3 
REMARK    2  A    between atoms: C1_1  and  O10_10 
REMARK    3  A    between atoms: C4_4  and  C7_7 
REMARK    4  A    between atoms: C7_7  and  C8_8 
ROOT
HETATM    1  C2  UNL     1     -34.172   5.581   2.747  1.00 20.00     0.020 A 
HETATM    2  C3  UNL     1     -34.361   5.923   4.203  1.00 20.00     0.090 A 
HETATM    3  C4  UNL     1     -32.969   5.877   3.602  1.00 20.00    -0.000 A 
ENDROOT
BRANCH   2   4
HETATM    4  C1  UNL     1     -34.767   4.870   5.140  1.00 20.00     0.263 C 
HETATM    5  O9  UNL     1     -35.050   3.727   4.807  1.00 20.00    -0.265 OA
BRANCH   4   6
HETATM    6  O10 UNL     1     -34.776   5.371   6.409  1.00 20.00    -0.326 OA
HETATM    7  C6  UNL     1     -34.052   6.592   6.593  1.00 20.00     0.213 C 
ENDBRANCH   4   6
ENDBRANCH   2   4
BRANCH   3   8
HETATM    8  C7  UNL     1     -32.198   7.135   3.403  1.00 20.00     0.005 C 
BRANCH   8   9
HETATM    9  C8  UNL     1     -32.143   7.567   1.927  1.00 20.00    -0.004 C 
HETATM   10  C5  UNL     1     -32.250   9.073   1.756  1.00 20.00     0.005 C 
ENDBRANCH   8   9
ENDBRANCH   3   8
TORSDOF 4
ENDMDL
MODEL 3
REMARK VINA RESULT:      -4.7      2.171      4.479
REMARK  4 active torsions:
REMARK  status: ('A' for Active; 'I' for Inactive)
REMARK    1  A    between atoms: C1_1  and  C3_3 
REMARK    2  A    between atoms: C1_1  and  O10_10 
REMARK    3  A    between atoms: C4_4  and  C7_7 
REMARK    4  A    between atoms: C7_7  and  C8_8 
ROOT
HETATM    1  C2  UNL     1     -33.461   5.986   2.881  1.00 20.00     0.020 A 
HETATM    2  C3  UNL     1     -33.834   6.800   4.092  1.00 20.00     0.090 A 
HETATM    3  C4  UNL     1     -32.382   6.671   3.676  1.00 20.00    -0.000 A 
ENDROOT
BRANCH   2   4
HETATM    4  C1  UNL     1     -34.291   6.114   5.306  1.00 20.00     0.263 C 
HETATM    5  O9  UNL     1     -33.961   6.433   6.440  1.00 20.00    -0.265 OA
BRANCH   4   6
HETATM    6  O10 UNL     1     -35.122   5.089   4.962  1.00 20.00    -0.326 OA
HETATM    7  C6  UNL     1     -34.920   3.867   5.680  1.00 20.00     0.213 C 
ENDBRANCH   4   6
ENDBRANCH   2   4
BRANCH   3   8
HETATM    8  C7  UNL     1     -31.660   7.843   3.107  1.00 20.00     0.005 C 
BRANCH   8   9
HETATM    9  C8  UNL     1     -31.983   8.069   1.620  1.00 20.00    -0.004 C 
HETATM   10  C5  UNL     1     -32.385   9.504   1.322  1.00 20.00     0.005 C 
ENDBRANCH   8   9
ENDBRANCH   3   8
TORSDOF 4
ENDMDL
MODEL 4
REMARK VINA RESULT:      -4.5     10.953     11.576
REMARK  4 active torsions:
REMARK  status: ('A' for Active; 'I' for Inactive)
REMARK    1  A    between atoms: C1_1  and  C3_3 
REMARK    2  A    between atoms: C1_1  and  O10_10 
REMARK    3  A    between atoms: C4_4  and  C7_7 
REMARK    4  A    between atoms: C7_7  and  C8_8 
ROOT
HETATM    1  C2  UNL     1     -33.285  14.895  -3.782  1.00 20.00     0.020 A 
HETATM    2  C3  UNL     1     -34.779  14.956  -3.968  1.00 20.00     0.090 A 
HETATM    3  C4  UNL     1     -34.163  15.268  -2.618  1.00 20.00    -0.000 A 
ENDROOT
BRANCH   2   4
HETATM    4  C1  UNL     1     -35.533  13.709  -4.136  1.00 20.00     0.263 C 
HETATM    5  O9  UNL     1     -35.028  12.639  -4.448  1.00 20.00    -0.265 OA
BRANCH   4   6
HETATM    6  O10 UNL     1     -36.855  13.942  -3.894  1.00 20.00    -0.326 OA
HETATM    7  C6  UNL     1     -37.422  15.053  -4.597  1.00 20.00     0.213 C 
ENDBRANCH   4   6
ENDBRANCH   2   4
BRANCH   3   8
HETATM    8  C7  UNL     1     -34.168  16.664  -2.098  1.00 20.00     0.005 C 
BRANCH   8   9
HETATM    9  C8  UNL     1     -34.633  16.747  -0.634  1.00 20.00    -0.004 C 
HETATM   10  C5  UNL     1     -34.018  17.923   0.107  1.00 20.00     0.005 C 
ENDBRANCH   8   9
ENDBRANCH   3   8
TORSDOF 4
ENDMDL
MODEL 5
REMARK VINA RESULT:      -4.4      1.770      4.601
REMARK  4 active torsions:
REMARK  status: ('A' for Active; 'I' for Inactive)
REMARK    1  A    between atoms: C1_1  and  C3_3 
REMARK    2  A    between atoms: C1_1  and  O10_10 
REMARK    3  A    between atoms: C4_4  and  C7_7 
REMARK    4  A    between atoms: C7_7  and  C8_8 
ROOT
HETATM    1  C2  UNL     1     -31.664   7.227   3.856  1.00 20.00     0.020 A 
HETATM    2  C3  UNL     1     -32.658   6.291   3.217  1.00 20.00     0.090 A 
HETATM    3  C4  UNL     1     -32.492   7.704   2.692  1.00 20.00    -0.000 A 
ENDROOT
BRANCH   2   4
HETATM    4  C1  UNL     1     -33.883   5.940   3.943  1.00 20.00     0.263 C 
HETATM    5  O9  UNL     1     -34.849   5.388   3.433  1.00 20.00    -0.265 OA
BRANCH   4   6
HETATM    6  O10 UNL     1     -33.766   6.326   5.246  1.00 20.00    -0.326 OA
HETATM    7  C6  UNL     1     -34.499   5.536   6.189  1.00 20.00     0.213 C 
ENDBRANCH   4   6
ENDBRANCH   2   4
BRANCH   3   8
HETATM    8  C7  UNL     1     -31.856   7.939   1.366  1.00 20.00     0.005 C 
BRANCH   8   9
HETATM    9  C8  UNL     1     -32.151   9.344   0.811  1.00 20.00    -0.004 C 
HETATM   10  C5  UNL     1     -32.758  10.268   1.855  1.00 20.00     0.005 C 
ENDBRANCH   8   9
ENDBRANCH   3   8
TORSDOF 4
ENDMDL
MODEL 6
REMARK VINA RESULT:      -4.3     10.873     11.791
REMARK  4 active torsions:
REMARK  status: ('A' for Active; 'I' for Inactive)
REMARK    1  A    between atoms: C1_1  and  C3_3 
REMARK    2  A    between atoms: C1_1  and  O10_10 
REMARK    3  A    between atoms: C4_4  and  C7_7 
REMARK    4  A    between atoms: C7_7  and  C8_8 
ROOT
HETATM    1  C2  UNL     1     -32.995  14.198  -3.480  1.00 20.00     0.020 A 
HETATM    2  C3  UNL     1     -33.969  14.686  -4.521  1.00 20.00     0.090 A 
HETATM    3  C4  UNL     1     -34.212  14.975  -3.052  1.00 20.00    -0.000 A 
ENDROOT
BRANCH   2   4
HETATM    4  C1  UNL     1     -34.831  13.717  -5.207  1.00 20.00     0.263 C 
HETATM    5  O9  UNL     1     -34.857  12.521  -4.951  1.00 20.00    -0.265 OA
BRANCH   4   6
HETATM    6  O10 UNL     1     -35.574  14.360  -6.153  1.00 20.00    -0.326 OA
HETATM    7  C6  UNL     1     -34.867  14.733  -7.341  1.00 20.00     0.213 C 
ENDBRANCH   4   6
ENDBRANCH   2   4
BRANCH   3   8
HETATM    8  C7  UNL     1     -34.070  16.362  -2.530  1.00 20.00     0.005 C 
BRANCH   8   9
HETATM    9  C8  UNL     1     -34.613  16.512  -1.098  1.00 20.00    -0.004 C 
HETATM   10  C5  UNL     1     -33.943  17.644  -0.336  1.00 20.00     0.005 C 
ENDBRANCH   8   9
ENDBRANCH   3   8
TORSDOF 4
ENDMDL
MODEL 7
REMARK VINA RESULT:      -4.1     10.784     11.478
REMARK  4 active torsions:
REMARK  status: ('A' for Active; 'I' for Inactive)
REMARK    1  A    between atoms: C1_1  and  C3_3 
REMARK    2  A    between atoms: C1_1  and  O10_10 
REMARK    3  A    between atoms: C4_4  and  C7_7 
REMARK    4  A    between atoms: C7_7  and  C8_8 
ROOT
HETATM    1  C2  UNL     1     -34.531  16.686  -3.375  1.00 20.00     0.020 A 
HETATM    2  C3  UNL     1     -34.356  15.252  -2.947  1.00 20.00     0.090 A 
HETATM    3  C4  UNL     1     -33.991  16.383  -2.003  1.00 20.00    -0.000 A 
ENDROOT
BRANCH   2   4
HETATM    4  C1  UNL     1     -33.284  14.450  -3.545  1.00 20.00     0.263 C 
HETATM    5  O9  UNL     1     -32.123  14.823  -3.646  1.00 20.00    -0.265 OA
BRANCH   4   6
HETATM    6  O10 UNL     1     -33.789  13.252  -3.958  1.00 20.00    -0.326 OA
HETATM    7  C6  UNL     1     -35.157  13.275  -4.379  1.00 20.00     0.213 C 
ENDBRANCH   4   6
ENDBRANCH   2   4
BRANCH   3   8
HETATM    8  C7  UNL     1     -34.821  16.646  -0.795  1.00 20.00     0.005 C 
BRANCH   8   9
HETATM    9  C8  UNL     1     -34.244  17.769   0.084  1.00 20.00    -0.004 C 
HETATM   10  C5  UNL     1     -32.954  18.345  -0.478  1.00 20.00     0.005 C 
ENDBRANCH   8   9
ENDBRANCH   3   8
TORSDOF 4
ENDMDL
MODEL 8
REMARK VINA RESULT:      -4.1      1.409      1.958
REMARK  4 active torsions:
REMARK  status: ('A' for Active; 'I' for Inactive)
REMARK    1  A    between atoms: C1_1  and  C3_3 
REMARK    2  A    between atoms: C1_1  and  O10_10 
REMARK    3  A    between atoms: C4_4  and  C7_7 
REMARK    4  A    between atoms: C7_7  and  C8_8 
ROOT
HETATM    1  C2  UNL     1     -32.144   6.118   2.791  1.00 20.00     0.020 A 
HETATM    2  C3  UNL     1     -32.225   7.569   3.190  1.00 20.00     0.090 A 
HETATM    3  C4  UNL     1     -33.427   6.660   3.363  1.00 20.00    -0.000 A 
ENDROOT
BRANCH   2   4
HETATM    4  C1  UNL     1     -32.256   8.599   2.146  1.00 20.00     0.263 C 
HETATM    5  O9  UNL     1     -32.759   9.705   2.290  1.00 20.00    -0.265 OA
BRANCH   4   6
HETATM    6  O10 UNL     1     -31.648   8.126   1.022  1.00 20.00    -0.326 OA
HETATM    7  C6  UNL     1     -32.126   8.673  -0.212  1.00 20.00     0.213 C 
ENDBRANCH   4   6
ENDBRANCH   2   4
BRANCH   3   8
HETATM    8  C7  UNL     1     -33.869   6.257   4.726  1.00 20.00     0.005 C 
BRANCH   8   9
HETATM    9  C8  UNL     1     -34.934   5.146   4.697  1.00 20.00    -0.004 C 
HETATM   10  C5  UNL     1     -34.934   4.304   5.962  1.00 20.00     0.005 C 
ENDBRANCH   8   9
ENDBRANCH   3   8
TORSDOF 4
ENDMDL
MODEL 9
REMARK VINA RESULT:      -4.0     11.113     11.851
REMARK  4 active torsions:
REMARK  status: ('A' for Active; 'I' for Inactive)
REMARK    1  A    between atoms: C1_1  and  C3_3 
REMARK    2  A    between atoms: C1_1  and  O10_10 
REMARK    3  A    between atoms: C4_4  and  C7_7 
REMARK    4  A    between atoms: C7_7  and  C8_8 
ROOT
HETATM    1  C2  UNL     1     -35.153  16.438  -3.945  1.00 20.00     0.020 A 
HETATM    2  C3  UNL     1     -35.392  14.997  -3.575  1.00 20.00     0.090 A 
HETATM    3  C4  UNL     1     -34.375  15.824  -2.812  1.00 20.00    -0.000 A 
ENDROOT
BRANCH   2   4
HETATM    4  C1  UNL     1     -34.920  13.937  -4.471  1.00 20.00     0.263 C 
HETATM    5  O9  UNL     1     -34.951  12.744  -4.199  1.00 20.00    -0.265 OA
BRANCH   4   6
HETATM    6  O10 UNL     1     -34.452  14.493  -5.625  1.00 20.00    -0.326 OA
HETATM    7  C6  UNL     1     -35.239  14.236  -6.794  1.00 20.00     0.213 C 
ENDBRANCH   4   6
ENDBRANCH   2   4
BRANCH   3   8
HETATM    8  C7  UNL     1     -34.648  16.235  -1.407  1.00 20.00     0.005 C 
BRANCH   8   9
HETATM    9  C8  UNL     1     -33.773  17.418  -0.957  1.00 20.00    -0.004 C 
HETATM   10  C5  UNL     1     -34.209  17.991   0.381  1.00 20.00     0.005 C 
ENDBRANCH   8   9
ENDBRANCH   3   8
TORSDOF 4
ENDMDL
