MODEL 1
REMARK VINA RESULT:      -5.1      0.000      0.000
REMARK  0 active torsions:
REMARK  status: ('A' for Active; 'I' for Inactive)
ROOT
HETATM    1  C1  UNL     1     -34.773  14.381  -5.981  1.00 20.00     0.053 A 
HETATM    2  C2  UNL     1     -34.779  15.701  -5.724  1.00 20.00    -0.070 A 
HETATM    3  C3  UNL     1     -35.039  13.703  -4.695  1.00 20.00     0.155 A 
HETATM    4  C4  UNL     1     -35.256  14.721  -3.632  1.00 20.00     0.082 A 
HETATM    5  C5  UNL     1     -35.108  16.083  -4.318  1.00 20.00    -0.002 A 
HETATM    6  C6  UNL     1     -34.175  15.680  -3.168  1.00 20.00    -0.024 A 
HETATM    7  C7  UNL     1     -34.458  16.752  -6.733  1.00 20.00     0.044 C 
HETATM    8  C8  UNL     1     -36.180  17.120  -4.125  1.00 20.00     0.021 C 
HETATM    9  C9  UNL     1     -34.362  16.315  -1.808  1.00 20.00     0.016 C 
HETATM   10  C10 UNL     1     -32.718  15.384  -3.454  1.00 20.00     0.016 C 
HETATM   11  O11 UNL     1     -35.079  12.498  -4.514  1.00 20.00    -0.293 OA
ENDROOT
TORSDOF 0
ENDMDL
MODEL 2
REMARK VINA RESULT:      -4.9      2.112      3.547
REMARK  0 active torsions:
REMARK  status: ('A' for Active; 'I' for Inactive)
ROOT
HETATM    1  C1  UNL     1     -33.723  17.421  -3.062  1.00 20.00     0.053 A 
HETATM    2  C2  UNL     1     -34.479  16.496  -2.444  1.00 20.00    -0.070 A 
HETATM    3  C3  UNL     1     -33.658  17.026  -4.485  1.00 20.00     0.155 A 
HETATM    4  C4  UNL     1     -34.477  15.802  -4.698  1.00 20.00     0.082 A 
HETATM    5  C5  UNL     1     -35.063  15.444  -3.328  1.00 20.00    -0.002 A 
HETATM    6  C6  UNL     1     -34.147  14.461  -4.070  1.00 20.00    -0.024 A 
HETATM    7  C7  UNL     1     -34.725  16.464  -0.973  1.00 20.00     0.044 C 
HETATM    8  C8  UNL     1     -36.541  15.192  -3.207  1.00 20.00     0.021 C 
HETATM    9  C9  UNL     1     -34.750  13.235  -4.718  1.00 20.00     0.016 C 
HETATM   10  C10 UNL     1     -32.755  14.189  -3.541  1.00 20.00     0.016 C 
HETATM   11  O11 UNL     1     -33.036  17.600  -5.361  1.00 20.00    -0.293 OA
ENDROOT
TORSDOF 0
ENDMDL
MODEL 3
REMARK VINA RESULT:      -4.9      1.114      3.076
REMARK  0 active torsions:
REMARK  status: ('A' for Active; 'I' for Inactive)
ROOT
HETATM    1  C1  UNL     1     -34.288  14.062  -3.333  1.00 20.00     0.053 A 
HETATM    2  C2  UNL     1     -34.222  15.402  -3.414  1.00 20.00    -0.070 A 
HETATM    3  C3  UNL     1     -34.586  13.575  -4.697  1.00 20.00     0.155 A 
HETATM    4  C4  UNL     1     -34.651  14.730  -5.633  1.00 20.00     0.082 A 
HETATM    5  C5  UNL     1     -34.381  15.976  -4.783  1.00 20.00    -0.002 A 
HETATM    6  C6  UNL     1     -35.707  15.817  -5.540  1.00 20.00    -0.024 A 
HETATM    7  C7  UNL     1     -34.032  16.303  -2.239  1.00 20.00     0.044 C 
HETATM    8  C8  UNL     1     -33.339  16.961  -5.237  1.00 20.00     0.021 C 
HETATM    9  C9  UNL     1     -35.951  16.641  -6.784  1.00 20.00     0.016 C 
HETATM   10  C10 UNL     1     -36.986  15.573  -4.768  1.00 20.00     0.016 C 
HETATM   11  O11 UNL     1     -34.754  12.414  -5.024  1.00 20.00    -0.293 OA
ENDROOT
TORSDOF 0
ENDMDL
MODEL 4
REMARK VINA RESULT:      -4.8      1.501      2.465
REMARK  0 active torsions:
REMARK  status: ('A' for Active; 'I' for Inactive)
ROOT
HETATM    1  C1  UNL     1     -35.238  13.420  -3.990  1.00 20.00     0.053 A 
HETATM    2  C2  UNL     1     -35.930  14.573  -3.984  1.00 20.00    -0.070 A 
HETATM    3  C3  UNL     1     -33.816  13.785  -3.820  1.00 20.00     0.155 A 
HETATM    4  C4  UNL     1     -33.696  15.259  -3.662  1.00 20.00     0.082 A 
HETATM    5  C5  UNL     1     -35.125  15.808  -3.745  1.00 20.00    -0.002 A 
HETATM    6  C6  UNL     1     -34.058  16.244  -4.759  1.00 20.00    -0.024 A 
HETATM    7  C7  UNL     1     -37.399  14.669  -4.223  1.00 20.00     0.044 C 
HETATM    8  C8  UNL     1     -35.612  16.746  -2.676  1.00 20.00     0.021 C 
HETATM    9  C9  UNL     1     -33.464  17.631  -4.656  1.00 20.00     0.016 C 
HETATM   10  C10 UNL     1     -34.157  15.781  -6.197  1.00 20.00     0.016 C 
HETATM   11  O11 UNL     1     -32.874  13.012  -3.808  1.00 20.00    -0.293 OA
ENDROOT
TORSDOF 0
ENDMDL
MODEL 5
REMARK VINA RESULT:      -4.6      1.560      2.609
REMARK  0 active torsions:
REMARK  status: ('A' for Active; 'I' for Inactive)
ROOT
HETATM    1  C1  UNL     1     -36.989  16.359  -4.283  1.00 20.00     0.053 A 
HETATM    2  C2  UNL     1     -35.726  16.805  -4.158  1.00 20.00    -0.070 A 
HETATM    3  C3  UNL     1     -36.989  14.962  -3.800  1.00 20.00     0.155 A 
HETATM    4  C4  UNL     1     -35.627  14.601  -3.324  1.00 20.00     0.082 A 
HETATM    5  C5  UNL     1     -34.763  15.849  -3.535  1.00 20.00    -0.002 A 
HETATM    6  C6  UNL     1     -34.418  14.529  -4.239  1.00 20.00    -0.024 A 
HETATM    7  C7  UNL     1     -35.263  18.145  -4.620  1.00 20.00     0.044 C 
HETATM    8  C8  UNL     1     -33.929  16.364  -2.395  1.00 20.00     0.021 C 
HETATM    9  C9  UNL     1     -33.238  13.718  -3.752  1.00 20.00     0.016 C 
HETATM   10  C10 UNL     1     -34.602  14.408  -5.737  1.00 20.00     0.016 C 
HETATM   11  O11 UNL     1     -37.946  14.208  -3.787  1.00 20.00    -0.293 OA
ENDROOT
TORSDOF 0
ENDMDL
MODEL 6
REMARK VINA RESULT:      -4.6      1.550      2.554
REMARK  0 active torsions:
REMARK  status: ('A' for Active; 'I' for Inactive)
ROOT
HETATM    1  C1  UNL     1     -34.734  13.838  -3.705  1.00 20.00     0.053 A 
HETATM    2  C2  UNL     1     -33.733  14.734  -3.749  1.00 20.00    -0.070 A 
HETATM    3  C3  UNL     1     -35.990  14.608  -3.825  1.00 20.00     0.155 A 
HETATM    4  C4  UNL     1     -35.674  16.052  -3.993  1.00 20.00     0.082 A 
HETATM    5  C5  UNL     1     -34.145  16.153  -3.970  1.00 20.00    -0.002 A 
HETATM    6  C6  UNL     1     -34.993  16.884  -2.921  1.00 20.00    -0.024 A 
HETATM    7  C7  UNL     1     -32.293  14.390  -3.568  1.00 20.00     0.044 C 
HETATM    8  C8  UNL     1     -33.444  16.905  -5.068  1.00 20.00     0.021 C 
HETATM    9  C9  UNL     1     -35.154  18.385  -3.016  1.00 20.00     0.016 C 
HETATM   10  C10 UNL     1     -34.979  16.411  -1.483  1.00 20.00     0.016 C 
HETATM   11  O11 UNL     1     -37.119  14.149  -3.793  1.00 20.00    -0.293 OA
ENDROOT
TORSDOF 0
ENDMDL
MODEL 7
REMARK VINA RESULT:      -4.6      2.147      3.164
REMARK  0 active torsions:
REMARK  status: ('A' for Active; 'I' for Inactive)
ROOT
HETATM    1  C1  UNL     1     -34.172  16.369  -6.345  1.00 20.00     0.053 A 
HETATM    2  C2  UNL     1     -34.427  15.252  -5.643  1.00 20.00    -0.070 A 
HETATM    3  C3  UNL     1     -33.643  17.357  -5.381  1.00 20.00     0.155 A 
HETATM    4  C4  UNL     1     -33.551  16.735  -4.032  1.00 20.00     0.082 A 
HETATM    5  C5  UNL     1     -34.055  15.297  -4.197  1.00 20.00    -0.002 A 
HETATM    6  C6  UNL     1     -34.765  16.272  -3.247  1.00 20.00    -0.024 A 
HETATM    7  C7  UNL     1     -35.063  14.030  -6.217  1.00 20.00     0.044 C 
HETATM    8  C8  UNL     1     -33.220  14.163  -3.670  1.00 20.00     0.021 C 
HETATM    9  C9  UNL     1     -34.590  16.106  -1.754  1.00 20.00     0.016 C 
HETATM   10  C10 UNL     1     -36.143  16.790  -3.597  1.00 20.00     0.016 C 
HETATM   11  O11 UNL     1     -33.326  18.506  -5.632  1.00 20.00    -0.293 OA
ENDROOT
TORSDOF 0
ENDMDL
MODEL 8
REMARK VINA RESULT:      -4.5      1.496      1.589
REMARK  0 active torsions:
REMARK  status: ('A' for Active; 'I' for Inactive)
ROOT
HETATM    1  C1  UNL     1     -36.402  14.825  -5.616  1.00 20.00     0.053 A 
HETATM    2  C2  UNL     1     -35.357  15.671  -5.609  1.00 20.00    -0.070 A 
HETATM    3  C3  UNL     1     -36.940  14.815  -4.238  1.00 20.00     0.155 A 
HETATM    4  C4  UNL     1     -36.163  15.763  -3.395  1.00 20.00     0.082 A 
HETATM    5  C5  UNL     1     -35.101  16.372  -4.316  1.00 20.00    -0.002 A 
HETATM    6  C6  UNL     1     -34.693  15.574  -3.071  1.00 20.00    -0.024 A 
HETATM    7  C7  UNL     1     -34.465  15.907  -6.781  1.00 20.00     0.044 C 
HETATM    8  C8  UNL     1     -34.947  17.868  -4.368  1.00 20.00     0.021 C 
HETATM    9  C9  UNL     1     -34.159  16.311  -1.863  1.00 20.00     0.016 C 
HETATM   10  C10 UNL     1     -34.045  14.215  -3.230  1.00 20.00     0.016 C 
HETATM   11  O11 UNL     1     -37.873  14.142  -3.838  1.00 20.00    -0.293 OA
ENDROOT
TORSDOF 0
ENDMDL
MODEL 9
REMARK VINA RESULT:      -4.5      1.566      3.475
REMARK  0 active torsions:
REMARK  status: ('A' for Active; 'I' for Inactive)
ROOT
HETATM    1  C1  UNL     1     -36.342  15.520  -2.648  1.00 20.00     0.053 A 
HETATM    2  C2  UNL     1     -35.033  15.640  -2.930  1.00 20.00    -0.070 A 
HETATM    3  C3  UNL     1     -36.928  14.692  -3.723  1.00 20.00     0.155 A 
HETATM    4  C4  UNL     1     -35.857  14.274  -4.667  1.00 20.00     0.082 A 
HETATM    5  C5  UNL     1     -34.559  14.887  -4.130  1.00 20.00    -0.002 A 
HETATM    6  C6  UNL     1     -35.079  15.253  -5.527  1.00 20.00    -0.024 A 
HETATM    7  C7  UNL     1     -34.081  16.478  -2.145  1.00 20.00     0.044 C 
HETATM    8  C8  UNL     1     -33.352  14.008  -3.953  1.00 20.00     0.021 C 
HETATM    9  C9  UNL     1     -34.381  14.689  -6.745  1.00 20.00     0.016 C 
HETATM   10  C10 UNL     1     -35.623  16.642  -5.784  1.00 20.00     0.016 C 
HETATM   11  O11 UNL     1     -38.103  14.388  -3.836  1.00 20.00    -0.293 OA
ENDROOT
TORSDOF 0
ENDMDL
