MODEL 1
REMARK VINA RESULT:      -4.8      0.000      0.000
REMARK  1 active torsions:
REMARK  status: ('A' for Active; 'I' for Inactive)
REMARK    1  A    between atoms: C1_1  and  C9_9 
ROOT
HETATM    1  C2  UNL     1     -33.709  13.718  -4.025  1.00 20.00     0.031 C 
HETATM    2  C3  UNL     1     -34.166  15.439  -6.606  1.00 20.00     0.031 C 
HETATM    3  C4  UNL     1     -35.231  13.644  -4.146  1.00 20.00     0.022 C 
HETATM    4  C5  UNL     1     -35.608  15.060  -6.267  1.00 20.00     0.022 C 
HETATM    5  C6  UNL     1     -33.203  15.098  -3.599  1.00 20.00     0.272 C 
HETATM    6  C7  UNL     1     -33.561  16.452  -5.630  1.00 20.00     0.272 C 
HETATM    7  C8  UNL     1     -35.331  16.144  -4.025  1.00 20.00     0.290 C 
HETATM    8  C9  UNL     1     -35.870  14.908  -4.755  1.00 20.00     0.062 C 
HETATM    9  N10 UNL     1     -33.881  16.248  -4.211  1.00 20.00     0.089 N 
ENDROOT
BRANCH   8  10
HETATM   10  C1  UNL     1     -37.362  14.829  -4.557  1.00 20.00     0.229 C 
HETATM   11  O11 UNL     1     -37.859  14.155  -3.660  1.00 20.00    -0.279 OA
HETATM   12 CL12 UNL     1     -38.228  15.782  -5.724  1.00 20.00    -0.043 Cl
ENDBRANCH   8  10
TORSDOF 1
ENDMDL
MODEL 2
REMARK VINA RESULT:      -4.8      2.035      2.615
REMARK  1 active torsions:
REMARK  status: ('A' for Active; 'I' for Inactive)
REMARK    1  A    between atoms: C1_1  and  C9_9 
ROOT
HETATM    1  C2  UNL     1     -34.381  15.975  -2.156  1.00 20.00     0.031 C 
HETATM    2  C3  UNL     1     -33.535  17.411  -4.812  1.00 20.00     0.031 C 
HETATM    3  C4  UNL     1     -34.323  14.784  -3.113  1.00 20.00     0.022 C 
HETATM    4  C5  UNL     1     -33.630  15.964  -5.297  1.00 20.00     0.022 C 
HETATM    5  C6  UNL     1     -35.565  16.907  -2.422  1.00 20.00     0.272 C 
HETATM    6  C7  UNL     1     -34.899  18.039  -4.511  1.00 20.00     0.272 C 
HETATM    7  C8  UNL     1     -36.025  15.910  -4.566  1.00 20.00     0.290 C 
HETATM    8  C9  UNL     1     -34.703  15.133  -4.566  1.00 20.00     0.062 C 
HETATM    9  N10 UNL     1     -35.871  17.171  -3.834  1.00 20.00     0.089 N 
ENDROOT
BRANCH   8  10
HETATM   10  C1  UNL     1     -34.884  13.849  -5.331  1.00 20.00     0.229 C 
HETATM   11  O11 UNL     1     -34.756  12.753  -4.793  1.00 20.00    -0.279 OA
HETATM   12 CL12 UNL     1     -35.281  14.132  -6.999  1.00 20.00    -0.043 Cl
ENDBRANCH   8  10
TORSDOF 1
ENDMDL
MODEL 3
REMARK VINA RESULT:      -4.7      2.701      3.853
REMARK  1 active torsions:
REMARK  status: ('A' for Active; 'I' for Inactive)
REMARK    1  A    between atoms: C1_1  and  C9_9 
ROOT
HETATM    1  C2  UNL     1     -34.174  15.536  -6.484  1.00 20.00     0.031 C 
HETATM    2  C3  UNL     1     -33.731  13.590  -4.065  1.00 20.00     0.031 C 
HETATM    3  C4  UNL     1     -33.712  16.522  -5.411  1.00 20.00     0.022 C 
HETATM    4  C5  UNL     1     -33.350  14.924  -3.421  1.00 20.00     0.022 C 
HETATM    5  C6  UNL     1     -35.581  14.988  -6.235  1.00 20.00     0.272 C 
HETATM    6  C7  UNL     1     -35.233  13.455  -4.333  1.00 20.00     0.272 C 
HETATM    7  C8  UNL     1     -35.631  15.803  -3.969  1.00 20.00     0.290 C 
HETATM    8  C9  UNL     1     -34.132  16.128  -3.980  1.00 20.00     0.062 C 
HETATM    9  N10 UNL     1     -35.906  14.658  -4.841  1.00 20.00     0.089 N 
ENDROOT
BRANCH   8  10
HETATM   10  C1  UNL     1     -33.874  17.301  -3.070  1.00 20.00     0.229 C 
HETATM   11  O11 UNL     1     -33.642  18.422  -3.512  1.00 20.00    -0.279 OA
HETATM   12 CL12 UNL     1     -33.949  16.855  -1.392  1.00 20.00    -0.043 Cl
ENDBRANCH   8  10
TORSDOF 1
ENDMDL
MODEL 4
REMARK VINA RESULT:      -4.7      2.451      3.210
REMARK  1 active torsions:
REMARK  status: ('A' for Active; 'I' for Inactive)
REMARK    1  A    between atoms: C1_1  and  C9_9 
ROOT
HETATM    1  C2  UNL     1     -33.682  17.396  -5.400  1.00 20.00     0.031 C 
HETATM    2  C3  UNL     1     -35.119  15.793  -7.680  1.00 20.00     0.031 C 
HETATM    3  C4  UNL     1     -33.380  15.961  -4.968  1.00 20.00     0.022 C 
HETATM    4  C5  UNL     1     -34.564  14.642  -6.840  1.00 20.00     0.022 C 
HETATM    5  C6  UNL     1     -35.149  17.789  -5.210  1.00 20.00     0.272 C 
HETATM    6  C7  UNL     1     -36.280  16.530  -7.005  1.00 20.00     0.272 C 
HETATM    7  C8  UNL     1     -35.842  15.508  -4.867  1.00 20.00     0.290 C 
HETATM    8  C9  UNL     1     -34.490  14.954  -5.333  1.00 20.00     0.062 C 
HETATM    9  N10 UNL     1     -36.140  16.764  -5.562  1.00 20.00     0.089 N 
ENDROOT
BRANCH   8  10
HETATM   10  C1  UNL     1     -34.212  13.660  -4.613  1.00 20.00     0.229 C 
HETATM   11  O11 UNL     1     -34.901  12.660  -4.793  1.00 20.00    -0.279 OA
HETATM   12 CL12 UNL     1     -32.845  13.785  -3.546  1.00 20.00    -0.043 Cl
ENDBRANCH   8  10
TORSDOF 1
ENDMDL
MODEL 5
REMARK VINA RESULT:      -4.7      2.450      3.594
REMARK  1 active torsions:
REMARK  status: ('A' for Active; 'I' for Inactive)
REMARK    1  A    between atoms: C1_1  and  C9_9 
ROOT
HETATM    1  C2  UNL     1     -37.699  15.738  -3.897  1.00 20.00     0.031 C 
HETATM    2  C3  UNL     1     -35.274  16.940  -2.313  1.00 20.00     0.031 C 
HETATM    3  C4  UNL     1     -36.781  14.518  -3.821  1.00 20.00     0.022 C 
HETATM    4  C5  UNL     1     -34.786  15.505  -2.520  1.00 20.00     0.022 C 
HETATM    5  C6  UNL     1     -37.185  16.822  -4.847  1.00 20.00     0.272 C 
HETATM    6  C7  UNL     1     -35.279  17.770  -3.600  1.00 20.00     0.272 C 
HETATM    7  C8  UNL     1     -34.997  15.827  -4.996  1.00 20.00     0.290 C 
HETATM    8  C9  UNL     1     -35.279  14.866  -3.834  1.00 20.00     0.062 C 
HETATM    9  N10 UNL     1     -35.739  17.077  -4.810  1.00 20.00     0.089 N 
ENDROOT
BRANCH   8  10
HETATM   10  C1  UNL     1     -34.498  13.595  -4.043  1.00 20.00     0.229 C 
HETATM   11  O11 UNL     1     -35.030  12.574  -4.468  1.00 20.00    -0.279 OA
HETATM   12 CL12 UNL     1     -32.823  13.779  -3.616  1.00 20.00    -0.043 Cl
ENDBRANCH   8  10
TORSDOF 1
ENDMDL
MODEL 6
REMARK VINA RESULT:      -4.6      2.038      3.145
REMARK  1 active torsions:
REMARK  status: ('A' for Active; 'I' for Inactive)
REMARK    1  A    between atoms: C1_1  and  C9_9 
ROOT
HETATM    1  C2  UNL     1     -36.171  17.381  -4.536  1.00 20.00     0.031 C 
HETATM    2  C3  UNL     1     -34.743  15.927  -2.153  1.00 20.00     0.031 C 
HETATM    3  C4  UNL     1     -36.166  15.941  -5.048  1.00 20.00     0.022 C 
HETATM    4  C5  UNL     1     -34.991  14.745  -3.091  1.00 20.00     0.022 C 
HETATM    5  C6  UNL     1     -34.782  18.026  -4.536  1.00 20.00     0.272 C 
HETATM    6  C7  UNL     1     -33.659  16.884  -2.659  1.00 20.00     0.272 C 
HETATM    7  C8  UNL     1     -33.667  15.917  -4.866  1.00 20.00     0.290 C 
HETATM    8  C9  UNL     1     -34.947  15.118  -4.585  1.00 20.00     0.062 C 
HETATM    9  N10 UNL     1     -33.674  17.167  -4.100  1.00 20.00     0.089 N 
ENDROOT
BRANCH   8  10
HETATM   10  C1  UNL     1     -34.911  13.836  -5.375  1.00 20.00     0.229 C 
HETATM   11  O11 UNL     1     -34.680  12.755  -4.841  1.00 20.00    -0.279 OA
HETATM   12 CL12 UNL     1     -35.230  14.098  -7.063  1.00 20.00    -0.043 Cl
ENDBRANCH   8  10
TORSDOF 1
ENDMDL
MODEL 7
REMARK VINA RESULT:      -4.6      2.325      3.291
REMARK  1 active torsions:
REMARK  status: ('A' for Active; 'I' for Inactive)
REMARK    1  A    between atoms: C1_1  and  C9_9 
ROOT
HETATM    1  C2  UNL     1     -34.474  16.612  -6.708  1.00 20.00     0.031 C 
HETATM    2  C3  UNL     1     -36.266  16.854  -4.146  1.00 20.00     0.031 C 
HETATM    3  C4  UNL     1     -34.446  15.168  -6.208  1.00 20.00     0.022 C 
HETATM    4  C5  UNL     1     -35.917  15.366  -4.100  1.00 20.00     0.022 C 
HETATM    5  C6  UNL     1     -33.670  17.572  -5.828  1.00 20.00     0.272 C 
HETATM    6  C7  UNL     1     -35.080  17.765  -3.813  1.00 20.00     0.272 C 
HETATM    7  C8  UNL     1     -33.487  15.972  -4.037  1.00 20.00     0.290 C 
HETATM    8  C9  UNL     1     -34.524  15.038  -4.673  1.00 20.00     0.062 C 
HETATM    9  N10 UNL     1     -33.785  17.366  -4.379  1.00 20.00     0.089 N 
ENDROOT
BRANCH   8  10
HETATM   10  C1  UNL     1     -34.201  13.615  -4.300  1.00 20.00     0.229 C 
HETATM   11  O11 UNL     1     -34.956  12.687  -4.579  1.00 20.00    -0.279 OA
HETATM   12 CL12 UNL     1     -32.685  13.486  -3.461  1.00 20.00    -0.043 Cl
ENDBRANCH   8  10
TORSDOF 1
ENDMDL
MODEL 8
REMARK VINA RESULT:      -4.6      1.631      2.427
REMARK  1 active torsions:
REMARK  status: ('A' for Active; 'I' for Inactive)
REMARK    1  A    between atoms: C1_1  and  C9_9 
ROOT
HETATM    1  C2  UNL     1     -35.267  15.827  -2.470  1.00 20.00     0.031 C 
HETATM    2  C3  UNL     1     -33.429  13.613  -3.717  1.00 20.00     0.031 C 
HETATM    3  C4  UNL     1     -36.083  15.448  -3.706  1.00 20.00     0.022 C 
HETATM    4  C5  UNL     1     -34.572  13.630  -4.733  1.00 20.00     0.022 C 
HETATM    5  C6  UNL     1     -33.990  16.603  -2.803  1.00 20.00     0.272 C 
HETATM    6  C7  UNL     1     -32.543  14.861  -3.782  1.00 20.00     0.272 C 
HETATM    7  C8  UNL     1     -34.126  16.060  -5.146  1.00 20.00     0.290 C 
HETATM    8  C9  UNL     1     -35.224  15.015  -4.911  1.00 20.00     0.062 C 
HETATM    9  N10 UNL     1     -33.243  16.137  -3.979  1.00 20.00     0.089 N 
ENDROOT
BRANCH   8  10
HETATM   10  C1  UNL     1     -36.111  14.948  -6.127  1.00 20.00     0.229 C 
HETATM   11  O11 UNL     1     -37.303  15.235  -6.073  1.00 20.00    -0.279 OA
HETATM   12 CL12 UNL     1     -35.243  14.434  -7.542  1.00 20.00    -0.043 Cl
ENDBRANCH   8  10
TORSDOF 1
ENDMDL
MODEL 9
REMARK VINA RESULT:      -4.5      1.381      1.906
REMARK  1 active torsions:
REMARK  status: ('A' for Active; 'I' for Inactive)
REMARK    1  A    between atoms: C1_1  and  C9_9 
ROOT
HETATM    1  C2  UNL     1     -33.807  15.950  -2.952  1.00 20.00     0.031 C 
HETATM    2  C3  UNL     1     -34.446  13.696  -5.037  1.00 20.00     0.031 C 
HETATM    3  C4  UNL     1     -35.280  15.687  -2.639  1.00 20.00     0.022 C 
HETATM    4  C5  UNL     1     -35.808  13.837  -4.354  1.00 20.00     0.022 C 
HETATM    5  C6  UNL     1     -33.590  16.662  -4.289  1.00 20.00     0.272 C 
HETATM    6  C7  UNL     1     -34.091  14.889  -5.930  1.00 20.00     0.272 C 
HETATM    7  C8  UNL     1     -35.851  16.254  -5.012  1.00 20.00     0.290 C 
HETATM    8  C9  UNL     1     -36.113  15.267  -3.867  1.00 20.00     0.062 C 
HETATM    9  N10 UNL     1     -34.439  16.214  -5.401  1.00 20.00     0.089 N 
ENDROOT
BRANCH   8  10
HETATM   10  C1  UNL     1     -37.571  15.319  -3.493  1.00 20.00     0.229 C 
HETATM   11  O11 UNL     1     -38.288  14.325  -3.551  1.00 20.00    -0.279 OA
HETATM   12 CL12 UNL     1     -38.061  16.910  -2.994  1.00 20.00    -0.043 Cl
ENDBRANCH   8  10
TORSDOF 1
ENDMDL
