MODEL 1
REMARK VINA RESULT:      -5.1      0.000      0.000
REMARK  1 active torsions:
REMARK  status: ('A' for Active; 'I' for Inactive)
REMARK    1  A    between atoms: C2_2  and  C3_3 
ROOT
HETATM    1  C1  UNL     1     -35.042  13.938  -3.938  1.00 20.00    -0.015 C 
HETATM    2  C2  UNL     1     -35.815  15.004  -4.216  1.00 20.00    -0.012 C 
HETATM    3  C4  UNL     1     -33.565  14.124  -3.659  1.00 20.00     0.033 C 
HETATM    4  C5  UNL     1     -33.796  16.218  -5.087  1.00 20.00     0.016 C 
HETATM    5  C6  UNL     1     -35.131  16.338  -4.263  1.00 20.00     0.030 C 
HETATM    6  C7  UNL     1     -33.207  15.622  -3.765  1.00 20.00    -0.002 C 
HETATM    7  C8  UNL     1     -34.189  16.620  -3.006  1.00 20.00    -0.036 C 
HETATM    8  C10 UNL     1     -33.687  18.073  -2.887  1.00 20.00     0.016 C 
HETATM    9  C11 UNL     1     -34.690  16.195  -1.619  1.00 20.00     0.016 C 
ENDROOT
BRANCH   2  10
HETATM   10  C3  UNL     1     -37.242  14.837  -4.468  1.00 20.00     0.151 C 
HETATM   11  C9  UNL     1     -37.841  15.527  -5.671  1.00 20.00     0.096 C 
HETATM   12  O12 UNL     1     -37.944  14.155  -3.713  1.00 20.00    -0.293 OA
ENDBRANCH   2  10
TORSDOF 1
ENDMDL
MODEL 2
REMARK VINA RESULT:      -5.1      2.140      2.942
REMARK  1 active torsions:
REMARK  status: ('A' for Active; 'I' for Inactive)
REMARK    1  A    between atoms: C2_2  and  C3_3 
ROOT
HETATM    1  C1  UNL     1     -34.629  14.321  -5.855  1.00 20.00    -0.015 C 
HETATM    2  C2  UNL     1     -34.342  15.622  -5.662  1.00 20.00    -0.012 C 
HETATM    3  C4  UNL     1     -34.557  13.348  -4.696  1.00 20.00     0.033 C 
HETATM    4  C5  UNL     1     -32.875  14.992  -3.723  1.00 20.00     0.016 C 
HETATM    5  C6  UNL     1     -33.927  16.022  -4.277  1.00 20.00     0.030 C 
HETATM    6  C7  UNL     1     -34.126  14.102  -3.419  1.00 20.00    -0.002 C 
HETATM    7  C8  UNL     1     -34.893  15.468  -3.134  1.00 20.00    -0.036 C 
HETATM    8  C10 UNL     1     -34.656  16.076  -1.737  1.00 20.00     0.016 C 
HETATM    9  C11 UNL     1     -36.406  15.492  -3.392  1.00 20.00     0.016 C 
ENDROOT
BRANCH   2  10
HETATM   10  C3  UNL     1     -34.427  16.569  -6.768  1.00 20.00     0.151 C 
HETATM   11  C9  UNL     1     -34.100  18.019  -6.494  1.00 20.00     0.096 C 
HETATM   12  O12 UNL     1     -34.764  16.198  -7.897  1.00 20.00    -0.293 OA
ENDBRANCH   2  10
TORSDOF 1
ENDMDL
MODEL 3
REMARK VINA RESULT:      -5.0      1.892      4.056
REMARK  1 active torsions:
REMARK  status: ('A' for Active; 'I' for Inactive)
REMARK    1  A    between atoms: C2_2  and  C3_3 
ROOT
HETATM    1  C1  UNL     1     -33.722  17.624  -3.338  1.00 20.00    -0.015 C 
HETATM    2  C2  UNL     1     -33.921  16.739  -2.344  1.00 20.00    -0.012 C 
HETATM    3  C4  UNL     1     -33.621  17.144  -4.772  1.00 20.00     0.033 C 
HETATM    4  C5  UNL     1     -32.837  14.954  -3.739  1.00 20.00     0.016 C 
HETATM    5  C6  UNL     1     -33.999  15.293  -2.734  1.00 20.00     0.030 C 
HETATM    6  C7  UNL     1     -33.772  15.607  -4.810  1.00 20.00    -0.002 C 
HETATM    7  C8  UNL     1     -34.981  15.012  -3.960  1.00 20.00    -0.036 C 
HETATM    8  C10 UNL     1     -35.291  13.524  -4.213  1.00 20.00     0.016 C 
HETATM    9  C11 UNL     1     -36.314  15.772  -4.007  1.00 20.00     0.016 C 
ENDROOT
BRANCH   2  10
HETATM   10  C3  UNL     1     -34.037  17.194  -0.963  1.00 20.00     0.151 C 
HETATM   11  C9  UNL     1     -33.137  18.316  -0.501  1.00 20.00     0.096 C 
HETATM   12  O12 UNL     1     -34.846  16.671  -0.189  1.00 20.00    -0.293 OA
ENDBRANCH   2  10
TORSDOF 1
ENDMDL
MODEL 4
REMARK VINA RESULT:      -4.9      1.962      3.833
REMARK  1 active torsions:
REMARK  status: ('A' for Active; 'I' for Inactive)
REMARK    1  A    between atoms: C2_2  and  C3_3 
ROOT
HETATM    1  C1  UNL     1     -33.631  14.622  -3.396  1.00 20.00    -0.015 C 
HETATM    2  C2  UNL     1     -34.456  15.683  -3.332  1.00 20.00    -0.012 C 
HETATM    3  C4  UNL     1     -33.935  13.480  -4.345  1.00 20.00     0.033 C 
HETATM    4  C5  UNL     1     -36.356  14.230  -4.101  1.00 20.00     0.016 C 
HETATM    5  C6  UNL     1     -35.674  15.644  -4.208  1.00 20.00     0.030 C 
HETATM    6  C7  UNL     1     -35.244  13.782  -5.108  1.00 20.00    -0.002 C 
HETATM    7  C8  UNL     1     -35.362  15.247  -5.722  1.00 20.00    -0.036 C 
HETATM    8  C10 UNL     1     -36.534  15.456  -6.700  1.00 20.00     0.016 C 
HETATM    9  C11 UNL     1     -34.107  15.836  -6.380  1.00 20.00     0.016 C 
ENDROOT
BRANCH   2  10
HETATM   10  C3  UNL     1     -34.162  16.795  -2.436  1.00 20.00     0.151 C 
HETATM   11  C9  UNL     1     -34.531  16.655  -0.977  1.00 20.00     0.096 C 
HETATM   12  O12 UNL     1     -33.631  17.828  -2.859  1.00 20.00    -0.293 OA
ENDBRANCH   2  10
TORSDOF 1
ENDMDL
MODEL 5
REMARK VINA RESULT:      -4.9      1.755      3.539
REMARK  1 active torsions:
REMARK  status: ('A' for Active; 'I' for Inactive)
REMARK    1  A    between atoms: C2_2  and  C3_3 
ROOT
HETATM    1  C1  UNL     1     -33.686  14.990  -2.895  1.00 20.00    -0.015 C 
HETATM    2  C2  UNL     1     -34.868  15.601  -3.093  1.00 20.00    -0.012 C 
HETATM    3  C4  UNL     1     -33.238  13.883  -3.827  1.00 20.00     0.033 C 
HETATM    4  C5  UNL     1     -35.727  13.532  -4.230  1.00 20.00     0.016 C 
HETATM    5  C6  UNL     1     -35.699  15.106  -4.240  1.00 20.00     0.030 C 
HETATM    6  C7  UNL     1     -34.319  13.651  -4.905  1.00 20.00    -0.002 C 
HETATM    7  C8  UNL     1     -34.886  14.964  -5.606  1.00 20.00    -0.036 C 
HETATM    8  C10 UNL     1     -35.757  14.719  -6.854  1.00 20.00     0.016 C 
HETATM    9  C11 UNL     1     -33.876  16.063  -5.963  1.00 20.00     0.016 C 
ENDROOT
BRANCH   2  10
HETATM   10  C3  UNL     1     -35.299  16.681  -2.212  1.00 20.00     0.151 C 
HETATM   11  C9  UNL     1     -34.684  16.769  -0.835  1.00 20.00     0.096 C 
HETATM   12  O12 UNL     1     -36.151  17.498  -2.580  1.00 20.00    -0.293 OA
ENDBRANCH   2  10
TORSDOF 1
ENDMDL
MODEL 6
REMARK VINA RESULT:      -4.8      2.192      4.152
REMARK  1 active torsions:
REMARK  status: ('A' for Active; 'I' for Inactive)
REMARK    1  A    between atoms: C2_2  and  C3_3 
ROOT
HETATM    1  C1  UNL     1     -33.901  15.815  -5.394  1.00 20.00    -0.015 C 
HETATM    2  C2  UNL     1     -34.497  14.610  -5.447  1.00 20.00    -0.012 C 
HETATM    3  C4  UNL     1     -34.250  16.880  -6.414  1.00 20.00     0.033 C 
HETATM    4  C5  UNL     1     -34.855  14.915  -7.915  1.00 20.00     0.016 C 
HETATM    5  C6  UNL     1     -35.471  14.388  -6.566  1.00 20.00     0.030 C 
HETATM    6  C7  UNL     1     -35.302  16.323  -7.398  1.00 20.00    -0.002 C 
HETATM    7  C8  UNL     1     -36.535  15.566  -6.732  1.00 20.00    -0.036 C 
HETATM    8  C10 UNL     1     -37.705  15.251  -7.684  1.00 20.00     0.016 C 
HETATM    9  C11 UNL     1     -37.135  16.182  -5.460  1.00 20.00     0.016 C 
ENDROOT
BRANCH   2  10
HETATM   10  C3  UNL     1     -34.180  13.585  -4.459  1.00 20.00     0.151 C 
HETATM   11  C9  UNL     1     -33.076  13.866  -3.467  1.00 20.00     0.096 C 
HETATM   12  O12 UNL     1     -34.794  12.513  -4.438  1.00 20.00    -0.293 OA
ENDBRANCH   2  10
TORSDOF 1
ENDMDL
MODEL 7
REMARK VINA RESULT:      -4.8      1.501      2.638
REMARK  1 active torsions:
REMARK  status: ('A' for Active; 'I' for Inactive)
REMARK    1  A    between atoms: C2_2  and  C3_3 
ROOT
HETATM    1  C1  UNL     1     -35.531  15.392  -2.905  1.00 20.00    -0.015 C 
HETATM    2  C2  UNL     1     -36.408  15.040  -3.864  1.00 20.00    -0.012 C 
HETATM    3  C4  UNL     1     -34.042  15.271  -3.158  1.00 20.00     0.033 C 
HETATM    4  C5  UNL     1     -34.706  13.457  -4.815  1.00 20.00     0.016 C 
HETATM    5  C6  UNL     1     -35.832  14.507  -5.141  1.00 20.00     0.030 C 
HETATM    6  C7  UNL     1     -33.806  14.715  -4.579  1.00 20.00    -0.002 C 
HETATM    7  C8  UNL     1     -34.654  15.405  -5.738  1.00 20.00    -0.036 C 
HETATM    8  C10 UNL     1     -34.225  15.039  -7.173  1.00 20.00     0.016 C 
HETATM    9  C11 UNL     1     -34.811  16.930  -5.683  1.00 20.00     0.016 C 
ENDROOT
BRANCH   2  10
HETATM   10  C3  UNL     1     -37.843  15.171  -3.636  1.00 20.00     0.151 C 
HETATM   11  C9  UNL     1     -38.386  16.529  -3.258  1.00 20.00     0.096 C 
HETATM   12  O12 UNL     1     -38.593  14.195  -3.744  1.00 20.00    -0.293 OA
ENDBRANCH   2  10
TORSDOF 1
ENDMDL
MODEL 8
REMARK VINA RESULT:      -4.7      2.174      3.352
REMARK  1 active torsions:
REMARK  status: ('A' for Active; 'I' for Inactive)
REMARK    1  A    between atoms: C2_2  and  C3_3 
ROOT
HETATM    1  C1  UNL     1     -35.701  15.479  -3.402  1.00 20.00    -0.015 C 
HETATM    2  C2  UNL     1     -34.383  15.354  -3.161  1.00 20.00    -0.012 C 
HETATM    3  C4  UNL     1     -36.479  16.625  -2.788  1.00 20.00     0.033 C 
HETATM    4  C5  UNL     1     -34.682  16.573  -0.985  1.00 20.00     0.016 C 
HETATM    5  C6  UNL     1     -33.765  16.371  -2.248  1.00 20.00     0.030 C 
HETATM    6  C7  UNL     1     -35.529  17.490  -1.931  1.00 20.00    -0.002 C 
HETATM    7  C8  UNL     1     -34.144  17.877  -2.616  1.00 20.00    -0.036 C 
HETATM    8  C10 UNL     1     -33.322  18.950  -1.875  1.00 20.00     0.016 C 
HETATM    9  C11 UNL     1     -34.179  18.271  -4.099  1.00 20.00     0.016 C 
ENDROOT
BRANCH   2  10
HETATM   10  C3  UNL     1     -33.622  14.265  -3.763  1.00 20.00     0.151 C 
HETATM   11  C9  UNL     1     -34.350  13.298  -4.667  1.00 20.00     0.096 C 
HETATM   12  O12 UNL     1     -32.415  14.132  -3.534  1.00 20.00    -0.293 OA
ENDBRANCH   2  10
TORSDOF 1
ENDMDL
MODEL 9
REMARK VINA RESULT:      -4.6      1.273      2.715
REMARK  1 active torsions:
REMARK  status: ('A' for Active; 'I' for Inactive)
REMARK    1  A    between atoms: C2_2  and  C3_3 
ROOT
HETATM    1  C1  UNL     1     -36.158  16.908  -4.378  1.00 20.00    -0.015 C 
HETATM    2  C2  UNL     1     -36.502  15.771  -3.746  1.00 20.00    -0.012 C 
HETATM    3  C4  UNL     1     -34.699  17.300  -4.495  1.00 20.00     0.033 C 
HETATM    4  C5  UNL     1     -34.399  15.915  -2.380  1.00 20.00     0.016 C 
HETATM    5  C6  UNL     1     -35.385  14.964  -3.155  1.00 20.00     0.030 C 
HETATM    6  C7  UNL     1     -33.824  16.233  -3.801  1.00 20.00    -0.002 C 
HETATM    7  C8  UNL     1     -34.169  14.720  -4.161  1.00 20.00    -0.036 C 
HETATM    8  C10 UNL     1     -33.136  13.680  -3.685  1.00 20.00     0.016 C 
HETATM    9  C11 UNL     1     -34.496  14.402  -5.626  1.00 20.00     0.016 C 
ENDROOT
BRANCH   2  10
HETATM   10  C3  UNL     1     -37.903  15.376  -3.646  1.00 20.00     0.151 C 
HETATM   11  C9  UNL     1     -38.935  16.455  -3.415  1.00 20.00     0.096 C 
HETATM   12  O12 UNL     1     -38.236  14.190  -3.740  1.00 20.00    -0.293 OA
ENDBRANCH   2  10
TORSDOF 1
ENDMDL
