MODEL 1
REMARK VINA RESULT:      -4.5      0.000      0.000
REMARK  0 active torsions:
REMARK  status: ('A' for Active; 'I' for Inactive)
ROOT
HETATM    1  C1  UNL     1     -34.300  13.555  -4.255  1.00 20.00     0.223 A 
HETATM    2  C2  UNL     1     -32.342  14.767  -3.670  1.00 20.00     0.128 A 
HETATM    3  C3  UNL     1     -34.544  14.960  -4.669  1.00 20.00     0.092 A 
HETATM    4  C4  UNL     1     -33.306  15.739  -4.281  1.00 20.00     0.026 A 
HETATM    5  C5  UNL     1     -34.654  16.103  -3.681  1.00 20.00    -0.029 A 
HETATM    6  C6  UNL     1     -35.298  17.375  -4.175  1.00 20.00     0.016 C 
HETATM    7  C7  UNL     1     -34.940  15.818  -2.228  1.00 20.00     0.016 C 
HETATM    8  N8  UNL     1     -33.027  13.492  -3.716  1.00 20.00    -0.360 N 
HETATM    9  O9  UNL     1     -35.115  12.660  -4.401  1.00 20.00    -0.273 OA
HETATM   10  H20 UNL     1     -32.620  12.632  -3.361  1.00 20.00     0.162 HD
ENDROOT
TORSDOF 0
ENDMDL
MODEL 2
REMARK VINA RESULT:      -4.4      1.331      2.084
REMARK  0 active torsions:
REMARK  status: ('A' for Active; 'I' for Inactive)
ROOT
HETATM    1  C1  UNL     1     -34.767  13.669  -5.025  1.00 20.00     0.223 A 
HETATM    2  C2  UNL     1     -34.394  15.835  -5.926  1.00 20.00     0.128 A 
HETATM    3  C3  UNL     1     -35.086  14.630  -3.939  1.00 20.00     0.092 A 
HETATM    4  C4  UNL     1     -34.831  16.010  -4.503  1.00 20.00     0.026 A 
HETATM    5  C5  UNL     1     -34.044  15.524  -3.297  1.00 20.00    -0.029 A 
HETATM    6  C6  UNL     1     -34.395  16.136  -1.964  1.00 20.00     0.016 C 
HETATM    7  C7  UNL     1     -32.580  15.191  -3.431  1.00 20.00     0.016 C 
HETATM    8  N8  UNL     1     -34.403  14.403  -6.140  1.00 20.00    -0.360 N 
HETATM    9  O9  UNL     1     -34.842  12.459  -4.896  1.00 20.00    -0.273 OA
HETATM   10  H20 UNL     1     -34.141  13.974  -7.022  1.00 20.00     0.162 HD
ENDROOT
TORSDOF 0
ENDMDL
MODEL 3
REMARK VINA RESULT:      -4.4      1.668      2.557
REMARK  0 active torsions:
REMARK  status: ('A' for Active; 'I' for Inactive)
ROOT
HETATM    1  C1  UNL     1     -33.825  13.602  -3.906  1.00 20.00     0.223 A 
HETATM    2  C2  UNL     1     -36.098  14.234  -4.181  1.00 20.00     0.128 A 
HETATM    3  C3  UNL     1     -33.824  15.073  -4.110  1.00 20.00     0.092 A 
HETATM    4  C4  UNL     1     -35.269  15.476  -4.304  1.00 20.00     0.026 A 
HETATM    5  C5  UNL     1     -34.254  15.726  -5.408  1.00 20.00    -0.029 A 
HETATM    6  C6  UNL     1     -33.827  17.155  -5.629  1.00 20.00     0.016 C 
HETATM    7  C7  UNL     1     -34.302  14.916  -6.679  1.00 20.00     0.016 C 
HETATM    8  N8  UNL     1     -35.141  13.176  -3.931  1.00 20.00    -0.360 N 
HETATM    9  O9  UNL     1     -32.810  12.945  -3.743  1.00 20.00    -0.273 OA
HETATM   10  H20 UNL     1     -35.409  12.205  -3.808  1.00 20.00     0.162 HD
ENDROOT
TORSDOF 0
ENDMDL
MODEL 4
REMARK VINA RESULT:      -4.3      1.436      1.657
REMARK  0 active torsions:
REMARK  status: ('A' for Active; 'I' for Inactive)
ROOT
HETATM    1  C1  UNL     1     -33.287  14.074  -3.857  1.00 20.00     0.223 A 
HETATM    2  C2  UNL     1     -33.223  16.309  -4.658  1.00 20.00     0.128 A 
HETATM    3  C3  UNL     1     -34.698  14.470  -4.090  1.00 20.00     0.092 A 
HETATM    4  C4  UNL     1     -34.663  15.900  -4.583  1.00 20.00     0.026 A 
HETATM    5  C5  UNL     1     -35.393  15.557  -3.295  1.00 20.00    -0.029 A 
HETATM    6  C6  UNL     1     -36.900  15.580  -3.339  1.00 20.00     0.016 C 
HETATM    7  C7  UNL     1     -34.830  15.993  -1.965  1.00 20.00     0.016 C 
HETATM    8  N8  UNL     1     -32.486  15.144  -4.217  1.00 20.00    -0.360 N 
HETATM    9  O9  UNL     1     -32.957  12.980  -3.429  1.00 20.00    -0.273 OA
HETATM   10  H20 UNL     1     -31.473  15.121  -4.154  1.00 20.00     0.162 HD
ENDROOT
TORSDOF 0
ENDMDL
MODEL 5
REMARK VINA RESULT:      -4.3      1.354      1.428
REMARK  0 active torsions:
REMARK  status: ('A' for Active; 'I' for Inactive)
ROOT
HETATM    1  C1  UNL     1     -35.863  14.139  -4.002  1.00 20.00     0.223 A 
HETATM    2  C2  UNL     1     -33.532  13.699  -3.885  1.00 20.00     0.128 A 
HETATM    3  C3  UNL     1     -35.184  15.398  -4.397  1.00 20.00     0.092 A 
HETATM    4  C4  UNL     1     -33.699  15.128  -4.306  1.00 20.00     0.026 A 
HETATM    5  C5  UNL     1     -34.330  16.209  -3.444  1.00 20.00    -0.029 A 
HETATM    6  C6  UNL     1     -34.045  17.639  -3.829  1.00 20.00     0.016 C 
HETATM    7  C7  UNL     1     -34.465  16.009  -1.956  1.00 20.00     0.016 C 
HETATM    8  N8  UNL     1     -34.882  13.197  -3.744  1.00 20.00    -0.360 N 
HETATM    9  O9  UNL     1     -37.075  14.017  -3.942  1.00 20.00    -0.273 OA
HETATM   10  H20 UNL     1     -35.092  12.245  -3.458  1.00 20.00     0.162 HD
ENDROOT
TORSDOF 0
ENDMDL
MODEL 6
REMARK VINA RESULT:      -4.2      2.007      2.466
REMARK  0 active torsions:
REMARK  status: ('A' for Active; 'I' for Inactive)
ROOT
HETATM    1  C1  UNL     1     -33.987  15.738  -5.379  1.00 20.00     0.223 A 
HETATM    2  C2  UNL     1     -34.112  13.572  -4.411  1.00 20.00     0.128 A 
HETATM    3  C3  UNL     1     -33.756  15.921  -3.924  1.00 20.00     0.092 A 
HETATM    4  C4  UNL     1     -33.853  14.546  -3.301  1.00 20.00     0.026 A 
HETATM    5  C5  UNL     1     -34.816  15.643  -2.879  1.00 20.00    -0.029 A 
HETATM    6  C6  UNL     1     -34.605  16.245  -1.512  1.00 20.00     0.016 C 
HETATM    7  C7  UNL     1     -36.268  15.572  -3.279  1.00 20.00     0.016 C 
HETATM    8  N8  UNL     1     -34.160  14.384  -5.609  1.00 20.00    -0.360 N 
HETATM    9  O9  UNL     1     -34.001  16.658  -6.179  1.00 20.00    -0.273 OA
HETATM   10  H20 UNL     1     -34.330  13.998  -6.532  1.00 20.00     0.162 HD
ENDROOT
TORSDOF 0
ENDMDL
MODEL 7
REMARK VINA RESULT:      -4.1      2.112      2.837
REMARK  0 active torsions:
REMARK  status: ('A' for Active; 'I' for Inactive)
ROOT
HETATM    1  C1  UNL     1     -33.219  16.102  -4.365  1.00 20.00     0.223 A 
HETATM    2  C2  UNL     1     -32.906  13.907  -3.513  1.00 20.00     0.128 A 
HETATM    3  C3  UNL     1     -34.533  15.679  -3.818  1.00 20.00     0.092 A 
HETATM    4  C4  UNL     1     -34.342  14.274  -3.291  1.00 20.00     0.026 A 
HETATM    5  C5  UNL     1     -35.342  14.541  -4.404  1.00 20.00    -0.029 A 
HETATM    6  C6  UNL     1     -36.804  14.479  -4.036  1.00 20.00     0.016 C 
HETATM    7  C7  UNL     1     -35.062  14.062  -5.806  1.00 20.00     0.016 C 
HETATM    8  N8  UNL     1     -32.322  15.072  -4.146  1.00 20.00    -0.360 N 
HETATM    9  O9  UNL     1     -33.027  17.185  -4.894  1.00 20.00    -0.273 OA
HETATM   10  H20 UNL     1     -31.348  15.118  -4.427  1.00 20.00     0.162 HD
ENDROOT
TORSDOF 0
ENDMDL
MODEL 8
REMARK VINA RESULT:      -4.0      1.782      2.198
REMARK  0 active torsions:
REMARK  status: ('A' for Active; 'I' for Inactive)
ROOT
HETATM    1  C1  UNL     1     -34.360  13.783  -4.949  1.00 20.00     0.223 A 
HETATM    2  C2  UNL     1     -33.277  15.897  -4.932  1.00 20.00     0.128 A 
HETATM    3  C3  UNL     1     -34.793  14.480  -6.186  1.00 20.00     0.092 A 
HETATM    4  C4  UNL     1     -34.120  15.834  -6.170  1.00 20.00     0.026 A 
HETATM    5  C5  UNL     1     -35.636  15.739  -6.172  1.00 20.00    -0.029 A 
HETATM    6  C6  UNL     1     -36.340  16.105  -7.455  1.00 20.00     0.016 C 
HETATM    7  C7  UNL     1     -36.421  16.105  -4.938  1.00 20.00     0.016 C 
HETATM    8  N8  UNL     1     -33.481  14.619  -4.283  1.00 20.00    -0.360 N 
HETATM    9  O9  UNL     1     -34.742  12.668  -4.636  1.00 20.00    -0.273 OA
HETATM   10  H20 UNL     1     -33.038  14.368  -3.405  1.00 20.00     0.162 HD
ENDROOT
TORSDOF 0
ENDMDL
MODEL 9
REMARK VINA RESULT:      -4.0      2.381      3.337
REMARK  0 active torsions:
REMARK  status: ('A' for Active; 'I' for Inactive)
ROOT
HETATM    1  C1  UNL     1     -33.821  16.984  -4.060  1.00 20.00     0.223 A 
HETATM    2  C2  UNL     1     -34.410  16.288  -1.866  1.00 20.00     0.128 A 
HETATM    3  C3  UNL     1     -34.718  15.812  -4.224  1.00 20.00     0.092 A 
HETATM    4  C4  UNL     1     -35.080  15.355  -2.828  1.00 20.00     0.026 A 
HETATM    5  C5  UNL     1     -34.343  14.417  -3.769  1.00 20.00    -0.029 A 
HETATM    6  C6  UNL     1     -35.136  13.272  -4.349  1.00 20.00     0.016 C 
HETATM    7  C7  UNL     1     -32.898  14.070  -3.516  1.00 20.00     0.016 C 
HETATM    8  N8  UNL     1     -33.696  17.230  -2.703  1.00 20.00    -0.360 N 
HETATM    9  O9  UNL     1     -33.321  17.585  -4.996  1.00 20.00    -0.273 OA
HETATM   10  H20 UNL     1     -33.135  17.988  -2.329  1.00 20.00     0.162 HD
ENDROOT
TORSDOF 0
ENDMDL
