MODEL 1
REMARK VINA RESULT:      -4.3      0.000      0.000
REMARK  2 active torsions:
REMARK  status: ('A' for Active; 'I' for Inactive)
REMARK    1  A    between atoms: C2_2  and  C3_3 
REMARK    2  A    between atoms: C4_4  and  C5_5 
ROOT
HETATM    1  C1  UNL     1     -32.521   8.953   0.704  1.00 20.00     0.087 C 
HETATM    2  C2  UNL     1     -32.344   8.654   2.081  1.00 20.00     0.093 C 
HETATM    3  N8  UNL     1     -32.667   9.199  -0.420  1.00 20.00    -0.192 NA
ENDROOT
BRANCH   2   4
HETATM    4  C3  UNL     1     -31.794   7.500   2.483  1.00 20.00     0.012 C 
HETATM    5  C4  UNL     1     -32.321   6.714   3.576  1.00 20.00     0.017 C 
BRANCH   5   6
HETATM    6  C5  UNL     1     -33.631   6.534   3.784  1.00 20.00     0.084 C 
HETATM    7  N9  UNL     1     -34.221   5.877   4.816  1.00 20.00    -0.398 N 
HETATM    8  C6  UNL     1     -34.032   6.299   6.201  1.00 20.00     0.148 C 
HETATM    9  C7  UNL     1     -35.266   4.880   4.593  1.00 20.00     0.148 C 
ENDBRANCH   5   6
ENDBRANCH   2   4
TORSDOF 2
ENDMDL
MODEL 2
REMARK VINA RESULT:      -4.1     10.110     11.278
REMARK  2 active torsions:
REMARK  status: ('A' for Active; 'I' for Inactive)
REMARK    1  A    between atoms: C2_2  and  C3_3 
REMARK    2  A    between atoms: C4_4  and  C5_5 
ROOT
HETATM    1  C1  UNL     1     -32.350  18.869  -0.234  1.00 20.00     0.087 C 
HETATM    2  C2  UNL     1     -33.526  18.393  -0.873  1.00 20.00     0.093 C 
HETATM    3  N8  UNL     1     -31.389  19.260   0.285  1.00 20.00    -0.192 NA
ENDROOT
BRANCH   2   4
HETATM    4  C3  UNL     1     -34.156  17.289  -0.447  1.00 20.00     0.012 C 
HETATM    5  C4  UNL     1     -34.777  16.340  -1.345  1.00 20.00     0.017 C 
BRANCH   5   6
HETATM    6  C5  UNL     1     -34.231  15.969  -2.510  1.00 20.00     0.084 C 
HETATM    7  N9  UNL     1     -34.538  14.875  -3.254  1.00 20.00    -0.398 N 
HETATM    8  C6  UNL     1     -35.882  14.660  -3.784  1.00 20.00     0.148 C 
HETATM    9  C7  UNL     1     -33.502  13.986  -3.774  1.00 20.00     0.148 C 
ENDBRANCH   5   6
ENDBRANCH   2   4
TORSDOF 2
ENDMDL
MODEL 3
REMARK VINA RESULT:      -4.0     10.096     10.814
REMARK  2 active torsions:
REMARK  status: ('A' for Active; 'I' for Inactive)
REMARK    1  A    between atoms: C2_2  and  C3_3 
REMARK    2  A    between atoms: C4_4  and  C5_5 
ROOT
HETATM    1  C1  UNL     1     -34.890  13.776  -3.990  1.00 20.00     0.087 C 
HETATM    2  C2  UNL     1     -35.001  14.967  -3.224  1.00 20.00     0.093 C 
HETATM    3  N8  UNL     1     -34.802  12.803  -4.616  1.00 20.00    -0.192 NA
ENDROOT
BRANCH   2   4
HETATM    4  C3  UNL     1     -33.917  15.641  -2.815  1.00 20.00     0.012 C 
HETATM    5  C4  UNL     1     -33.969  16.686  -1.817  1.00 20.00     0.017 C 
BRANCH   5   6
HETATM    6  C5  UNL     1     -34.734  16.614  -0.721  1.00 20.00     0.084 C 
HETATM    7  N9  UNL     1     -35.207  17.646   0.025  1.00 20.00    -0.398 N 
HETATM    8  C6  UNL     1     -36.074  18.672  -0.547  1.00 20.00     0.148 C 
HETATM    9  C7  UNL     1     -35.085  17.658   1.481  1.00 20.00     0.148 C 
ENDBRANCH   5   6
ENDBRANCH   2   4
TORSDOF 2
ENDMDL
MODEL 4
REMARK VINA RESULT:      -3.9     10.125     11.167
REMARK  2 active torsions:
REMARK  status: ('A' for Active; 'I' for Inactive)
REMARK    1  A    between atoms: C2_2  and  C3_3 
REMARK    2  A    between atoms: C4_4  and  C5_5 
ROOT
HETATM    1  C1  UNL     1     -36.337  14.054  -4.143  1.00 20.00     0.087 C 
HETATM    2  C2  UNL     1     -35.024  13.749  -4.591  1.00 20.00     0.093 C 
HETATM    3  N8  UNL     1     -37.411  14.304  -3.781  1.00 20.00    -0.192 NA
ENDROOT
BRANCH   2   4
HETATM    4  C3  UNL     1     -33.983  13.733  -3.747  1.00 20.00     0.012 C 
HETATM    5  C4  UNL     1     -33.037  14.822  -3.642  1.00 20.00     0.017 C 
BRANCH   5   6
HETATM    6  C5  UNL     1     -33.396  16.111  -3.683  1.00 20.00     0.084 C 
HETATM    7  N9  UNL     1     -34.287  16.746  -2.879  1.00 20.00    -0.398 N 
HETATM    8  C6  UNL     1     -34.100  16.816  -1.432  1.00 20.00     0.148 C 
HETATM    9  C7  UNL     1     -35.339  17.601  -3.425  1.00 20.00     0.148 C 
ENDBRANCH   5   6
ENDBRANCH   2   4
TORSDOF 2
ENDMDL
MODEL 5
REMARK VINA RESULT:      -3.8      9.955     12.325
REMARK  2 active torsions:
REMARK  status: ('A' for Active; 'I' for Inactive)
REMARK    1  A    between atoms: C2_2  and  C3_3 
REMARK    2  A    between atoms: C4_4  and  C5_5 
ROOT
HETATM    1  C1  UNL     1     -34.186  13.523  -4.078  1.00 20.00     0.087 C 
HETATM    2  C2  UNL     1     -33.264  14.502  -3.619  1.00 20.00     0.093 C 
HETATM    3  N8  UNL     1     -34.936  12.721  -4.453  1.00 20.00    -0.192 NA
ENDROOT
BRANCH   2   4
HETATM    4  C3  UNL     1     -33.655  15.752  -3.333  1.00 20.00     0.012 C 
HETATM    5  C4  UNL     1     -33.435  16.869  -4.223  1.00 20.00     0.017 C 
BRANCH   5   6
HETATM    6  C5  UNL     1     -33.575  16.786  -5.552  1.00 20.00     0.084 C 
HETATM    7  N9  UNL     1     -34.667  16.368  -6.243  1.00 20.00    -0.398 N 
HETATM    8  C6  UNL     1     -35.956  17.044  -6.122  1.00 20.00     0.148 C 
HETATM    9  C7  UNL     1     -34.563  15.390  -7.323  1.00 20.00     0.148 C 
ENDBRANCH   5   6
ENDBRANCH   2   4
TORSDOF 2
ENDMDL
MODEL 6
REMARK VINA RESULT:      -3.8     10.290     11.403
REMARK  2 active torsions:
REMARK  status: ('A' for Active; 'I' for Inactive)
REMARK    1  A    between atoms: C2_2  and  C3_3 
REMARK    2  A    between atoms: C4_4  and  C5_5 
ROOT
HETATM    1  C1  UNL     1     -34.817  16.953  -0.310  1.00 20.00     0.087 C 
HETATM    2  C2  UNL     1     -34.667  16.298  -1.562  1.00 20.00     0.093 C 
HETATM    3  N8  UNL     1     -34.941  17.486   0.713  1.00 20.00    -0.192 NA
ENDROOT
BRANCH   2   4
HETATM    4  C3  UNL     1     -33.615  16.539  -2.357  1.00 20.00     0.012 C 
HETATM    5  C4  UNL     1     -33.430  15.890  -3.636  1.00 20.00     0.017 C 
BRANCH   5   6
HETATM    6  C5  UNL     1     -34.432  15.658  -4.492  1.00 20.00     0.084 C 
HETATM    7  N9  UNL     1     -34.737  14.488  -5.110  1.00 20.00    -0.398 N 
HETATM    8  C6  UNL     1     -35.071  13.285  -4.351  1.00 20.00     0.148 C 
HETATM    9  C7  UNL     1     -34.993  14.423  -6.547  1.00 20.00     0.148 C 
ENDBRANCH   5   6
ENDBRANCH   2   4
TORSDOF 2
ENDMDL
MODEL 7
REMARK VINA RESULT:      -3.7     10.110     11.265
REMARK  2 active torsions:
REMARK  status: ('A' for Active; 'I' for Inactive)
REMARK    1  A    between atoms: C2_2  and  C3_3 
REMARK    2  A    between atoms: C4_4  and  C5_5 
ROOT
HETATM    1  C1  UNL     1     -34.134  16.442  -1.892  1.00 20.00     0.087 C 
HETATM    2  C2  UNL     1     -33.729  16.232  -3.237  1.00 20.00     0.093 C 
HETATM    3  N8  UNL     1     -34.465  16.617  -0.793  1.00 20.00    -0.192 NA
ENDROOT
BRANCH   2   4
HETATM    4  C3  UNL     1     -33.184  15.073  -3.632  1.00 20.00     0.012 C 
HETATM    5  C4  UNL     1     -33.934  13.840  -3.721  1.00 20.00     0.017 C 
BRANCH   5   6
HETATM    6  C5  UNL     1     -35.189  13.777  -4.182  1.00 20.00     0.084 C 
HETATM    7  N9  UNL     1     -35.711  14.437  -5.248  1.00 20.00    -0.398 N 
HETATM    8  C6  UNL     1     -35.178  14.258  -6.596  1.00 20.00     0.148 C 
HETATM    9  C7  UNL     1     -36.977  15.161  -5.158  1.00 20.00     0.148 C 
ENDBRANCH   5   6
ENDBRANCH   2   4
TORSDOF 2
ENDMDL
MODEL 8
REMARK VINA RESULT:      -3.7     10.463     11.838
REMARK  2 active torsions:
REMARK  status: ('A' for Active; 'I' for Inactive)
REMARK    1  A    between atoms: C2_2  and  C3_3 
REMARK    2  A    between atoms: C4_4  and  C5_5 
ROOT
HETATM    1  C1  UNL     1     -34.936  13.917  -5.736  1.00 20.00     0.087 C 
HETATM    2  C2  UNL     1     -34.667  13.464  -4.417  1.00 20.00     0.093 C 
HETATM    3  N8  UNL     1     -35.159  14.287  -6.813  1.00 20.00    -0.192 NA
ENDROOT
BRANCH   2   4
HETATM    4  C3  UNL     1     -33.491  13.704  -3.820  1.00 20.00     0.012 C 
HETATM    5  C4  UNL     1     -32.973  15.037  -3.607  1.00 20.00     0.017 C 
BRANCH   5   6
HETATM    6  C5  UNL     1     -33.739  16.069  -3.232  1.00 20.00     0.084 C 
HETATM    7  N9  UNL     1     -33.682  17.347  -3.687  1.00 20.00    -0.398 N 
HETATM    8  C6  UNL     1     -33.889  17.670  -5.097  1.00 20.00     0.148 C 
HETATM    9  C7  UNL     1     -33.661  18.487  -2.772  1.00 20.00     0.148 C 
ENDBRANCH   5   6
ENDBRANCH   2   4
TORSDOF 2
ENDMDL
MODEL 9
REMARK VINA RESULT:      -3.6     10.760     12.353
REMARK  2 active torsions:
REMARK  status: ('A' for Active; 'I' for Inactive)
REMARK    1  A    between atoms: C2_2  and  C3_3 
REMARK    2  A    between atoms: C4_4  and  C5_5 
ROOT
HETATM    1  C1  UNL     1     -34.929  13.494  -5.308  1.00 20.00     0.087 C 
HETATM    2  C2  UNL     1     -35.052  14.337  -6.445  1.00 20.00     0.093 C 
HETATM    3  N8  UNL     1     -34.831  12.804  -4.381  1.00 20.00    -0.192 NA
ENDROOT
BRANCH   2   4
HETATM    4  C3  UNL     1     -34.218  15.367  -6.647  1.00 20.00     0.012 C 
HETATM    5  C4  UNL     1     -34.588  16.741  -6.393  1.00 20.00     0.017 C 
BRANCH   5   6
HETATM    6  C5  UNL     1     -35.316  17.121  -5.335  1.00 20.00     0.084 C 
HETATM    7  N9  UNL     1     -35.024  16.933  -4.022  1.00 20.00    -0.398 N 
HETATM    8  C6  UNL     1     -33.811  17.482  -3.420  1.00 20.00     0.148 C 
HETATM    9  C7  UNL     1     -36.009  16.396  -3.086  1.00 20.00     0.148 C 
ENDBRANCH   5   6
ENDBRANCH   2   4
TORSDOF 2
ENDMDL
