MODEL 1
REMARK VINA RESULT:      -4.5      0.000      0.000
REMARK  2 active torsions:
REMARK  status: ('A' for Active; 'I' for Inactive)
REMARK    1  A    between atoms: C5_5  and  C7_7 
REMARK    2  A    between atoms: C5_5  and  O11_11 
ROOT
HETATM    1  C1  UNL     1     -35.968  15.913  -2.947  1.00 20.00     0.003 A 
HETATM    2  C2  UNL     1     -35.788  15.302  -4.121  1.00 20.00    -0.007 A 
HETATM    3  C3  UNL     1     -34.735  15.985  -2.210  1.00 20.00    -0.066 A 
HETATM    4  C4  UNL     1     -34.566  16.587  -1.030  1.00 20.00     0.019 C 
HETATM    5  C6  UNL     1     -33.673  15.264  -2.999  1.00 20.00     0.061 A 
HETATM    6  C7  UNL     1     -34.358  14.895  -4.334  1.00 20.00     0.066 A 
HETATM    7  C8  UNL     1     -34.213  13.415  -4.673  1.00 20.00     0.031 C 
ENDROOT
BRANCH   6   8
HETATM    8  C5  UNL     1     -33.839  15.739  -5.466  1.00 20.00     0.271 C 
HETATM    9  O10 UNL     1     -34.097  15.539  -6.644  1.00 20.00    -0.264 OA
BRANCH   8  10
HETATM   10  O11 UNL     1     -33.052  16.736  -4.967  1.00 20.00    -0.326 OA
HETATM   11  C9  UNL     1     -33.484  18.067  -5.265  1.00 20.00     0.213 C 
ENDBRANCH   8  10
ENDBRANCH   6   8
TORSDOF 2
ENDMDL
MODEL 2
REMARK VINA RESULT:      -4.5      1.860      3.737
REMARK  2 active torsions:
REMARK  status: ('A' for Active; 'I' for Inactive)
REMARK    1  A    between atoms: C5_5  and  C7_7 
REMARK    2  A    between atoms: C5_5  and  O11_11 
ROOT
HETATM    1  C1  UNL     1     -33.883  16.232  -6.172  1.00 20.00     0.003 A 
HETATM    2  C2  UNL     1     -33.383  16.324  -4.938  1.00 20.00    -0.007 A 
HETATM    3  C3  UNL     1     -34.558  14.977  -6.362  1.00 20.00    -0.066 A 
HETATM    4  C4  UNL     1     -35.217  14.604  -7.462  1.00 20.00     0.019 C 
HETATM    5  C6  UNL     1     -34.392  14.159  -5.106  1.00 20.00     0.061 A 
HETATM    6  C7  UNL     1     -33.689  15.109  -4.110  1.00 20.00     0.066 A 
HETATM    7  C8  UNL     1     -32.440  14.487  -3.495  1.00 20.00     0.031 C 
ENDROOT
BRANCH   6   8
HETATM    8  C5  UNL     1     -34.632  15.559  -3.027  1.00 20.00     0.271 C 
HETATM    9  O10 UNL     1     -35.824  15.287  -3.001  1.00 20.00    -0.264 OA
BRANCH   8  10
HETATM   10  O11 UNL     1     -33.950  16.300  -2.107  1.00 20.00    -0.326 OA
HETATM   11  C9  UNL     1     -34.653  16.572  -0.892  1.00 20.00     0.213 C 
ENDBRANCH   8  10
ENDBRANCH   6   8
TORSDOF 2
ENDMDL
MODEL 3
REMARK VINA RESULT:      -4.4      0.866      1.523
REMARK  2 active torsions:
REMARK  status: ('A' for Active; 'I' for Inactive)
REMARK    1  A    between atoms: C5_5  and  C7_7 
REMARK    2  A    between atoms: C5_5  and  O11_11 
ROOT
HETATM    1  C1  UNL     1     -35.927  15.903  -2.515  1.00 20.00     0.003 A 
HETATM    2  C2  UNL     1     -35.683  15.225  -3.639  1.00 20.00    -0.007 A 
HETATM    3  C3  UNL     1     -34.703  16.246  -1.844  1.00 20.00    -0.066 A 
HETATM    4  C4  UNL     1     -34.602  16.974  -0.729  1.00 20.00     0.019 C 
HETATM    5  C6  UNL     1     -33.558  15.639  -2.615  1.00 20.00     0.061 A 
HETATM    6  C7  UNL     1     -34.212  15.040  -3.881  1.00 20.00     0.066 A 
HETATM    7  C8  UNL     1     -33.831  13.580  -4.097  1.00 20.00     0.031 C 
ENDROOT
BRANCH   6   8
HETATM    8  C5  UNL     1     -33.876  15.850  -5.103  1.00 20.00     0.271 C 
HETATM    9  O10 UNL     1     -32.877  16.548  -5.210  1.00 20.00    -0.264 OA
BRANCH   8  10
HETATM   10  O11 UNL     1     -34.849  15.680  -6.044  1.00 20.00    -0.326 OA
HETATM   11  C9  UNL     1     -34.403  15.178  -7.307  1.00 20.00     0.213 C 
ENDBRANCH   8  10
ENDBRANCH   6   8
TORSDOF 2
ENDMDL
MODEL 4
REMARK VINA RESULT:      -4.3      2.090      3.953
REMARK  2 active torsions:
REMARK  status: ('A' for Active; 'I' for Inactive)
REMARK    1  A    between atoms: C5_5  and  C7_7 
REMARK    2  A    between atoms: C5_5  and  O11_11 
ROOT
HETATM    1  C1  UNL     1     -34.037  15.892  -6.271  1.00 20.00     0.003 A 
HETATM    2  C2  UNL     1     -33.652  15.836  -4.994  1.00 20.00    -0.007 A 
HETATM    3  C3  UNL     1     -34.820  14.738  -6.624  1.00 20.00    -0.066 A 
HETATM    4  C4  UNL     1     -35.403  14.523  -7.805  1.00 20.00     0.019 C 
HETATM    5  C6  UNL     1     -34.864  13.817  -5.431  1.00 20.00     0.061 A 
HETATM    6  C7  UNL     1     -34.165  14.606  -4.301  1.00 20.00     0.066 A 
HETATM    7  C8  UNL     1     -33.055  13.803  -3.631  1.00 20.00     0.031 C 
ENDROOT
BRANCH   6   8
HETATM    8  C5  UNL     1     -35.156  15.079  -3.272  1.00 20.00     0.271 C 
HETATM    9  O10 UNL     1     -34.856  15.727  -2.279  1.00 20.00    -0.264 OA
BRANCH   8  10
HETATM   10  O11 UNL     1     -36.409  14.673  -3.626  1.00 20.00    -0.326 OA
HETATM   11  C9  UNL     1     -37.401  15.704  -3.670  1.00 20.00     0.213 C 
ENDBRANCH   8  10
ENDBRANCH   6   8
TORSDOF 2
ENDMDL
MODEL 5
REMARK VINA RESULT:      -4.3      1.698      2.683
REMARK  2 active torsions:
REMARK  status: ('A' for Active; 'I' for Inactive)
REMARK    1  A    between atoms: C5_5  and  C7_7 
REMARK    2  A    between atoms: C5_5  and  O11_11 
ROOT
HETATM    1  C1  UNL     1     -34.710  16.520  -3.024  1.00 20.00     0.003 A 
HETATM    2  C2  UNL     1     -34.594  15.194  -2.921  1.00 20.00    -0.007 A 
HETATM    3  C3  UNL     1     -33.882  17.029  -4.083  1.00 20.00    -0.066 A 
HETATM    4  C4  UNL     1     -33.818  18.303  -4.480  1.00 20.00     0.019 C 
HETATM    5  C6  UNL     1     -33.099  15.878  -4.663  1.00 20.00     0.061 A 
HETATM    6  C7  UNL     1     -33.657  14.627  -3.949  1.00 20.00     0.066 A 
HETATM    7  C8  UNL     1     -32.557  13.770  -3.332  1.00 20.00     0.031 C 
ENDROOT
BRANCH   6   8
HETATM    8  C5  UNL     1     -34.499  13.798  -4.881  1.00 20.00     0.271 C 
HETATM    9  O10 UNL     1     -35.007  12.727  -4.576  1.00 20.00    -0.264 OA
BRANCH   8  10
HETATM   10  O11 UNL     1     -34.596  14.425  -6.088  1.00 20.00    -0.326 OA
HETATM   11  C9  UNL     1     -35.921  14.782  -6.491  1.00 20.00     0.213 C 
ENDBRANCH   8  10
ENDBRANCH   6   8
TORSDOF 2
ENDMDL
MODEL 6
REMARK VINA RESULT:      -4.3      2.175      3.338
REMARK  2 active torsions:
REMARK  status: ('A' for Active; 'I' for Inactive)
REMARK    1  A    between atoms: C5_5  and  C7_7 
REMARK    2  A    between atoms: C5_5  and  O11_11 
ROOT
HETATM    1  C1  UNL     1     -33.689  15.614  -2.720  1.00 20.00     0.003 A 
HETATM    2  C2  UNL     1     -34.197  15.203  -3.885  1.00 20.00    -0.007 A 
HETATM    3  C3  UNL     1     -34.683  16.297  -1.937  1.00 20.00    -0.066 A 
HETATM    4  C4  UNL     1     -34.511  16.774  -0.702  1.00 20.00     0.019 C 
HETATM    5  C6  UNL     1     -35.948  16.382  -2.753  1.00 20.00     0.061 A 
HETATM    6  C7  UNL     1     -35.651  15.553  -4.023  1.00 20.00     0.066 A 
HETATM    7  C8  UNL     1     -35.950  16.325  -5.305  1.00 20.00     0.031 C 
ENDROOT
BRANCH   6   8
HETATM    8  C5  UNL     1     -36.405  14.251  -4.014  1.00 20.00     0.271 C 
HETATM    9  O10 UNL     1     -35.960  13.199  -4.450  1.00 20.00    -0.264 OA
BRANCH   8  10
HETATM   10  O11 UNL     1     -37.634  14.440  -3.454  1.00 20.00    -0.326 OA
HETATM   11  C9  UNL     1     -38.720  14.555  -4.377  1.00 20.00     0.213 C 
ENDBRANCH   8  10
ENDBRANCH   6   8
TORSDOF 2
ENDMDL
MODEL 7
REMARK VINA RESULT:      -4.2      1.721      3.742
REMARK  2 active torsions:
REMARK  status: ('A' for Active; 'I' for Inactive)
REMARK    1  A    between atoms: C5_5  and  C7_7 
REMARK    2  A    between atoms: C5_5  and  O11_11 
ROOT
HETATM    1  C1  UNL     1     -34.796  13.451  -5.374  1.00 20.00     0.003 A 
HETATM    2  C2  UNL     1     -35.137  13.660  -4.099  1.00 20.00    -0.007 A 
HETATM    3  C3  UNL     1     -34.823  14.679  -6.121  1.00 20.00    -0.066 A 
HETATM    4  C4  UNL     1     -34.474  14.820  -7.402  1.00 20.00     0.019 C 
HETATM    5  C6  UNL     1     -35.312  15.775  -5.208  1.00 20.00     0.061 A 
HETATM    6  C7  UNL     1     -35.424  15.107  -3.819  1.00 20.00     0.066 A 
HETATM    7  C8  UNL     1     -36.791  15.322  -3.179  1.00 20.00     0.031 C 
ENDROOT
BRANCH   6   8
HETATM    8  C5  UNL     1     -34.337  15.585  -2.895  1.00 20.00     0.271 C 
HETATM    9  O10 UNL     1     -33.170  15.734  -3.229  1.00 20.00    -0.264 OA
BRANCH   8  10
HETATM   10  O11 UNL     1     -34.861  15.815  -1.656  1.00 20.00    -0.326 OA
HETATM   11  C9  UNL     1     -34.306  16.930  -0.952  1.00 20.00     0.213 C 
ENDBRANCH   8  10
ENDBRANCH   6   8
TORSDOF 2
ENDMDL
MODEL 8
REMARK VINA RESULT:      -4.2      1.436      2.782
REMARK  2 active torsions:
REMARK  status: ('A' for Active; 'I' for Inactive)
REMARK    1  A    between atoms: C5_5  and  C7_7 
REMARK    2  A    between atoms: C5_5  and  O11_11 
ROOT
HETATM    1  C1  UNL     1     -33.735  17.839  -2.179  1.00 20.00     0.003 A 
HETATM    2  C2  UNL     1     -33.724  17.490  -3.468  1.00 20.00    -0.007 A 
HETATM    3  C3  UNL     1     -34.583  16.963  -1.417  1.00 20.00    -0.066 A 
HETATM    4  C4  UNL     1     -34.760  17.005  -0.094  1.00 20.00     0.019 C 
HETATM    5  C6  UNL     1     -35.235  15.993  -2.369  1.00 20.00     0.061 A 
HETATM    6  C7  UNL     1     -34.576  16.283  -3.736  1.00 20.00     0.066 A 
HETATM    7  C8  UNL     1     -35.602  16.520  -4.838  1.00 20.00     0.031 C 
ENDROOT
BRANCH   6   8
HETATM    8  C5  UNL     1     -33.634  15.178  -4.133  1.00 20.00     0.271 C 
HETATM    9  O10 UNL     1     -32.552  14.975  -3.599  1.00 20.00    -0.264 OA
BRANCH   8  10
HETATM   10  O11 UNL     1     -34.177  14.463  -5.160  1.00 20.00    -0.326 OA
HETATM   11  C9  UNL     1     -34.579  13.129  -4.836  1.00 20.00     0.213 C 
ENDBRANCH   8  10
ENDBRANCH   6   8
TORSDOF 2
ENDMDL
MODEL 9
REMARK VINA RESULT:      -4.2      1.784      3.363
REMARK  2 active torsions:
REMARK  status: ('A' for Active; 'I' for Inactive)
REMARK    1  A    between atoms: C5_5  and  C7_7 
REMARK    2  A    between atoms: C5_5  and  O11_11 
ROOT
HETATM    1  C1  UNL     1     -33.343  14.739  -3.698  1.00 20.00     0.003 A 
HETATM    2  C2  UNL     1     -33.256  15.873  -2.998  1.00 20.00    -0.007 A 
HETATM    3  C3  UNL     1     -34.701  14.271  -3.753  1.00 20.00    -0.066 A 
HETATM    4  C4  UNL     1     -35.131  13.200  -4.425  1.00 20.00     0.019 C 
HETATM    5  C6  UNL     1     -35.552  15.196  -2.920  1.00 20.00     0.061 A 
HETATM    6  C7  UNL     1     -34.596  16.334  -2.497  1.00 20.00     0.066 A 
HETATM    7  C8  UNL     1     -34.608  16.576  -0.992  1.00 20.00     0.031 C 
ENDROOT
BRANCH   6   8
HETATM    8  C5  UNL     1     -34.908  17.610  -3.231  1.00 20.00     0.271 C 
HETATM    9  O10 UNL     1     -34.370  18.683  -2.997  1.00 20.00    -0.264 OA
BRANCH   8  10
HETATM   10  O11 UNL     1     -35.866  17.372  -4.172  1.00 20.00    -0.326 OA
HETATM   11  C9  UNL     1     -35.528  17.762  -5.506  1.00 20.00     0.213 C 
ENDBRANCH   8  10
ENDBRANCH   6   8
TORSDOF 2
ENDMDL
