MODEL 1
REMARK VINA RESULT:      -5.4      0.000      0.000
REMARK  1 active torsions:
REMARK  status: ('A' for Active; 'I' for Inactive)
REMARK    1  A    between atoms: C2_2  and  C9_9 
ROOT
HETATM    1  C1  UNL     1     -34.527  13.705  -4.374  1.00 20.00     0.144 C 
HETATM    2  C3  UNL     1     -33.186  13.883  -3.694  1.00 20.00     0.084 C 
HETATM    3  C4  UNL     1     -35.227  15.784  -2.477  1.00 20.00     0.002 C 
HETATM    4  C5  UNL     1     -33.732  16.120  -2.573  1.00 20.00     0.005 C 
HETATM    5  C6  UNL     1     -35.921  15.700  -3.845  1.00 20.00     0.027 C 
HETATM    6  C7  UNL     1     -33.721  15.785  -5.049  1.00 20.00     0.031 C 
HETATM    7  C8  UNL     1     -33.020  15.412  -3.742  1.00 20.00    -0.006 C 
HETATM    8  C9  UNL     1     -35.046  15.028  -4.913  1.00 20.00     0.097 C 
HETATM    9  O10 UNL     1     -35.113  12.635  -4.462  1.00 20.00    -0.297 OA
ENDROOT
BRANCH   8  10
HETATM   10  C2  UNL     1     -35.743  14.935  -6.232  1.00 20.00     0.234 C 
HETATM   11  O11 UNL     1     -36.966  14.995  -6.320  1.00 20.00    -0.279 OA
HETATM   12 CL12 UNL     1     -34.629  14.739  -7.550  1.00 20.00    -0.043 Cl
ENDBRANCH   8  10
TORSDOF 1
ENDMDL
MODEL 2
REMARK VINA RESULT:      -5.1      1.352      2.210
REMARK  1 active torsions:
REMARK  status: ('A' for Active; 'I' for Inactive)
REMARK    1  A    between atoms: C2_2  and  C9_9 
ROOT
HETATM    1  C1  UNL     1     -35.709  15.135  -3.320  1.00 20.00     0.144 C 
HETATM    2  C3  UNL     1     -35.028  15.781  -2.132  1.00 20.00     0.084 C 
HETATM    3  C4  UNL     1     -34.801  17.590  -4.569  1.00 20.00     0.002 C 
HETATM    4  C5  UNL     1     -33.730  17.536  -3.472  1.00 20.00     0.005 C 
HETATM    5  C6  UNL     1     -34.909  16.288  -5.377  1.00 20.00     0.027 C 
HETATM    6  C7  UNL     1     -33.422  15.073  -3.763  1.00 20.00     0.031 C 
HETATM    7  C8  UNL     1     -33.672  16.181  -2.738  1.00 20.00    -0.006 C 
HETATM    8  C9  UNL     1     -34.762  15.033  -4.504  1.00 20.00     0.097 C 
HETATM    9  O10 UNL     1     -36.873  14.758  -3.320  1.00 20.00    -0.297 OA
ENDROOT
BRANCH   8  10
HETATM   10  C2  UNL     1     -34.891  13.776  -5.302  1.00 20.00     0.234 C 
HETATM   11  O11 UNL     1     -34.737  12.670  -4.792  1.00 20.00    -0.279 OA
HETATM   12 CL12 UNL     1     -35.269  14.094  -6.967  1.00 20.00    -0.043 Cl
ENDBRANCH   8  10
TORSDOF 1
ENDMDL
MODEL 3
REMARK VINA RESULT:      -5.1      2.820      3.720
REMARK  1 active torsions:
REMARK  status: ('A' for Active; 'I' for Inactive)
REMARK    1  A    between atoms: C2_2  and  C9_9 
ROOT
HETATM    1  C1  UNL     1     -33.265  14.647  -3.782  1.00 20.00     0.144 C 
HETATM    2  C3  UNL     1     -33.944  13.341  -4.141  1.00 20.00     0.084 C 
HETATM    3  C4  UNL     1     -34.308  15.353  -6.394  1.00 20.00     0.002 C 
HETATM    4  C5  UNL     1     -35.348  14.273  -6.068  1.00 20.00     0.005 C 
HETATM    5  C6  UNL     1     -34.164  16.412  -5.291  1.00 20.00     0.027 C 
HETATM    6  C7  UNL     1     -35.558  15.057  -3.705  1.00 20.00     0.031 C 
HETATM    7  C8  UNL     1     -35.330  13.832  -4.591  1.00 20.00    -0.006 C 
HETATM    8  C9  UNL     1     -34.237  15.812  -3.879  1.00 20.00     0.097 C 
HETATM    9  O10 UNL     1     -32.087  14.742  -3.468  1.00 20.00    -0.297 OA
ENDROOT
BRANCH   8  10
HETATM   10  C2  UNL     1     -34.074  16.852  -2.818  1.00 20.00     0.234 C 
HETATM   11  O11 UNL     1     -33.603  17.957  -3.066  1.00 20.00    -0.279 OA
HETATM   12 CL12 UNL     1     -34.619  16.294  -1.266  1.00 20.00    -0.043 Cl
ENDBRANCH   8  10
TORSDOF 1
ENDMDL
MODEL 4
REMARK VINA RESULT:      -5.1      2.120      3.031
REMARK  1 active torsions:
REMARK  status: ('A' for Active; 'I' for Inactive)
REMARK    1  A    between atoms: C2_2  and  C9_9 
ROOT
HETATM    1  C1  UNL     1     -35.218  15.881  -4.973  1.00 20.00     0.144 C 
HETATM    2  C3  UNL     1     -33.822  16.360  -4.629  1.00 20.00     0.084 C 
HETATM    3  C4  UNL     1     -33.940  13.322  -4.498  1.00 20.00     0.002 C 
HETATM    4  C5  UNL     1     -33.013  14.157  -3.604  1.00 20.00     0.005 C 
HETATM    5  C6  UNL     1     -35.431  13.528  -4.189  1.00 20.00     0.027 C 
HETATM    6  C7  UNL     1     -34.929  15.480  -2.695  1.00 20.00     0.031 C 
HETATM    7  C8  UNL     1     -33.542  15.580  -3.334  1.00 20.00    -0.006 C 
HETATM    8  C9  UNL     1     -35.775  14.991  -3.874  1.00 20.00     0.097 C 
HETATM    9  O10 UNL     1     -35.806  16.171  -6.006  1.00 20.00    -0.297 OA
ENDROOT
BRANCH   8  10
HETATM   10  C2  UNL     1     -37.232  15.178  -3.597  1.00 20.00     0.234 C 
HETATM   11  O11 UNL     1     -38.031  14.251  -3.697  1.00 20.00    -0.279 OA
HETATM   12 CL12 UNL     1     -37.607  16.811  -3.139  1.00 20.00    -0.043 Cl
ENDBRANCH   8  10
TORSDOF 1
ENDMDL
MODEL 5
REMARK VINA RESULT:      -4.8      2.209      3.072
REMARK  1 active torsions:
REMARK  status: ('A' for Active; 'I' for Inactive)
REMARK    1  A    between atoms: C2_2  and  C9_9 
ROOT
HETATM    1  C1  UNL     1     -34.861  16.140  -4.899  1.00 20.00     0.144 C 
HETATM    2  C3  UNL     1     -33.379  16.207  -4.591  1.00 20.00     0.084 C 
HETATM    3  C4  UNL     1     -34.305  13.309  -4.611  1.00 20.00     0.002 C 
HETATM    4  C5  UNL     1     -33.164  13.811  -3.716  1.00 20.00     0.005 C 
HETATM    5  C6  UNL     1     -35.677  13.885  -4.229  1.00 20.00     0.027 C 
HETATM    6  C7  UNL     1     -34.628  15.538  -2.659  1.00 20.00     0.031 C 
HETATM    7  C8  UNL     1     -33.284  15.303  -3.350  1.00 20.00    -0.006 C 
HETATM    8  C9  UNL     1     -35.607  15.366  -3.825  1.00 20.00     0.097 C 
HETATM    9  O10 UNL     1     -35.377  16.639  -5.890  1.00 20.00    -0.297 OA
ENDROOT
BRANCH   8  10
HETATM   10  C2  UNL     1     -36.952  15.916  -3.477  1.00 20.00     0.234 C 
HETATM   11  O11 UNL     1     -37.086  17.042  -3.008  1.00 20.00    -0.279 OA
HETATM   12 CL12 UNL     1     -38.228  14.788  -3.815  1.00 20.00    -0.043 Cl
ENDBRANCH   8  10
TORSDOF 1
ENDMDL
MODEL 6
REMARK VINA RESULT:      -4.7      1.919      3.405
REMARK  1 active torsions:
REMARK  status: ('A' for Active; 'I' for Inactive)
REMARK    1  A    between atoms: C2_2  and  C9_9 
ROOT
HETATM    1  C1  UNL     1     -35.770  15.594  -4.746  1.00 20.00     0.144 C 
HETATM    2  C3  UNL     1     -35.554  17.092  -4.812  1.00 20.00     0.084 C 
HETATM    3  C4  UNL     1     -35.281  15.880  -7.589  1.00 20.00     0.002 C 
HETATM    4  C5  UNL     1     -34.497  17.122  -7.144  1.00 20.00     0.005 C 
HETATM    5  C6  UNL     1     -34.870  14.601  -6.844  1.00 20.00     0.027 C 
HETATM    6  C7  UNL     1     -33.505  15.911  -5.195  1.00 20.00     0.031 C 
HETATM    7  C8  UNL     1     -34.250  17.177  -5.623  1.00 20.00    -0.006 C 
HETATM    8  C9  UNL     1     -34.594  14.846  -5.353  1.00 20.00     0.097 C 
HETATM    9  O10 UNL     1     -36.767  15.066  -4.273  1.00 20.00    -0.297 OA
ENDROOT
BRANCH   8  10
HETATM   10  C2  UNL     1     -34.217  13.589  -4.639  1.00 20.00     0.234 C 
HETATM   11  O11 UNL     1     -34.814  12.534  -4.830  1.00 20.00    -0.279 OA
HETATM   12 CL12 UNL     1     -32.880  13.828  -3.556  1.00 20.00    -0.043 Cl
ENDBRANCH   8  10
TORSDOF 1
ENDMDL
MODEL 7
REMARK VINA RESULT:      -4.7      2.195      3.808
REMARK  1 active torsions:
REMARK  status: ('A' for Active; 'I' for Inactive)
REMARK    1  A    between atoms: C2_2  and  C9_9 
ROOT
HETATM    1  C1  UNL     1     -36.728  14.916  -4.534  1.00 20.00     0.144 C 
HETATM    2  C3  UNL     1     -37.306  16.105  -5.274  1.00 20.00     0.084 C 
HETATM    3  C4  UNL     1     -35.606  14.432  -7.164  1.00 20.00     0.002 C 
HETATM    4  C5  UNL     1     -35.756  15.953  -7.306  1.00 20.00     0.005 C 
HETATM    5  C6  UNL     1     -34.849  14.012  -5.895  1.00 20.00     0.027 C 
HETATM    6  C7  UNL     1     -34.941  16.345  -4.977  1.00 20.00     0.031 C 
HETATM    7  C8  UNL     1     -36.056  16.666  -5.973  1.00 20.00    -0.006 C 
HETATM    8  C9  UNL     1     -35.216  14.869  -4.674  1.00 20.00     0.097 C 
HETATM    9  O10 UNL     1     -37.401  14.101  -3.917  1.00 20.00    -0.297 OA
ENDROOT
BRANCH   8  10
HETATM   10  C2  UNL     1     -34.487  14.434  -3.444  1.00 20.00     0.234 C 
HETATM   11  O11 UNL     1     -33.999  13.312  -3.346  1.00 20.00    -0.279 OA
HETATM   12 CL12 UNL     1     -34.438  15.682  -2.237  1.00 20.00    -0.043 Cl
ENDBRANCH   8  10
TORSDOF 1
ENDMDL
MODEL 8
REMARK VINA RESULT:      -4.7      2.339      3.770
REMARK  1 active torsions:
REMARK  status: ('A' for Active; 'I' for Inactive)
REMARK    1  A    between atoms: C2_2  and  C9_9 
ROOT
HETATM    1  C1  UNL     1     -34.033  15.745  -5.643  1.00 20.00     0.144 C 
HETATM    2  C3  UNL     1     -34.191  15.403  -7.110  1.00 20.00     0.084 C 
HETATM    3  C4  UNL     1     -36.889  16.158  -5.923  1.00 20.00     0.002 C 
HETATM    4  C5  UNL     1     -36.738  15.145  -7.066  1.00 20.00     0.005 C 
HETATM    5  C6  UNL     1     -36.290  15.671  -4.595  1.00 20.00     0.027 C 
HETATM    6  C7  UNL     1     -35.185  13.721  -5.723  1.00 20.00     0.031 C 
HETATM    7  C8  UNL     1     -35.376  14.423  -7.068  1.00 20.00    -0.006 C 
HETATM    8  C9  UNL     1     -34.968  14.911  -4.783  1.00 20.00     0.097 C 
HETATM    9  O10 UNL     1     -33.258  16.592  -5.218  1.00 20.00    -0.297 OA
ENDROOT
BRANCH   8  10
HETATM   10  C2  UNL     1     -34.388  14.463  -3.481  1.00 20.00     0.234 C 
HETATM   11  O11 UNL     1     -33.864  13.361  -3.354  1.00 20.00    -0.279 OA
HETATM   12 CL12 UNL     1     -34.557  15.667  -2.241  1.00 20.00    -0.043 Cl
ENDBRANCH   8  10
TORSDOF 1
ENDMDL
MODEL 9
REMARK VINA RESULT:      -4.7      1.656      2.648
REMARK  1 active torsions:
REMARK  status: ('A' for Active; 'I' for Inactive)
REMARK    1  A    between atoms: C2_2  and  C9_9 
ROOT
HETATM    1  C1  UNL     1     -33.686  16.261  -4.594  1.00 20.00     0.144 C 
HETATM    2  C3  UNL     1     -34.249  17.661  -4.473  1.00 20.00     0.084 C 
HETATM    3  C4  UNL     1     -34.782  16.105  -1.914  1.00 20.00     0.002 C 
HETATM    4  C5  UNL     1     -35.725  17.198  -2.434  1.00 20.00     0.005 C 
HETATM    5  C6  UNL     1     -34.732  14.864  -2.818  1.00 20.00     0.027 C 
HETATM    6  C7  UNL     1     -36.006  16.041  -4.631  1.00 20.00     0.031 C 
HETATM    7  C8  UNL     1     -35.672  17.376  -3.964  1.00 20.00    -0.006 C 
HETATM    8  C9  UNL     1     -34.755  15.217  -4.313  1.00 20.00     0.097 C 
HETATM    9  O10 UNL     1     -32.521  16.013  -4.872  1.00 20.00    -0.297 OA
ENDROOT
BRANCH   8  10
HETATM   10  C2  UNL     1     -34.684  14.001  -5.178  1.00 20.00     0.234 C 
HETATM   11  O11 UNL     1     -34.538  12.879  -4.702  1.00 20.00    -0.279 OA
HETATM   12 CL12 UNL     1     -34.831  14.388  -6.865  1.00 20.00    -0.043 Cl
ENDBRANCH   8  10
TORSDOF 1
ENDMDL
