MODEL 1
REMARK VINA RESULT:      -3.4      0.000      0.000
REMARK  1 active torsions:
REMARK  status: ('A' for Active; 'I' for Inactive)
REMARK    1  A    between atoms: C3_3  and  N6_6 
ROOT
HETATM    1  C1  UNL     1     -35.900  14.616  -3.815  1.00 20.00     0.216 C 
HETATM    2  C4  UNL     1     -33.625  14.297  -3.647  1.00 20.00     0.158 C 
HETATM    3  C5  UNL     1     -34.229  13.278  -4.586  1.00 20.00     0.198 C 
HETATM    4  N6  UNL     1     -34.724  15.166  -3.347  1.00 20.00    -0.327 N 
HETATM    5  O7  UNL     1     -35.651  13.447  -4.479  1.00 20.00    -0.325 OA
HETATM    6  S8  UNL     1     -37.476  15.119  -3.696  1.00 20.00    -0.033 SA
ENDROOT
BRANCH   4   7
HETATM    7  C3  UNL     1     -34.560  16.325  -2.647  1.00 20.00     0.083 C 
HETATM    8  C2  UNL     1     -34.633  16.386  -1.315  1.00 20.00     0.030 C 
ENDBRANCH   4   7
TORSDOF 1
ENDMDL
MODEL 2
REMARK VINA RESULT:      -3.3      1.968      2.022
REMARK  1 active torsions:
REMARK  status: ('A' for Active; 'I' for Inactive)
REMARK    1  A    between atoms: C3_3  and  N6_6 
ROOT
HETATM    1  C1  UNL     1     -34.129  15.572  -5.026  1.00 20.00     0.216 C 
HETATM    2  C4  UNL     1     -34.397  13.880  -3.487  1.00 20.00     0.158 C 
HETATM    3  C5  UNL     1     -34.422  13.321  -4.890  1.00 20.00     0.198 C 
HETATM    4  N6  UNL     1     -34.060  15.259  -3.684  1.00 20.00    -0.327 N 
HETATM    5  O7  UNL     1     -34.431  14.461  -5.763  1.00 20.00    -0.325 OA
HETATM    6  S8  UNL     1     -33.923  17.006  -5.835  1.00 20.00    -0.033 SA
ENDROOT
BRANCH   4   7
HETATM    7  C3  UNL     1     -33.779  16.092  -2.641  1.00 20.00     0.083 C 
HETATM    8  C2  UNL     1     -34.611  16.277  -1.614  1.00 20.00     0.030 C 
ENDBRANCH   4   7
TORSDOF 1
ENDMDL
MODEL 3
REMARK VINA RESULT:      -3.3      2.431      3.005
REMARK  1 active torsions:
REMARK  status: ('A' for Active; 'I' for Inactive)
REMARK    1  A    between atoms: C3_3  and  N6_6 
ROOT
HETATM    1  C1  UNL     1     -33.677  15.566  -3.850  1.00 20.00     0.216 C 
HETATM    2  C4  UNL     1     -33.878  17.803  -3.336  1.00 20.00     0.158 C 
HETATM    3  C5  UNL     1     -33.465  17.632  -4.779  1.00 20.00     0.198 C 
HETATM    4  N6  UNL     1     -34.126  16.460  -2.900  1.00 20.00    -0.327 N 
HETATM    5  O7  UNL     1     -33.194  16.231  -4.943  1.00 20.00    -0.325 OA
HETATM    6  S8  UNL     1     -33.626  13.908  -3.866  1.00 20.00    -0.033 SA
ENDROOT
BRANCH   4   7
HETATM    7  C3  UNL     1     -34.680  16.185  -1.684  1.00 20.00     0.083 C 
HETATM    8  C2  UNL     1     -34.497  16.957  -0.611  1.00 20.00     0.030 C 
ENDBRANCH   4   7
TORSDOF 1
ENDMDL
MODEL 4
REMARK VINA RESULT:      -3.3     11.614     11.896
REMARK  1 active torsions:
REMARK  status: ('A' for Active; 'I' for Inactive)
REMARK    1  A    between atoms: C3_3  and  N6_6 
ROOT
HETATM    1  C1  UNL     1     -33.931   6.266   5.215  1.00 20.00     0.216 C 
HETATM    2  C4  UNL     1     -34.112   5.347   3.110  1.00 20.00     0.158 C 
HETATM    3  C5  UNL     1     -35.356   5.056   3.918  1.00 20.00     0.198 C 
HETATM    4  N6  UNL     1     -33.364   6.228   3.958  1.00 20.00    -0.327 N 
HETATM    5  O7  UNL     1     -35.068   5.508   5.251  1.00 20.00    -0.325 OA
HETATM    6  S8  UNL     1     -33.469   7.037   6.609  1.00 20.00    -0.033 SA
ENDROOT
BRANCH   4   7
HETATM    7  C3  UNL     1     -32.233   6.858   3.528  1.00 20.00     0.083 C 
HETATM    8  C2  UNL     1     -32.218   7.692   2.486  1.00 20.00     0.030 C 
ENDBRANCH   4   7
TORSDOF 1
ENDMDL
MODEL 5
REMARK VINA RESULT:      -3.3     11.270     12.091
REMARK  1 active torsions:
REMARK  status: ('A' for Active; 'I' for Inactive)
REMARK    1  A    between atoms: C3_3  and  N6_6 
ROOT
HETATM    1  C1  UNL     1     -41.973   6.175  -2.250  1.00 20.00     0.216 C 
HETATM    2  C4  UNL     1     -40.822   4.623  -0.995  1.00 20.00     0.158 C 
HETATM    3  C5  UNL     1     -40.667   6.002  -0.396  1.00 20.00     0.198 C 
HETATM    4  N6  UNL     1     -41.772   4.825  -2.050  1.00 20.00    -0.327 N 
HETATM    5  O7  UNL     1     -41.260   6.906  -1.341  1.00 20.00    -0.325 OA
HETATM    6  S8  UNL     1     -42.885   7.000  -3.364  1.00 20.00    -0.033 SA
ENDROOT
BRANCH   4   7
HETATM    7  C3  UNL     1     -42.312   3.783  -2.747  1.00 20.00     0.083 C 
HETATM    8  C2  UNL     1     -41.619   2.689  -3.070  1.00 20.00     0.030 C 
ENDBRANCH   4   7
TORSDOF 1
ENDMDL
MODEL 6
REMARK VINA RESULT:      -3.2     12.080     12.366
REMARK  1 active torsions:
REMARK  status: ('A' for Active; 'I' for Inactive)
REMARK    1  A    between atoms: C3_3  and  N6_6 
ROOT
HETATM    1  C1  UNL     1     -33.456   6.533   4.960  1.00 20.00     0.216 C 
HETATM    2  C4  UNL     1     -33.719   5.554   2.891  1.00 20.00     0.158 C 
HETATM    3  C5  UNL     1     -32.444   6.366   2.929  1.00 20.00     0.198 C 
HETATM    4  N6  UNL     1     -34.186   5.606   4.245  1.00 20.00    -0.327 N 
HETATM    5  O7  UNL     1     -32.469   7.070   4.181  1.00 20.00    -0.325 OA
HETATM    6  S8  UNL     1     -33.589   7.071   6.523  1.00 20.00    -0.033 SA
ENDROOT
BRANCH   4   7
HETATM    7  C3  UNL     1     -35.242   4.856   4.675  1.00 20.00     0.083 C 
HETATM    8  C2  UNL     1     -35.140   3.950   5.649  1.00 20.00     0.030 C 
ENDBRANCH   4   7
TORSDOF 1
ENDMDL
MODEL 7
REMARK VINA RESULT:      -3.2     11.397     11.894
REMARK  1 active torsions:
REMARK  status: ('A' for Active; 'I' for Inactive)
REMARK    1  A    between atoms: C3_3  and  N6_6 
ROOT
HETATM    1  C1  UNL     1     -42.653   4.856  -2.853  1.00 20.00     0.216 C 
HETATM    2  C4  UNL     1     -41.897   7.006  -2.521  1.00 20.00     0.158 C 
HETATM    3  C5  UNL     1     -43.075   7.005  -3.468  1.00 20.00     0.198 C 
HETATM    4  N6  UNL     1     -41.818   5.642  -2.087  1.00 20.00    -0.327 N 
HETATM    5  O7  UNL     1     -43.349   5.623  -3.746  1.00 20.00    -0.325 OA
HETATM    6  S8  UNL     1     -42.921   3.219  -2.865  1.00 20.00    -0.033 SA
ENDROOT
BRANCH   4   7
HETATM    7  C3  UNL     1     -40.974   5.248  -1.090  1.00 20.00     0.083 C 
HETATM    8  C2  UNL     1     -40.713   6.001  -0.020  1.00 20.00     0.030 C 
ENDBRANCH   4   7
TORSDOF 1
ENDMDL
MODEL 8
REMARK VINA RESULT:      -3.2      2.773      3.724
REMARK  1 active torsions:
REMARK  status: ('A' for Active; 'I' for Inactive)
REMARK    1  A    between atoms: C3_3  and  N6_6 
ROOT
HETATM    1  C1  UNL     1     -33.877  15.564  -4.976  1.00 20.00     0.216 C 
HETATM    2  C4  UNL     1     -34.475  13.342  -4.874  1.00 20.00     0.158 C 
HETATM    3  C5  UNL     1     -33.587  13.700  -3.705  1.00 20.00     0.198 C 
HETATM    4  N6  UNL     1     -34.711  14.603  -5.511  1.00 20.00    -0.327 N 
HETATM    5  O7  UNL     1     -33.130  15.037  -3.960  1.00 20.00    -0.325 OA
HETATM    6  S8  UNL     1     -33.647  17.161  -5.360  1.00 20.00    -0.033 SA
ENDROOT
BRANCH   4   7
HETATM    7  C3  UNL     1     -35.607  14.743  -6.530  1.00 20.00     0.083 C 
HETATM    8  C2  UNL     1     -35.264  14.649  -7.817  1.00 20.00     0.030 C 
ENDBRANCH   4   7
TORSDOF 1
ENDMDL
MODEL 9
REMARK VINA RESULT:      -3.2      2.579      3.411
REMARK  1 active torsions:
REMARK  status: ('A' for Active; 'I' for Inactive)
REMARK    1  A    between atoms: C3_3  and  N6_6 
ROOT
HETATM    1  C1  UNL     1     -34.135  16.510  -2.940  1.00 20.00     0.216 C 
HETATM    2  C4  UNL     1     -33.837  15.864  -5.131  1.00 20.00     0.158 C 
HETATM    3  C5  UNL     1     -33.427  17.307  -4.949  1.00 20.00     0.198 C 
HETATM    4  N6  UNL     1     -34.116  15.427  -3.794  1.00 20.00    -0.327 N 
HETATM    5  O7  UNL     1     -33.819  17.657  -3.612  1.00 20.00    -0.325 OA
HETATM    6  S8  UNL     1     -34.473  16.630  -1.320  1.00 20.00    -0.033 SA
ENDROOT
BRANCH   4   7
HETATM    7  C3  UNL     1     -34.369  14.120  -3.498  1.00 20.00     0.083 C 
HETATM    8  C2  UNL     1     -34.992  13.292  -4.340  1.00 20.00     0.030 C 
ENDBRANCH   4   7
TORSDOF 1
ENDMDL
