MODEL 1
REMARK VINA RESULT:      -4.0      0.000      0.000
REMARK  1 active torsions:
REMARK  status: ('A' for Active; 'I' for Inactive)
REMARK    1  A    between atoms: C1_1  and  C4_4 
ROOT
HETATM    1  C2  UNL     1     -32.897  14.927  -3.760  1.00 20.00     0.041 A 
HETATM    2  C3  UNL     1     -33.705  15.925  -4.530  1.00 20.00     0.100 A 
HETATM    3  C4  UNL     1     -34.379  15.076  -3.473  1.00 20.00     0.050 A 
HETATM    4  C5  UNL     1     -34.763  15.766  -2.189  1.00 20.00     0.026 C 
HETATM    5 CL8  UNL     1     -33.983  15.666  -6.234  1.00 20.00    -0.124 Cl
ENDROOT
BRANCH   3   6
HETATM    6  C1  UNL     1     -35.255  13.962  -3.904  1.00 20.00     0.228 C 
HETATM    7  O6  UNL     1     -34.811  12.838  -4.119  1.00 20.00    -0.279 OA
HETATM    8 CL7  UNL     1     -36.914  14.455  -4.054  1.00 20.00    -0.043 Cl
ENDBRANCH   3   6
TORSDOF 1
ENDMDL
MODEL 2
REMARK VINA RESULT:      -3.9      2.080      2.955
REMARK  1 active torsions:
REMARK  status: ('A' for Active; 'I' for Inactive)
REMARK    1  A    between atoms: C1_1  and  C4_4 
ROOT
HETATM    1  C2  UNL     1     -36.301  15.282  -4.644  1.00 20.00     0.041 A 
HETATM    2  C3  UNL     1     -35.175  16.017  -3.986  1.00 20.00     0.100 A 
HETATM    3  C4  UNL     1     -34.869  14.876  -4.933  1.00 20.00     0.050 A 
HETATM    4  C5  UNL     1     -34.312  15.245  -6.285  1.00 20.00     0.026 C 
HETATM    5 CL8  UNL     1     -34.950  15.867  -2.262  1.00 20.00    -0.124 Cl
ENDROOT
BRANCH   3   6
HETATM    6  C1  UNL     1     -34.418  13.583  -4.370  1.00 20.00     0.228 C 
HETATM    7  O6  UNL     1     -35.100  12.566  -4.461  1.00 20.00    -0.279 OA
HETATM    8 CL7  UNL     1     -32.865  13.710  -3.602  1.00 20.00    -0.043 Cl
ENDBRANCH   3   6
TORSDOF 1
ENDMDL
MODEL 3
REMARK VINA RESULT:      -3.8     12.236     12.964
REMARK  1 active torsions:
REMARK  status: ('A' for Active; 'I' for Inactive)
REMARK    1  A    between atoms: C1_1  and  C4_4 
ROOT
HETATM    1  C2  UNL     1     -34.069   4.613   5.915  1.00 20.00     0.041 A 
HETATM    2  C3  UNL     1     -34.518   6.009   6.214  1.00 20.00     0.100 A 
HETATM    3  C4  UNL     1     -34.487   5.527   4.779  1.00 20.00     0.050 A 
HETATM    4  C5  UNL     1     -35.818   5.245   4.128  1.00 20.00     0.026 C 
HETATM    5 CL8  UNL     1     -33.361   7.167   6.821  1.00 20.00    -0.124 Cl
ENDROOT
BRANCH   3   6
HETATM    6  C1  UNL     1     -33.411   6.012   3.886  1.00 20.00     0.228 C 
HETATM    7  O6  UNL     1     -32.576   6.828   4.265  1.00 20.00    -0.279 OA
HETATM    8 CL7  UNL     1     -33.500   5.297   2.306  1.00 20.00    -0.043 Cl
ENDBRANCH   3   6
TORSDOF 1
ENDMDL
MODEL 4
REMARK VINA RESULT:      -3.8      1.527      1.856
REMARK  1 active torsions:
REMARK  status: ('A' for Active; 'I' for Inactive)
REMARK    1  A    between atoms: C1_1  and  C4_4 
ROOT
HETATM    1  C2  UNL     1     -34.441  15.042  -3.005  1.00 20.00     0.041 A 
HETATM    2  C3  UNL     1     -34.619  16.050  -4.098  1.00 20.00     0.100 A 
HETATM    3  C4  UNL     1     -35.412  14.761  -4.136  1.00 20.00     0.050 A 
HETATM    4  C5  UNL     1     -36.883  14.856  -3.817  1.00 20.00     0.026 C 
HETATM    5 CL8  UNL     1     -33.302  16.353  -5.202  1.00 20.00    -0.124 Cl
ENDROOT
BRANCH   3   6
HETATM    6  C1  UNL     1     -35.019  13.710  -5.103  1.00 20.00     0.228 C 
HETATM    7  O6  UNL     1     -34.554  12.635  -4.736  1.00 20.00    -0.279 OA
HETATM    8 CL7  UNL     1     -35.298  14.198  -6.747  1.00 20.00    -0.043 Cl
ENDBRANCH   3   6
TORSDOF 1
ENDMDL
MODEL 5
REMARK VINA RESULT:      -3.7      1.885      2.153
REMARK  1 active torsions:
REMARK  status: ('A' for Active; 'I' for Inactive)
REMARK    1  A    between atoms: C1_1  and  C4_4 
ROOT
HETATM    1  C2  UNL     1     -34.340  16.016  -5.088  1.00 20.00     0.041 A 
HETATM    2  C3  UNL     1     -35.483  15.394  -5.827  1.00 20.00     0.100 A 
HETATM    3  C4  UNL     1     -35.144  14.910  -4.433  1.00 20.00     0.050 A 
HETATM    4  C5  UNL     1     -36.085  15.311  -3.325  1.00 20.00     0.026 C 
HETATM    5 CL8  UNL     1     -35.159  14.425  -7.242  1.00 20.00    -0.124 Cl
ENDROOT
BRANCH   3   6
HETATM    6  C1  UNL     1     -34.469  13.601  -4.276  1.00 20.00     0.228 C 
HETATM    7  O6  UNL     1     -35.012  12.551  -4.608  1.00 20.00    -0.279 OA
HETATM    8 CL7  UNL     1     -32.882  13.762  -3.589  1.00 20.00    -0.043 Cl
ENDBRANCH   3   6
TORSDOF 1
ENDMDL
MODEL 6
REMARK VINA RESULT:      -3.7     12.156     12.846
REMARK  1 active torsions:
REMARK  status: ('A' for Active; 'I' for Inactive)
REMARK    1  A    between atoms: C1_1  and  C4_4 
ROOT
HETATM    1  C2  UNL     1     -35.795   5.675   3.962  1.00 20.00     0.041 A 
HETATM    2  C3  UNL     1     -34.728   4.761   3.444  1.00 20.00     0.100 A 
HETATM    3  C4  UNL     1     -34.632   5.296   4.858  1.00 20.00     0.050 A 
HETATM    4  C5  UNL     1     -34.916   4.322   5.974  1.00 20.00     0.026 C 
HETATM    5 CL8  UNL     1     -33.668   5.320   2.175  1.00 20.00    -0.124 Cl
ENDROOT
BRANCH   3   6
HETATM    6  C1  UNL     1     -33.645   6.360   5.153  1.00 20.00     0.228 C 
HETATM    7  O6  UNL     1     -32.789   6.690   4.337  1.00 20.00    -0.279 OA
HETATM    8 CL7  UNL     1     -33.864   7.033   6.739  1.00 20.00    -0.043 Cl
ENDBRANCH   3   6
TORSDOF 1
ENDMDL
MODEL 7
REMARK VINA RESULT:      -3.6      1.024      2.458
REMARK  1 active torsions:
REMARK  status: ('A' for Active; 'I' for Inactive)
REMARK    1  A    between atoms: C1_1  and  C4_4 
ROOT
HETATM    1  C2  UNL     1     -34.424  16.225  -4.347  1.00 20.00     0.041 A 
HETATM    2  C3  UNL     1     -35.025  15.452  -3.214  1.00 20.00     0.100 A 
HETATM    3  C4  UNL     1     -34.021  14.780  -4.127  1.00 20.00     0.050 A 
HETATM    4  C5  UNL     1     -32.646  14.530  -3.560  1.00 20.00     0.026 C 
HETATM    5 CL8  UNL     1     -36.723  15.052  -3.260  1.00 20.00    -0.124 Cl
ENDROOT
BRANCH   3   6
HETATM    6  C1  UNL     1     -34.508  13.795  -5.120  1.00 20.00     0.228 C 
HETATM    7  O6  UNL     1     -34.797  12.645  -4.801  1.00 20.00    -0.279 OA
HETATM    8 CL7  UNL     1     -34.601  14.470  -6.718  1.00 20.00    -0.043 Cl
ENDBRANCH   3   6
TORSDOF 1
ENDMDL
MODEL 8
REMARK VINA RESULT:      -3.6      1.769      2.421
REMARK  1 active torsions:
REMARK  status: ('A' for Active; 'I' for Inactive)
REMARK    1  A    between atoms: C1_1  and  C4_4 
ROOT
HETATM    1  C2  UNL     1     -35.015  16.298  -5.079  1.00 20.00     0.041 A 
HETATM    2  C3  UNL     1     -33.693  15.598  -5.003  1.00 20.00     0.100 A 
HETATM    3  C4  UNL     1     -34.910  14.842  -5.493  1.00 20.00     0.050 A 
HETATM    4  C5  UNL     1     -34.976  14.543  -6.969  1.00 20.00     0.026 C 
HETATM    5 CL8  UNL     1     -32.983  15.285  -3.440  1.00 20.00    -0.124 Cl
ENDROOT
BRANCH   3   6
HETATM    6  C1  UNL     1     -35.542  13.849  -4.595  1.00 20.00     0.228 C 
HETATM    7  O6  UNL     1     -35.014  12.767  -4.356  1.00 20.00    -0.279 OA
HETATM    8 CL7  UNL     1     -37.061  14.410  -3.965  1.00 20.00    -0.043 Cl
ENDBRANCH   3   6
TORSDOF 1
ENDMDL
MODEL 9
REMARK VINA RESULT:      -3.6      2.275      3.014
REMARK  1 active torsions:
REMARK  status: ('A' for Active; 'I' for Inactive)
REMARK    1  A    between atoms: C1_1  and  C4_4 
ROOT
HETATM    1  C2  UNL     1     -35.766  15.781  -4.309  1.00 20.00     0.041 A 
HETATM    2  C3  UNL     1     -35.451  14.414  -3.785  1.00 20.00     0.100 A 
HETATM    3  C4  UNL     1     -34.580  15.586  -3.385  1.00 20.00     0.050 A 
HETATM    4  C5  UNL     1     -34.723  16.089  -1.970  1.00 20.00     0.026 C 
HETATM    5 CL8  UNL     1     -34.890  13.184  -4.889  1.00 20.00    -0.124 Cl
ENDROOT
BRANCH   3   6
HETATM    6  C1  UNL     1     -33.235  15.715  -3.992  1.00 20.00     0.228 C 
HETATM    7  O6  UNL     1     -32.964  16.621  -4.773  1.00 20.00    -0.279 OA
HETATM    8 CL7  UNL     1     -32.156  14.459  -3.464  1.00 20.00    -0.043 Cl
ENDBRANCH   3   6
TORSDOF 1
ENDMDL
