MODEL 1
REMARK VINA RESULT:      -5.8      0.000      0.000
REMARK  0 active torsions:
REMARK  status: ('A' for Active; 'I' for Inactive)
ROOT
HETATM    1  C1  UNL     1     -34.630   4.764   5.936  1.00 20.00     0.185 C 
HETATM    2  C2  UNL     1     -34.460   6.265   5.720  1.00 20.00     0.087 C 
HETATM    3  C3  UNL     1     -34.028   6.285   4.275  1.00 20.00     0.340 C 
HETATM    4  C4  UNL     1     -34.930   5.240   3.686  1.00 20.00     0.420 C 
HETATM    5  C5  UNL     1     -33.486   6.919   6.680  1.00 20.00     0.019 C 
HETATM    6  O6  UNL     1     -35.054   4.210   4.671  1.00 20.00    -0.321 OA
HETATM    7  F7  UNL     1     -34.157   7.483   3.690  1.00 20.00    -0.196 F 
HETATM    8  F8  UNL     1     -32.738   5.893   4.158  1.00 20.00    -0.196 F 
HETATM    9  F9  UNL     1     -36.168   5.738   3.461  1.00 20.00    -0.169 F 
HETATM   10  F10 UNL     1     -34.463   4.737   2.530  1.00 20.00    -0.169 F 
ENDROOT
TORSDOF 0
ENDMDL
MODEL 2
REMARK VINA RESULT:      -5.0      1.486      2.838
REMARK  0 active torsions:
REMARK  status: ('A' for Active; 'I' for Inactive)
ROOT
HETATM    1  C1  UNL     1     -33.742   6.219   5.846  1.00 20.00     0.185 C 
HETATM    2  C2  UNL     1     -34.109   5.004   4.999  1.00 20.00     0.087 C 
HETATM    3  C3  UNL     1     -34.198   5.639   3.635  1.00 20.00     0.340 C 
HETATM    4  C4  UNL     1     -33.022   6.572   3.670  1.00 20.00     0.420 C 
HETATM    5  C5  UNL     1     -35.372   4.297   5.450  1.00 20.00     0.019 C 
HETATM    6  O6  UNL     1     -32.953   7.087   5.002  1.00 20.00    -0.321 OA
HETATM    7  F7  UNL     1     -34.142   4.760   2.625  1.00 20.00    -0.196 F 
HETATM    8  F8  UNL     1     -35.342   6.352   3.514  1.00 20.00    -0.196 F 
HETATM    9  F9  UNL     1     -31.868   5.907   3.432  1.00 20.00    -0.169 F 
HETATM   10  F10 UNL     1     -33.122   7.573   2.778  1.00 20.00    -0.169 F 
ENDROOT
TORSDOF 0
ENDMDL
MODEL 3
REMARK VINA RESULT:      -4.9      1.830      2.806
REMARK  0 active torsions:
REMARK  status: ('A' for Active; 'I' for Inactive)
ROOT
HETATM    1  C1  UNL     1     -34.559   5.193   3.372  1.00 20.00     0.185 C 
HETATM    2  C2  UNL     1     -33.352   5.865   4.020  1.00 20.00     0.087 C 
HETATM    3  C3  UNL     1     -33.919   6.193   5.378  1.00 20.00     0.340 C 
HETATM    4  C4  UNL     1     -34.707   4.949   5.673  1.00 20.00     0.420 C 
HETATM    5  C5  UNL     1     -32.824   7.060   3.250  1.00 20.00     0.019 C 
HETATM    6  O6  UNL     1     -35.281   4.529   4.433  1.00 20.00    -0.321 OA
HETATM    7  F7  UNL     1     -32.987   6.458   6.303  1.00 20.00    -0.196 F 
HETATM    8  F8  UNL     1     -34.755   7.255   5.302  1.00 20.00    -0.196 F 
HETATM    9  F9  UNL     1     -33.898   3.954   6.105  1.00 20.00    -0.169 F 
HETATM   10  F10 UNL     1     -35.664   5.144   6.598  1.00 20.00    -0.169 F 
ENDROOT
TORSDOF 0
ENDMDL
MODEL 4
REMARK VINA RESULT:      -4.6     12.265     13.226
REMARK  0 active torsions:
REMARK  status: ('A' for Active; 'I' for Inactive)
ROOT
HETATM    1  C1  UNL     1     -33.864  16.323  -5.577  1.00 20.00     0.185 C 
HETATM    2  C2  UNL     1     -35.001  15.581  -4.880  1.00 20.00     0.087 C 
HETATM    3  C3  UNL     1     -34.230  14.484  -4.191  1.00 20.00     0.340 C 
HETATM    4  C4  UNL     1     -33.022  15.235  -3.710  1.00 20.00     0.420 C 
HETATM    5  C5  UNL     1     -36.087  15.096  -5.820  1.00 20.00     0.019 C 
HETATM    6  O6  UNL     1     -32.701  16.183  -4.730  1.00 20.00    -0.321 OA
HETATM    7  F7  UNL     1     -34.907  13.887  -3.202  1.00 20.00    -0.196 F 
HETATM    8  F8  UNL     1     -33.853  13.535  -5.080  1.00 20.00    -0.196 F 
HETATM    9  F9  UNL     1     -33.300  15.929  -2.582  1.00 20.00    -0.169 F 
HETATM   10  F10 UNL     1     -31.972  14.432  -3.461  1.00 20.00    -0.169 F 
ENDROOT
TORSDOF 0
ENDMDL
MODEL 5
REMARK VINA RESULT:      -4.6     12.007     13.068
REMARK  0 active torsions:
REMARK  status: ('A' for Active; 'I' for Inactive)
ROOT
HETATM    1  C1  UNL     1     -34.972  13.242  -4.606  1.00 20.00     0.185 C 
HETATM    2  C2  UNL     1     -34.390  14.197  -5.645  1.00 20.00     0.087 C 
HETATM    3  C3  UNL     1     -34.116  15.403  -4.783  1.00 20.00     0.340 C 
HETATM    4  C4  UNL     1     -33.578  14.756  -3.539  1.00 20.00     0.420 C 
HETATM    5  C5  UNL     1     -35.306  14.458  -6.824  1.00 20.00     0.019 C 
HETATM    6  O6  UNL     1     -34.326  13.552  -3.352  1.00 20.00    -0.321 OA
HETATM    7  F7  UNL     1     -33.263  16.277  -5.333  1.00 20.00    -0.196 F 
HETATM    8  F8  UNL     1     -35.266  16.056  -4.496  1.00 20.00    -0.196 F 
HETATM    9  F9  UNL     1     -32.280  14.408  -3.696  1.00 20.00    -0.169 F 
HETATM   10  F10 UNL     1     -33.673  15.548  -2.456  1.00 20.00    -0.169 F 
ENDROOT
TORSDOF 0
ENDMDL
MODEL 6
REMARK VINA RESULT:      -4.4     12.167     12.993
REMARK  0 active torsions:
REMARK  status: ('A' for Active; 'I' for Inactive)
ROOT
HETATM    1  C1  UNL     1     -35.654  16.398  -3.742  1.00 20.00     0.185 C 
HETATM    2  C2  UNL     1     -34.324  16.327  -2.998  1.00 20.00     0.087 C 
HETATM    3  C3  UNL     1     -33.751  15.061  -3.584  1.00 20.00     0.340 C 
HETATM    4  C4  UNL     1     -34.135  15.209  -5.028  1.00 20.00     0.420 C 
HETATM    5  C5  UNL     1     -34.461  16.318  -1.488  1.00 20.00     0.019 C 
HETATM    6  O6  UNL     1     -35.432  15.812  -5.043  1.00 20.00    -0.321 OA
HETATM    7  F7  UNL     1     -32.431  14.930  -3.401  1.00 20.00    -0.196 F 
HETATM    8  F8  UNL     1     -34.362  13.974  -3.059  1.00 20.00    -0.196 F 
HETATM    9  F9  UNL     1     -33.290  16.047  -5.672  1.00 20.00    -0.169 F 
HETATM   10  F10 UNL     1     -34.148  14.037  -5.688  1.00 20.00    -0.169 F 
ENDROOT
TORSDOF 0
ENDMDL
MODEL 7
REMARK VINA RESULT:      -4.4      1.394      2.054
REMARK  0 active torsions:
REMARK  status: ('A' for Active; 'I' for Inactive)
ROOT
HETATM    1  C1  UNL     1     -33.771   6.639   5.393  1.00 20.00     0.185 C 
HETATM    2  C2  UNL     1     -33.686   6.766   3.874  1.00 20.00     0.087 C 
HETATM    3  C3  UNL     1     -33.952   5.338   3.467  1.00 20.00     0.340 C 
HETATM    4  C4  UNL     1     -35.044   4.960   4.426  1.00 20.00     0.420 C 
HETATM    5  C5  UNL     1     -32.372   7.331   3.375  1.00 20.00     0.019 C 
HETATM    6  O6  UNL     1     -34.731   5.596   5.668  1.00 20.00    -0.321 OA
HETATM    7  F7  UNL     1     -34.308   5.200   2.183  1.00 20.00    -0.196 F 
HETATM    8  F8  UNL     1     -32.862   4.568   3.691  1.00 20.00    -0.196 F 
HETATM    9  F9  UNL     1     -36.240   5.439   4.013  1.00 20.00    -0.169 F 
HETATM   10  F10 UNL     1     -35.158   3.629   4.589  1.00 20.00    -0.169 F 
ENDROOT
TORSDOF 0
ENDMDL
MODEL 8
REMARK VINA RESULT:      -4.4     12.237     13.004
REMARK  0 active torsions:
REMARK  status: ('A' for Active; 'I' for Inactive)
ROOT
HETATM    1  C1  UNL     1     -35.799  15.254  -3.616  1.00 20.00     0.185 C 
HETATM    2  C2  UNL     1     -34.580  14.337  -3.566  1.00 20.00     0.087 C 
HETATM    3  C3  UNL     1     -33.476  15.340  -3.795  1.00 20.00     0.340 C 
HETATM    4  C4  UNL     1     -33.952  16.493  -2.961  1.00 20.00     0.420 C 
HETATM    5  C5  UNL     1     -34.620  13.202  -4.568  1.00 20.00     0.019 C 
HETATM    6  O6  UNL     1     -35.374  16.535  -3.100  1.00 20.00    -0.321 OA
HETATM    7  F7  UNL     1     -32.263  14.898  -3.439  1.00 20.00    -0.196 F 
HETATM    8  F8  UNL     1     -33.429  15.707  -5.097  1.00 20.00    -0.196 F 
HETATM    9  F9  UNL     1     -33.677  16.292  -1.652  1.00 20.00    -0.169 F 
HETATM   10  F10 UNL     1     -33.404  17.665  -3.330  1.00 20.00    -0.169 F 
ENDROOT
TORSDOF 0
ENDMDL
MODEL 9
REMARK VINA RESULT:      -4.4      8.629      9.558
REMARK  0 active torsions:
REMARK  status: ('A' for Active; 'I' for Inactive)
ROOT
HETATM    1  C1  UNL     1     -42.656   5.207  -2.477  1.00 20.00     0.185 C 
HETATM    2  C2  UNL     1     -41.776   6.413  -2.160  1.00 20.00     0.087 C 
HETATM    3  C3  UNL     1     -41.573   6.219  -0.679  1.00 20.00     0.340 C 
HETATM    4  C4  UNL     1     -41.377   4.733  -0.602  1.00 20.00     0.420 C 
HETATM    5  C5  UNL     1     -42.391   7.743  -2.546  1.00 20.00     0.019 C 
HETATM    6  O6  UNL     1     -42.263   4.157  -1.566  1.00 20.00    -0.321 OA
HETATM    7  F7  UNL     1     -40.541   6.912  -0.180  1.00 20.00    -0.196 F 
HETATM    8  F8  UNL     1     -42.688   6.569   0.005  1.00 20.00    -0.196 F 
HETATM    9  F9  UNL     1     -40.116   4.390  -0.954  1.00 20.00    -0.169 F 
HETATM   10  F10 UNL     1     -41.621   4.236   0.624  1.00 20.00    -0.169 F 
ENDROOT
TORSDOF 0
ENDMDL
