MODEL 1
REMARK VINA RESULT:      -3.9      0.000      0.000
REMARK  1 active torsions:
REMARK  status: ('A' for Active; 'I' for Inactive)
REMARK    1  A    between atoms: C1_1  and  C3_3 
ROOT
HETATM    1  C1  UNL     1     -34.344  14.836  -4.619  1.00 20.00    -0.007 C 
HETATM    2  C2  UNL     1     -33.931  15.964  -4.023  1.00 20.00    -0.016 C 
HETATM    3  C4  UNL     1     -34.376  14.857  -6.119  1.00 20.00     0.058 C 
HETATM    4  C5  UNL     1     -34.322  16.321  -6.569  1.00 20.00     0.052 C 
HETATM    5  C6  UNL     1     -33.773  16.260  -2.568  1.00 20.00     0.056 C 
HETATM    6  C7  UNL     1     -35.707  16.905  -6.828  1.00 20.00     0.022 C 
HETATM    7  S9  UNL     1     -33.533  17.215  -5.179  1.00 20.00    -0.129 SA
ENDROOT
BRANCH   1   8
HETATM    8  C3  UNL     1     -34.744  13.619  -3.916  1.00 20.00     0.266 C 
HETATM    9  O8  UNL     1     -35.019  12.576  -4.500  1.00 20.00    -0.302 OA
ENDBRANCH   1   8
TORSDOF 1
ENDMDL
MODEL 2
REMARK VINA RESULT:      -3.9      2.356      3.536
REMARK  1 active torsions:
REMARK  status: ('A' for Active; 'I' for Inactive)
REMARK    1  A    between atoms: C1_1  and  C3_3 
ROOT
HETATM    1  C1  UNL     1     -36.056  15.378  -3.881  1.00 20.00    -0.007 C 
HETATM    2  C2  UNL     1     -34.939  14.643  -3.989  1.00 20.00    -0.016 C 
HETATM    3  C4  UNL     1     -35.887  16.749  -3.297  1.00 20.00     0.058 C 
HETATM    4  C5  UNL     1     -34.529  16.793  -2.586  1.00 20.00     0.052 C 
HETATM    5  C6  UNL     1     -34.766  13.263  -4.534  1.00 20.00     0.056 C 
HETATM    6  C7  UNL     1     -34.639  16.497  -1.094  1.00 20.00     0.022 C 
HETATM    7  S9  UNL     1     -33.528  15.490  -3.395  1.00 20.00    -0.129 SA
ENDROOT
BRANCH   1   8
HETATM    8  C3  UNL     1     -37.387  14.939  -4.293  1.00 20.00     0.266 C 
HETATM    9  O8  UNL     1     -38.095  14.224  -3.592  1.00 20.00    -0.302 OA
ENDBRANCH   1   8
TORSDOF 1
ENDMDL
MODEL 3
REMARK VINA RESULT:      -3.9      1.178      2.932
REMARK  1 active torsions:
REMARK  status: ('A' for Active; 'I' for Inactive)
REMARK    1  A    between atoms: C1_1  and  C3_3 
ROOT
HETATM    1  C1  UNL     1     -34.767  14.917  -4.383  1.00 20.00    -0.007 C 
HETATM    2  C2  UNL     1     -34.600  16.043  -5.094  1.00 20.00    -0.016 C 
HETATM    3  C4  UNL     1     -35.314  15.088  -2.997  1.00 20.00     0.058 C 
HETATM    4  C5  UNL     1     -35.147  16.561  -2.605  1.00 20.00     0.052 C 
HETATM    5  C6  UNL     1     -34.096  16.212  -6.489  1.00 20.00     0.056 C 
HETATM    6  C7  UNL     1     -33.870  16.814  -1.810  1.00 20.00     0.022 C 
HETATM    7  S9  UNL     1     -35.067  17.468  -4.194  1.00 20.00    -0.129 SA
ENDROOT
BRANCH   1   8
HETATM    8  C3  UNL     1     -34.464  13.572  -4.868  1.00 20.00     0.266 C 
HETATM    9  O8  UNL     1     -35.022  12.570  -4.432  1.00 20.00    -0.302 OA
ENDBRANCH   1   8
TORSDOF 1
ENDMDL
MODEL 4
REMARK VINA RESULT:      -3.9      2.080      2.276
REMARK  1 active torsions:
REMARK  status: ('A' for Active; 'I' for Inactive)
REMARK    1  A    between atoms: C1_1  and  C3_3 
ROOT
HETATM    1  C1  UNL     1     -35.945  15.000  -3.827  1.00 20.00    -0.007 C 
HETATM    2  C2  UNL     1     -34.899  15.446  -3.115  1.00 20.00    -0.016 C 
HETATM    3  C4  UNL     1     -35.616  14.311  -5.118  1.00 20.00     0.058 C 
HETATM    4  C5  UNL     1     -34.172  14.671  -5.488  1.00 20.00     0.052 C 
HETATM    5  C6  UNL     1     -34.885  16.151  -1.799  1.00 20.00     0.056 C 
HETATM    6  C7  UNL     1     -34.091  15.856  -6.445  1.00 20.00     0.022 C 
HETATM    7  S9  UNL     1     -33.372  15.112  -3.901  1.00 20.00    -0.129 SA
ENDROOT
BRANCH   1   8
HETATM    8  C3  UNL     1     -37.344  15.132  -3.427  1.00 20.00     0.266 C 
HETATM    9  O8  UNL     1     -38.180  14.262  -3.646  1.00 20.00    -0.302 OA
ENDBRANCH   1   8
TORSDOF 1
ENDMDL
MODEL 5
REMARK VINA RESULT:      -3.8      2.117      2.761
REMARK  1 active torsions:
REMARK  status: ('A' for Active; 'I' for Inactive)
REMARK    1  A    between atoms: C1_1  and  C3_3 
ROOT
HETATM    1  C1  UNL     1     -34.648  14.800  -3.979  1.00 20.00    -0.007 C 
HETATM    2  C2  UNL     1     -35.806  15.296  -3.519  1.00 20.00    -0.016 C 
HETATM    3  C4  UNL     1     -33.402  15.482  -3.496  1.00 20.00     0.058 C 
HETATM    4  C5  UNL     1     -33.804  16.845  -2.922  1.00 20.00     0.052 C 
HETATM    5  C6  UNL     1     -37.202  14.843  -3.791  1.00 20.00     0.056 C 
HETATM    6  C7  UNL     1     -33.668  17.972  -3.941  1.00 20.00     0.022 C 
HETATM    7  S9  UNL     1     -35.563  16.659  -2.449  1.00 20.00    -0.129 SA
ENDROOT
BRANCH   1   8
HETATM    8  C3  UNL     1     -34.530  13.663  -4.888  1.00 20.00     0.266 C 
HETATM    9  O8  UNL     1     -34.790  12.513  -4.548  1.00 20.00    -0.302 OA
ENDBRANCH   1   8
TORSDOF 1
ENDMDL
MODEL 6
REMARK VINA RESULT:      -3.8      2.742      3.296
REMARK  1 active torsions:
REMARK  status: ('A' for Active; 'I' for Inactive)
REMARK    1  A    between atoms: C1_1  and  C3_3 
ROOT
HETATM    1  C1  UNL     1     -34.802  15.414  -2.904  1.00 20.00    -0.007 C 
HETATM    2  C2  UNL     1     -33.997  14.569  -3.565  1.00 20.00    -0.016 C 
HETATM    3  C4  UNL     1     -36.272  15.263  -3.166  1.00 20.00     0.058 C 
HETATM    4  C5  UNL     1     -36.438  14.445  -4.451  1.00 20.00     0.052 C 
HETATM    5  C6  UNL     1     -32.509  14.450  -3.517  1.00 20.00     0.056 C 
HETATM    6  C7  UNL     1     -36.613  15.323  -5.686  1.00 20.00     0.022 C 
HETATM    7  S9  UNL     1     -34.889  13.480  -4.603  1.00 20.00    -0.129 SA
ENDROOT
BRANCH   1   8
HETATM    8  C3  UNL     1     -34.348  16.437  -1.965  1.00 20.00     0.266 C 
HETATM    9  O8  UNL     1     -34.615  16.403  -0.768  1.00 20.00    -0.302 OA
ENDBRANCH   1   8
TORSDOF 1
ENDMDL
MODEL 7
REMARK VINA RESULT:      -3.7      2.350      2.613
REMARK  1 active torsions:
REMARK  status: ('A' for Active; 'I' for Inactive)
REMARK    1  A    between atoms: C1_1  and  C3_3 
ROOT
HETATM    1  C1  UNL     1     -35.101  14.953  -3.682  1.00 20.00    -0.007 C 
HETATM    2  C2  UNL     1     -35.362  15.916  -2.786  1.00 20.00    -0.016 C 
HETATM    3  C4  UNL     1     -36.030  14.877  -4.858  1.00 20.00     0.058 C 
HETATM    4  C5  UNL     1     -37.295  15.668  -4.508  1.00 20.00     0.052 C 
HETATM    5  C6  UNL     1     -34.630  16.262  -1.531  1.00 20.00     0.056 C 
HETATM    6  C7  UNL     1     -38.405  14.782  -3.953  1.00 20.00     0.022 C 
HETATM    7  S9  UNL     1     -36.768  16.862  -3.222  1.00 20.00    -0.129 SA
ENDROOT
BRANCH   1   8
HETATM    8  C3  UNL     1     -33.992  14.006  -3.590  1.00 20.00     0.266 C 
HETATM    9  O8  UNL     1     -33.918  13.002  -4.291  1.00 20.00    -0.302 OA
ENDBRANCH   1   8
TORSDOF 1
ENDMDL
MODEL 8
REMARK VINA RESULT:      -3.7      1.999      3.323
REMARK  1 active torsions:
REMARK  status: ('A' for Active; 'I' for Inactive)
REMARK    1  A    between atoms: C1_1  and  C3_3 
ROOT
HETATM    1  C1  UNL     1     -35.964  15.540  -3.867  1.00 20.00    -0.007 C 
HETATM    2  C2  UNL     1     -35.497  15.912  -5.068  1.00 20.00    -0.016 C 
HETATM    3  C4  UNL     1     -34.940  15.388  -2.781  1.00 20.00     0.058 C 
HETATM    4  C5  UNL     1     -33.562  15.296  -3.444  1.00 20.00     0.052 C 
HETATM    5  C6  UNL     1     -36.246  16.161  -6.336  1.00 20.00     0.056 C 
HETATM    6  C7  UNL     1     -33.111  13.854  -3.660  1.00 20.00     0.022 C 
HETATM    7  S9  UNL     1     -33.760  16.122  -5.067  1.00 20.00    -0.129 SA
ENDROOT
BRANCH   1   8
HETATM    8  C3  UNL     1     -37.370  15.290  -3.559  1.00 20.00     0.266 C 
HETATM    9  O8  UNL     1     -37.903  14.199  -3.733  1.00 20.00    -0.302 OA
ENDBRANCH   1   8
TORSDOF 1
ENDMDL
MODEL 9
REMARK VINA RESULT:      -3.5      2.455      3.317
REMARK  1 active torsions:
REMARK  status: ('A' for Active; 'I' for Inactive)
REMARK    1  A    between atoms: C1_1  and  C3_3 
ROOT
HETATM    1  C1  UNL     1     -34.155  16.212  -3.011  1.00 20.00    -0.007 C 
HETATM    2  C2  UNL     1     -35.029  16.718  -3.894  1.00 20.00    -0.016 C 
HETATM    3  C4  UNL     1     -33.369  15.020  -3.473  1.00 20.00     0.058 C 
HETATM    4  C5  UNL     1     -34.079  14.436  -4.700  1.00 20.00     0.052 C 
HETATM    5  C6  UNL     1     -35.940  17.893  -3.753  1.00 20.00     0.056 C 
HETATM    6  C7  UNL     1     -35.027  13.296  -4.340  1.00 20.00     0.022 C 
HETATM    7  S9  UNL     1     -35.038  15.830  -5.401  1.00 20.00    -0.129 SA
ENDROOT
BRANCH   1   8
HETATM    8  C3  UNL     1     -33.924  16.740  -1.669  1.00 20.00     0.266 C 
HETATM    9  O8  UNL     1     -34.620  16.434  -0.707  1.00 20.00    -0.302 OA
ENDBRANCH   1   8
TORSDOF 1
ENDMDL
