MODEL 1
REMARK VINA RESULT:      -4.9      0.000      0.000
REMARK  1 active torsions:
REMARK  status: ('A' for Active; 'I' for Inactive)
REMARK    1  A    between atoms: C1_1  and  C8_8 
ROOT
HETATM    1  C2  UNL     1     -33.258  15.389  -3.198  1.00 20.00     0.013 A 
HETATM    2  C3  UNL     1     -34.324  17.137  -3.908  1.00 20.00     0.013 A 
HETATM    3  C4  UNL     1     -35.419  15.468  -3.064  1.00 20.00     0.013 A 
HETATM    4  C5  UNL     1     -33.308  16.165  -4.520  1.00 20.00     0.006 A 
HETATM    5  C6  UNL     1     -34.406  14.491  -3.675  1.00 20.00     0.006 A 
HETATM    6  C7  UNL     1     -35.476  16.243  -4.386  1.00 20.00     0.006 A 
HETATM    7  C8  UNL     1     -34.270  16.363  -2.585  1.00 20.00     0.033 A 
HETATM    8  C9  UNL     1     -34.461  15.262  -5.010  1.00 20.00    -0.031 A 
HETATM    9  C11 UNL     1     -34.566  14.650  -6.360  1.00 20.00     0.016 C 
ENDROOT
BRANCH   7  10
HETATM   10  C1  UNL     1     -34.163  16.984  -1.227  1.00 20.00     0.133 C 
HETATM   11  C10 UNL     1     -33.250  18.174  -1.097  1.00 20.00     0.091 C 
HETATM   12  O12 UNL     1     -34.791  16.546  -0.265  1.00 20.00    -0.297 OA
ENDBRANCH   7  10
TORSDOF 1
ENDMDL
MODEL 2
REMARK VINA RESULT:      -4.9      0.020      1.538
REMARK  1 active torsions:
REMARK  status: ('A' for Active; 'I' for Inactive)
REMARK    1  A    between atoms: C1_1  and  C8_8 
ROOT
HETATM    1  C2  UNL     1     -34.320  17.152  -3.907  1.00 20.00     0.013 A 
HETATM    2  C3  UNL     1     -35.403  15.473  -3.067  1.00 20.00     0.013 A 
HETATM    3  C4  UNL     1     -33.242  15.409  -3.205  1.00 20.00     0.013 A 
HETATM    4  C5  UNL     1     -35.468  16.254  -4.386  1.00 20.00     0.006 A 
HETATM    5  C6  UNL     1     -33.300  16.189  -4.525  1.00 20.00     0.006 A 
HETATM    6  C7  UNL     1     -34.385  14.506  -3.684  1.00 20.00     0.006 A 
HETATM    7  C8  UNL     1     -34.259  16.375  -2.587  1.00 20.00     0.033 A 
HETATM    8  C9  UNL     1     -34.447  15.282  -5.016  1.00 20.00    -0.031 A 
HETATM    9  C11 UNL     1     -34.553  14.673  -6.368  1.00 20.00     0.016 C 
ENDROOT
BRANCH   7  10
HETATM   10  C1  UNL     1     -34.157  16.986  -1.224  1.00 20.00     0.133 C 
HETATM   11  C10 UNL     1     -33.238  18.169  -1.081  1.00 20.00     0.091 C 
HETATM   12  O12 UNL     1     -34.793  16.544  -0.269  1.00 20.00    -0.297 OA
ENDBRANCH   7  10
TORSDOF 1
ENDMDL
MODEL 3
REMARK VINA RESULT:      -4.8      1.896      3.880
REMARK  1 active torsions:
REMARK  status: ('A' for Active; 'I' for Inactive)
REMARK    1  A    between atoms: C1_1  and  C8_8 
ROOT
HETATM    1  C2  UNL     1     -33.305  15.406  -3.642  1.00 20.00     0.013 A 
HETATM    2  C3  UNL     1     -35.388  15.449  -3.047  1.00 20.00     0.013 A 
HETATM    3  C4  UNL     1     -34.746  16.507  -4.826  1.00 20.00     0.013 A 
HETATM    4  C5  UNL     1     -34.059  15.788  -2.362  1.00 20.00     0.006 A 
HETATM    5  C6  UNL     1     -33.414  16.850  -4.145  1.00 20.00     0.006 A 
HETATM    6  C7  UNL     1     -35.503  16.894  -3.550  1.00 20.00     0.006 A 
HETATM    7  C8  UNL     1     -34.633  15.063  -4.325  1.00 20.00     0.033 A 
HETATM    8  C9  UNL     1     -34.169  17.246  -2.859  1.00 20.00    -0.031 A 
HETATM    9  C11 UNL     1     -33.911  18.460  -2.042  1.00 20.00     0.016 C 
ENDROOT
BRANCH   7  10
HETATM   10  C1  UNL     1     -34.896  13.838  -5.145  1.00 20.00     0.133 C 
HETATM   11  C10 UNL     1     -35.162  14.050  -6.611  1.00 20.00     0.091 C 
HETATM   12  O12 UNL     1     -34.894  12.714  -4.646  1.00 20.00    -0.297 OA
ENDBRANCH   7  10
TORSDOF 1
ENDMDL
MODEL 4
REMARK VINA RESULT:      -4.8      1.904      3.902
REMARK  1 active torsions:
REMARK  status: ('A' for Active; 'I' for Inactive)
REMARK    1  A    between atoms: C1_1  and  C8_8 
ROOT
HETATM    1  C2  UNL     1     -34.691  16.489  -4.822  1.00 20.00     0.013 A 
HETATM    2  C3  UNL     1     -33.376  15.336  -3.542  1.00 20.00     0.013 A 
HETATM    3  C4  UNL     1     -35.494  15.454  -3.097  1.00 20.00     0.013 A 
HETATM    4  C5  UNL     1     -33.399  16.783  -4.049  1.00 20.00     0.006 A 
HETATM    5  C6  UNL     1     -35.522  16.903  -3.602  1.00 20.00     0.006 A 
HETATM    6  C7  UNL     1     -34.206  15.746  -2.318  1.00 20.00     0.006 A 
HETATM    7  C8  UNL     1     -34.665  15.042  -4.319  1.00 20.00     0.033 A 
HETATM    8  C9  UNL     1     -34.229  17.206  -2.818  1.00 20.00    -0.031 A 
HETATM    9  C11 UNL     1     -33.985  18.411  -1.982  1.00 20.00     0.016 C 
ENDROOT
BRANCH   7  10
HETATM   10  C1  UNL     1     -34.906  13.827  -5.159  1.00 20.00     0.133 C 
HETATM   11  C10 UNL     1     -35.166  14.058  -6.624  1.00 20.00     0.091 C 
HETATM   12  O12 UNL     1     -34.892  12.695  -4.678  1.00 20.00    -0.297 OA
ENDBRANCH   7  10
TORSDOF 1
ENDMDL
MODEL 5
REMARK VINA RESULT:      -4.8      1.952      3.954
REMARK  1 active torsions:
REMARK  status: ('A' for Active; 'I' for Inactive)
REMARK    1  A    between atoms: C1_1  and  C8_8 
ROOT
HETATM    1  C2  UNL     1     -35.537  15.412  -3.262  1.00 20.00     0.013 A 
HETATM    2  C3  UNL     1     -34.598  16.455  -4.914  1.00 20.00     0.013 A 
HETATM    3  C4  UNL     1     -33.403  15.231  -3.584  1.00 20.00     0.013 A 
HETATM    4  C5  UNL     1     -35.488  16.870  -3.736  1.00 20.00     0.006 A 
HETATM    5  C6  UNL     1     -34.289  15.643  -2.402  1.00 20.00     0.006 A 
HETATM    6  C7  UNL     1     -33.347  16.688  -4.057  1.00 20.00     0.006 A 
HETATM    7  C8  UNL     1     -34.651  14.997  -4.442  1.00 20.00     0.033 A 
HETATM    8  C9  UNL     1     -34.235  17.113  -2.868  1.00 20.00    -0.031 A 
HETATM    9  C11 UNL     1     -34.003  18.292  -1.993  1.00 20.00     0.016 C 
ENDROOT
BRANCH   7  10
HETATM   10  C1  UNL     1     -34.885  13.812  -5.327  1.00 20.00     0.133 C 
HETATM   11  C10 UNL     1     -35.225  14.099  -6.765  1.00 20.00     0.091 C 
HETATM   12  O12 UNL     1     -34.803  12.662  -4.902  1.00 20.00    -0.297 OA
ENDBRANCH   7  10
TORSDOF 1
ENDMDL
MODEL 6
REMARK VINA RESULT:      -4.8      0.878      1.816
REMARK  1 active torsions:
REMARK  status: ('A' for Active; 'I' for Inactive)
REMARK    1  A    between atoms: C1_1  and  C8_8 
ROOT
HETATM    1  C2  UNL     1     -35.332  15.589  -2.942  1.00 20.00     0.013 A 
HETATM    2  C3  UNL     1     -33.189  15.529  -3.260  1.00 20.00     0.013 A 
HETATM    3  C4  UNL     1     -34.368  17.130  -4.121  1.00 20.00     0.013 A 
HETATM    4  C5  UNL     1     -34.347  14.549  -3.489  1.00 20.00     0.006 A 
HETATM    5  C6  UNL     1     -35.529  16.154  -4.354  1.00 20.00     0.006 A 
HETATM    6  C7  UNL     1     -33.381  16.094  -4.673  1.00 20.00     0.006 A 
HETATM    7  C8  UNL     1     -34.174  16.566  -2.709  1.00 20.00     0.033 A 
HETATM    8  C9  UNL     1     -34.543  15.108  -4.915  1.00 20.00    -0.031 A 
HETATM    9  C11 UNL     1     -34.748  14.295  -6.142  1.00 20.00     0.016 C 
ENDROOT
BRANCH   7  10
HETATM   10  C1  UNL     1     -33.964  17.382  -1.471  1.00 20.00     0.133 C 
HETATM   11  C10 UNL     1     -34.715  16.951  -0.240  1.00 20.00     0.091 C 
HETATM   12  O12 UNL     1     -33.214  18.356  -1.460  1.00 20.00    -0.297 OA
ENDBRANCH   7  10
TORSDOF 1
ENDMDL
MODEL 7
REMARK VINA RESULT:      -4.7      2.924      3.951
REMARK  1 active torsions:
REMARK  status: ('A' for Active; 'I' for Inactive)
REMARK    1  A    between atoms: C1_1  and  C8_8 
ROOT
HETATM    1  C2  UNL     1     -35.960  15.676  -5.116  1.00 20.00     0.013 A 
HETATM    2  C3  UNL     1     -35.367  14.506  -6.841  1.00 20.00     0.013 A 
HETATM    3  C4  UNL     1     -33.940  15.827  -5.884  1.00 20.00     0.013 A 
HETATM    4  C5  UNL     1     -36.495  15.503  -6.543  1.00 20.00     0.006 A 
HETATM    5  C6  UNL     1     -35.064  16.828  -5.583  1.00 20.00     0.006 A 
HETATM    6  C7  UNL     1     -34.468  15.656  -7.314  1.00 20.00     0.006 A 
HETATM    7  C8  UNL     1     -34.837  14.676  -5.412  1.00 20.00     0.033 A 
HETATM    8  C9  UNL     1     -35.599  16.666  -7.022  1.00 20.00    -0.031 A 
HETATM    9  C11 UNL     1     -36.023  17.773  -7.918  1.00 20.00     0.016 C 
ENDROOT
BRANCH   7  10
HETATM   10  C1  UNL     1     -34.411  13.558  -4.513  1.00 20.00     0.133 C 
HETATM   11  C10 UNL     1     -33.189  13.799  -3.666  1.00 20.00     0.091 C 
HETATM   12  O12 UNL     1     -35.028  12.496  -4.466  1.00 20.00    -0.297 OA
ENDBRANCH   7  10
TORSDOF 1
ENDMDL
MODEL 8
REMARK VINA RESULT:      -4.7      1.815      3.708
REMARK  1 active torsions:
REMARK  status: ('A' for Active; 'I' for Inactive)
REMARK    1  A    between atoms: C1_1  and  C8_8 
ROOT
HETATM    1  C2  UNL     1     -35.345  16.974  -4.182  1.00 20.00     0.013 A 
HETATM    2  C3  UNL     1     -33.617  15.891  -3.451  1.00 20.00     0.013 A 
HETATM    3  C4  UNL     1     -35.304  16.253  -2.140  1.00 20.00     0.013 A 
HETATM    4  C5  UNL     1     -33.838  17.254  -4.118  1.00 20.00     0.006 A 
HETATM    5  C6  UNL     1     -35.530  17.618  -2.803  1.00 20.00     0.006 A 
HETATM    6  C7  UNL     1     -33.797  16.532  -2.069  1.00 20.00     0.006 A 
HETATM    7  C8  UNL     1     -35.123  15.610  -3.520  1.00 20.00     0.033 A 
HETATM    8  C9  UNL     1     -34.016  17.909  -2.731  1.00 20.00    -0.031 A 
HETATM    9  C11 UNL     1     -33.399  19.188  -2.293  1.00 20.00     0.016 C 
ENDROOT
BRANCH   7  10
HETATM   10  C1  UNL     1     -35.740  14.320  -3.962  1.00 20.00     0.133 C 
HETATM   11  C10 UNL     1     -34.824  13.323  -4.621  1.00 20.00     0.091 C 
HETATM   12  O12 UNL     1     -36.935  14.085  -3.795  1.00 20.00    -0.297 OA
ENDBRANCH   7  10
TORSDOF 1
ENDMDL
MODEL 9
REMARK VINA RESULT:      -4.5      2.792      3.780
REMARK  1 active torsions:
REMARK  status: ('A' for Active; 'I' for Inactive)
REMARK    1  A    between atoms: C1_1  and  C8_8 
ROOT
HETATM    1  C2  UNL     1     -34.799  17.420   0.083  1.00 20.00     0.013 A 
HETATM    2  C3  UNL     1     -33.424  17.361  -1.590  1.00 20.00     0.013 A 
HETATM    3  C4  UNL     1     -34.580  19.152  -1.199  1.00 20.00     0.013 A 
HETATM    4  C5  UNL     1     -34.601  16.496  -1.125  1.00 20.00     0.006 A 
HETATM    5  C6  UNL     1     -35.761  18.291  -0.733  1.00 20.00     0.006 A 
HETATM    6  C7  UNL     1     -34.382  18.233  -2.412  1.00 20.00     0.006 A 
HETATM    7  C8  UNL     1     -33.620  18.282  -0.380  1.00 20.00     0.033 A 
HETATM    8  C9  UNL     1     -35.573  17.365  -1.953  1.00 20.00    -0.031 A 
HETATM    9  C11 UNL     1     -36.659  16.853  -2.828  1.00 20.00     0.016 C 
ENDROOT
BRANCH   7  10
HETATM   10  C1  UNL     1     -32.522  18.795   0.500  1.00 20.00     0.133 C 
HETATM   11  C10 UNL     1     -32.790  18.802   1.981  1.00 20.00     0.091 C 
HETATM   12  O12 UNL     1     -31.454  19.189   0.036  1.00 20.00    -0.297 OA
ENDBRANCH   7  10
TORSDOF 1
ENDMDL
