MODEL 1
REMARK VINA RESULT:      -5.4      0.000      0.000
REMARK  3 active torsions:
REMARK  status: ('A' for Active; 'I' for Inactive)
REMARK    1  A    between atoms: C2_2  and  C6_6 
REMARK    2  A    between atoms: C3_3  and  C7_7 
REMARK    3  A    between atoms: C6_6  and  C7_7 
ROOT
HETATM    1  C7  UNL     1     -34.804   5.379   3.828  1.00 20.00     0.242 C 
HETATM    2  F9  UNL     1     -36.065   5.688   3.409  1.00 20.00    -0.241 F 
ENDROOT
BRANCH   1   3
HETATM    3  C3  UNL     1     -34.846   4.700   5.183  1.00 20.00     0.157 C 
HETATM    4  C5  UNL     1     -34.562   5.546   6.396  1.00 20.00     0.094 C 
HETATM    5  O8  UNL     1     -35.098   3.500   5.290  1.00 20.00    -0.295 OA
ENDBRANCH   1   3
BRANCH   1   6
HETATM    6  C6  UNL     1     -33.961   6.652   3.804  1.00 20.00     0.072 C 
BRANCH   6   7
HETATM    7  C2  UNL     1     -32.516   6.387   3.480  1.00 20.00    -0.028 C 
HETATM    8  C1  UNL     1     -31.771   7.180   2.696  1.00 20.00    -0.035 C 
HETATM    9  C4  UNL     1     -32.280   8.424   2.046  1.00 20.00     0.036 C 
ENDBRANCH   6   7
ENDBRANCH   1   6
TORSDOF 3
ENDMDL
MODEL 2
REMARK VINA RESULT:      -5.3      2.527      4.589
REMARK  3 active torsions:
REMARK  status: ('A' for Active; 'I' for Inactive)
REMARK    1  A    between atoms: C2_2  and  C6_6 
REMARK    2  A    between atoms: C3_3  and  C7_7 
REMARK    3  A    between atoms: C6_6  and  C7_7 
ROOT
HETATM    1  C7  UNL     1     -32.732   6.401   2.921  1.00 20.00     0.242 C 
HETATM    2  F9  UNL     1     -31.940   5.347   3.273  1.00 20.00    -0.241 F 
ENDROOT
BRANCH   1   3
HETATM    3  C3  UNL     1     -31.915   7.676   2.845  1.00 20.00     0.157 C 
HETATM    4  C5  UNL     1     -32.068   8.529   1.613  1.00 20.00     0.094 C 
HETATM    5  O8  UNL     1     -31.151   8.001   3.754  1.00 20.00    -0.295 OA
ENDBRANCH   1   3
BRANCH   1   6
HETATM    6  C6  UNL     1     -33.901   6.475   3.900  1.00 20.00     0.072 C 
BRANCH   6   7
HETATM    7  C2  UNL     1     -34.859   5.326   3.750  1.00 20.00    -0.028 C 
HETATM    8  C1  UNL     1     -35.243   4.538   4.766  1.00 20.00    -0.035 C 
HETATM    9  C4  UNL     1     -34.768   4.703   6.171  1.00 20.00     0.036 C 
ENDBRANCH   6   7
ENDBRANCH   1   6
TORSDOF 3
ENDMDL
MODEL 3
REMARK VINA RESULT:      -4.9      1.311      1.401
REMARK  3 active torsions:
REMARK  status: ('A' for Active; 'I' for Inactive)
REMARK    1  A    between atoms: C2_2  and  C6_6 
REMARK    2  A    between atoms: C3_3  and  C7_7 
REMARK    3  A    between atoms: C6_6  and  C7_7 
ROOT
HETATM    1  C7  UNL     1     -34.118   5.677   4.039  1.00 20.00     0.242 C 
HETATM    2  F9  UNL     1     -35.249   5.429   3.317  1.00 20.00    -0.241 F 
ENDROOT
BRANCH   1   3
HETATM    3  C3  UNL     1     -34.392   5.531   5.523  1.00 20.00     0.157 C 
HETATM    4  C5  UNL     1     -35.057   4.261   5.986  1.00 20.00     0.094 C 
HETATM    5  O8  UNL     1     -34.089   6.418   6.320  1.00 20.00    -0.295 OA
ENDBRANCH   1   3
BRANCH   1   6
HETATM    6  C6  UNL     1     -33.584   7.052   3.644  1.00 20.00     0.072 C 
BRANCH   6   7
HETATM    7  C2  UNL     1     -32.255   6.982   2.945  1.00 20.00    -0.028 C 
HETATM    8  C1  UNL     1     -31.798   7.931   2.115  1.00 20.00    -0.035 C 
HETATM    9  C4  UNL     1     -32.550   9.176   1.780  1.00 20.00     0.036 C 
ENDBRANCH   6   7
ENDBRANCH   1   6
TORSDOF 3
ENDMDL
MODEL 4
REMARK VINA RESULT:      -4.7      1.671      2.107
REMARK  3 active torsions:
REMARK  status: ('A' for Active; 'I' for Inactive)
REMARK    1  A    between atoms: C2_2  and  C6_6 
REMARK    2  A    between atoms: C3_3  and  C7_7 
REMARK    3  A    between atoms: C6_6  and  C7_7 
ROOT
HETATM    1  C7  UNL     1     -33.084   5.987   3.672  1.00 20.00     0.242 C 
HETATM    2  F9  UNL     1     -33.637   5.509   2.520  1.00 20.00    -0.241 F 
ENDROOT
BRANCH   1   3
HETATM    3  C3  UNL     1     -34.077   5.896   4.815  1.00 20.00     0.157 C 
HETATM    4  C5  UNL     1     -35.246   4.961   4.648  1.00 20.00     0.094 C 
HETATM    5  O8  UNL     1     -33.936   6.563   5.839  1.00 20.00    -0.295 OA
ENDBRANCH   1   3
BRANCH   1   6
HETATM    6  C6  UNL     1     -32.573   7.402   3.411  1.00 20.00     0.072 C 
BRANCH   6   7
HETATM    7  C2  UNL     1     -31.898   7.540   2.075  1.00 20.00    -0.028 C 
HETATM    8  C1  UNL     1     -31.934   8.657   1.333  1.00 20.00    -0.035 C 
HETATM    9  C4  UNL     1     -32.649   9.902   1.739  1.00 20.00     0.036 C 
ENDBRANCH   6   7
ENDBRANCH   1   6
TORSDOF 3
ENDMDL
MODEL 5
REMARK VINA RESULT:      -4.6     11.348     12.142
REMARK  3 active torsions:
REMARK  status: ('A' for Active; 'I' for Inactive)
REMARK    1  A    between atoms: C2_2  and  C6_6 
REMARK    2  A    between atoms: C3_3  and  C7_7 
REMARK    3  A    between atoms: C6_6  and  C7_7 
ROOT
HETATM    1  C7  UNL     1     -33.926  14.133  -3.428  1.00 20.00     0.242 C 
HETATM    2  F9  UNL     1     -32.601  14.431  -3.560  1.00 20.00    -0.241 F 
ENDROOT
BRANCH   1   3
HETATM    3  C3  UNL     1     -34.489  13.626  -4.741  1.00 20.00     0.157 C 
HETATM    4  C5  UNL     1     -34.545  14.593  -5.895  1.00 20.00     0.094 C 
HETATM    5  O8  UNL     1     -34.892  12.469  -4.860  1.00 20.00    -0.295 OA
ENDBRANCH   1   3
BRANCH   1   6
HETATM    6  C6  UNL     1     -34.646  15.365  -2.883  1.00 20.00     0.072 C 
BRANCH   6   7
HETATM    7  C2  UNL     1     -33.703  16.484  -2.538  1.00 20.00    -0.028 C 
HETATM    8  C1  UNL     1     -33.757  17.176  -1.390  1.00 20.00    -0.035 C 
HETATM    9  C4  UNL     1     -34.758  16.923  -0.312  1.00 20.00     0.036 C 
ENDBRANCH   6   7
ENDBRANCH   1   6
TORSDOF 3
ENDMDL
MODEL 6
REMARK VINA RESULT:      -4.5      3.196      4.910
REMARK  3 active torsions:
REMARK  status: ('A' for Active; 'I' for Inactive)
REMARK    1  A    between atoms: C2_2  and  C6_6 
REMARK    2  A    between atoms: C3_3  and  C7_7 
REMARK    3  A    between atoms: C6_6  and  C7_7 
ROOT
HETATM    1  C7  UNL     1     -31.878   7.367   2.782  1.00 20.00     0.242 C 
HETATM    2  F9  UNL     1     -31.300   7.853   3.919  1.00 20.00    -0.241 F 
ENDROOT
BRANCH   1   3
HETATM    3  C3  UNL     1     -32.006   8.462   1.742  1.00 20.00     0.157 C 
HETATM    4  C5  UNL     1     -32.805   9.684   2.112  1.00 20.00     0.094 C 
HETATM    5  O8  UNL     1     -31.481   8.356   0.634  1.00 20.00    -0.295 OA
ENDBRANCH   1   3
BRANCH   1   6
HETATM    6  C6  UNL     1     -33.207   6.714   3.157  1.00 20.00     0.072 C 
BRANCH   6   7
HETATM    7  C2  UNL     1     -33.380   6.559   4.643  1.00 20.00    -0.028 C 
HETATM    8  C1  UNL     1     -34.274   5.734   5.206  1.00 20.00    -0.035 C 
HETATM    9  C4  UNL     1     -35.209   4.866   4.432  1.00 20.00     0.036 C 
ENDBRANCH   6   7
ENDBRANCH   1   6
TORSDOF 3
ENDMDL
MODEL 7
REMARK VINA RESULT:      -4.3     11.613     12.168
REMARK  3 active torsions:
REMARK  status: ('A' for Active; 'I' for Inactive)
REMARK    1  A    between atoms: C2_2  and  C6_6 
REMARK    2  A    between atoms: C3_3  and  C7_7 
REMARK    3  A    between atoms: C6_6  and  C7_7 
ROOT
HETATM    1  C7  UNL     1     -33.807  15.409  -4.184  1.00 20.00     0.242 C 
HETATM    2  F9  UNL     1     -34.940  15.939  -4.729  1.00 20.00    -0.241 F 
ENDROOT
BRANCH   1   3
HETATM    3  C3  UNL     1     -33.947  13.908  -4.025  1.00 20.00     0.157 C 
HETATM    4  C5  UNL     1     -35.285  13.295  -4.347  1.00 20.00     0.094 C 
HETATM    5  O8  UNL     1     -33.005  13.215  -3.642  1.00 20.00    -0.295 OA
ENDBRANCH   1   3
BRANCH   1   6
HETATM    6  C6  UNL     1     -33.511  16.142  -2.877  1.00 20.00     0.072 C 
BRANCH   6   7
HETATM    7  C2  UNL     1     -34.633  16.032  -1.882  1.00 20.00    -0.028 C 
HETATM    8  C1  UNL     1     -34.711  16.768  -0.763  1.00 20.00    -0.035 C 
HETATM    9  C4  UNL     1     -33.696  17.787  -0.365  1.00 20.00     0.036 C 
ENDBRANCH   6   7
ENDBRANCH   1   6
TORSDOF 3
ENDMDL
MODEL 8
REMARK VINA RESULT:      -4.2      1.858      3.921
REMARK  3 active torsions:
REMARK  status: ('A' for Active; 'I' for Inactive)
REMARK    1  A    between atoms: C2_2  and  C6_6 
REMARK    2  A    between atoms: C3_3  and  C7_7 
REMARK    3  A    between atoms: C6_6  and  C7_7 
ROOT
HETATM    1  C7  UNL     1     -33.988   6.119   2.938  1.00 20.00     0.242 C 
HETATM    2  F9  UNL     1     -34.123   4.769   2.787  1.00 20.00    -0.241 F 
ENDROOT
BRANCH   1   3
HETATM    3  C3  UNL     1     -32.522   6.505   2.972  1.00 20.00     0.157 C 
HETATM    4  C5  UNL     1     -32.157   7.894   2.517  1.00 20.00     0.094 C 
HETATM    5  O8  UNL     1     -31.660   5.713   3.353  1.00 20.00    -0.295 OA
ENDBRANCH   1   3
BRANCH   1   6
HETATM    6  C6  UNL     1     -34.767   6.546   4.179  1.00 20.00     0.072 C 
BRANCH   6   7
HETATM    7  C2  UNL     1     -34.017   6.284   5.456  1.00 20.00    -0.028 C 
HETATM    8  C1  UNL     1     -34.201   5.196   6.218  1.00 20.00    -0.035 C 
HETATM    9  C4  UNL     1     -35.171   4.109   5.896  1.00 20.00     0.036 C 
ENDBRANCH   6   7
ENDBRANCH   1   6
TORSDOF 3
ENDMDL
MODEL 9
REMARK VINA RESULT:      -4.2     11.410     12.300
REMARK  3 active torsions:
REMARK  status: ('A' for Active; 'I' for Inactive)
REMARK    1  A    between atoms: C2_2  and  C6_6 
REMARK    2  A    between atoms: C3_3  and  C7_7 
REMARK    3  A    between atoms: C6_6  and  C7_7 
ROOT
HETATM    1  C7  UNL     1     -35.166  13.657  -4.687  1.00 20.00     0.242 C 
HETATM    2  F9  UNL     1     -34.507  14.005  -5.830  1.00 20.00    -0.241 F 
ENDROOT
BRANCH   1   3
HETATM    3  C3  UNL     1     -36.446  14.457  -4.548  1.00 20.00     0.157 C 
HETATM    4  C5  UNL     1     -36.597  15.686  -5.406  1.00 20.00     0.094 C 
HETATM    5  O8  UNL     1     -37.329  14.120  -3.759  1.00 20.00    -0.295 OA
ENDBRANCH   1   3
BRANCH   1   6
HETATM    6  C6  UNL     1     -34.208  13.818  -3.510  1.00 20.00     0.072 C 
BRANCH   6   7
HETATM    7  C2  UNL     1     -33.421  15.098  -3.570  1.00 20.00    -0.028 C 
HETATM    8  C1  UNL     1     -33.643  16.147  -2.765  1.00 20.00    -0.035 C 
HETATM    9  C4  UNL     1     -34.697  16.177  -1.709  1.00 20.00     0.036 C 
ENDBRANCH   6   7
ENDBRANCH   1   6
TORSDOF 3
ENDMDL
