MODEL 1
REMARK VINA RESULT:      -4.1      0.000      0.000
REMARK  0 active torsions:
REMARK  status: ('A' for Active; 'I' for Inactive)
ROOT
HETATM    1  C1  UNL     1     -34.717  16.242  -1.994  1.00 20.00     0.026 C 
HETATM    2  C2  UNL     1     -35.661  15.276  -3.661  1.00 20.00     0.017 C 
HETATM    3  C3  UNL     1     -34.574  16.689  -0.742  1.00 20.00     0.040 C 
HETATM    4  C4  UNL     1     -33.582  16.069  -2.960  1.00 20.00     0.073 C 
HETATM    5  C5  UNL     1     -34.193  15.146  -4.023  1.00 20.00    -0.002 C 
HETATM    6  C6  UNL     1     -36.748  14.731  -4.534  1.00 20.00     0.066 C 
HETATM    7  C7  UNL     1     -33.895  15.639  -5.435  1.00 20.00     0.021 C 
HETATM    8  C8  UNL     1     -33.738  13.696  -3.839  1.00 20.00     0.021 C 
HETATM    9  N9  UNL     1     -35.921  15.862  -2.532  1.00 20.00    -0.263 NA
ENDROOT
TORSDOF 0
ENDMDL
MODEL 2
REMARK VINA RESULT:      -4.0      0.876      2.922
REMARK  0 active torsions:
REMARK  status: ('A' for Active; 'I' for Inactive)
ROOT
HETATM    1  C1  UNL     1     -36.722  14.814  -3.726  1.00 20.00     0.026 C 
HETATM    2  C2  UNL     1     -34.852  15.611  -3.041  1.00 20.00     0.017 C 
HETATM    3  C3  UNL     1     -38.040  14.768  -3.951  1.00 20.00     0.040 C 
HETATM    4  C4  UNL     1     -35.718  13.950  -4.432  1.00 20.00     0.073 C 
HETATM    5  C5  UNL     1     -34.400  14.688  -4.157  1.00 20.00    -0.002 C 
HETATM    6  C6  UNL     1     -33.884  16.426  -2.241  1.00 20.00     0.066 C 
HETATM    7  C7  UNL     1     -33.302  13.728  -3.712  1.00 20.00     0.021 C 
HETATM    8  C8  UNL     1     -33.954  15.512  -5.367  1.00 20.00     0.021 C 
HETATM    9  N9  UNL     1     -36.133  15.679  -2.839  1.00 20.00    -0.263 NA
ENDROOT
TORSDOF 0
ENDMDL
MODEL 3
REMARK VINA RESULT:      -3.9      1.283      2.965
REMARK  0 active torsions:
REMARK  status: ('A' for Active; 'I' for Inactive)
ROOT
HETATM    1  C1  UNL     1     -36.817  15.003  -3.906  1.00 20.00     0.026 C 
HETATM    2  C2  UNL     1     -34.729  14.555  -3.712  1.00 20.00     0.017 C 
HETATM    3  C3  UNL     1     -38.134  14.771  -3.949  1.00 20.00     0.040 C 
HETATM    4  C4  UNL     1     -36.210  16.358  -3.689  1.00 20.00     0.073 C 
HETATM    5  C5  UNL     1     -34.770  16.010  -3.284  1.00 20.00    -0.002 C 
HETATM    6  C6  UNL     1     -33.456  13.769  -3.736  1.00 20.00     0.066 C 
HETATM    7  C7  UNL     1     -33.754  16.868  -4.031  1.00 20.00     0.021 C 
HETATM    8  C8  UNL     1     -34.571  16.114  -1.770  1.00 20.00     0.021 C 
HETATM    9  N9  UNL     1     -35.868  14.020  -4.027  1.00 20.00    -0.263 NA
ENDROOT
TORSDOF 0
ENDMDL
MODEL 4
REMARK VINA RESULT:      -3.9      1.390      2.330
REMARK  0 active torsions:
REMARK  status: ('A' for Active; 'I' for Inactive)
ROOT
HETATM    1  C1  UNL     1     -33.969  16.222  -3.000  1.00 20.00     0.026 C 
HETATM    2  C2  UNL     1     -34.219  15.712  -5.068  1.00 20.00     0.017 C 
HETATM    3  C3  UNL     1     -33.750  17.001  -1.935  1.00 20.00     0.040 C 
HETATM    4  C4  UNL     1     -34.595  14.860  -2.929  1.00 20.00     0.073 C 
HETATM    5  C5  UNL     1     -35.017  14.617  -4.386  1.00 20.00    -0.002 C 
HETATM    6  C6  UNL     1     -34.096  15.797  -6.557  1.00 20.00     0.066 C 
HETATM    7  C7  UNL     1     -34.620  13.223  -4.861  1.00 20.00     0.021 C 
HETATM    8  C8  UNL     1     -36.514  14.862  -4.586  1.00 20.00     0.021 C 
HETATM    9  N9  UNL     1     -33.672  16.593  -4.287  1.00 20.00    -0.263 NA
ENDROOT
TORSDOF 0
ENDMDL
MODEL 5
REMARK VINA RESULT:      -3.9      1.566      2.998
REMARK  0 active torsions:
REMARK  status: ('A' for Active; 'I' for Inactive)
ROOT
HETATM    1  C1  UNL     1     -33.897  17.297  -4.947  1.00 20.00     0.026 C 
HETATM    2  C2  UNL     1     -34.220  16.375  -3.038  1.00 20.00     0.017 C 
HETATM    3  C3  UNL     1     -33.586  18.263  -5.818  1.00 20.00     0.040 C 
HETATM    4  C4  UNL     1     -33.926  15.836  -5.289  1.00 20.00     0.073 C 
HETATM    5  C5  UNL     1     -33.885  15.175  -3.905  1.00 20.00    -0.002 C 
HETATM    6  C6  UNL     1     -34.523  16.243  -1.579  1.00 20.00     0.066 C 
HETATM    7  C7  UNL     1     -34.920  14.060  -3.783  1.00 20.00     0.021 C 
HETATM    8  C8  UNL     1     -32.482  14.663  -3.567  1.00 20.00     0.021 C 
HETATM    9  N9  UNL     1     -34.198  17.530  -3.629  1.00 20.00    -0.263 NA
ENDROOT
TORSDOF 0
ENDMDL
MODEL 6
REMARK VINA RESULT:      -3.9      1.957      3.467
REMARK  0 active torsions:
REMARK  status: ('A' for Active; 'I' for Inactive)
ROOT
HETATM    1  C1  UNL     1     -33.713  17.501  -4.952  1.00 20.00     0.026 C 
HETATM    2  C2  UNL     1     -33.358  15.668  -3.897  1.00 20.00     0.017 C 
HETATM    3  C3  UNL     1     -33.680  18.371  -5.968  1.00 20.00     0.040 C 
HETATM    4  C4  UNL     1     -34.653  17.606  -3.787  1.00 20.00     0.073 C 
HETATM    5  C5  UNL     1     -34.595  16.192  -3.191  1.00 20.00    -0.002 C 
HETATM    6  C6  UNL     1     -32.713  14.372  -3.516  1.00 20.00     0.066 C 
HETATM    7  C7  UNL     1     -34.431  16.226  -1.675  1.00 20.00     0.021 C 
HETATM    8  C8  UNL     1     -35.816  15.361  -3.595  1.00 20.00     0.021 C 
HETATM    9  N9  UNL     1     -32.907  16.394  -4.874  1.00 20.00    -0.263 NA
ENDROOT
TORSDOF 0
ENDMDL
MODEL 7
REMARK VINA RESULT:      -3.9      1.409      3.077
REMARK  0 active torsions:
REMARK  status: ('A' for Active; 'I' for Inactive)
ROOT
HETATM    1  C1  UNL     1     -35.064  14.259  -3.932  1.00 20.00     0.026 C 
HETATM    2  C2  UNL     1     -36.027  16.031  -3.201  1.00 20.00     0.017 C 
HETATM    3  C3  UNL     1     -34.840  13.214  -4.736  1.00 20.00     0.040 C 
HETATM    4  C4  UNL     1     -34.052  14.810  -2.970  1.00 20.00     0.073 C 
HETATM    5  C5  UNL     1     -34.620  16.201  -2.657  1.00 20.00    -0.002 C 
HETATM    6  C6  UNL     1     -37.102  17.044  -2.960  1.00 20.00     0.066 C 
HETATM    7  C7  UNL     1     -34.604  16.492  -1.160  1.00 20.00     0.021 C 
HETATM    8  C8  UNL     1     -33.889  17.296  -3.439  1.00 20.00     0.021 C 
HETATM    9  N9  UNL     1     -36.238  14.968  -3.915  1.00 20.00    -0.263 NA
ENDROOT
TORSDOF 0
ENDMDL
MODEL 8
REMARK VINA RESULT:      -3.8     11.198     12.608
REMARK  0 active torsions:
REMARK  status: ('A' for Active; 'I' for Inactive)
ROOT
HETATM    1  C1  UNL     1     -42.442   6.981  -3.110  1.00 20.00     0.026 C 
HETATM    2  C2  UNL     1     -42.716   4.946  -2.488  1.00 20.00     0.017 C 
HETATM    3  C3  UNL     1     -42.710   8.128  -3.742  1.00 20.00     0.040 C 
HETATM    4  C4  UNL     1     -41.499   6.862  -1.948  1.00 20.00     0.073 C 
HETATM    5  C5  UNL     1     -41.892   5.507  -1.344  1.00 20.00    -0.002 C 
HETATM    6  C6  UNL     1     -43.181   3.524  -2.511  1.00 20.00     0.066 C 
HETATM    7  C7  UNL     1     -40.667   4.653  -1.033  1.00 20.00     0.021 C 
HETATM    8  C8  UNL     1     -42.772   5.679  -0.103  1.00 20.00     0.021 C 
HETATM    9  N9  UNL     1     -43.023   5.780  -3.433  1.00 20.00    -0.263 NA
ENDROOT
TORSDOF 0
ENDMDL
MODEL 9
REMARK VINA RESULT:      -3.8      1.623      2.494
REMARK  0 active torsions:
REMARK  status: ('A' for Active; 'I' for Inactive)
ROOT
HETATM    1  C1  UNL     1     -33.783  17.277  -3.885  1.00 20.00     0.026 C 
HETATM    2  C2  UNL     1     -34.178  15.677  -5.258  1.00 20.00     0.017 C 
HETATM    3  C3  UNL     1     -33.706  18.536  -3.442  1.00 20.00     0.040 C 
HETATM    4  C4  UNL     1     -33.783  16.070  -2.992  1.00 20.00     0.073 C 
HETATM    5  C5  UNL     1     -34.329  14.976  -3.920  1.00 20.00    -0.002 C 
HETATM    6  C6  UNL     1     -34.373  14.961  -6.558  1.00 20.00     0.066 C 
HETATM    7  C7  UNL     1     -33.498  13.700  -3.833  1.00 20.00     0.021 C 
HETATM    8  C8  UNL     1     -35.807  14.690  -3.645  1.00 20.00     0.021 C 
HETATM    9  N9  UNL     1     -33.900  16.944  -5.211  1.00 20.00    -0.263 NA
ENDROOT
TORSDOF 0
ENDMDL
