MODEL 1
REMARK VINA RESULT:      -4.8      0.000      0.000
REMARK  3 active torsions:
REMARK  status: ('A' for Active; 'I' for Inactive)
REMARK    1  A    between atoms: C3_3  and  C7_7 
REMARK    2  A    between atoms: C5_5  and  C8_8 
REMARK    3  A    between atoms: C6_6  and  C9_9 
ROOT
HETATM    1  C7  UNL     1     -34.815  14.977  -4.180  1.00 20.00     0.097 A 
HETATM    2  C8  UNL     1     -34.541  15.699  -2.875  1.00 20.00     0.013 A 
HETATM    3  C9  UNL     1     -33.431  14.938  -3.563  1.00 20.00     0.013 A 
ENDROOT
BRANCH   1   4
HETATM    4  C3  UNL     1     -35.600  13.759  -4.101  1.00 20.00     0.177 C 
HETATM    5  O10 UNL     1     -36.831  13.924  -3.871  1.00 20.00    -0.648 OA
HETATM    6  O11 UNL     1     -34.945  12.693  -4.274  1.00 20.00    -0.648 OA
ENDBRANCH   1   4
BRANCH   2   7
HETATM    7  C5  UNL     1     -33.977  17.123  -2.753  1.00 20.00     0.014 C 
HETATM    8  C1  UNL     1     -35.141  18.095  -2.612  1.00 20.00    -0.025 C 
HETATM    9  C2  UNL     1     -35.694  17.871  -1.406  1.00 20.00    -0.025 C 
HETATM   10  C6  UNL     1     -34.893  16.752  -0.753  1.00 20.00     0.014 C 
HETATM   11  C4  UNL     1     -33.514  17.188  -1.285  1.00 20.00     0.017 C 
ENDBRANCH   2   7
TORSDOF 3
ENDMDL
MODEL 2
REMARK VINA RESULT:      -4.6      1.017      1.455
REMARK  3 active torsions:
REMARK  status: ('A' for Active; 'I' for Inactive)
REMARK    1  A    between atoms: C3_3  and  C7_7 
REMARK    2  A    between atoms: C5_5  and  C8_8 
REMARK    3  A    between atoms: C6_6  and  C9_9 
ROOT
HETATM    1  C7  UNL     1     -34.019  14.817  -4.319  1.00 20.00     0.097 A 
HETATM    2  C8  UNL     1     -34.043  15.715  -3.098  1.00 20.00     0.013 A 
HETATM    3  C9  UNL     1     -32.771  15.570  -3.901  1.00 20.00     0.013 A 
ENDROOT
BRANCH   1   4
HETATM    4  C3  UNL     1     -34.030  13.385  -4.078  1.00 20.00     0.177 C 
HETATM    5  O10 UNL     1     -32.927  12.891  -3.714  1.00 20.00    -0.648 OA
HETATM    6  O11 UNL     1     -35.146  12.825  -4.266  1.00 20.00    -0.648 OA
ENDBRANCH   1   4
BRANCH   2   7
HETATM    7  C5  UNL     1     -34.308  17.229  -3.117  1.00 20.00     0.014 C 
HETATM    8  C1  UNL     1     -35.747  17.474  -2.686  1.00 20.00    -0.025 C 
HETATM    9  C2  UNL     1     -35.823  17.159  -1.379  1.00 20.00    -0.025 C 
HETATM   10  C6  UNL     1     -34.434  16.706  -0.952  1.00 20.00     0.014 C 
HETATM   11  C4  UNL     1     -33.647  17.714  -1.812  1.00 20.00     0.017 C 
ENDBRANCH   2   7
TORSDOF 3
ENDMDL
MODEL 3
REMARK VINA RESULT:      -4.4      1.224      2.172
REMARK  3 active torsions:
REMARK  status: ('A' for Active; 'I' for Inactive)
REMARK    1  A    between atoms: C3_3  and  C7_7 
REMARK    2  A    between atoms: C5_5  and  C8_8 
REMARK    3  A    between atoms: C6_6  and  C9_9 
ROOT
HETATM    1  C7  UNL     1     -35.201  14.094  -3.474  1.00 20.00     0.097 A 
HETATM    2  C8  UNL     1     -34.898  15.568  -3.290  1.00 20.00     0.013 A 
HETATM    3  C9  UNL     1     -36.027  15.138  -4.200  1.00 20.00     0.013 A 
ENDROOT
BRANCH   1   4
HETATM    4  C3  UNL     1     -34.264  13.329  -4.276  1.00 20.00     0.177 C 
HETATM    5  O10 UNL     1     -33.108  13.205  -3.783  1.00 20.00    -0.648 OA
HETATM    6  O11 UNL     1     -34.732  12.888  -5.363  1.00 20.00    -0.648 OA
ENDBRANCH   1   4
BRANCH   2   7
HETATM    7  C5  UNL     1     -35.588  16.495  -2.277  1.00 20.00     0.014 C 
HETATM    8  C1  UNL     1     -34.716  16.587  -1.033  1.00 20.00    -0.025 C 
HETATM    9  C2  UNL     1     -33.610  17.271  -1.381  1.00 20.00    -0.025 C 
HETATM   10  C6  UNL     1     -33.756  17.628  -2.854  1.00 20.00     0.014 C 
HETATM   11  C4  UNL     1     -35.273  17.901  -2.821  1.00 20.00     0.017 C 
ENDBRANCH   2   7
TORSDOF 3
ENDMDL
MODEL 4
REMARK VINA RESULT:      -4.3      2.504      4.266
REMARK  3 active torsions:
REMARK  status: ('A' for Active; 'I' for Inactive)
REMARK    1  A    between atoms: C3_3  and  C7_7 
REMARK    2  A    between atoms: C5_5  and  C8_8 
REMARK    3  A    between atoms: C6_6  and  C9_9 
ROOT
HETATM    1  C7  UNL     1     -33.781  16.785  -2.067  1.00 20.00     0.097 A 
HETATM    2  C8  UNL     1     -34.325  15.968  -3.222  1.00 20.00     0.013 A 
HETATM    3  C9  UNL     1     -33.789  17.360  -3.470  1.00 20.00     0.013 A 
ENDROOT
BRANCH   1   4
HETATM    4  C3  UNL     1     -34.753  17.326  -1.133  1.00 20.00     0.177 C 
HETATM    5  O10 UNL     1     -35.390  18.336  -1.543  1.00 20.00    -0.648 OA
HETATM    6  O11 UNL     1     -34.831  16.710  -0.033  1.00 20.00    -0.648 OA
ENDBRANCH   1   4
BRANCH   2   7
HETATM    7  C5  UNL     1     -33.482  15.088  -4.158  1.00 20.00     0.014 C 
HETATM    8  C1  UNL     1     -33.735  13.628  -3.809  1.00 20.00    -0.025 C 
HETATM    9  C2  UNL     1     -35.001  13.352  -4.174  1.00 20.00    -0.025 C 
HETATM   10  C6  UNL     1     -35.579  14.632  -4.764  1.00 20.00     0.014 C 
HETATM   11  C4  UNL     1     -34.291  15.100  -5.469  1.00 20.00     0.017 C 
ENDBRANCH   2   7
TORSDOF 3
ENDMDL
MODEL 5
REMARK VINA RESULT:      -4.2      2.029      3.078
REMARK  3 active torsions:
REMARK  status: ('A' for Active; 'I' for Inactive)
REMARK    1  A    between atoms: C3_3  and  C7_7 
REMARK    2  A    between atoms: C5_5  and  C8_8 
REMARK    3  A    between atoms: C6_6  and  C9_9 
ROOT
HETATM    1  C7  UNL     1     -34.653  14.638  -3.406  1.00 20.00     0.097 A 
HETATM    2  C8  UNL     1     -34.912  15.735  -4.420  1.00 20.00     0.013 A 
HETATM    3  C9  UNL     1     -36.074  15.035  -3.754  1.00 20.00     0.013 A 
ENDROOT
BRANCH   1   4
HETATM    4  C3  UNL     1     -34.184  13.365  -3.923  1.00 20.00     0.177 C 
HETATM    5  O10 UNL     1     -35.069  12.642  -4.460  1.00 20.00    -0.648 OA
HETATM    6  O11 UNL     1     -32.949  13.152  -3.767  1.00 20.00    -0.648 OA
ENDBRANCH   1   4
BRANCH   2   7
HETATM    7  C5  UNL     1     -35.144  17.216  -4.084  1.00 20.00     0.014 C 
HETATM    8  C1  UNL     1     -33.824  17.959  -4.231  1.00 20.00    -0.025 C 
HETATM    9  C2  UNL     1     -33.531  17.978  -5.545  1.00 20.00    -0.025 C 
HETATM   10  C6  UNL     1     -34.658  17.247  -6.261  1.00 20.00     0.014 C 
HETATM   11  C4  UNL     1     -35.801  17.764  -5.365  1.00 20.00     0.017 C 
ENDBRANCH   2   7
TORSDOF 3
ENDMDL
MODEL 6
REMARK VINA RESULT:      -4.1      1.855      2.565
REMARK  3 active torsions:
REMARK  status: ('A' for Active; 'I' for Inactive)
REMARK    1  A    between atoms: C3_3  and  C7_7 
REMARK    2  A    between atoms: C5_5  and  C8_8 
REMARK    3  A    between atoms: C6_6  and  C9_9 
ROOT
HETATM    1  C7  UNL     1     -33.649  15.601  -3.153  1.00 20.00     0.097 A 
HETATM    2  C8  UNL     1     -34.319  16.729  -2.394  1.00 20.00     0.013 A 
HETATM    3  C9  UNL     1     -35.012  15.392  -2.525  1.00 20.00     0.013 A 
ENDROOT
BRANCH   1   4
HETATM    4  C3  UNL     1     -33.607  15.721  -4.600  1.00 20.00     0.177 C 
HETATM    5  O10 UNL     1     -34.386  14.950  -5.227  1.00 20.00    -0.648 OA
HETATM    6  O11 UNL     1     -32.795  16.583  -5.038  1.00 20.00    -0.648 OA
ENDBRANCH   1   4
BRANCH   2   7
HETATM    7  C5  UNL     1     -34.239  16.944  -0.874  1.00 20.00     0.014 C 
HETATM    8  C1  UNL     1     -33.212  18.032  -0.593  1.00 20.00    -0.025 C 
HETATM    9  C2  UNL     1     -33.732  19.187  -1.046  1.00 20.00    -0.025 C 
HETATM   10  C6  UNL     1     -35.101  18.859  -1.626  1.00 20.00     0.014 C 
HETATM   11  C4  UNL     1     -35.487  17.797  -0.578  1.00 20.00     0.017 C 
ENDBRANCH   2   7
TORSDOF 3
ENDMDL
MODEL 7
REMARK VINA RESULT:      -4.1      2.977      4.619
REMARK  3 active torsions:
REMARK  status: ('A' for Active; 'I' for Inactive)
REMARK    1  A    between atoms: C3_3  and  C7_7 
REMARK    2  A    between atoms: C5_5  and  C8_8 
REMARK    3  A    between atoms: C6_6  and  C9_9 
ROOT
HETATM    1  C7  UNL     1     -34.383  14.618  -4.034  1.00 20.00     0.097 A 
HETATM    2  C8  UNL     1     -34.797  14.554  -5.491  1.00 20.00     0.013 A 
HETATM    3  C9  UNL     1     -35.372  13.567  -4.500  1.00 20.00     0.013 A 
ENDROOT
BRANCH   1   4
HETATM    4  C3  UNL     1     -33.044  14.158  -3.714  1.00 20.00     0.177 C 
HETATM    5  O10 UNL     1     -32.900  12.905  -3.667  1.00 20.00    -0.648 OA
HETATM    6  O11 UNL     1     -32.198  15.078  -3.526  1.00 20.00    -0.648 OA
ENDBRANCH   1   4
BRANCH   2   7
HETATM    7  C5  UNL     1     -36.042  15.228  -6.089  1.00 20.00     0.014 C 
HETATM    8  C1  UNL     1     -35.669  16.640  -6.518  1.00 20.00    -0.025 C 
HETATM    9  C2  UNL     1     -34.840  16.522  -7.572  1.00 20.00    -0.025 C 
HETATM   10  C6  UNL     1     -34.667  15.033  -7.835  1.00 20.00     0.014 C 
HETATM   11  C4  UNL     1     -36.117  14.626  -7.505  1.00 20.00     0.017 C 
ENDBRANCH   2   7
TORSDOF 3
ENDMDL
MODEL 8
REMARK VINA RESULT:      -4.0      1.930      2.934
REMARK  3 active torsions:
REMARK  status: ('A' for Active; 'I' for Inactive)
REMARK    1  A    between atoms: C3_3  and  C7_7 
REMARK    2  A    between atoms: C5_5  and  C8_8 
REMARK    3  A    between atoms: C6_6  and  C9_9 
ROOT
HETATM    1  C7  UNL     1     -36.515  14.739  -5.106  1.00 20.00     0.097 A 
HETATM    2  C8  UNL     1     -35.307  15.273  -4.361  1.00 20.00     0.013 A 
HETATM    3  C9  UNL     1     -35.618  13.795  -4.329  1.00 20.00     0.013 A 
ENDROOT
BRANCH   1   4
HETATM    4  C3  UNL     1     -37.817  15.025  -4.532  1.00 20.00     0.177 C 
HETATM    5  O10 UNL     1     -38.209  14.210  -3.651  1.00 20.00    -0.648 OA
HETATM    6  O11 UNL     1     -38.384  16.056  -4.991  1.00 20.00    -0.648 OA
ENDBRANCH   1   4
BRANCH   2   7
HETATM    7  C5  UNL     1     -33.875  15.326  -4.917  1.00 20.00     0.014 C 
HETATM    8  C1  UNL     1     -33.592  16.744  -5.392  1.00 20.00    -0.025 C 
HETATM    9  C2  UNL     1     -33.530  17.519  -4.294  1.00 20.00    -0.025 C 
HETATM   10  C6  UNL     1     -33.774  16.610  -3.097  1.00 20.00     0.014 C 
HETATM   11  C4  UNL     1     -33.010  15.389  -3.644  1.00 20.00     0.017 C 
ENDBRANCH   2   7
TORSDOF 3
ENDMDL
MODEL 9
REMARK VINA RESULT:      -4.0      2.280      3.489
REMARK  3 active torsions:
REMARK  status: ('A' for Active; 'I' for Inactive)
REMARK    1  A    between atoms: C3_3  and  C7_7 
REMARK    2  A    between atoms: C5_5  and  C8_8 
REMARK    3  A    between atoms: C6_6  and  C9_9 
ROOT
HETATM    1  C7  UNL     1     -34.573  14.754  -4.310  1.00 20.00     0.097 A 
HETATM    2  C8  UNL     1     -35.996  15.011  -3.853  1.00 20.00     0.013 A 
HETATM    3  C9  UNL     1     -34.836  15.440  -2.983  1.00 20.00     0.013 A 
ENDROOT
BRANCH   1   4
HETATM    4  C3  UNL     1     -34.106  13.381  -4.254  1.00 20.00     0.177 C 
HETATM    5  O10 UNL     1     -33.063  13.193  -3.568  1.00 20.00    -0.648 OA
HETATM    6  O11 UNL     1     -34.809  12.555  -4.902  1.00 20.00    -0.648 OA
ENDBRANCH   1   4
BRANCH   2   7
HETATM    7  C5  UNL     1     -36.776  16.315  -4.078  1.00 20.00     0.014 C 
HETATM    8  C1  UNL     1     -37.378  16.285  -5.476  1.00 20.00    -0.025 C 
HETATM    9  C2  UNL     1     -38.338  15.342  -5.469  1.00 20.00    -0.025 C 
HETATM   10  C6  UNL     1     -38.367  14.752  -4.065  1.00 20.00     0.014 C 
HETATM   11  C4  UNL     1     -38.091  16.070  -3.314  1.00 20.00     0.017 C 
ENDBRANCH   2   7
TORSDOF 3
ENDMDL
