MODEL 1
REMARK VINA RESULT:      -4.3      0.000      0.000
REMARK  0 active torsions:
REMARK  status: ('A' for Active; 'I' for Inactive)
ROOT
HETATM    1  C1  UNL     1     -34.484  16.554  -1.126  1.00 20.00     0.017 C 
HETATM    2  C2  UNL     1     -34.354  16.318  -2.296  1.00 20.00    -0.050 C 
HETATM    3  C3  UNL     1     -35.015  13.381  -4.368  1.00 20.00     0.053 C 
HETATM    4  C4  UNL     1     -33.703  13.671  -3.659  1.00 20.00     0.174 C 
HETATM    5  C5  UNL     1     -36.015  14.487  -4.078  1.00 20.00     0.174 C 
HETATM    6  C6  UNL     1     -34.190  16.014  -3.791  1.00 20.00     0.227 C 
HETATM    7  C7  UNL     1     -33.646  17.222  -4.441  1.00 20.00     0.095 C 
HETATM    8  O8  UNL     1     -33.232  14.970  -4.005  1.00 20.00    -0.345 OA
HETATM    9  O9  UNL     1     -35.457  15.755  -4.409  1.00 20.00    -0.345 OA
ENDROOT
TORSDOF 0
ENDMDL
MODEL 2
REMARK VINA RESULT:      -4.1      1.226      2.742
REMARK  0 active torsions:
REMARK  status: ('A' for Active; 'I' for Inactive)
ROOT
HETATM    1  C1  UNL     1     -34.663  16.272  -1.539  1.00 20.00     0.017 C 
HETATM    2  C2  UNL     1     -34.305  15.819  -2.592  1.00 20.00    -0.050 C 
HETATM    3  C3  UNL     1     -34.522  16.986  -6.048  1.00 20.00     0.053 C 
HETATM    4  C4  UNL     1     -35.567  16.135  -5.348  1.00 20.00     0.174 C 
HETATM    5  C5  UNL     1     -33.378  17.289  -5.095  1.00 20.00     0.174 C 
HETATM    6  C6  UNL     1     -33.846  15.243  -3.938  1.00 20.00     0.227 C 
HETATM    7  C7  UNL     1     -33.193  13.946  -3.677  1.00 20.00     0.095 C 
HETATM    8  O8  UNL     1     -34.964  14.971  -4.793  1.00 20.00    -0.345 OA
HETATM    9  O9  UNL     1     -32.857  16.081  -4.550  1.00 20.00    -0.345 OA
ENDROOT
TORSDOF 0
ENDMDL
MODEL 3
REMARK VINA RESULT:      -4.0      1.348      2.314
REMARK  0 active torsions:
REMARK  status: ('A' for Active; 'I' for Inactive)
ROOT
HETATM    1  C1  UNL     1     -34.587  16.324  -1.529  1.00 20.00     0.017 C 
HETATM    2  C2  UNL     1     -34.594  15.644  -2.519  1.00 20.00    -0.050 C 
HETATM    3  C3  UNL     1     -36.829  15.403  -5.401  1.00 20.00     0.053 C 
HETATM    4  C4  UNL     1     -36.972  14.604  -4.117  1.00 20.00     0.174 C 
HETATM    5  C5  UNL     1     -35.625  16.326  -5.304  1.00 20.00     0.174 C 
HETATM    6  C6  UNL     1     -34.605  14.778  -3.786  1.00 20.00     0.227 C 
HETATM    7  C7  UNL     1     -33.426  13.890  -3.737  1.00 20.00     0.095 C 
HETATM    8  O8  UNL     1     -35.756  13.925  -3.820  1.00 20.00    -0.345 OA
HETATM    9  O9  UNL     1     -34.460  15.582  -4.964  1.00 20.00    -0.345 OA
ENDROOT
TORSDOF 0
ENDMDL
MODEL 4
REMARK VINA RESULT:      -3.9      0.775      2.493
REMARK  0 active torsions:
REMARK  status: ('A' for Active; 'I' for Inactive)
ROOT
HETATM    1  C1  UNL     1     -33.659  17.551  -4.853  1.00 20.00     0.017 C 
HETATM    2  C2  UNL     1     -34.037  16.741  -4.051  1.00 20.00    -0.050 C 
HETATM    3  C3  UNL     1     -35.230  13.297  -4.311  1.00 20.00     0.053 C 
HETATM    4  C4  UNL     1     -36.110  14.532  -4.385  1.00 20.00     0.174 C 
HETATM    5  C5  UNL     1     -33.778  13.706  -4.125  1.00 20.00     0.174 C 
HETATM    6  C6  UNL     1     -34.519  15.704  -3.029  1.00 20.00     0.227 C 
HETATM    7  C7  UNL     1     -34.450  16.322  -1.690  1.00 20.00     0.095 C 
HETATM    8  O8  UNL     1     -35.893  15.361  -3.247  1.00 20.00    -0.345 OA
HETATM    9  O9  UNL     1     -33.649  14.565  -2.997  1.00 20.00    -0.345 OA
ENDROOT
TORSDOF 0
ENDMDL
MODEL 5
REMARK VINA RESULT:      -3.8      1.835      3.410
REMARK  0 active torsions:
REMARK  status: ('A' for Active; 'I' for Inactive)
ROOT
HETATM    1  C1  UNL     1     -34.607  14.839  -7.266  1.00 20.00     0.017 C 
HETATM    2  C2  UNL     1     -34.331  15.648  -6.423  1.00 20.00    -0.050 C 
HETATM    3  C3  UNL     1     -34.067  15.513  -2.781  1.00 20.00     0.053 C 
HETATM    4  C4  UNL     1     -35.332  15.848  -3.552  1.00 20.00     0.174 C 
HETATM    5  C5  UNL     1     -32.931  15.231  -3.749  1.00 20.00     0.174 C 
HETATM    6  C6  UNL     1     -33.977  16.681  -5.345  1.00 20.00     0.227 C 
HETATM    7  C7  UNL     1     -33.703  17.964  -6.020  1.00 20.00     0.095 C 
HETATM    8  O8  UNL     1     -35.085  16.912  -4.466  1.00 20.00    -0.345 OA
HETATM    9  O9  UNL     1     -32.774  16.318  -4.656  1.00 20.00    -0.345 OA
ENDROOT
TORSDOF 0
ENDMDL
MODEL 6
REMARK VINA RESULT:      -3.8      1.652      3.092
REMARK  0 active torsions:
REMARK  status: ('A' for Active; 'I' for Inactive)
ROOT
HETATM    1  C1  UNL     1     -37.332  14.713  -4.025  1.00 20.00     0.017 C 
HETATM    2  C2  UNL     1     -36.303  14.664  -4.643  1.00 20.00    -0.050 C 
HETATM    3  C3  UNL     1     -32.783  14.988  -3.717  1.00 20.00     0.053 C 
HETATM    4  C4  UNL     1     -33.685  16.137  -4.132  1.00 20.00     0.174 C 
HETATM    5  C5  UNL     1     -33.565  13.685  -3.732  1.00 20.00     0.174 C 
HETATM    6  C6  UNL     1     -34.988  14.600  -5.430  1.00 20.00     0.227 C 
HETATM    7  C7  UNL     1     -35.319  14.353  -6.847  1.00 20.00     0.095 C 
HETATM    8  O8  UNL     1     -34.297  15.855  -5.387  1.00 20.00    -0.345 OA
HETATM    9  O9  UNL     1     -34.181  13.495  -5.002  1.00 20.00    -0.345 OA
ENDROOT
TORSDOF 0
ENDMDL
MODEL 7
REMARK VINA RESULT:      -3.8      1.490      2.162
REMARK  0 active torsions:
REMARK  status: ('A' for Active; 'I' for Inactive)
ROOT
HETATM    1  C1  UNL     1     -34.567  16.261  -1.545  1.00 20.00     0.017 C 
HETATM    2  C2  UNL     1     -35.231  15.993  -2.508  1.00 20.00    -0.050 C 
HETATM    3  C3  UNL     1     -34.620  14.037  -5.534  1.00 20.00     0.053 C 
HETATM    4  C4  UNL     1     -34.341  15.523  -5.385  1.00 20.00     0.174 C 
HETATM    5  C5  UNL     1     -35.180  13.483  -4.235  1.00 20.00     0.174 C 
HETATM    6  C6  UNL     1     -36.079  15.648  -3.740  1.00 20.00     0.227 C 
HETATM    7  C7  UNL     1     -37.400  16.285  -3.573  1.00 20.00     0.095 C 
HETATM    8  O8  UNL     1     -35.509  16.201  -4.933  1.00 20.00    -0.345 OA
HETATM    9  O9  UNL     1     -36.316  14.237  -3.827  1.00 20.00    -0.345 OA
ENDROOT
TORSDOF 0
ENDMDL
MODEL 8
REMARK VINA RESULT:      -3.8      1.658      3.428
REMARK  0 active torsions:
REMARK  status: ('A' for Active; 'I' for Inactive)
ROOT
HETATM    1  C1  UNL     1     -35.428  14.367  -7.326  1.00 20.00     0.017 C 
HETATM    2  C2  UNL     1     -35.490  14.547  -6.141  1.00 20.00    -0.050 C 
HETATM    3  C3  UNL     1     -32.986  15.033  -3.524  1.00 20.00     0.053 C 
HETATM    4  C4  UNL     1     -33.539  13.688  -3.963  1.00 20.00     0.174 C 
HETATM    5  C5  UNL     1     -33.620  16.145  -4.342  1.00 20.00     0.174 C 
HETATM    6  C6  UNL     1     -35.568  14.778  -4.626  1.00 20.00     0.227 C 
HETATM    7  C7  UNL     1     -36.993  14.790  -4.242  1.00 20.00     0.095 C 
HETATM    8  O8  UNL     1     -34.962  13.697  -3.905  1.00 20.00    -0.345 OA
HETATM    9  O9  UNL     1     -35.040  16.062  -4.270  1.00 20.00    -0.345 OA
ENDROOT
TORSDOF 0
ENDMDL
MODEL 9
REMARK VINA RESULT:      -3.8      1.472      3.133
REMARK  0 active torsions:
REMARK  status: ('A' for Active; 'I' for Inactive)
ROOT
HETATM    1  C1  UNL     1     -34.375  16.024  -6.666  1.00 20.00     0.017 C 
HETATM    2  C2  UNL     1     -34.508  15.360  -5.675  1.00 20.00    -0.050 C 
HETATM    3  C3  UNL     1     -34.880  16.160  -2.129  1.00 20.00     0.053 C 
HETATM    4  C4  UNL     1     -33.556  15.934  -2.837  1.00 20.00     0.174 C 
HETATM    5  C5  UNL     1     -36.026  16.016  -3.116  1.00 20.00     0.174 C 
HETATM    6  C6  UNL     1     -34.678  14.513  -4.407  1.00 20.00     0.227 C 
HETATM    7  C7  UNL     1     -34.680  13.092  -4.808  1.00 20.00     0.095 C 
HETATM    8  O8  UNL     1     -33.568  14.683  -3.517  1.00 20.00    -0.345 OA
HETATM    9  O9  UNL     1     -35.945  14.761  -3.785  1.00 20.00    -0.345 OA
ENDROOT
TORSDOF 0
ENDMDL
