MODEL 1
REMARK VINA RESULT:      -3.7      0.000      0.000
REMARK  0 active torsions:
REMARK  status: ('A' for Active; 'I' for Inactive)
ROOT
HETATM    1  C1  UNL     1     -35.741  15.231  -3.533  1.00 20.00     0.080 A 
HETATM    2  C2  UNL     1     -34.629  16.277  -1.437  1.00 20.00     0.019 A 
HETATM    3  C3  UNL     1     -33.373  15.138  -3.443  1.00 20.00     0.128 A 
HETATM    4  C4  UNL     1     -35.318  16.424  -2.767  1.00 20.00     0.053 A 
HETATM    5  C5  UNL     1     -33.813  16.363  -2.697  1.00 20.00     0.015 A 
HETATM    6  C6  UNL     1     -34.555  13.290  -4.680  1.00 20.00     0.150 C 
HETATM    7  N7  UNL     1     -34.612  14.525  -3.915  1.00 20.00    -0.379 N 
HETATM    8  S8  UNL     1     -37.354  14.961  -3.772  1.00 20.00    -0.065 SA
ENDROOT
TORSDOF 0
ENDMDL
MODEL 2
REMARK VINA RESULT:      -3.6     12.299     12.735
REMARK  0 active torsions:
REMARK  status: ('A' for Active; 'I' for Inactive)
ROOT
HETATM    1  C1  UNL     1     -34.268   5.574   3.835  1.00 20.00     0.080 A 
HETATM    2  C2  UNL     1     -34.722   4.061   5.891  1.00 20.00     0.019 A 
HETATM    3  C3  UNL     1     -33.601   6.435   5.941  1.00 20.00     0.128 A 
HETATM    4  C4  UNL     1     -35.210   5.002   4.823  1.00 20.00     0.053 A 
HETATM    5  C5  UNL     1     -34.782   5.538   6.166  1.00 20.00     0.015 A 
HETATM    6  C6  UNL     1     -32.275   7.158   3.926  1.00 20.00     0.150 C 
HETATM    7  N7  UNL     1     -33.371   6.395   4.499  1.00 20.00    -0.379 N 
HETATM    8  S8  UNL     1     -34.427   5.161   2.242  1.00 20.00    -0.065 SA
ENDROOT
TORSDOF 0
ENDMDL
MODEL 3
REMARK VINA RESULT:      -3.6      2.342      2.801
REMARK  0 active torsions:
REMARK  status: ('A' for Active; 'I' for Inactive)
ROOT
HETATM    1  C1  UNL     1     -33.879  15.978  -5.116  1.00 20.00     0.080 A 
HETATM    2  C2  UNL     1     -34.688  15.092  -2.817  1.00 20.00     0.019 A 
HETATM    3  C3  UNL     1     -34.424  13.673  -5.012  1.00 20.00     0.128 A 
HETATM    4  C4  UNL     1     -33.584  15.555  -3.729  1.00 20.00     0.053 A 
HETATM    5  C5  UNL     1     -33.940  14.092  -3.655  1.00 20.00     0.015 A 
HETATM    6  C6  UNL     1     -34.756  14.839  -7.219  1.00 20.00     0.150 C 
HETATM    7  N7  UNL     1     -34.345  14.884  -5.826  1.00 20.00    -0.379 N 
HETATM    8  S8  UNL     1     -33.635  17.557  -5.542  1.00 20.00    -0.065 SA
ENDROOT
TORSDOF 0
ENDMDL
MODEL 4
REMARK VINA RESULT:      -3.5     12.159     12.642
REMARK  0 active torsions:
REMARK  status: ('A' for Active; 'I' for Inactive)
ROOT
HETATM    1  C1  UNL     1     -33.860   6.336   5.270  1.00 20.00     0.080 A 
HETATM    2  C2  UNL     1     -32.353   6.123   3.171  1.00 20.00     0.019 A 
HETATM    3  C3  UNL     1     -34.564   4.781   3.625  1.00 20.00     0.128 A 
HETATM    4  C4  UNL     1     -33.380   6.871   3.977  1.00 20.00     0.053 A 
HETATM    5  C5  UNL     1     -33.816   5.879   2.928  1.00 20.00     0.015 A 
HETATM    6  C6  UNL     1     -35.177   4.287   6.017  1.00 20.00     0.150 C 
HETATM    7  N7  UNL     1     -34.540   5.152   5.038  1.00 20.00    -0.379 N 
HETATM    8  S8  UNL     1     -33.518   7.167   6.658  1.00 20.00    -0.065 SA
ENDROOT
TORSDOF 0
ENDMDL
MODEL 5
REMARK VINA RESULT:      -3.5      2.333      3.144
REMARK  0 active torsions:
REMARK  status: ('A' for Active; 'I' for Inactive)
ROOT
HETATM    1  C1  UNL     1     -34.339  15.308  -5.588  1.00 20.00     0.080 A 
HETATM    2  C2  UNL     1     -33.456  13.642  -3.808  1.00 20.00     0.019 A 
HETATM    3  C3  UNL     1     -33.817  16.220  -3.464  1.00 20.00     0.128 A 
HETATM    4  C4  UNL     1     -34.588  14.225  -4.611  1.00 20.00     0.053 A 
HETATM    5  C5  UNL     1     -34.245  14.797  -3.258  1.00 20.00     0.015 A 
HETATM    6  C6  UNL     1     -33.555  17.728  -5.463  1.00 20.00     0.150 C 
HETATM    7  N7  UNL     1     -33.913  16.435  -4.905  1.00 20.00    -0.379 N 
HETATM    8  S8  UNL     1     -34.581  15.008  -7.196  1.00 20.00    -0.065 SA
ENDROOT
TORSDOF 0
ENDMDL
MODEL 6
REMARK VINA RESULT:      -3.5      1.594      2.327
REMARK  0 active torsions:
REMARK  status: ('A' for Active; 'I' for Inactive)
ROOT
HETATM    1  C1  UNL     1     -35.434  15.242  -4.154  1.00 20.00     0.080 A 
HETATM    2  C2  UNL     1     -33.337  13.766  -3.768  1.00 20.00     0.019 A 
HETATM    3  C3  UNL     1     -33.356  16.178  -4.806  1.00 20.00     0.128 A 
HETATM    4  C4  UNL     1     -34.425  14.662  -3.240  1.00 20.00     0.053 A 
HETATM    5  C5  UNL     1     -33.099  15.246  -3.659  1.00 20.00     0.015 A 
HETATM    6  C6  UNL     1     -35.399  16.896  -6.090  1.00 20.00     0.150 C 
HETATM    7  N7  UNL     1     -34.799  16.110  -5.026  1.00 20.00    -0.379 N 
HETATM    8  S8  UNL     1     -37.014  14.782  -3.998  1.00 20.00    -0.065 SA
ENDROOT
TORSDOF 0
ENDMDL
MODEL 7
REMARK VINA RESULT:      -3.4      1.453      2.747
REMARK  0 active torsions:
REMARK  status: ('A' for Active; 'I' for Inactive)
ROOT
HETATM    1  C1  UNL     1     -35.254  15.484  -3.854  1.00 20.00     0.080 A 
HETATM    2  C2  UNL     1     -34.450  13.263  -4.922  1.00 20.00     0.019 A 
HETATM    3  C3  UNL     1     -32.920  15.074  -3.793  1.00 20.00     0.128 A 
HETATM    4  C4  UNL     1     -35.104  14.014  -3.793  1.00 20.00     0.053 A 
HETATM    5  C5  UNL     1     -33.619  13.748  -3.766  1.00 20.00     0.015 A 
HETATM    6  C6  UNL     1     -33.668  17.477  -3.887  1.00 20.00     0.150 C 
HETATM    7  N7  UNL     1     -33.995  16.062  -3.840  1.00 20.00    -0.379 N 
HETATM    8  S8  UNL     1     -36.773  16.133  -3.933  1.00 20.00    -0.065 SA
ENDROOT
TORSDOF 0
ENDMDL
MODEL 8
REMARK VINA RESULT:      -3.4     11.321     12.169
REMARK  0 active torsions:
REMARK  status: ('A' for Active; 'I' for Inactive)
ROOT
HETATM    1  C1  UNL     1     -42.233   6.125  -2.488  1.00 20.00     0.080 A 
HETATM    2  C2  UNL     1     -41.466   6.218  -0.013  1.00 20.00     0.019 A 
HETATM    3  C3  UNL     1     -41.371   4.112  -1.579  1.00 20.00     0.128 A 
HETATM    4  C4  UNL     1     -41.243   6.533  -1.467  1.00 20.00     0.053 A 
HETATM    5  C5  UNL     1     -40.700   5.256  -0.878  1.00 20.00     0.015 A 
HETATM    6  C6  UNL     1     -43.106   3.909  -3.392  1.00 20.00     0.150 C 
HETATM    7  N7  UNL     1     -42.276   4.741  -2.538  1.00 20.00    -0.379 N 
HETATM    8  S8  UNL     1     -43.059   7.292  -3.317  1.00 20.00    -0.065 SA
ENDROOT
TORSDOF 0
ENDMDL
MODEL 9
REMARK VINA RESULT:      -3.4      2.191      3.203
REMARK  0 active torsions:
REMARK  status: ('A' for Active; 'I' for Inactive)
ROOT
HETATM    1  C1  UNL     1     -34.070  15.711  -3.598  1.00 20.00     0.080 A 
HETATM    2  C2  UNL     1     -35.656  13.734  -4.147  1.00 20.00     0.019 A 
HETATM    3  C3  UNL     1     -34.153  15.030  -5.867  1.00 20.00     0.128 A 
HETATM    4  C4  UNL     1     -34.367  14.261  -3.575  1.00 20.00     0.053 A 
HETATM    5  C5  UNL     1     -34.433  13.826  -5.018  1.00 20.00     0.015 A 
HETATM    6  C6  UNL     1     -33.653  17.455  -5.407  1.00 20.00     0.150 C 
HETATM    7  N7  UNL     1     -33.941  16.118  -4.915  1.00 20.00    -0.379 N 
HETATM    8  S8  UNL     1     -33.963  16.530  -2.166  1.00 20.00    -0.065 SA
ENDROOT
TORSDOF 0
ENDMDL
