MODEL 1
REMARK VINA RESULT:      -4.6      0.000      0.000
REMARK  2 active torsions:
REMARK  status: ('A' for Active; 'I' for Inactive)
REMARK    1  A    between atoms: C3_3  and  C5_5 
REMARK    2  A    between atoms: C4_4  and  C9_9 
ROOT
HETATM    1  C1  UNL     1     -33.962  17.602  -3.984  1.00 20.00     0.005 C 
HETATM    2  C2  UNL     1     -33.400  17.236  -5.129  1.00 20.00     0.132 C 
HETATM    3  C4  UNL     1     -33.660  16.569  -2.960  1.00 20.00     0.050 C 
HETATM    4  C5  UNL     1     -33.022  15.473  -3.833  1.00 20.00     0.204 C 
HETATM    5  O11 UNL     1     -32.726  16.035  -5.128  1.00 20.00    -0.350 OA
ENDROOT
BRANCH   3   6
HETATM    6  C9  UNL     1     -34.870  16.148  -2.140  1.00 20.00    -0.012 C 
HETATM    7  C7  UNL     1     -34.718  16.587  -0.683  1.00 20.00     0.010 C 
HETATM    8  C8  UNL     1     -36.156  16.722  -2.737  1.00 20.00     0.010 C 
ENDBRANCH   3   6
BRANCH   4   9
HETATM    9  C3  UNL     1     -33.893  14.284  -4.113  1.00 20.00     0.152 C 
HETATM   10  C6  UNL     1     -34.710  14.327  -5.377  1.00 20.00     0.093 C 
HETATM   11  O10 UNL     1     -33.936  13.322  -3.349  1.00 20.00    -0.296 OA
ENDBRANCH   4   9
TORSDOF 2
ENDMDL
MODEL 2
REMARK VINA RESULT:      -4.5      1.481      3.545
REMARK  2 active torsions:
REMARK  status: ('A' for Active; 'I' for Inactive)
REMARK    1  A    between atoms: C3_3  and  C5_5 
REMARK    2  A    between atoms: C4_4  and  C9_9 
ROOT
HETATM    1  C1  UNL     1     -34.618  14.094  -5.731  1.00 20.00     0.005 C 
HETATM    2  C2  UNL     1     -34.807  13.117  -4.853  1.00 20.00     0.132 C 
HETATM    3  C4  UNL     1     -33.944  15.223  -5.040  1.00 20.00     0.050 C 
HETATM    4  C5  UNL     1     -34.015  14.753  -3.577  1.00 20.00     0.204 C 
HETATM    5  O11 UNL     1     -34.393  13.361  -3.562  1.00 20.00    -0.350 OA
ENDROOT
BRANCH   3   6
HETATM    6  C9  UNL     1     -34.566  16.580  -5.336  1.00 20.00    -0.012 C 
HETATM    7  C7  UNL     1     -33.503  17.679  -5.327  1.00 20.00     0.010 C 
HETATM    8  C8  UNL     1     -35.299  16.559  -6.678  1.00 20.00     0.010 C 
ENDBRANCH   3   6
BRANCH   4   9
HETATM    9  C3  UNL     1     -35.040  15.444  -2.726  1.00 20.00     0.152 C 
HETATM   10  C6  UNL     1     -34.521  16.300  -1.603  1.00 20.00     0.093 C 
HETATM   11  O10 UNL     1     -36.245  15.318  -2.938  1.00 20.00    -0.296 OA
ENDBRANCH   4   9
TORSDOF 2
ENDMDL
MODEL 3
REMARK VINA RESULT:      -4.4      1.854      3.113
REMARK  2 active torsions:
REMARK  status: ('A' for Active; 'I' for Inactive)
REMARK    1  A    between atoms: C3_3  and  C5_5 
REMARK    2  A    between atoms: C4_4  and  C9_9 
ROOT
HETATM    1  C1  UNL     1     -33.583  14.080  -3.825  1.00 20.00     0.005 C 
HETATM    2  C2  UNL     1     -34.021  13.220  -4.735  1.00 20.00     0.132 C 
HETATM    3  C4  UNL     1     -34.750  14.587  -3.057  1.00 20.00     0.050 C 
HETATM    4  C5  UNL     1     -35.913  14.005  -3.879  1.00 20.00     0.204 C 
HETATM    5  O11 UNL     1     -35.382  13.019  -4.789  1.00 20.00    -0.350 OA
ENDROOT
BRANCH   3   6
HETATM    6  C9  UNL     1     -34.752  16.097  -2.874  1.00 20.00    -0.012 C 
HETATM    7  C7  UNL     1     -34.657  16.464  -1.392  1.00 20.00     0.010 C 
HETATM    8  C8  UNL     1     -33.606  16.740  -3.655  1.00 20.00     0.010 C 
ENDBRANCH   3   6
BRANCH   4   9
HETATM    9  C3  UNL     1     -36.642  14.986  -4.750  1.00 20.00     0.152 C 
HETATM   10  C6  UNL     1     -37.971  15.480  -4.247  1.00 20.00     0.093 C 
HETATM   11  O10 UNL     1     -36.174  15.369  -5.821  1.00 20.00    -0.296 OA
ENDBRANCH   4   9
TORSDOF 2
ENDMDL
MODEL 4
REMARK VINA RESULT:      -4.4      2.001      2.773
REMARK  2 active torsions:
REMARK  status: ('A' for Active; 'I' for Inactive)
REMARK    1  A    between atoms: C3_3  and  C5_5 
REMARK    2  A    between atoms: C4_4  and  C9_9 
ROOT
HETATM    1  C1  UNL     1     -36.601  15.325  -6.172  1.00 20.00     0.005 C 
HETATM    2  C2  UNL     1     -35.915  14.656  -7.090  1.00 20.00     0.132 C 
HETATM    3  C4  UNL     1     -35.679  15.682  -5.063  1.00 20.00     0.050 C 
HETATM    4  C5  UNL     1     -34.426  14.881  -5.457  1.00 20.00     0.204 C 
HETATM    5  O11 UNL     1     -34.585  14.423  -6.816  1.00 20.00    -0.350 OA
ENDROOT
BRANCH   3   6
HETATM    6  C9  UNL     1     -36.246  15.396  -3.681  1.00 20.00    -0.012 C 
HETATM    7  C7  UNL     1     -36.041  16.593  -2.751  1.00 20.00     0.010 C 
HETATM    8  C8  UNL     1     -37.730  15.038  -3.766  1.00 20.00     0.010 C 
ENDBRANCH   3   6
BRANCH   4   9
HETATM    9  C3  UNL     1     -34.176  13.638  -4.654  1.00 20.00     0.152 C 
HETATM   10  C6  UNL     1     -33.101  13.716  -3.605  1.00 20.00     0.093 C 
HETATM   11  O10 UNL     1     -34.820  12.608  -4.844  1.00 20.00    -0.296 OA
ENDBRANCH   4   9
TORSDOF 2
ENDMDL
MODEL 5
REMARK VINA RESULT:      -4.3      2.251      3.921
REMARK  2 active torsions:
REMARK  status: ('A' for Active; 'I' for Inactive)
REMARK    1  A    between atoms: C3_3  and  C5_5 
REMARK    2  A    between atoms: C4_4  and  C9_9 
ROOT
HETATM    1  C1  UNL     1     -35.983  16.638  -4.867  1.00 20.00     0.005 C 
HETATM    2  C2  UNL     1     -35.979  16.484  -3.550  1.00 20.00     0.132 C 
HETATM    3  C4  UNL     1     -36.264  15.321  -5.494  1.00 20.00     0.050 C 
HETATM    4  C5  UNL     1     -36.184  14.393  -4.269  1.00 20.00     0.204 C 
HETATM    5  O11 UNL     1     -36.191  15.207  -3.078  1.00 20.00    -0.350 OA
ENDROOT
BRANCH   3   6
HETATM    6  C9  UNL     1     -35.333  14.981  -6.649  1.00 20.00    -0.012 C 
HETATM    7  C7  UNL     1     -36.130  14.668  -7.915  1.00 20.00     0.010 C 
HETATM    8  C8  UNL     1     -34.352  16.125  -6.908  1.00 20.00     0.010 C 
ENDBRANCH   3   6
BRANCH   4   9
HETATM    9  C3  UNL     1     -34.938  13.564  -4.167  1.00 20.00     0.152 C 
HETATM   10  C6  UNL     1     -33.781  14.171  -3.419  1.00 20.00     0.093 C 
HETATM   11  O10 UNL     1     -34.865  12.444  -4.670  1.00 20.00    -0.296 OA
ENDBRANCH   4   9
TORSDOF 2
ENDMDL
MODEL 6
REMARK VINA RESULT:      -4.2      1.378      2.865
REMARK  2 active torsions:
REMARK  status: ('A' for Active; 'I' for Inactive)
REMARK    1  A    between atoms: C3_3  and  C5_5 
REMARK    2  A    between atoms: C4_4  and  C9_9 
ROOT
HETATM    1  C1  UNL     1     -34.602  14.183  -3.303  1.00 20.00     0.005 C 
HETATM    2  C2  UNL     1     -34.042  13.610  -4.361  1.00 20.00     0.132 C 
HETATM    3  C4  UNL     1     -35.370  15.369  -3.762  1.00 20.00     0.050 C 
HETATM    4  C5  UNL     1     -34.927  15.451  -5.234  1.00 20.00     0.204 C 
HETATM    5  O11 UNL     1     -34.254  14.222  -5.577  1.00 20.00    -0.350 OA
ENDROOT
BRANCH   3   6
HETATM    6  C9  UNL     1     -35.129  16.616  -2.923  1.00 20.00    -0.012 C 
HETATM    7  C7  UNL     1     -36.403  17.455  -2.819  1.00 20.00     0.010 C 
HETATM    8  C8  UNL     1     -34.622  16.242  -1.530  1.00 20.00     0.010 C 
ENDBRANCH   3   6
BRANCH   4   9
HETATM    9  C3  UNL     1     -33.942  16.537  -5.552  1.00 20.00     0.152 C 
HETATM   10  C6  UNL     1     -34.432  17.660  -6.424  1.00 20.00     0.093 C 
HETATM   11  O10 UNL     1     -32.791  16.509  -5.119  1.00 20.00    -0.296 OA
ENDBRANCH   4   9
TORSDOF 2
ENDMDL
MODEL 7
REMARK VINA RESULT:      -4.1      1.744      3.397
REMARK  2 active torsions:
REMARK  status: ('A' for Active; 'I' for Inactive)
REMARK    1  A    between atoms: C3_3  and  C5_5 
REMARK    2  A    between atoms: C4_4  and  C9_9 
ROOT
HETATM    1  C1  UNL     1     -34.321  13.615  -4.343  1.00 20.00     0.005 C 
HETATM    2  C2  UNL     1     -33.184  13.614  -3.660  1.00 20.00     0.132 C 
HETATM    3  C4  UNL     1     -34.507  14.960  -4.946  1.00 20.00     0.050 C 
HETATM    4  C5  UNL     1     -33.369  15.742  -4.267  1.00 20.00     0.204 C 
HETATM    5  O11 UNL     1     -32.482  14.799  -3.631  1.00 20.00    -0.350 OA
ENDROOT
BRANCH   3   6
HETATM    6  C9  UNL     1     -35.908  15.524  -4.761  1.00 20.00    -0.012 C 
HETATM    7  C7  UNL     1     -36.533  15.879  -6.110  1.00 20.00     0.010 C 
HETATM    8  C8  UNL     1     -36.796  14.535  -4.006  1.00 20.00     0.010 C 
ENDBRANCH   3   6
BRANCH   4   9
HETATM    9  C3  UNL     1     -33.792  16.677  -3.173  1.00 20.00     0.152 C 
HETATM   10  C6  UNL     1     -33.888  18.136  -3.529  1.00 20.00     0.093 C 
HETATM   11  O10 UNL     1     -34.049  16.271  -2.041  1.00 20.00    -0.296 OA
ENDBRANCH   4   9
TORSDOF 2
ENDMDL
MODEL 8
REMARK VINA RESULT:      -4.1      2.126      3.475
REMARK  2 active torsions:
REMARK  status: ('A' for Active; 'I' for Inactive)
REMARK    1  A    between atoms: C3_3  and  C5_5 
REMARK    2  A    between atoms: C4_4  and  C9_9 
ROOT
HETATM    1  C1  UNL     1     -35.170  14.402  -6.669  1.00 20.00     0.005 C 
HETATM    2  C2  UNL     1     -34.374  15.079  -7.486  1.00 20.00     0.132 C 
HETATM    3  C4  UNL     1     -35.718  15.343  -5.659  1.00 20.00     0.050 C 
HETATM    4  C5  UNL     1     -34.886  16.603  -5.954  1.00 20.00     0.204 C 
HETATM    5  O11 UNL     1     -34.212  16.420  -7.217  1.00 20.00    -0.350 OA
ENDROOT
BRANCH   3   6
HETATM    6  C9  UNL     1     -35.649  14.817  -4.233  1.00 20.00    -0.012 C 
HETATM    7  C7  UNL     1     -37.018  14.901  -3.556  1.00 20.00     0.010 C 
HETATM    8  C8  UNL     1     -35.131  13.379  -4.209  1.00 20.00     0.010 C 
ENDBRANCH   3   6
BRANCH   4   9
HETATM    9  C3  UNL     1     -33.794  16.901  -4.969  1.00 20.00     0.152 C 
HETATM   10  C6  UNL     1     -34.043  18.027  -4.004  1.00 20.00     0.093 C 
HETATM   11  O10 UNL     1     -32.748  16.254  -4.952  1.00 20.00    -0.296 OA
ENDBRANCH   4   9
TORSDOF 2
ENDMDL
MODEL 9
REMARK VINA RESULT:      -4.1      2.016      2.671
REMARK  2 active torsions:
REMARK  status: ('A' for Active; 'I' for Inactive)
REMARK    1  A    between atoms: C3_3  and  C5_5 
REMARK    2  A    between atoms: C4_4  and  C9_9 
ROOT
HETATM    1  C1  UNL     1     -33.655  17.614  -3.706  1.00 20.00     0.005 C 
HETATM    2  C2  UNL     1     -33.713  18.518  -4.675  1.00 20.00     0.132 C 
HETATM    3  C4  UNL     1     -33.353  16.292  -4.313  1.00 20.00     0.050 C 
HETATM    4  C5  UNL     1     -33.486  16.623  -5.810  1.00 20.00     0.204 C 
HETATM    5  O11 UNL     1     -33.525  18.058  -5.959  1.00 20.00    -0.350 OA
ENDROOT
BRANCH   3   6
HETATM    6  C9  UNL     1     -34.237  15.166  -3.798  1.00 20.00    -0.012 C 
HETATM    7  C7  UNL     1     -33.461  13.849  -3.742  1.00 20.00     0.010 C 
HETATM    8  C8  UNL     1     -34.804  15.509  -2.420  1.00 20.00     0.010 C 
ENDBRANCH   3   6
BRANCH   4   9
HETATM    9  C3  UNL     1     -34.738  16.128  -6.471  1.00 20.00     0.152 C 
HETATM   10  C6  UNL     1     -34.605  14.915  -7.352  1.00 20.00     0.093 C 
HETATM   11  O10 UNL     1     -35.821  16.687  -6.301  1.00 20.00    -0.296 OA
ENDBRANCH   4   9
TORSDOF 2
ENDMDL
