MODEL 1
REMARK VINA RESULT:      -5.1      0.000      0.000
REMARK  1 active torsions:
REMARK  status: ('A' for Active; 'I' for Inactive)
REMARK    1  A    between atoms: C2_2  and  C5_5 
ROOT
HETATM    1  C1  UNL     1     -34.374  14.994  -2.974  1.00 20.00     0.016 C 
HETATM    2  C2  UNL     1     -34.188  14.808  -4.289  1.00 20.00    -0.019 C 
HETATM    3  C3  UNL     1     -34.277  16.310  -2.362  1.00 20.00    -0.066 C 
HETATM    4  C4  UNL     1     -34.615  16.513  -1.080  1.00 20.00     0.019 C 
HETATM    5  C6  UNL     1     -33.896  15.916  -5.262  1.00 20.00     0.050 C 
HETATM    6  C7  UNL     1     -33.779  17.435  -3.243  1.00 20.00     0.047 C 
HETATM    7  C8  UNL     1     -34.265  17.319  -4.710  1.00 20.00    -0.040 C 
HETATM    8  C9  UNL     1     -35.789  17.548  -4.797  1.00 20.00     0.015 C 
HETATM    9  C10 UNL     1     -33.573  18.397  -5.563  1.00 20.00     0.015 C 
ENDROOT
BRANCH   2  10
HETATM   10  C5  UNL     1     -34.305  13.442  -4.804  1.00 20.00     0.265 C 
HETATM   11  O11 UNL     1     -35.080  12.621  -4.327  1.00 20.00    -0.302 OA
ENDBRANCH   2  10
TORSDOF 1
ENDMDL
MODEL 2
REMARK VINA RESULT:      -4.8      1.918      3.055
REMARK  1 active torsions:
REMARK  status: ('A' for Active; 'I' for Inactive)
REMARK    1  A    between atoms: C2_2  and  C5_5 
ROOT
HETATM    1  C1  UNL     1     -35.555  14.557  -3.716  1.00 20.00     0.016 C 
HETATM    2  C2  UNL     1     -36.408  15.570  -3.504  1.00 20.00    -0.019 C 
HETATM    3  C3  UNL     1     -34.117  14.722  -3.581  1.00 20.00    -0.066 C 
HETATM    4  C4  UNL     1     -33.282  13.673  -3.642  1.00 20.00     0.019 C 
HETATM    5  C6  UNL     1     -35.987  16.949  -3.083  1.00 20.00     0.050 C 
HETATM    6  C7  UNL     1     -33.610  16.132  -3.366  1.00 20.00     0.047 C 
HETATM    7  C8  UNL     1     -34.554  16.989  -2.486  1.00 20.00    -0.040 C 
HETATM    8  C9  UNL     1     -34.562  16.469  -1.033  1.00 20.00     0.015 C 
HETATM    9  C10 UNL     1     -34.053  18.444  -2.468  1.00 20.00     0.015 C 
ENDROOT
BRANCH   2  10
HETATM   10  C5  UNL     1     -37.838  15.298  -3.670  1.00 20.00     0.265 C 
HETATM   11  O11 UNL     1     -38.289  14.162  -3.745  1.00 20.00    -0.302 OA
ENDBRANCH   2  10
TORSDOF 1
ENDMDL
MODEL 3
REMARK VINA RESULT:      -4.7      2.034      3.573
REMARK  1 active torsions:
REMARK  status: ('A' for Active; 'I' for Inactive)
REMARK    1  A    between atoms: C2_2  and  C5_5 
ROOT
HETATM    1  C1  UNL     1     -34.101  17.499  -3.087  1.00 20.00     0.016 C 
HETATM    2  C2  UNL     1     -33.868  17.272  -4.388  1.00 20.00    -0.019 C 
HETATM    3  C3  UNL     1     -34.494  16.433  -2.180  1.00 20.00    -0.066 C 
HETATM    4  C4  UNL     1     -34.575  16.634  -0.856  1.00 20.00     0.019 C 
HETATM    5  C6  UNL     1     -33.954  15.919  -5.035  1.00 20.00     0.050 C 
HETATM    6  C7  UNL     1     -34.805  15.089  -2.802  1.00 20.00     0.047 C 
HETATM    7  C8  UNL     1     -33.895  14.753  -4.011  1.00 20.00    -0.040 C 
HETATM    8  C9  UNL     1     -32.441  14.519  -3.546  1.00 20.00     0.015 C 
HETATM    9  C10 UNL     1     -34.394  13.462  -4.682  1.00 20.00     0.015 C 
ENDROOT
BRANCH   2  10
HETATM   10  C5  UNL     1     -33.480  18.416  -5.217  1.00 20.00     0.265 C 
HETATM   11  O11 UNL     1     -33.692  18.460  -6.423  1.00 20.00    -0.302 OA
ENDBRANCH   2  10
TORSDOF 1
ENDMDL
MODEL 4
REMARK VINA RESULT:      -4.5      1.450      1.673
REMARK  1 active torsions:
REMARK  status: ('A' for Active; 'I' for Inactive)
REMARK    1  A    between atoms: C2_2  and  C5_5 
ROOT
HETATM    1  C1  UNL     1     -34.323  15.165  -2.733  1.00 20.00     0.016 C 
HETATM    2  C2  UNL     1     -34.624  14.805  -3.989  1.00 20.00    -0.019 C 
HETATM    3  C3  UNL     1     -34.793  16.415  -2.158  1.00 20.00    -0.066 C 
HETATM    4  C4  UNL     1     -34.620  16.697  -0.857  1.00 20.00     0.019 C 
HETATM    5  C6  UNL     1     -35.486  15.618  -4.913  1.00 20.00     0.050 C 
HETATM    6  C7  UNL     1     -35.488  17.377  -3.096  1.00 20.00     0.047 C 
HETATM    7  C8  UNL     1     -36.355  16.666  -4.165  1.00 20.00    -0.040 C 
HETATM    8  C9  UNL     1     -37.574  15.984  -3.509  1.00 20.00     0.015 C 
HETATM    9  C10 UNL     1     -36.876  17.705  -5.174  1.00 20.00     0.015 C 
ENDROOT
BRANCH   2  10
HETATM   10  C5  UNL     1     -34.097  13.527  -4.474  1.00 20.00     0.265 C 
HETATM   11  O11 UNL     1     -34.821  12.584  -4.769  1.00 20.00    -0.302 OA
ENDBRANCH   2  10
TORSDOF 1
ENDMDL
MODEL 5
REMARK VINA RESULT:      -4.5      2.259      3.852
REMARK  1 active torsions:
REMARK  status: ('A' for Active; 'I' for Inactive)
REMARK    1  A    between atoms: C2_2  and  C5_5 
ROOT
HETATM    1  C1  UNL     1     -36.269  15.045  -5.971  1.00 20.00     0.016 C 
HETATM    2  C2  UNL     1     -36.768  15.189  -4.735  1.00 20.00    -0.019 C 
HETATM    3  C3  UNL     1     -34.864  15.270  -6.264  1.00 20.00    -0.066 C 
HETATM    4  C4  UNL     1     -34.342  14.975  -7.465  1.00 20.00     0.019 C 
HETATM    5  C6  UNL     1     -35.945  15.561  -3.534  1.00 20.00     0.050 C 
HETATM    6  C7  UNL     1     -34.020  15.850  -5.149  1.00 20.00     0.047 C 
HETATM    7  C8  UNL     1     -34.424  15.329  -3.747  1.00 20.00    -0.040 C 
HETATM    8  C9  UNL     1     -34.085  13.829  -3.606  1.00 20.00     0.015 C 
HETATM    9  C10 UNL     1     -33.639  16.098  -2.671  1.00 20.00     0.015 C 
ENDROOT
BRANCH   2  10
HETATM   10  C5  UNL     1     -38.200  14.942  -4.548  1.00 20.00     0.265 C 
HETATM   11  O11 UNL     1     -38.641  14.301  -3.601  1.00 20.00    -0.302 OA
ENDBRANCH   2  10
TORSDOF 1
ENDMDL
MODEL 6
REMARK VINA RESULT:      -4.4      1.245      2.911
REMARK  1 active torsions:
REMARK  status: ('A' for Active; 'I' for Inactive)
REMARK    1  A    between atoms: C2_2  and  C5_5 
ROOT
HETATM    1  C1  UNL     1     -35.901  15.653  -4.903  1.00 20.00     0.016 C 
HETATM    2  C2  UNL     1     -35.011  14.872  -4.273  1.00 20.00    -0.019 C 
HETATM    3  C3  UNL     1     -36.506  16.806  -4.256  1.00 20.00    -0.066 C 
HETATM    4  C4  UNL     1     -37.274  17.669  -4.938  1.00 20.00     0.019 C 
HETATM    5  C6  UNL     1     -34.526  15.112  -2.871  1.00 20.00     0.050 C 
HETATM    6  C7  UNL     1     -36.224  16.984  -2.780  1.00 20.00     0.047 C 
HETATM    7  C8  UNL     1     -34.788  16.561  -2.379  1.00 20.00    -0.040 C 
HETATM    8  C9  UNL     1     -33.749  17.530  -2.982  1.00 20.00     0.015 C 
HETATM    9  C10 UNL     1     -34.652  16.609  -0.847  1.00 20.00     0.015 C 
ENDROOT
BRANCH   2  10
HETATM   10  C5  UNL     1     -34.464  13.733  -5.013  1.00 20.00     0.265 C 
HETATM   11  O11 UNL     1     -34.786  12.575  -4.775  1.00 20.00    -0.302 OA
ENDBRANCH   2  10
TORSDOF 1
ENDMDL
MODEL 7
REMARK VINA RESULT:      -4.4     11.919     13.366
REMARK  1 active torsions:
REMARK  status: ('A' for Active; 'I' for Inactive)
REMARK    1  A    between atoms: C2_2  and  C5_5 
ROOT
HETATM    1  C1  UNL     1     -42.729   5.407  -3.042  1.00 20.00     0.016 C 
HETATM    2  C2  UNL     1     -42.458   6.677  -2.708  1.00 20.00    -0.019 C 
HETATM    3  C3  UNL     1     -42.148   4.283  -2.326  1.00 20.00    -0.066 C 
HETATM    4  C4  UNL     1     -42.541   3.022  -2.563  1.00 20.00     0.019 C 
HETATM    5  C6  UNL     1     -41.567   7.074  -1.564  1.00 20.00     0.050 C 
HETATM    6  C7  UNL     1     -41.081   4.606  -1.303  1.00 20.00     0.047 C 
HETATM    7  C8  UNL     1     -41.350   5.928  -0.540  1.00 20.00    -0.040 C 
HETATM    8  C9  UNL     1     -42.585   5.784   0.376  1.00 20.00     0.015 C 
HETATM    9  C10 UNL     1     -40.137   6.263   0.345  1.00 20.00     0.015 C 
ENDROOT
BRANCH   2  10
HETATM   10  C5  UNL     1     -43.093   7.736  -3.496  1.00 20.00     0.265 C 
HETATM   11  O11 UNL     1     -43.417   7.583  -4.667  1.00 20.00    -0.302 OA
ENDBRANCH   2  10
TORSDOF 1
ENDMDL
MODEL 8
REMARK VINA RESULT:      -4.4      1.850      3.776
REMARK  1 active torsions:
REMARK  status: ('A' for Active; 'I' for Inactive)
REMARK    1  A    between atoms: C2_2  and  C5_5 
ROOT
HETATM    1  C1  UNL     1     -33.764  17.432  -3.640  1.00 20.00     0.016 C 
HETATM    2  C2  UNL     1     -33.994  16.515  -2.689  1.00 20.00    -0.019 C 
HETATM    3  C3  UNL     1     -33.778  17.092  -5.053  1.00 20.00    -0.066 C 
HETATM    4  C4  UNL     1     -33.701  18.039  -6.002  1.00 20.00     0.019 C 
HETATM    5  C6  UNL     1     -34.316  15.074  -2.970  1.00 20.00     0.050 C 
HETATM    6  C7  UNL     1     -33.885  15.623  -5.400  1.00 20.00     0.047 C 
HETATM    7  C8  UNL     1     -34.796  14.833  -4.426  1.00 20.00    -0.040 C 
HETATM    8  C9  UNL     1     -36.268  15.269  -4.587  1.00 20.00     0.015 C 
HETATM    9  C10 UNL     1     -34.706  13.332  -4.748  1.00 20.00     0.015 C 
ENDROOT
BRANCH   2  10
HETATM   10  C5  UNL     1     -33.954  16.960  -1.294  1.00 20.00     0.265 C 
HETATM   11  O11 UNL     1     -34.726  16.536  -0.443  1.00 20.00    -0.302 OA
ENDBRANCH   2  10
TORSDOF 1
ENDMDL
MODEL 9
REMARK VINA RESULT:      -4.3      2.471      3.624
REMARK  1 active torsions:
REMARK  status: ('A' for Active; 'I' for Inactive)
REMARK    1  A    between atoms: C2_2  and  C5_5 
ROOT
HETATM    1  C1  UNL     1     -36.204  15.600  -3.015  1.00 20.00     0.016 C 
HETATM    2  C2  UNL     1     -34.900  15.865  -3.183  1.00 20.00    -0.019 C 
HETATM    3  C3  UNL     1     -37.042  15.141  -4.110  1.00 20.00    -0.066 C 
HETATM    4  C4  UNL     1     -38.303  14.731  -3.903  1.00 20.00     0.019 C 
HETATM    5  C6  UNL     1     -34.167  15.691  -4.483  1.00 20.00     0.050 C 
HETATM    6  C7  UNL     1     -36.422  15.146  -5.490  1.00 20.00     0.047 C 
HETATM    7  C8  UNL     1     -34.918  14.771  -5.483  1.00 20.00    -0.040 C 
HETATM    8  C9  UNL     1     -34.730  13.289  -5.096  1.00 20.00     0.015 C 
HETATM    9  C10 UNL     1     -34.336  14.973  -6.893  1.00 20.00     0.015 C 
ENDROOT
BRANCH   2  10
HETATM   10  C5  UNL     1     -34.145  16.326  -2.015  1.00 20.00     0.265 C 
HETATM   11  O11 UNL     1     -34.630  16.369  -0.891  1.00 20.00    -0.302 OA
ENDBRANCH   2  10
TORSDOF 1
ENDMDL
