MODEL 1
REMARK VINA RESULT:      -4.4      0.000      0.000
REMARK  2 active torsions:
REMARK  status: ('A' for Active; 'I' for Inactive)
REMARK    1  A    between atoms: C2_2  and  C3_3 
REMARK    2  A    between atoms: C3_3  and  C6_6 
ROOT
HETATM    1  C3  UNL     1     -34.761   5.593   3.861  1.00 20.00     0.170 C 
HETATM    2  O7  UNL     1     -35.903   5.744   3.443  1.00 20.00    -0.291 OA
ENDROOT
BRANCH   1   3
HETATM    3  C2  UNL     1     -34.472   5.238   5.285  1.00 20.00     0.047 C 
HETATM    4  C1  UNL     1     -34.602   3.989   5.755  1.00 20.00     0.035 C 
HETATM    5 BR8  UNL     1     -33.939   6.635   6.414  1.00 20.00    -0.048 Br
ENDBRANCH   1   3
BRANCH   1   6
HETATM    6  C6  UNL     1     -33.611   5.750   2.923  1.00 20.00     0.061 A 
HETATM    7  C4  UNL     1     -32.919   7.070   2.859  1.00 20.00     0.013 A 
HETATM    8  C5  UNL     1     -32.241   5.894   3.496  1.00 20.00     0.013 A 
ENDBRANCH   1   6
TORSDOF 2
ENDMDL
MODEL 2
REMARK VINA RESULT:      -4.4      2.037      3.468
REMARK  2 active torsions:
REMARK  status: ('A' for Active; 'I' for Inactive)
REMARK    1  A    between atoms: C2_2  and  C3_3 
REMARK    2  A    between atoms: C3_3  and  C6_6 
ROOT
HETATM    1  C3  UNL     1     -33.947   6.096   4.874  1.00 20.00     0.170 C 
HETATM    2  O7  UNL     1     -33.478   6.784   5.772  1.00 20.00    -0.291 OA
ENDROOT
BRANCH   1   3
HETATM    3  C2  UNL     1     -33.433   6.154   3.471  1.00 20.00     0.047 C 
HETATM    4  C1  UNL     1     -33.970   5.431   2.478  1.00 20.00     0.035 C 
HETATM    5 BR8  UNL     1     -31.965   7.275   3.153  1.00 20.00    -0.048 Br
ENDBRANCH   1   3
BRANCH   1   6
HETATM    6  C6  UNL     1     -35.061   5.151   5.181  1.00 20.00     0.061 A 
HETATM    7  C4  UNL     1     -34.727   3.724   5.465  1.00 20.00     0.013 A 
HETATM    8  C5  UNL     1     -35.185   4.626   6.571  1.00 20.00     0.013 A 
ENDBRANCH   1   6
TORSDOF 2
ENDMDL
MODEL 3
REMARK VINA RESULT:      -4.3      1.453      1.717
REMARK  2 active torsions:
REMARK  status: ('A' for Active; 'I' for Inactive)
REMARK    1  A    between atoms: C2_2  and  C3_3 
REMARK    2  A    between atoms: C3_3  and  C6_6 
ROOT
HETATM    1  C3  UNL     1     -33.930   6.049   3.964  1.00 20.00     0.170 C 
HETATM    2  O7  UNL     1     -34.852   6.098   3.159  1.00 20.00    -0.291 OA
ENDROOT
BRANCH   1   3
HETATM    3  C2  UNL     1     -34.154   5.801   5.421  1.00 20.00     0.047 C 
HETATM    4  C1  UNL     1     -33.849   6.708   6.359  1.00 20.00     0.035 C 
HETATM    5 BR8  UNL     1     -34.865   4.134   5.898  1.00 20.00    -0.048 Br
ENDBRANCH   1   3
BRANCH   1   6
HETATM    6  C6  UNL     1     -32.528   6.226   3.484  1.00 20.00     0.061 A 
HETATM    7  C4  UNL     1     -32.263   7.228   2.410  1.00 20.00     0.013 A 
HETATM    8  C5  UNL     1     -31.817   7.495   3.816  1.00 20.00     0.013 A 
ENDBRANCH   1   6
TORSDOF 2
ENDMDL
MODEL 4
REMARK VINA RESULT:      -4.2      1.888      2.193
REMARK  2 active torsions:
REMARK  status: ('A' for Active; 'I' for Inactive)
REMARK    1  A    between atoms: C2_2  and  C3_3 
REMARK    2  A    between atoms: C3_3  and  C6_6 
ROOT
HETATM    1  C3  UNL     1     -33.435   6.306   4.620  1.00 20.00     0.170 C 
HETATM    2  O7  UNL     1     -33.224   6.963   5.632  1.00 20.00    -0.291 OA
ENDROOT
BRANCH   1   3
HETATM    3  C2  UNL     1     -34.635   5.426   4.474  1.00 20.00     0.047 C 
HETATM    4  C1  UNL     1     -35.485   5.534   3.444  1.00 20.00     0.035 C 
HETATM    5 BR8  UNL     1     -34.926   4.161   5.826  1.00 20.00    -0.048 Br
ENDBRANCH   1   3
BRANCH   1   6
HETATM    6  C6  UNL     1     -32.476   6.389   3.479  1.00 20.00     0.061 A 
HETATM    7  C4  UNL     1     -32.548   7.572   2.572  1.00 20.00     0.013 A 
HETATM    8  C5  UNL     1     -31.402   7.423   3.527  1.00 20.00     0.013 A 
ENDBRANCH   1   6
TORSDOF 2
ENDMDL
MODEL 5
REMARK VINA RESULT:      -3.9     11.580     12.527
REMARK  2 active torsions:
REMARK  status: ('A' for Active; 'I' for Inactive)
REMARK    1  A    between atoms: C2_2  and  C3_3 
REMARK    2  A    between atoms: C3_3  and  C6_6 
ROOT
HETATM    1  C3  UNL     1     -33.362  14.928  -3.438  1.00 20.00     0.170 C 
HETATM    2  O7  UNL     1     -32.177  14.698  -3.647  1.00 20.00    -0.291 OA
ENDROOT
BRANCH   1   3
HETATM    3  C2  UNL     1     -33.862  16.296  -3.101  1.00 20.00     0.047 C 
HETATM    4  C1  UNL     1     -33.783  17.322  -3.960  1.00 20.00     0.035 C 
HETATM    5 BR8  UNL     1     -34.592  16.534  -1.392  1.00 20.00    -0.048 Br
ENDBRANCH   1   3
BRANCH   1   6
HETATM    6  C6  UNL     1     -34.352  13.816  -3.534  1.00 20.00     0.061 A 
HETATM    7  C4  UNL     1     -35.665  14.085  -4.191  1.00 20.00     0.013 A 
HETATM    8  C5  UNL     1     -34.640  13.234  -4.877  1.00 20.00     0.013 A 
ENDBRANCH   1   6
TORSDOF 2
ENDMDL
MODEL 6
REMARK VINA RESULT:      -3.9     12.207     13.026
REMARK  2 active torsions:
REMARK  status: ('A' for Active; 'I' for Inactive)
REMARK    1  A    between atoms: C2_2  and  C3_3 
REMARK    2  A    between atoms: C3_3  and  C6_6 
ROOT
HETATM    1  C3  UNL     1     -34.555  13.742  -4.835  1.00 20.00     0.170 C 
HETATM    2  O7  UNL     1     -34.836  12.552  -4.755  1.00 20.00    -0.291 OA
ENDROOT
BRANCH   1   3
HETATM    3  C2  UNL     1     -35.108  14.622  -5.910  1.00 20.00     0.047 C 
HETATM    4  C1  UNL     1     -34.449  14.861  -7.053  1.00 20.00     0.035 C 
HETATM    5 BR8  UNL     1     -36.774  15.416  -5.582  1.00 20.00    -0.048 Br
ENDBRANCH   1   3
BRANCH   1   6
HETATM    6  C6  UNL     1     -33.644  14.350  -3.822  1.00 20.00     0.061 A 
HETATM    7  C4  UNL     1     -33.300  15.797  -3.949  1.00 20.00     0.013 A 
HETATM    8  C5  UNL     1     -34.211  15.332  -2.853  1.00 20.00     0.013 A 
ENDBRANCH   1   6
TORSDOF 2
ENDMDL
MODEL 7
REMARK VINA RESULT:      -3.9     12.159     12.885
REMARK  2 active torsions:
REMARK  status: ('A' for Active; 'I' for Inactive)
REMARK    1  A    between atoms: C2_2  and  C3_3 
REMARK    2  A    between atoms: C3_3  and  C6_6 
ROOT
HETATM    1  C3  UNL     1     -34.807  13.721  -4.637  1.00 20.00     0.170 C 
HETATM    2  O7  UNL     1     -34.822  12.505  -4.780  1.00 20.00    -0.291 OA
ENDROOT
BRANCH   1   3
HETATM    3  C2  UNL     1     -35.494  14.646  -5.590  1.00 20.00     0.047 C 
HETATM    4  C1  UNL     1     -36.707  15.159  -5.345  1.00 20.00     0.035 C 
HETATM    5 BR8  UNL     1     -34.590  15.046  -7.183  1.00 20.00    -0.048 Br
ENDBRANCH   1   3
BRANCH   1   6
HETATM    6  C6  UNL     1     -34.094  14.313  -3.467  1.00 20.00     0.061 A 
HETATM    7  C4  UNL     1     -32.618  14.517  -3.560  1.00 20.00     0.013 A 
HETATM    8  C5  UNL     1     -33.545  15.694  -3.593  1.00 20.00     0.013 A 
ENDBRANCH   1   6
TORSDOF 2
ENDMDL
MODEL 8
REMARK VINA RESULT:      -3.9     11.743     12.765
REMARK  2 active torsions:
REMARK  status: ('A' for Active; 'I' for Inactive)
REMARK    1  A    between atoms: C2_2  and  C3_3 
REMARK    2  A    between atoms: C3_3  and  C6_6 
ROOT
HETATM    1  C3  UNL     1     -34.679  13.849  -4.729  1.00 20.00     0.170 C 
HETATM    2  O7  UNL     1     -34.801  12.631  -4.765  1.00 20.00    -0.291 OA
ENDROOT
BRANCH   1   3
HETATM    3  C2  UNL     1     -33.865  14.540  -3.682  1.00 20.00     0.047 C 
HETATM    4  C1  UNL     1     -32.559  14.295  -3.509  1.00 20.00     0.035 C 
HETATM    5 BR8  UNL     1     -34.764  15.762  -2.581  1.00 20.00    -0.048 Br
ENDBRANCH   1   3
BRANCH   1   6
HETATM    6  C6  UNL     1     -35.347  14.683  -5.771  1.00 20.00     0.061 A 
HETATM    7  C4  UNL     1     -34.502  15.569  -6.625  1.00 20.00     0.013 A 
HETATM    8  C5  UNL     1     -35.130  14.338  -7.206  1.00 20.00     0.013 A 
ENDBRANCH   1   6
TORSDOF 2
ENDMDL
MODEL 9
REMARK VINA RESULT:      -3.8     12.691     13.194
REMARK  2 active torsions:
REMARK  status: ('A' for Active; 'I' for Inactive)
REMARK    1  A    between atoms: C2_2  and  C3_3 
REMARK    2  A    between atoms: C3_3  and  C6_6 
ROOT
HETATM    1  C3  UNL     1     -33.606  15.498  -4.347  1.00 20.00     0.170 C 
HETATM    2  O7  UNL     1     -32.839  16.350  -4.780  1.00 20.00    -0.291 OA
ENDROOT
BRANCH   1   3
HETATM    3  C2  UNL     1     -34.286  14.509  -5.239  1.00 20.00     0.047 C 
HETATM    4  C1  UNL     1     -34.656  13.293  -4.813  1.00 20.00     0.035 C 
HETATM    5 BR8  UNL     1     -34.581  15.031  -7.014  1.00 20.00    -0.048 Br
ENDBRANCH   1   3
BRANCH   1   6
HETATM    6  C6  UNL     1     -33.867  15.425  -2.880  1.00 20.00     0.061 A 
HETATM    7  C4  UNL     1     -33.801  16.683  -2.080  1.00 20.00     0.013 A 
HETATM    8  C5  UNL     1     -35.123  16.031  -2.350  1.00 20.00     0.013 A 
ENDBRANCH   1   6
TORSDOF 2
ENDMDL
