MODEL 1
REMARK VINA RESULT:      -3.9      0.000      0.000
REMARK  0 active torsions:
REMARK  status: ('A' for Active; 'I' for Inactive)
ROOT
HETATM    1  C1  UNL     1     -34.602  14.637  -4.348  1.00 20.00     0.036 C 
HETATM    2  C2  UNL     1     -33.670  17.060  -3.499  1.00 20.00     0.297 C 
HETATM    3  C3  UNL     1     -34.613  15.771  -5.370  1.00 20.00     0.263 C 
HETATM    4  C4  UNL     1     -34.772  16.305  -2.752  1.00 20.00     0.132 C 
HETATM    5  C5  UNL     1     -34.541  13.203  -4.799  1.00 20.00     0.067 C 
HETATM    6  C6  UNL     1     -34.281  15.348  -6.797  1.00 20.00     0.049 C 
HETATM    7  C7  UNL     1     -34.618  16.461  -1.244  1.00 20.00     0.036 C 
HETATM    8  N8  UNL     1     -34.689  14.874  -3.077  1.00 20.00    -0.290 NA
HETATM    9  N9  UNL     1     -33.650  16.788  -4.938  1.00 20.00     0.095 N 
HETATM   10  H23 UNL     1     -33.827  17.665  -5.454  1.00 20.00     0.316 HD
ENDROOT
TORSDOF 0
ENDMDL
MODEL 2
REMARK VINA RESULT:      -3.7      1.763      3.949
REMARK  0 active torsions:
REMARK  status: ('A' for Active; 'I' for Inactive)
ROOT
HETATM    1  C1  UNL     1     -35.139  16.180  -2.217  1.00 20.00     0.036 C 
HETATM    2  C2  UNL     1     -36.905  14.751  -3.732  1.00 20.00     0.297 C 
HETATM    3  C3  UNL     1     -36.303  16.958  -2.827  1.00 20.00     0.263 C 
HETATM    4  C4  UNL     1     -35.398  14.728  -4.001  1.00 20.00     0.132 C 
HETATM    5  C5  UNL     1     -34.459  16.677  -0.970  1.00 20.00     0.067 C 
HETATM    6  C6  UNL     1     -36.867  18.062  -1.941  1.00 20.00     0.049 C 
HETATM    7  C7  UNL     1     -34.936  13.337  -4.417  1.00 20.00     0.036 C 
HETATM    8  N8  UNL     1     -34.679  15.105  -2.776  1.00 20.00    -0.290 NA
HETATM    9  N9  UNL     1     -37.373  16.007  -3.144  1.00 20.00     0.095 N 
HETATM   10  H23 UNL     1     -38.046  16.456  -3.786  1.00 20.00     0.316 HD
ENDROOT
TORSDOF 0
ENDMDL
MODEL 3
REMARK VINA RESULT:      -3.7      0.672      3.255
REMARK  0 active torsions:
REMARK  status: ('A' for Active; 'I' for Inactive)
ROOT
HETATM    1  C1  UNL     1     -34.282  16.112  -2.627  1.00 20.00     0.036 C 
HETATM    2  C2  UNL     1     -34.739  15.701  -5.288  1.00 20.00     0.297 C 
HETATM    3  C3  UNL     1     -33.728  17.163  -3.586  1.00 20.00     0.263 C 
HETATM    4  C4  UNL     1     -34.087  14.639  -4.400  1.00 20.00     0.132 C 
HETATM    5  C5  UNL     1     -34.597  16.471  -1.199  1.00 20.00     0.067 C 
HETATM    6  C6  UNL     1     -33.798  18.597  -3.071  1.00 20.00     0.049 C 
HETATM    7  C7  UNL     1     -34.561  13.241  -4.781  1.00 20.00     0.036 C 
HETATM    8  N8  UNL     1     -34.453  14.883  -2.998  1.00 20.00    -0.290 NA
HETATM    9  N9  UNL     1     -34.474  17.072  -4.845  1.00 20.00     0.095 N 
HETATM   10  H23 UNL     1     -33.955  17.575  -5.583  1.00 20.00     0.316 HD
ENDROOT
TORSDOF 0
ENDMDL
MODEL 4
REMARK VINA RESULT:      -3.7      1.297      2.340
REMARK  0 active torsions:
REMARK  status: ('A' for Active; 'I' for Inactive)
ROOT
HETATM    1  C1  UNL     1     -33.945  16.810  -4.738  1.00 20.00     0.036 C 
HETATM    2  C2  UNL     1     -35.542  15.227  -3.189  1.00 20.00     0.297 C 
HETATM    3  C3  UNL     1     -34.187  15.387  -5.236  1.00 20.00     0.263 C 
HETATM    4  C4  UNL     1     -34.317  15.950  -2.623  1.00 20.00     0.132 C 
HETATM    5  C5  UNL     1     -33.590  17.907  -5.706  1.00 20.00     0.067 C 
HETATM    6  C6  UNL     1     -34.317  15.253  -6.750  1.00 20.00     0.049 C 
HETATM    7  C7  UNL     1     -34.587  16.463  -1.213  1.00 20.00     0.036 C 
HETATM    8  N8  UNL     1     -33.992  17.100  -3.477  1.00 20.00    -0.290 NA
HETATM    9  N9  UNL     1     -35.412  14.883  -4.606  1.00 20.00     0.095 N 
HETATM   10  H23 UNL     1     -35.451  13.857  -4.715  1.00 20.00     0.316 HD
ENDROOT
TORSDOF 0
ENDMDL
MODEL 5
REMARK VINA RESULT:      -3.6      1.896      3.239
REMARK  0 active torsions:
REMARK  status: ('A' for Active; 'I' for Inactive)
ROOT
HETATM    1  C1  UNL     1     -34.875  15.351  -3.089  1.00 20.00     0.036 C 
HETATM    2  C2  UNL     1     -35.556  14.868  -5.689  1.00 20.00     0.297 C 
HETATM    3  C3  UNL     1     -33.964  14.408  -3.871  1.00 20.00     0.263 C 
HETATM    4  C4  UNL     1     -36.543  14.663  -4.538  1.00 20.00     0.132 C 
HETATM    5  C5  UNL     1     -34.346  16.120  -1.908  1.00 20.00     0.067 C 
HETATM    6  C6  UNL     1     -32.480  14.535  -3.543  1.00 20.00     0.049 C 
HETATM    7  C7  UNL     1     -37.951  15.086  -4.941  1.00 20.00     0.036 C 
HETATM    8  N8  UNL     1     -36.129  15.480  -3.389  1.00 20.00    -0.290 NA
HETATM    9  N9  UNL     1     -34.159  14.664  -5.302  1.00 20.00     0.095 N 
HETATM   10  H23 UNL     1     -33.765  13.878  -5.843  1.00 20.00     0.316 HD
ENDROOT
TORSDOF 0
ENDMDL
MODEL 6
REMARK VINA RESULT:      -3.6      1.763      3.719
REMARK  0 active torsions:
REMARK  status: ('A' for Active; 'I' for Inactive)
ROOT
HETATM    1  C1  UNL     1     -34.403  15.561  -3.972  1.00 20.00     0.036 C 
HETATM    2  C2  UNL     1     -37.093  15.141  -4.177  1.00 20.00     0.297 C 
HETATM    3  C3  UNL     1     -35.280  16.225  -2.915  1.00 20.00     0.263 C 
HETATM    4  C4  UNL     1     -36.262  15.680  -5.344  1.00 20.00     0.132 C 
HETATM    5  C5  UNL     1     -32.962  15.240  -3.677  1.00 20.00     0.067 C 
HETATM    6  C6  UNL     1     -34.677  16.262  -1.515  1.00 20.00     0.049 C 
HETATM    7  C7  UNL     1     -36.741  15.101  -6.671  1.00 20.00     0.036 C 
HETATM    8  N8  UNL     1     -34.856  15.299  -5.157  1.00 20.00    -0.290 NA
HETATM    9  N9  UNL     1     -36.559  15.508  -2.864  1.00 20.00     0.095 N 
HETATM   10  H23 UNL     1     -37.252  16.086  -2.361  1.00 20.00     0.316 HD
ENDROOT
TORSDOF 0
ENDMDL
MODEL 7
REMARK VINA RESULT:      -3.6      1.047      3.920
REMARK  0 active torsions:
REMARK  status: ('A' for Active; 'I' for Inactive)
ROOT
HETATM    1  C1  UNL     1     -34.462  16.479  -4.381  1.00 20.00     0.036 C 
HETATM    2  C2  UNL     1     -34.642  13.792  -4.836  1.00 20.00     0.297 C 
HETATM    3  C3  UNL     1     -34.991  15.625  -3.232  1.00 20.00     0.263 C 
HETATM    4  C4  UNL     1     -35.289  14.821  -5.767  1.00 20.00     0.132 C 
HETATM    5  C5  UNL     1     -33.801  17.803  -4.107  1.00 20.00     0.067 C 
HETATM    6  C6  UNL     1     -34.549  16.077  -1.844  1.00 20.00     0.049 C 
HETATM    7  C7  UNL     1     -35.174  14.389  -7.225  1.00 20.00     0.036 C 
HETATM    8  N8  UNL     1     -34.606  16.113  -5.615  1.00 20.00    -0.290 NA
HETATM    9  N9  UNL     1     -34.548  14.243  -3.446  1.00 20.00     0.095 N 
HETATM   10  H23 UNL     1     -35.102  13.613  -2.844  1.00 20.00     0.316 HD
ENDROOT
TORSDOF 0
ENDMDL
MODEL 8
REMARK VINA RESULT:      -3.5      2.107      3.027
REMARK  0 active torsions:
REMARK  status: ('A' for Active; 'I' for Inactive)
ROOT
HETATM    1  C1  UNL     1     -35.970  14.894  -5.088  1.00 20.00     0.036 C 
HETATM    2  C2  UNL     1     -34.917  15.626  -2.677  1.00 20.00     0.297 C 
HETATM    3  C3  UNL     1     -36.844  14.656  -3.859  1.00 20.00     0.263 C 
HETATM    4  C4  UNL     1     -34.177  14.694  -3.640  1.00 20.00     0.132 C 
HETATM    5  C5  UNL     1     -36.595  15.072  -6.446  1.00 20.00     0.067 C 
HETATM    6  C6  UNL     1     -38.334  14.894  -4.079  1.00 20.00     0.049 C 
HETATM    7  C7  UNL     1     -32.679  14.974  -3.632  1.00 20.00     0.036 C 
HETATM    8  N8  UNL     1     -34.678  14.905  -5.005  1.00 20.00    -0.290 NA
HETATM    9  N9  UNL     1     -36.374  15.537  -2.785  1.00 20.00     0.095 N 
HETATM   10  H23 UNL     1     -36.764  15.212  -1.885  1.00 20.00     0.316 HD
ENDROOT
TORSDOF 0
ENDMDL
MODEL 9
REMARK VINA RESULT:      -3.5      1.432      3.653
REMARK  0 active torsions:
REMARK  status: ('A' for Active; 'I' for Inactive)
ROOT
HETATM    1  C1  UNL     1     -35.731  16.292  -3.428  1.00 20.00     0.036 C 
HETATM    2  C2  UNL     1     -33.256  15.830  -4.487  1.00 20.00     0.297 C 
HETATM    3  C3  UNL     1     -34.643  15.847  -2.454  1.00 20.00     0.263 C 
HETATM    4  C4  UNL     1     -34.516  15.157  -5.037  1.00 20.00     0.132 C 
HETATM    5  C5  UNL     1     -36.910  17.092  -2.942  1.00 20.00     0.067 C 
HETATM    6  C6  UNL     1     -34.710  16.501  -1.078  1.00 20.00     0.049 C 
HETATM    7  C7  UNL     1     -34.458  15.045  -6.556  1.00 20.00     0.036 C 
HETATM    8  N8  UNL     1     -35.694  15.959  -4.679  1.00 20.00    -0.290 NA
HETATM    9  N9  UNL     1     -33.339  16.141  -3.058  1.00 20.00     0.095 N 
HETATM   10  H23 UNL     1     -32.606  15.619  -2.551  1.00 20.00     0.316 HD
ENDROOT
TORSDOF 0
ENDMDL
