MODEL 1
REMARK VINA RESULT:      -4.5      0.000      0.000
REMARK  1 active torsions:
REMARK  status: ('A' for Active; 'I' for Inactive)
REMARK    1  A    between atoms: C1_1  and  C5_5 
ROOT
HETATM    1  C1  UNL     1     -34.728  15.638  -2.554  1.00 20.00    -0.068 C 
HETATM    2  C2  UNL     1     -34.691  16.270  -1.534  1.00 20.00    -0.108 C 
HETATM    3  C6  UNL     1     -34.645  17.038  -0.290  1.00 20.00     0.112 C 
ENDROOT
BRANCH   1   4
HETATM    4  C5  UNL     1     -34.774  14.875  -3.787  1.00 20.00     0.126 C 
HETATM    5  C3  UNL     1     -35.049  15.729  -5.060  1.00 20.00     0.057 C 
HETATM    6  C4  UNL     1     -36.218  14.747  -5.277  1.00 20.00     0.127 C 
HETATM    7  C7  UNL     1     -34.013  15.798  -6.166  1.00 20.00     0.016 C 
HETATM    8  C8  UNL     1     -37.589  15.354  -5.497  1.00 20.00     0.040 C 
HETATM    9  O10 UNL     1     -36.082  14.245  -3.919  1.00 20.00    -0.362 OA
HETATM   10  C9  UNL     1     -33.681  13.817  -3.836  1.00 20.00     0.061 C 
ENDBRANCH   1   4
TORSDOF 1
ENDMDL
MODEL 2
REMARK VINA RESULT:      -4.1      1.646      2.908
REMARK  1 active torsions:
REMARK  status: ('A' for Active; 'I' for Inactive)
REMARK    1  A    between atoms: C1_1  and  C5_5 
ROOT
HETATM    1  C1  UNL     1     -34.803  16.704  -1.662  1.00 20.00    -0.068 C 
HETATM    2  C2  UNL     1     -34.821  17.046  -0.511  1.00 20.00    -0.108 C 
HETATM    3  C6  UNL     1     -34.843  17.461   0.891  1.00 20.00     0.112 C 
ENDROOT
BRANCH   1   4
HETATM    4  C5  UNL     1     -34.782  16.292  -3.052  1.00 20.00     0.126 C 
HETATM    5  C3  UNL     1     -35.230  14.820  -3.293  1.00 20.00     0.057 C 
HETATM    6  C4  UNL     1     -33.867  14.684  -4.001  1.00 20.00     0.127 C 
HETATM    7  C7  UNL     1     -36.459  14.527  -4.133  1.00 20.00     0.016 C 
HETATM    8  C8  UNL     1     -32.975  13.543  -3.558  1.00 20.00     0.040 C 
HETATM    9  O10 UNL     1     -33.419  15.946  -3.435  1.00 20.00    -0.362 OA
HETATM   10  C9  UNL     1     -35.319  17.380  -3.971  1.00 20.00     0.061 C 
ENDBRANCH   1   4
TORSDOF 1
ENDMDL
MODEL 3
REMARK VINA RESULT:      -4.1      1.314      2.266
REMARK  1 active torsions:
REMARK  status: ('A' for Active; 'I' for Inactive)
REMARK    1  A    between atoms: C1_1  and  C5_5 
ROOT
HETATM    1  C1  UNL     1     -35.207  16.109  -2.364  1.00 20.00    -0.068 C 
HETATM    2  C2  UNL     1     -34.893  16.607  -1.317  1.00 20.00    -0.108 C 
HETATM    3  C6  UNL     1     -34.512  17.212  -0.041  1.00 20.00     0.112 C 
ENDROOT
BRANCH   1   4
HETATM    4  C5  UNL     1     -35.586  15.509  -3.629  1.00 20.00     0.126 C 
HETATM    5  C3  UNL     1     -34.436  14.743  -4.347  1.00 20.00     0.057 C 
HETATM    6  C4  UNL     1     -34.768  15.672  -5.533  1.00 20.00     0.127 C 
HETATM    7  C7  UNL     1     -34.558  13.253  -4.602  1.00 20.00     0.016 C 
HETATM    8  C8  UNL     1     -33.615  16.442  -6.142  1.00 20.00     0.040 C 
HETATM    9  O10 UNL     1     -35.569  16.527  -4.672  1.00 20.00    -0.362 OA
HETATM   10  C9  UNL     1     -36.963  14.863  -3.556  1.00 20.00     0.061 C 
ENDBRANCH   1   4
TORSDOF 1
ENDMDL
MODEL 4
REMARK VINA RESULT:      -4.1     11.614     12.809
REMARK  1 active torsions:
REMARK  status: ('A' for Active; 'I' for Inactive)
REMARK    1  A    between atoms: C1_1  and  C5_5 
ROOT
HETATM    1  C1  UNL     1     -41.556   4.184  -2.090  1.00 20.00    -0.068 C 
HETATM    2  C2  UNL     1     -41.585   3.164  -2.724  1.00 20.00    -0.108 C 
HETATM    3  C6  UNL     1     -41.620   1.921  -3.494  1.00 20.00     0.112 C 
ENDROOT
BRANCH   1   4
HETATM    4  C5  UNL     1     -41.521   5.416  -1.327  1.00 20.00     0.126 C 
HETATM    5  C3  UNL     1     -42.920   6.043  -1.053  1.00 20.00     0.057 C 
HETATM    6  C4  UNL     1     -42.313   7.300  -1.709  1.00 20.00     0.127 C 
HETATM    7  C7  UNL     1     -43.417   6.199   0.371  1.00 20.00     0.016 C 
HETATM    8  C8  UNL     1     -43.095   7.923  -2.847  1.00 20.00     0.040 C 
HETATM    9  O10 UNL     1     -41.189   6.526  -2.212  1.00 20.00    -0.362 OA
HETATM   10  C9  UNL     1     -40.515   5.344  -0.186  1.00 20.00     0.061 C 
ENDBRANCH   1   4
TORSDOF 1
ENDMDL
MODEL 5
REMARK VINA RESULT:      -4.1     12.234     13.370
REMARK  1 active torsions:
REMARK  status: ('A' for Active; 'I' for Inactive)
REMARK    1  A    between atoms: C1_1  and  C5_5 
ROOT
HETATM    1  C1  UNL     1     -41.902   4.154  -2.273  1.00 20.00    -0.068 C 
HETATM    2  C2  UNL     1     -41.740   3.114  -2.851  1.00 20.00    -0.108 C 
HETATM    3  C6  UNL     1     -41.543   1.847  -3.555  1.00 20.00     0.112 C 
ENDROOT
BRANCH   1   4
HETATM    4  C5  UNL     1     -42.096   5.410  -1.575  1.00 20.00     0.126 C 
HETATM    5  C3  UNL     1     -41.432   5.472  -0.168  1.00 20.00     0.057 C 
HETATM    6  C4  UNL     1     -42.851   5.836   0.315  1.00 20.00     0.127 C 
HETATM    7  C7  UNL     1     -40.342   6.490   0.114  1.00 20.00     0.016 C 
HETATM    8  C8  UNL     1     -43.417   5.013   1.454  1.00 20.00     0.040 C 
HETATM    9  O10 UNL     1     -43.417   5.423  -0.959  1.00 20.00    -0.362 OA
HETATM   10  C9  UNL     1     -41.947   6.603  -2.509  1.00 20.00     0.061 C 
ENDBRANCH   1   4
TORSDOF 1
ENDMDL
MODEL 6
REMARK VINA RESULT:      -3.9     10.656     12.003
REMARK  1 active torsions:
REMARK  status: ('A' for Active; 'I' for Inactive)
REMARK    1  A    between atoms: C1_1  and  C5_5 
ROOT
HETATM    1  C1  UNL     1     -42.447   7.598  -3.148  1.00 20.00    -0.068 C 
HETATM    2  C2  UNL     1     -42.289   8.292  -4.115  1.00 20.00    -0.108 C 
HETATM    3  C6  UNL     1     -42.094   9.137  -5.292  1.00 20.00     0.112 C 
ENDROOT
BRANCH   1   4
HETATM    4  C5  UNL     1     -42.640   6.760  -1.980  1.00 20.00     0.126 C 
HETATM    5  C3  UNL     1     -41.391   5.921  -1.579  1.00 20.00     0.057 C 
HETATM    6  C4  UNL     1     -42.356   4.722  -1.682  1.00 20.00     0.127 C 
HETATM    7  C7  UNL     1     -40.729   6.139  -0.231  1.00 20.00     0.016 C 
HETATM    8  C8  UNL     1     -41.916   3.562  -2.551  1.00 20.00     0.040 C 
HETATM    9  O10 UNL     1     -43.342   5.542  -2.367  1.00 20.00    -0.362 OA
HETATM   10  C9  UNL     1     -43.417   7.483  -0.889  1.00 20.00     0.061 C 
ENDBRANCH   1   4
TORSDOF 1
ENDMDL
MODEL 7
REMARK VINA RESULT:      -3.9      1.366      3.772
REMARK  1 active torsions:
REMARK  status: ('A' for Active; 'I' for Inactive)
REMARK    1  A    between atoms: C1_1  and  C5_5 
ROOT
HETATM    1  C1  UNL     1     -36.589  15.109  -4.422  1.00 20.00    -0.068 C 
HETATM    2  C2  UNL     1     -37.769  14.898  -4.355  1.00 20.00    -0.108 C 
HETATM    3  C6  UNL     1     -39.207  14.640  -4.274  1.00 20.00     0.112 C 
ENDROOT
BRANCH   1   4
HETATM    4  C5  UNL     1     -35.164  15.365  -4.502  1.00 20.00     0.126 C 
HETATM    5  C3  UNL     1     -34.330  14.723  -3.355  1.00 20.00     0.057 C 
HETATM    6  C4  UNL     1     -33.825  16.162  -3.126  1.00 20.00     0.127 C 
HETATM    7  C7  UNL     1     -33.274  13.681  -3.673  1.00 20.00     0.016 C 
HETATM    8  C8  UNL     1     -33.933  16.710  -1.718  1.00 20.00     0.040 C 
HETATM    9  O10 UNL     1     -34.879  16.694  -3.975  1.00 20.00    -0.362 OA
HETATM   10  C9  UNL     1     -34.651  15.253  -5.932  1.00 20.00     0.061 C 
ENDBRANCH   1   4
TORSDOF 1
ENDMDL
MODEL 8
REMARK VINA RESULT:      -3.8      2.691      5.251
REMARK  1 active torsions:
REMARK  status: ('A' for Active; 'I' for Inactive)
REMARK    1  A    between atoms: C1_1  and  C5_5 
ROOT
HETATM    1  C1  UNL     1     -33.941  16.627  -2.344  1.00 20.00    -0.068 C 
HETATM    2  C2  UNL     1     -33.856  15.573  -2.914  1.00 20.00    -0.108 C 
HETATM    3  C6  UNL     1     -33.753  14.290  -3.606  1.00 20.00     0.112 C 
ENDROOT
BRANCH   1   4
HETATM    4  C5  UNL     1     -34.043  17.900  -1.656  1.00 20.00     0.126 C 
HETATM    5  C3  UNL     1     -33.353  17.934  -0.260  1.00 20.00     0.057 C 
HETATM    6  C4  UNL     1     -34.738  18.393   0.240  1.00 20.00     0.127 C 
HETATM    7  C7  UNL     1     -32.196  18.881  -0.006  1.00 20.00     0.016 C 
HETATM    8  C8  UNL     1     -35.339  17.620   1.396  1.00 20.00     0.040 C 
HETATM    9  O10 UNL     1     -35.350  18.005  -1.020  1.00 20.00    -0.362 OA
HETATM   10  C9  UNL     1     -33.832  19.072  -2.606  1.00 20.00     0.061 C 
ENDBRANCH   1   4
TORSDOF 1
ENDMDL
MODEL 9
REMARK VINA RESULT:      -3.8     10.439     11.900
REMARK  1 active torsions:
REMARK  status: ('A' for Active; 'I' for Inactive)
REMARK    1  A    between atoms: C1_1  and  C5_5 
ROOT
HETATM    1  C1  UNL     1     -32.635   7.670   2.581  1.00 20.00    -0.068 C 
HETATM    2  C2  UNL     1     -32.446   8.653   1.918  1.00 20.00    -0.108 C 
HETATM    3  C6  UNL     1     -32.216   9.852   1.113  1.00 20.00     0.112 C 
ENDROOT
BRANCH   1   4
HETATM    4  C5  UNL     1     -32.864   6.482   3.381  1.00 20.00     0.126 C 
HETATM    5  C3  UNL     1     -34.269   6.418   4.049  1.00 20.00     0.057 C 
HETATM    6  C4  UNL     1     -33.468   6.242   5.356  1.00 20.00     0.127 C 
HETATM    7  C7  UNL     1     -35.231   5.300   3.693  1.00 20.00     0.016 C 
HETATM    8  C8  UNL     1     -33.803   7.181   6.496  1.00 20.00     0.040 C 
HETATM    9  O10 UNL     1     -32.242   6.649   4.688  1.00 20.00    -0.362 OA
HETATM   10  C9  UNL     1     -32.319   5.232   2.702  1.00 20.00     0.061 C 
ENDBRANCH   1   4
TORSDOF 1
ENDMDL
