MODEL 1
REMARK VINA RESULT:      -4.7      0.000      0.000
REMARK  2 active torsions:
REMARK  status: ('A' for Active; 'I' for Inactive)
REMARK    1  A    between atoms: C5_5  and  O10_10 
REMARK    2  A    between atoms: C9_9  and  O10_10 
ROOT
HETATM    1  C1  UNL     1     -32.342   9.231   1.663  1.00 20.00     0.012 C 
HETATM    2  C2  UNL     1     -32.184   8.207   2.269  1.00 20.00    -0.110 C 
HETATM    3  C3  UNL     1     -32.287   5.679   2.299  1.00 20.00     0.053 A 
HETATM    4  C4  UNL     1     -31.995   6.984   2.992  1.00 20.00     0.095 A 
HETATM    5  C5  UNL     1     -33.207   6.175   3.376  1.00 20.00     0.139 A 
ENDROOT
BRANCH   5   6
HETATM    6  O10 UNL     1     -33.132   5.494   4.619  1.00 20.00    -0.375 OA
BRANCH   6   7
HETATM    7  C9  UNL     1     -34.416   5.400   5.236  1.00 20.00     0.050 C 
HETATM    8  C6  UNL     1     -34.613   3.969   5.735  1.00 20.00     0.045 C 
HETATM    9  C7  UNL     1     -34.438   6.385   6.403  1.00 20.00     0.045 C 
HETATM   10  C8  UNL     1     -35.481   5.767   4.203  1.00 20.00     0.045 C 
ENDBRANCH   6   7
ENDBRANCH   5   6
TORSDOF 2
ENDMDL
MODEL 2
REMARK VINA RESULT:      -4.2     11.528     12.551
REMARK  2 active torsions:
REMARK  status: ('A' for Active; 'I' for Inactive)
REMARK    1  A    between atoms: C5_5  and  O10_10 
REMARK    2  A    between atoms: C9_9  and  O10_10 
ROOT
HETATM    1  C1  UNL     1     -32.029  18.816   0.243  1.00 20.00     0.012 C 
HETATM    2  C2  UNL     1     -32.935  18.390  -0.421  1.00 20.00    -0.110 C 
HETATM    3  C3  UNL     1     -34.667  16.587  -0.805  1.00 20.00     0.053 A 
HETATM    4  C4  UNL     1     -34.016  17.882  -1.212  1.00 20.00     0.095 A 
HETATM    5  C5  UNL     1     -33.794  16.633  -2.025  1.00 20.00     0.139 A 
ENDROOT
BRANCH   5   6
HETATM    6  O10 UNL     1     -34.467  16.574  -3.273  1.00 20.00    -0.375 OA
BRANCH   6   7
HETATM    7  C9  UNL     1     -34.062  15.431  -4.026  1.00 20.00     0.050 C 
HETATM    8  C6  UNL     1     -35.076  14.311  -3.794  1.00 20.00     0.045 C 
HETATM    9  C7  UNL     1     -34.037  15.836  -5.498  1.00 20.00     0.045 C 
HETATM   10  C8  UNL     1     -32.669  15.009  -3.561  1.00 20.00     0.045 C 
ENDBRANCH   6   7
ENDBRANCH   5   6
TORSDOF 2
ENDMDL
MODEL 3
REMARK VINA RESULT:      -4.1     11.477     12.743
REMARK  2 active torsions:
REMARK  status: ('A' for Active; 'I' for Inactive)
REMARK    1  A    between atoms: C5_5  and  O10_10 
REMARK    2  A    between atoms: C9_9  and  O10_10 
ROOT
HETATM    1  C1  UNL     1     -34.710  16.817  -0.461  1.00 20.00     0.012 C 
HETATM    2  C2  UNL     1     -34.238  16.662  -1.554  1.00 20.00    -0.110 C 
HETATM    3  C3  UNL     1     -33.780  17.596  -3.860  1.00 20.00     0.053 A 
HETATM    4  C4  UNL     1     -33.674  16.477  -2.858  1.00 20.00     0.095 A 
HETATM    5  C5  UNL     1     -34.603  16.353  -4.038  1.00 20.00     0.139 A 
ENDROOT
BRANCH   5   6
HETATM    6  O10 UNL     1     -34.184  15.474  -5.071  1.00 20.00    -0.375 OA
BRANCH   6   7
HETATM    7  C9  UNL     1     -35.194  14.512  -5.372  1.00 20.00     0.050 C 
HETATM    8  C6  UNL     1     -35.271  14.346  -6.890  1.00 20.00     0.045 C 
HETATM    9  C7  UNL     1     -34.790  13.197  -4.708  1.00 20.00     0.045 C 
HETATM   10  C8  UNL     1     -36.526  15.009  -4.811  1.00 20.00     0.045 C 
ENDBRANCH   6   7
ENDBRANCH   5   6
TORSDOF 2
ENDMDL
MODEL 4
REMARK VINA RESULT:      -4.1     11.586     12.796
REMARK  2 active torsions:
REMARK  status: ('A' for Active; 'I' for Inactive)
REMARK    1  A    between atoms: C5_5  and  O10_10 
REMARK    2  A    between atoms: C9_9  and  O10_10 
ROOT
HETATM    1  C1  UNL     1     -34.658  16.718  -0.614  1.00 20.00     0.012 C 
HETATM    2  C2  UNL     1     -34.197  16.592  -1.716  1.00 20.00    -0.110 C 
HETATM    3  C3  UNL     1     -33.761  17.589  -4.000  1.00 20.00     0.053 A 
HETATM    4  C4  UNL     1     -33.647  16.443  -3.031  1.00 20.00     0.095 A 
HETATM    5  C5  UNL     1     -34.588  16.353  -4.204  1.00 20.00     0.139 A 
ENDROOT
BRANCH   5   6
HETATM    6  O10 UNL     1     -34.180  15.503  -5.265  1.00 20.00    -0.375 OA
BRANCH   6   7
HETATM    7  C9  UNL     1     -35.172  14.514  -5.545  1.00 20.00     0.050 C 
HETATM    8  C6  UNL     1     -34.763  13.208  -4.866  1.00 20.00     0.045 C 
HETATM    9  C7  UNL     1     -36.498  15.021  -4.982  1.00 20.00     0.045 C 
HETATM   10  C8  UNL     1     -35.266  14.334  -7.060  1.00 20.00     0.045 C 
ENDBRANCH   6   7
ENDBRANCH   5   6
TORSDOF 2
ENDMDL
MODEL 5
REMARK VINA RESULT:      -4.1     11.428     12.742
REMARK  2 active torsions:
REMARK  status: ('A' for Active; 'I' for Inactive)
REMARK    1  A    between atoms: C5_5  and  O10_10 
REMARK    2  A    between atoms: C9_9  and  O10_10 
ROOT
HETATM    1  C1  UNL     1     -34.745  16.830  -0.401  1.00 20.00     0.012 C 
HETATM    2  C2  UNL     1     -34.264  16.663  -1.489  1.00 20.00    -0.110 C 
HETATM    3  C3  UNL     1     -33.754  17.585  -3.789  1.00 20.00     0.053 A 
HETATM    4  C4  UNL     1     -33.690  16.463  -2.786  1.00 20.00     0.095 A 
HETATM    5  C5  UNL     1     -34.607  16.365  -3.977  1.00 20.00     0.139 A 
ENDROOT
BRANCH   5   6
HETATM    6  O10 UNL     1     -34.200  15.476  -5.006  1.00 20.00    -0.375 OA
BRANCH   6   7
HETATM    7  C9  UNL     1     -35.223  14.526  -5.304  1.00 20.00     0.050 C 
HETATM    8  C6  UNL     1     -36.559  15.078  -4.807  1.00 20.00     0.045 C 
HETATM    9  C7  UNL     1     -35.249  14.341  -6.820  1.00 20.00     0.045 C 
HETATM   10  C8  UNL     1     -34.885  13.209  -4.608  1.00 20.00     0.045 C 
ENDBRANCH   6   7
ENDBRANCH   5   6
TORSDOF 2
ENDMDL
MODEL 6
REMARK VINA RESULT:      -4.1     11.133     12.194
REMARK  2 active torsions:
REMARK  status: ('A' for Active; 'I' for Inactive)
REMARK    1  A    between atoms: C5_5  and  O10_10 
REMARK    2  A    between atoms: C9_9  and  O10_10 
ROOT
HETATM    1  C1  UNL     1     -35.408  17.618   0.958  1.00 20.00     0.012 C 
HETATM    2  C2  UNL     1     -34.831  17.203  -0.010  1.00 20.00    -0.110 C 
HETATM    3  C3  UNL     1     -34.176  17.520  -2.433  1.00 20.00     0.053 A 
HETATM    4  C4  UNL     1     -34.143  16.708  -1.166  1.00 20.00     0.095 A 
HETATM    5  C5  UNL     1     -34.953  16.239  -2.346  1.00 20.00     0.139 A 
ENDROOT
BRANCH   5   6
HETATM    6  O10 UNL     1     -34.421  15.140  -3.069  1.00 20.00    -0.375 OA
BRANCH   6   7
HETATM    7  C9  UNL     1     -35.319  14.709  -4.091  1.00 20.00     0.050 C 
HETATM    8  C6  UNL     1     -35.043  15.520  -5.356  1.00 20.00     0.045 C 
HETATM    9  C7  UNL     1     -35.057  13.224  -4.337  1.00 20.00     0.045 C 
HETATM   10  C8  UNL     1     -36.752  14.928  -3.605  1.00 20.00     0.045 C 
ENDBRANCH   6   7
ENDBRANCH   5   6
TORSDOF 2
ENDMDL
MODEL 7
REMARK VINA RESULT:      -4.1     11.556     13.223
REMARK  2 active torsions:
REMARK  status: ('A' for Active; 'I' for Inactive)
REMARK    1  A    between atoms: C5_5  and  O10_10 
REMARK    2  A    between atoms: C9_9  and  O10_10 
ROOT
HETATM    1  C1  UNL     1     -34.759  16.750  -1.115  1.00 20.00     0.012 C 
HETATM    2  C2  UNL     1     -34.522  15.965  -1.992  1.00 20.00    -0.110 C 
HETATM    3  C3  UNL     1     -32.888  15.068  -3.703  1.00 20.00     0.053 A 
HETATM    4  C4  UNL     1     -34.239  15.028  -3.039  1.00 20.00     0.095 A 
HETATM    5  C5  UNL     1     -34.103  15.537  -4.450  1.00 20.00     0.139 A 
ENDROOT
BRANCH   5   6
HETATM    6  O10 UNL     1     -34.575  14.674  -5.472  1.00 20.00    -0.375 OA
BRANCH   6   7
HETATM    7  C9  UNL     1     -35.284  15.400  -6.477  1.00 20.00     0.050 C 
HETATM    8  C6  UNL     1     -34.468  16.636  -6.851  1.00 20.00     0.045 C 
HETATM    9  C7  UNL     1     -35.445  14.477  -7.683  1.00 20.00     0.045 C 
HETATM   10  C8  UNL     1     -36.649  15.797  -5.918  1.00 20.00     0.045 C 
ENDBRANCH   6   7
ENDBRANCH   5   6
TORSDOF 2
ENDMDL
MODEL 8
REMARK VINA RESULT:      -4.1     11.092     12.369
REMARK  2 active torsions:
REMARK  status: ('A' for Active; 'I' for Inactive)
REMARK    1  A    between atoms: C5_5  and  O10_10 
REMARK    2  A    between atoms: C9_9  and  O10_10 
ROOT
HETATM    1  C1  UNL     1     -35.283  14.676  -7.563  1.00 20.00     0.012 C 
HETATM    2  C2  UNL     1     -34.860  14.469  -6.459  1.00 20.00    -0.110 C 
HETATM    3  C3  UNL     1     -35.081  13.242  -4.257  1.00 20.00     0.053 A 
HETATM    4  C4  UNL     1     -34.354  14.221  -5.141  1.00 20.00     0.095 A 
HETATM    5  C5  UNL     1     -35.147  14.711  -3.957  1.00 20.00     0.139 A 
ENDROOT
BRANCH   5   6
HETATM    6  O10 UNL     1     -34.390  15.151  -2.840  1.00 20.00    -0.375 OA
BRANCH   6   7
HETATM    7  C9  UNL     1     -34.758  16.476  -2.455  1.00 20.00     0.050 C 
HETATM    8  C6  UNL     1     -34.614  16.600  -0.939  1.00 20.00     0.045 C 
HETATM    9  C7  UNL     1     -33.810  17.440  -3.166  1.00 20.00     0.045 C 
HETATM   10  C8  UNL     1     -36.202  16.726  -2.888  1.00 20.00     0.045 C 
ENDBRANCH   6   7
ENDBRANCH   5   6
TORSDOF 2
ENDMDL
MODEL 9
REMARK VINA RESULT:      -3.8      1.186      2.103
REMARK  2 active torsions:
REMARK  status: ('A' for Active; 'I' for Inactive)
REMARK    1  A    between atoms: C5_5  and  O10_10 
REMARK    2  A    between atoms: C9_9  and  O10_10 
ROOT
HETATM    1  C1  UNL     1     -31.858   8.816   0.434  1.00 20.00     0.012 C 
HETATM    2  C2  UNL     1     -32.128   8.523   1.567  1.00 20.00    -0.110 C 
HETATM    3  C3  UNL     1     -31.478   7.331   3.702  1.00 20.00     0.053 A 
HETATM    4  C4  UNL     1     -32.450   8.174   2.919  1.00 20.00     0.095 A 
HETATM    5  C5  UNL     1     -32.777   6.738   3.238  1.00 20.00     0.139 A 
ENDROOT
BRANCH   5   6
HETATM    6  O10 UNL     1     -33.758   6.531   4.242  1.00 20.00    -0.375 OA
BRANCH   6   7
HETATM    7  C9  UNL     1     -34.645   5.470   3.888  1.00 20.00     0.050 C 
HETATM    8  C6  UNL     1     -36.015   6.067   3.570  1.00 20.00     0.045 C 
HETATM    9  C7  UNL     1     -34.063   4.775   2.659  1.00 20.00     0.045 C 
HETATM   10  C8  UNL     1     -34.735   4.497   5.063  1.00 20.00     0.045 C 
ENDBRANCH   6   7
ENDBRANCH   5   6
TORSDOF 2
ENDMDL
