MODEL 1
REMARK VINA RESULT:      -4.1      0.000      0.000
REMARK  2 active torsions:
REMARK  status: ('A' for Active; 'I' for Inactive)
REMARK    1  A    between atoms: C1_1  and  C4_4 
REMARK    2  A    between atoms: C1_1  and  C5_5 
ROOT
HETATM    1  C1  UNL     1     -33.961   6.330   5.512  1.00 20.00     0.144 C 
HETATM    2  O6  UNL     1     -33.329   6.933   6.379  1.00 20.00    -0.296 OA
ENDROOT
BRANCH   1   3
HETATM    3  C4  UNL     1     -34.895   5.260   5.877  1.00 20.00     0.056 A 
HETATM    4  C2  UNL     1     -35.293   4.241   4.844  1.00 20.00     0.013 A 
HETATM    5  C3  UNL     1     -34.393   3.844   5.975  1.00 20.00     0.013 A 
ENDBRANCH   1   3
BRANCH   1   6
HETATM    6  C5  UNL     1     -33.844   6.624   4.034  1.00 20.00     0.193 C 
HETATM    7 CL7  UNL     1     -32.237   6.188   3.434  1.00 20.00    -0.123 Cl
ENDBRANCH   1   6
TORSDOF 2
ENDMDL
MODEL 2
REMARK VINA RESULT:      -4.0      1.836      1.981
REMARK  2 active torsions:
REMARK  status: ('A' for Active; 'I' for Inactive)
REMARK    1  A    between atoms: C1_1  and  C4_4 
REMARK    2  A    between atoms: C1_1  and  C5_5 
ROOT
HETATM    1  C1  UNL     1     -34.203   5.660   3.775  1.00 20.00     0.144 C 
HETATM    2  O6  UNL     1     -34.328   5.196   2.642  1.00 20.00    -0.296 OA
ENDROOT
BRANCH   1   3
HETATM    3  C4  UNL     1     -35.120   5.264   4.850  1.00 20.00     0.056 A 
HETATM    4  C2  UNL     1     -34.903   3.957   5.562  1.00 20.00     0.013 A 
HETATM    5  C3  UNL     1     -34.626   5.248   6.272  1.00 20.00     0.013 A 
ENDBRANCH   1   3
BRANCH   1   6
HETATM    6  C5  UNL     1     -33.127   6.648   4.161  1.00 20.00     0.193 C 
HETATM    7 CL7  UNL     1     -32.222   7.176   2.735  1.00 20.00    -0.123 Cl
ENDBRANCH   1   6
TORSDOF 2
ENDMDL
MODEL 3
REMARK VINA RESULT:      -4.0      2.077      3.248
REMARK  2 active torsions:
REMARK  status: ('A' for Active; 'I' for Inactive)
REMARK    1  A    between atoms: C1_1  and  C4_4 
REMARK    2  A    between atoms: C1_1  and  C5_5 
ROOT
HETATM    1  C1  UNL     1     -34.029   6.140   4.719  1.00 20.00     0.144 C 
HETATM    2  O6  UNL     1     -33.708   6.625   5.804  1.00 20.00    -0.296 OA
ENDROOT
BRANCH   1   3
HETATM    3  C4  UNL     1     -33.384   6.590   3.480  1.00 20.00     0.056 A 
HETATM    4  C2  UNL     1     -32.031   7.244   3.547  1.00 20.00     0.013 A 
HETATM    5  C3  UNL     1     -32.165   5.863   2.979  1.00 20.00     0.013 A 
ENDBRANCH   1   3
BRANCH   1   6
HETATM    6  C5  UNL     1     -35.082   5.068   4.559  1.00 20.00     0.193 C 
HETATM    7 CL7  UNL     1     -35.061   3.960   5.940  1.00 20.00    -0.123 Cl
ENDBRANCH   1   6
TORSDOF 2
ENDMDL
MODEL 4
REMARK VINA RESULT:      -4.0      2.293      3.132
REMARK  2 active torsions:
REMARK  status: ('A' for Active; 'I' for Inactive)
REMARK    1  A    between atoms: C1_1  and  C4_4 
REMARK    2  A    between atoms: C1_1  and  C5_5 
ROOT
HETATM    1  C1  UNL     1     -34.797   4.800   5.066  1.00 20.00     0.144 C 
HETATM    2  O6  UNL     1     -35.207   3.688   4.735  1.00 20.00    -0.296 OA
ENDROOT
BRANCH   1   3
HETATM    3  C4  UNL     1     -34.539   5.832   4.057  1.00 20.00     0.056 A 
HETATM    4  C2  UNL     1     -33.137   6.041   3.554  1.00 20.00     0.013 A 
HETATM    5  C3  UNL     1     -34.164   5.418   2.659  1.00 20.00     0.013 A 
ENDBRANCH   1   3
BRANCH   1   6
HETATM    6  C5  UNL     1     -34.532   5.202   6.498  1.00 20.00     0.193 C 
HETATM    7 CL7  UNL     1     -33.939   6.868   6.582  1.00 20.00    -0.123 Cl
ENDBRANCH   1   6
TORSDOF 2
ENDMDL
MODEL 5
REMARK VINA RESULT:      -3.4     12.934     13.435
REMARK  2 active torsions:
REMARK  status: ('A' for Active; 'I' for Inactive)
REMARK    1  A    between atoms: C1_1  and  C4_4 
REMARK    2  A    between atoms: C1_1  and  C5_5 
ROOT
HETATM    1  C1  UNL     1     -34.507  13.650  -4.702  1.00 20.00     0.144 C 
HETATM    2  O6  UNL     1     -35.061  12.602  -4.372  1.00 20.00    -0.296 OA
ENDROOT
BRANCH   1   3
HETATM    3  C4  UNL     1     -33.585  14.328  -3.785  1.00 20.00     0.056 A 
HETATM    4  C2  UNL     1     -33.206  15.761  -4.042  1.00 20.00     0.013 A 
HETATM    5  C3  UNL     1     -34.105  15.422  -2.891  1.00 20.00     0.013 A 
ENDBRANCH   1   3
BRANCH   1   6
HETATM    6  C5  UNL     1     -34.712  14.320  -6.041  1.00 20.00     0.193 C 
HETATM    7 CL7  UNL     1     -36.308  15.082  -6.122  1.00 20.00    -0.123 Cl
ENDBRANCH   1   6
TORSDOF 2
ENDMDL
MODEL 6
REMARK VINA RESULT:      -3.4     12.661     13.878
REMARK  2 active torsions:
REMARK  status: ('A' for Active; 'I' for Inactive)
REMARK    1  A    between atoms: C1_1  and  C4_4 
REMARK    2  A    between atoms: C1_1  and  C5_5 
ROOT
HETATM    1  C1  UNL     1     -34.472  13.772  -4.821  1.00 20.00     0.144 C 
HETATM    2  O6  UNL     1     -34.808  12.589  -4.873  1.00 20.00    -0.296 OA
ENDROOT
BRANCH   1   3
HETATM    3  C4  UNL     1     -35.015  14.744  -5.776  1.00 20.00     0.056 A 
HETATM    4  C2  UNL     1     -34.149  15.881  -6.247  1.00 20.00     0.013 A 
HETATM    5  C3  UNL     1     -34.490  14.764  -7.187  1.00 20.00     0.013 A 
ENDBRANCH   1   3
BRANCH   1   6
HETATM    6  C5  UNL     1     -33.503  14.323  -3.802  1.00 20.00     0.193 C 
HETATM    7 CL7  UNL     1     -34.335  15.390  -2.660  1.00 20.00    -0.123 Cl
ENDBRANCH   1   6
TORSDOF 2
ENDMDL
MODEL 7
REMARK VINA RESULT:      -3.4     12.284     12.749
REMARK  2 active torsions:
REMARK  status: ('A' for Active; 'I' for Inactive)
REMARK    1  A    between atoms: C1_1  and  C4_4 
REMARK    2  A    between atoms: C1_1  and  C5_5 
ROOT
HETATM    1  C1  UNL     1     -33.445  14.916  -3.451  1.00 20.00     0.144 C 
HETATM    2  O6  UNL     1     -32.235  14.765  -3.624  1.00 20.00    -0.296 OA
ENDROOT
BRANCH   1   3
HETATM    3  C4  UNL     1     -34.366  13.782  -3.586  1.00 20.00     0.056 A 
HETATM    4  C2  UNL     1     -35.737  14.008  -4.161  1.00 20.00     0.013 A 
HETATM    5  C3  UNL     1     -34.706  13.269  -4.959  1.00 20.00     0.013 A 
ENDBRANCH   1   3
BRANCH   1   6
HETATM    6  C5  UNL     1     -34.080  16.239  -3.090  1.00 20.00     0.193 C 
HETATM    7 CL7  UNL     1     -34.620  16.235  -1.404  1.00 20.00    -0.123 Cl
ENDBRANCH   1   6
TORSDOF 2
ENDMDL
MODEL 8
REMARK VINA RESULT:      -3.3      2.015      2.607
REMARK  2 active torsions:
REMARK  status: ('A' for Active; 'I' for Inactive)
REMARK    1  A    between atoms: C1_1  and  C4_4 
REMARK    2  A    between atoms: C1_1  and  C5_5 
ROOT
HETATM    1  C1  UNL     1     -34.899   4.622   4.936  1.00 20.00     0.144 C 
HETATM    2  O6  UNL     1     -35.320   3.493   5.187  1.00 20.00    -0.296 OA
ENDROOT
BRANCH   1   3
HETATM    3  C4  UNL     1     -33.936   5.276   5.829  1.00 20.00     0.056 A 
HETATM    4  C2  UNL     1     -33.597   6.726   5.616  1.00 20.00     0.013 A 
HETATM    5  C3  UNL     1     -34.421   6.318   6.800  1.00 20.00     0.013 A 
ENDBRANCH   1   3
BRANCH   1   6
HETATM    6  C5  UNL     1     -35.316   5.420   3.723  1.00 20.00     0.193 C 
HETATM    7 CL7  UNL     1     -34.088   5.315   2.452  1.00 20.00    -0.123 Cl
ENDBRANCH   1   6
TORSDOF 2
ENDMDL
MODEL 9
REMARK VINA RESULT:      -3.2      2.022      2.068
REMARK  2 active torsions:
REMARK  status: ('A' for Active; 'I' for Inactive)
REMARK    1  A    between atoms: C1_1  and  C4_4 
REMARK    2  A    between atoms: C1_1  and  C5_5 
ROOT
HETATM    1  C1  UNL     1     -33.873   5.996   4.304  1.00 20.00     0.144 C 
HETATM    2  O6  UNL     1     -33.768   5.738   3.105  1.00 20.00    -0.296 OA
ENDROOT
BRANCH   1   3
HETATM    3  C4  UNL     1     -34.879   5.320   5.129  1.00 20.00     0.056 A 
HETATM    4  C2  UNL     1     -35.313   3.925   4.769  1.00 20.00     0.013 A 
HETATM    5  C3  UNL     1     -34.467   4.152   5.985  1.00 20.00     0.013 A 
ENDBRANCH   1   3
BRANCH   1   6
HETATM    6  C5  UNL     1     -33.002   7.000   5.023  1.00 20.00     0.193 C 
HETATM    7 CL7  UNL     1     -33.562   7.238   6.685  1.00 20.00    -0.123 Cl
ENDBRANCH   1   6
TORSDOF 2
ENDMDL
