MODEL 1
REMARK VINA RESULT:      -5.2      0.000      0.000
REMARK  1 active torsions:
REMARK  status: ('A' for Active; 'I' for Inactive)
REMARK    1  A    between atoms: C5_5  and  C9_9 
ROOT
HETATM    1  C1  UNL     1     -33.945  16.962  -3.430  1.00 20.00    -0.021 C 
HETATM    2  C2  UNL     1     -34.565  16.073  -2.636  1.00 20.00    -0.024 C 
HETATM    3  C3  UNL     1     -34.177  15.481  -5.385  1.00 20.00    -0.065 C 
HETATM    4  C4  UNL     1     -34.313  15.714  -6.695  1.00 20.00     0.016 C 
HETATM    5  C6  UNL     1     -32.782  14.980  -3.589  1.00 20.00     0.023 C 
HETATM    6  C7  UNL     1     -33.179  16.173  -4.464  1.00 20.00     0.038 C 
HETATM    7  C8  UNL     1     -34.228  14.685  -3.158  1.00 20.00     0.028 C 
HETATM    8  C9  UNL     1     -34.923  14.442  -4.537  1.00 20.00     0.046 C 
HETATM    9  C11 UNL     1     -34.739  13.009  -5.041  1.00 20.00     0.029 C 
ENDROOT
BRANCH   8  10
HETATM   10  C5  UNL     1     -36.398  14.757  -4.486  1.00 20.00     0.136 C 
HETATM   11  C10 UNL     1     -36.874  15.909  -5.328  1.00 20.00     0.092 C 
HETATM   12  O12 UNL     1     -37.174  14.103  -3.791  1.00 20.00    -0.297 OA
ENDBRANCH   8  10
TORSDOF 1
ENDMDL
MODEL 2
REMARK VINA RESULT:      -5.2      1.835      3.038
REMARK  1 active torsions:
REMARK  status: ('A' for Active; 'I' for Inactive)
REMARK    1  A    between atoms: C5_5  and  C9_9 
ROOT
HETATM    1  C1  UNL     1     -33.700  13.642  -4.002  1.00 20.00    -0.021 C 
HETATM    2  C2  UNL     1     -34.079  14.582  -3.121  1.00 20.00    -0.024 C 
HETATM    3  C3  UNL     1     -34.707  14.890  -5.872  1.00 20.00    -0.065 C 
HETATM    4  C4  UNL     1     -34.400  14.993  -7.170  1.00 20.00     0.016 C 
HETATM    5  C6  UNL     1     -35.983  13.884  -4.205  1.00 20.00     0.023 C 
HETATM    6  C7  UNL     1     -34.758  13.591  -5.077  1.00 20.00     0.038 C 
HETATM    7  C8  UNL     1     -35.386  15.176  -3.624  1.00 20.00     0.028 C 
HETATM    8  C9  UNL     1     -35.134  16.015  -4.919  1.00 20.00     0.046 C 
HETATM    9  C11 UNL     1     -36.388  16.757  -5.389  1.00 20.00     0.029 C 
ENDROOT
BRANCH   8  10
HETATM   10  C5  UNL     1     -34.015  17.011  -4.736  1.00 20.00     0.136 C 
HETATM   11  C10 UNL     1     -34.337  18.251  -3.947  1.00 20.00     0.092 C 
HETATM   12  O12 UNL     1     -32.895  16.817  -5.206  1.00 20.00    -0.297 OA
ENDBRANCH   8  10
TORSDOF 1
ENDMDL
MODEL 3
REMARK VINA RESULT:      -5.1      1.319      3.062
REMARK  1 active torsions:
REMARK  status: ('A' for Active; 'I' for Inactive)
REMARK    1  A    between atoms: C5_5  and  C9_9 
ROOT
HETATM    1  C1  UNL     1     -33.477  16.723  -5.445  1.00 20.00    -0.021 C 
HETATM    2  C2  UNL     1     -34.022  15.776  -6.226  1.00 20.00    -0.024 C 
HETATM    3  C3  UNL     1     -34.799  15.981  -3.504  1.00 20.00    -0.065 C 
HETATM    4  C4  UNL     1     -34.570  15.990  -2.186  1.00 20.00     0.016 C 
HETATM    5  C6  UNL     1     -35.762  17.004  -5.361  1.00 20.00     0.023 C 
HETATM    6  C7  UNL     1     -34.535  17.143  -4.454  1.00 20.00     0.038 C 
HETATM    7  C8  UNL     1     -35.444  15.548  -5.739  1.00 20.00     0.028 C 
HETATM    8  C9  UNL     1     -35.430  14.856  -4.337  1.00 20.00     0.046 C 
HETATM    9  C11 UNL     1     -36.833  14.469  -3.860  1.00 20.00     0.029 C 
ENDROOT
BRANCH   8  10
HETATM   10  C5  UNL     1     -34.553  13.628  -4.324  1.00 20.00     0.136 C 
HETATM   11  C10 UNL     1     -33.217  13.759  -3.645  1.00 20.00     0.092 C 
HETATM   12  O12 UNL     1     -34.914  12.572  -4.842  1.00 20.00    -0.297 OA
ENDBRANCH   8  10
TORSDOF 1
ENDMDL
MODEL 4
REMARK VINA RESULT:      -5.1      1.065      2.751
REMARK  1 active torsions:
REMARK  status: ('A' for Active; 'I' for Inactive)
REMARK    1  A    between atoms: C5_5  and  C9_9 
ROOT
HETATM    1  C1  UNL     1     -33.685  13.819  -3.952  1.00 20.00    -0.021 C 
HETATM    2  C2  UNL     1     -34.351  14.063  -5.092  1.00 20.00    -0.024 C 
HETATM    3  C3  UNL     1     -34.564  15.874  -2.917  1.00 20.00    -0.065 C 
HETATM    4  C4  UNL     1     -34.858  16.208  -1.655  1.00 20.00     0.016 C 
HETATM    5  C6  UNL     1     -33.044  15.909  -4.681  1.00 20.00     0.023 C 
HETATM    6  C7  UNL     1     -33.299  15.157  -3.370  1.00 20.00     0.038 C 
HETATM    7  C8  UNL     1     -34.429  15.572  -5.260  1.00 20.00     0.028 C 
HETATM    8  C9  UNL     1     -35.378  16.188  -4.181  1.00 20.00     0.046 C 
HETATM    9  C11 UNL     1     -35.610  17.686  -4.391  1.00 20.00     0.029 C 
ENDROOT
BRANCH   8  10
HETATM   10  C5  UNL     1     -36.714  15.487  -4.142  1.00 20.00     0.136 C 
HETATM   11  C10 UNL     1     -37.657  15.765  -5.280  1.00 20.00     0.092 C 
HETATM   12  O12 UNL     1     -37.015  14.723  -3.226  1.00 20.00    -0.297 OA
ENDBRANCH   8  10
TORSDOF 1
ENDMDL
MODEL 5
REMARK VINA RESULT:      -5.0      1.352      2.222
REMARK  1 active torsions:
REMARK  status: ('A' for Active; 'I' for Inactive)
REMARK    1  A    between atoms: C5_5  and  C9_9 
ROOT
HETATM    1  C1  UNL     1     -36.451  16.491  -3.928  1.00 20.00    -0.021 C 
HETATM    2  C2  UNL     1     -36.519  15.246  -3.429  1.00 20.00    -0.024 C 
HETATM    3  C3  UNL     1     -34.088  16.185  -4.555  1.00 20.00    -0.065 C 
HETATM    4  C4  UNL     1     -33.334  16.682  -5.542  1.00 20.00     0.016 C 
HETATM    5  C6  UNL     1     -34.793  16.304  -2.339  1.00 20.00     0.023 C 
HETATM    6  C7  UNL     1     -35.047  16.989  -3.686  1.00 20.00     0.038 C 
HETATM    7  C8  UNL     1     -35.146  14.905  -2.870  1.00 20.00     0.028 C 
HETATM    8  C9  UNL     1     -34.115  14.742  -4.034  1.00 20.00     0.046 C 
HETATM    9  C11 UNL     1     -32.749  14.255  -3.542  1.00 20.00     0.029 C 
ENDROOT
BRANCH   8  10
HETATM   10  C5  UNL     1     -34.615  13.799  -5.101  1.00 20.00     0.136 C 
HETATM   11  C10 UNL     1     -34.919  14.400  -6.446  1.00 20.00     0.092 C 
HETATM   12  O12 UNL     1     -34.765  12.598  -4.882  1.00 20.00    -0.297 OA
ENDBRANCH   8  10
TORSDOF 1
ENDMDL
MODEL 6
REMARK VINA RESULT:      -5.0      1.484      3.119
REMARK  1 active torsions:
REMARK  status: ('A' for Active; 'I' for Inactive)
REMARK    1  A    between atoms: C5_5  and  C9_9 
ROOT
HETATM    1  C1  UNL     1     -37.530  14.841  -4.469  1.00 20.00    -0.021 C 
HETATM    2  C2  UNL     1     -36.671  14.988  -3.448  1.00 20.00    -0.024 C 
HETATM    3  C3  UNL     1     -35.708  15.003  -6.118  1.00 20.00    -0.065 C 
HETATM    4  C4  UNL     1     -35.526  14.473  -7.333  1.00 20.00     0.016 C 
HETATM    5  C6  UNL     1     -36.389  16.811  -4.820  1.00 20.00     0.023 C 
HETATM    6  C7  UNL     1     -36.993  15.653  -5.621  1.00 20.00     0.038 C 
HETATM    7  C8  UNL     1     -35.542  15.887  -3.930  1.00 20.00     0.028 C 
HETATM    8  C9  UNL     1     -34.673  15.139  -4.992  1.00 20.00     0.046 C 
HETATM    9  C11 UNL     1     -33.436  15.941  -5.406  1.00 20.00     0.029 C 
ENDROOT
BRANCH   8  10
HETATM   10  C5  UNL     1     -34.234  13.780  -4.504  1.00 20.00     0.136 C 
HETATM   11  C10 UNL     1     -33.050  13.744  -3.577  1.00 20.00     0.092 C 
HETATM   12  O12 UNL     1     -34.818  12.753  -4.846  1.00 20.00    -0.297 OA
ENDBRANCH   8  10
TORSDOF 1
ENDMDL
MODEL 7
REMARK VINA RESULT:      -5.0      1.282      2.590
REMARK  1 active torsions:
REMARK  status: ('A' for Active; 'I' for Inactive)
REMARK    1  A    between atoms: C5_5  and  C9_9 
ROOT
HETATM    1  C1  UNL     1     -34.075  15.749  -6.432  1.00 20.00    -0.021 C 
HETATM    2  C2  UNL     1     -35.302  16.190  -6.110  1.00 20.00    -0.024 C 
HETATM    3  C3  UNL     1     -33.662  14.997  -4.123  1.00 20.00    -0.065 C 
HETATM    4  C4  UNL     1     -32.936  14.001  -3.604  1.00 20.00     0.016 C 
HETATM    5  C6  UNL     1     -33.826  17.247  -4.699  1.00 20.00     0.023 C 
HETATM    6  C7  UNL     1     -33.199  15.949  -5.219  1.00 20.00     0.038 C 
HETATM    7  C8  UNL     1     -35.249  16.665  -4.666  1.00 20.00     0.028 C 
HETATM    8  C9  UNL     1     -35.068  15.448  -3.702  1.00 20.00     0.046 C 
HETATM    9  C11 UNL     1     -35.154  15.850  -2.228  1.00 20.00     0.029 C 
ENDROOT
BRANCH   8  10
HETATM   10  C5  UNL     1     -36.079  14.361  -3.973  1.00 20.00     0.136 C 
HETATM   11  C10 UNL     1     -37.529  14.734  -3.823  1.00 20.00     0.092 C 
HETATM   12  O12 UNL     1     -35.735  13.227  -4.303  1.00 20.00    -0.297 OA
ENDBRANCH   8  10
TORSDOF 1
ENDMDL
MODEL 8
REMARK VINA RESULT:      -4.9      1.160      2.923
REMARK  1 active torsions:
REMARK  status: ('A' for Active; 'I' for Inactive)
REMARK    1  A    between atoms: C5_5  and  C9_9 
ROOT
HETATM    1  C1  UNL     1     -36.261  15.788  -6.333  1.00 20.00    -0.021 C 
HETATM    2  C2  UNL     1     -35.903  16.832  -5.568  1.00 20.00    -0.024 C 
HETATM    3  C3  UNL     1     -34.723  14.288  -5.128  1.00 20.00    -0.065 C 
HETATM    4  C4  UNL     1     -34.757  12.980  -4.847  1.00 20.00     0.016 C 
HETATM    5  C6  UNL     1     -33.974  16.006  -6.509  1.00 20.00     0.023 C 
HETATM    6  C7  UNL     1     -35.044  14.909  -6.482  1.00 20.00     0.038 C 
HETATM    7  C8  UNL     1     -34.443  16.636  -5.187  1.00 20.00     0.028 C 
HETATM    8  C9  UNL     1     -34.300  15.434  -4.199  1.00 20.00     0.046 C 
HETATM    9  C11 UNL     1     -32.873  15.280  -3.666  1.00 20.00     0.029 C 
ENDROOT
BRANCH   8  10
HETATM   10  C5  UNL     1     -35.248  15.550  -3.030  1.00 20.00     0.136 C 
HETATM   11  C10 UNL     1     -34.722  16.234  -1.798  1.00 20.00     0.092 C 
HETATM   12  O12 UNL     1     -36.396  15.110  -3.084  1.00 20.00    -0.297 OA
ENDBRANCH   8  10
TORSDOF 1
ENDMDL
MODEL 9
REMARK VINA RESULT:      -4.9      1.524      3.188
REMARK  1 active torsions:
REMARK  status: ('A' for Active; 'I' for Inactive)
REMARK    1  A    between atoms: C5_5  and  C9_9 
ROOT
HETATM    1  C1  UNL     1     -34.239  15.204  -5.801  1.00 20.00    -0.021 C 
HETATM    2  C2  UNL     1     -33.407  16.123  -5.285  1.00 20.00    -0.024 C 
HETATM    3  C3  UNL     1     -35.612  15.196  -3.756  1.00 20.00    -0.065 C 
HETATM    4  C4  UNL     1     -36.913  14.982  -3.530  1.00 20.00     0.016 C 
HETATM    5  C6  UNL     1     -33.441  14.357  -3.813  1.00 20.00     0.023 C 
HETATM    6  C7  UNL     1     -34.721  14.348  -4.655  1.00 20.00     0.038 C 
HETATM    7  C8  UNL     1     -33.351  15.892  -3.783  1.00 20.00     0.028 C 
HETATM    8  C9  UNL     1     -34.718  16.272  -3.126  1.00 20.00     0.046 C 
HETATM    9  C11 UNL     1     -34.673  16.199  -1.597  1.00 20.00     0.029 C 
ENDROOT
BRANCH   8  10
HETATM   10  C5  UNL     1     -35.174  17.651  -3.536  1.00 20.00     0.136 C 
HETATM   11  C10 UNL     1     -34.420  18.815  -2.954  1.00 20.00     0.092 C 
HETATM   12  O12 UNL     1     -36.115  17.815  -4.312  1.00 20.00    -0.297 OA
ENDBRANCH   8  10
TORSDOF 1
ENDMDL
