MODEL 1
REMARK VINA RESULT:      -4.9      0.000      0.000
REMARK  2 active torsions:
REMARK  status: ('A' for Active; 'I' for Inactive)
REMARK    1  A    between atoms: C3_3  and  C6_6 
REMARK    2  A    between atoms: C3_3  and  O10_10 
ROOT
HETATM    1  C1  UNL     1     -34.003   5.965   6.177  1.00 20.00    -0.023 C 
HETATM    2  C2  UNL     1     -34.600   5.084   5.367  1.00 20.00    -0.087 C 
HETATM    3  C4  UNL     1     -33.582   7.200   5.451  1.00 20.00     0.042 C 
HETATM    4  C5  UNL     1     -34.674   5.584   3.958  1.00 20.00     0.048 C 
HETATM    5  C6  UNL     1     -33.774   6.826   3.979  1.00 20.00     0.093 C 
HETATM    6  C7  UNL     1     -35.172   3.767   5.747  1.00 20.00     0.043 C 
ENDROOT
BRANCH   5   7
HETATM    7  C3  UNL     1     -32.446   6.529   3.344  1.00 20.00     0.263 C 
HETATM    8  O9  UNL     1     -32.064   5.405   3.048  1.00 20.00    -0.265 OA
BRANCH   7   9
HETATM    9  O10 UNL     1     -31.760   7.692   3.159  1.00 20.00    -0.326 OA
HETATM   10  C8  UNL     1     -32.061   8.398   1.950  1.00 20.00     0.213 C 
ENDBRANCH   7   9
ENDBRANCH   5   7
TORSDOF 2
ENDMDL
MODEL 2
REMARK VINA RESULT:      -4.5     11.398     12.091
REMARK  2 active torsions:
REMARK  status: ('A' for Active; 'I' for Inactive)
REMARK    1  A    between atoms: C3_3  and  C6_6 
REMARK    2  A    between atoms: C3_3  and  O10_10 
ROOT
HETATM    1  C1  UNL     1     -33.695  17.484  -2.440  1.00 20.00    -0.023 C 
HETATM    2  C2  UNL     1     -34.454  16.760  -1.611  1.00 20.00    -0.087 C 
HETATM    3  C4  UNL     1     -33.671  16.917  -3.821  1.00 20.00     0.042 C 
HETATM    4  C5  UNL     1     -35.064  15.580  -2.302  1.00 20.00     0.048 C 
HETATM    5  C6  UNL     1     -34.333  15.546  -3.650  1.00 20.00     0.093 C 
HETATM    6  C7  UNL     1     -34.731  17.042  -0.180  1.00 20.00     0.043 C 
ENDROOT
BRANCH   5   7
HETATM    7  C3  UNL     1     -33.291  14.464  -3.661  1.00 20.00     0.263 C 
HETATM    8  O9  UNL     1     -32.092  14.667  -3.533  1.00 20.00    -0.265 OA
BRANCH   7   9
HETATM    9  O10 UNL     1     -33.894  13.254  -3.833  1.00 20.00    -0.326 OA
HETATM   10  C8  UNL     1     -34.759  13.154  -4.969  1.00 20.00     0.213 C 
ENDBRANCH   7   9
ENDBRANCH   5   7
TORSDOF 2
ENDMDL
MODEL 3
REMARK VINA RESULT:      -4.2     11.275     12.156
REMARK  2 active torsions:
REMARK  status: ('A' for Active; 'I' for Inactive)
REMARK    1  A    between atoms: C3_3  and  C6_6 
REMARK    2  A    between atoms: C3_3  and  O10_10 
ROOT
HETATM    1  C1  UNL     1     -33.339  16.487  -2.704  1.00 20.00    -0.023 C 
HETATM    2  C2  UNL     1     -34.476  16.271  -2.036  1.00 20.00    -0.087 C 
HETATM    3  C4  UNL     1     -33.433  16.051  -4.129  1.00 20.00     0.042 C 
HETATM    4  C5  UNL     1     -35.524  15.648  -2.905  1.00 20.00     0.048 C 
HETATM    5  C6  UNL     1     -34.748  15.266  -4.171  1.00 20.00     0.093 C 
HETATM    6  C7  UNL     1     -34.755  16.606  -0.616  1.00 20.00     0.043 C 
ENDROOT
BRANCH   5   7
HETATM    7  C3  UNL     1     -34.468  13.790  -4.197  1.00 20.00     0.263 C 
HETATM    8  O9  UNL     1     -33.838  13.197  -3.332  1.00 20.00    -0.265 OA
BRANCH   7   9
HETATM    9  O10 UNL     1     -35.020  13.242  -5.316  1.00 20.00    -0.326 OA
HETATM   10  C8  UNL     1     -35.195  14.139  -6.418  1.00 20.00     0.213 C 
ENDBRANCH   7   9
ENDBRANCH   5   7
TORSDOF 2
ENDMDL
MODEL 4
REMARK VINA RESULT:      -4.2     11.593     12.325
REMARK  2 active torsions:
REMARK  status: ('A' for Active; 'I' for Inactive)
REMARK    1  A    between atoms: C3_3  and  C6_6 
REMARK    2  A    between atoms: C3_3  and  O10_10 
ROOT
HETATM    1  C1  UNL     1     -33.452  15.695  -2.878  1.00 20.00    -0.023 C 
HETATM    2  C2  UNL     1     -34.478  16.194  -2.180  1.00 20.00    -0.087 C 
HETATM    3  C4  UNL     1     -33.856  15.284  -4.255  1.00 20.00     0.042 C 
HETATM    4  C5  UNL     1     -35.745  16.197  -2.977  1.00 20.00     0.048 C 
HETATM    5  C6  UNL     1     -35.385  15.359  -4.210  1.00 20.00     0.093 C 
HETATM    6  C7  UNL     1     -34.439  16.728  -0.795  1.00 20.00     0.043 C 
ENDROOT
BRANCH   5   7
HETATM    7  C3  UNL     1     -35.968  13.979  -4.102  1.00 20.00     0.263 C 
HETATM    8  O9  UNL     1     -35.322  12.950  -4.245  1.00 20.00    -0.265 OA
BRANCH   7   9
HETATM    9  O10 UNL     1     -37.300  14.067  -3.826  1.00 20.00    -0.326 OA
HETATM   10  C8  UNL     1     -38.094  14.709  -4.828  1.00 20.00     0.213 C 
ENDBRANCH   7   9
ENDBRANCH   5   7
TORSDOF 2
ENDMDL
MODEL 5
REMARK VINA RESULT:      -4.2     11.467     12.906
REMARK  2 active torsions:
REMARK  status: ('A' for Active; 'I' for Inactive)
REMARK    1  A    between atoms: C3_3  and  C6_6 
REMARK    2  A    between atoms: C3_3  and  O10_10 
ROOT
HETATM    1  C1  UNL     1     -34.768  16.615  -3.176  1.00 20.00    -0.023 C 
HETATM    2  C2  UNL     1     -33.815  16.885  -4.075  1.00 20.00    -0.087 C 
HETATM    3  C4  UNL     1     -34.702  15.203  -2.695  1.00 20.00     0.042 C 
HETATM    4  C5  UNL     1     -32.952  15.692  -4.348  1.00 20.00     0.048 C 
HETATM    5  C6  UNL     1     -33.705  14.549  -3.656  1.00 20.00     0.093 C 
HETATM    6  C7  UNL     1     -33.560  18.187  -4.742  1.00 20.00     0.043 C 
ENDROOT
BRANCH   5   7
HETATM    7  C3  UNL     1     -34.435  13.708  -4.665  1.00 20.00     0.263 C 
HETATM    8  O9  UNL     1     -35.039  12.680  -4.391  1.00 20.00    -0.265 OA
BRANCH   7   9
HETATM    9  O10 UNL     1     -34.312  14.270  -5.901  1.00 20.00    -0.326 OA
HETATM   10  C8  UNL     1     -35.537  14.448  -6.619  1.00 20.00     0.213 C 
ENDBRANCH   7   9
ENDBRANCH   5   7
TORSDOF 2
ENDMDL
MODEL 6
REMARK VINA RESULT:      -4.1     11.291     12.649
REMARK  2 active torsions:
REMARK  status: ('A' for Active; 'I' for Inactive)
REMARK    1  A    between atoms: C3_3  and  C6_6 
REMARK    2  A    between atoms: C3_3  and  O10_10 
ROOT
HETATM    1  C1  UNL     1     -34.729  13.326  -5.428  1.00 20.00    -0.023 C 
HETATM    2  C2  UNL     1     -34.967  14.484  -6.054  1.00 20.00    -0.087 C 
HETATM    3  C4  UNL     1     -34.805  13.465  -3.943  1.00 20.00     0.042 C 
HETATM    4  C5  UNL     1     -35.239  15.595  -5.088  1.00 20.00     0.048 C 
HETATM    5  C6  UNL     1     -34.864  14.981  -3.733  1.00 20.00     0.093 C 
HETATM    6  C7  UNL     1     -35.004  14.714  -7.521  1.00 20.00     0.043 C 
ENDROOT
BRANCH   5   7
HETATM    7  C3  UNL     1     -33.528  15.490  -3.272  1.00 20.00     0.263 C 
HETATM    8  O9  UNL     1     -32.459  14.976  -3.569  1.00 20.00    -0.265 OA
BRANCH   7   9
HETATM    9  O10 UNL     1     -33.707  16.592  -2.489  1.00 20.00    -0.326 OA
HETATM   10  C8  UNL     1     -34.565  16.409  -1.358  1.00 20.00     0.213 C 
ENDBRANCH   7   9
ENDBRANCH   5   7
TORSDOF 2
ENDMDL
MODEL 7
REMARK VINA RESULT:      -4.1     12.261     12.979
REMARK  2 active torsions:
REMARK  status: ('A' for Active; 'I' for Inactive)
REMARK    1  A    between atoms: C3_3  and  C6_6 
REMARK    2  A    between atoms: C3_3  and  O10_10 
ROOT
HETATM    1  C1  UNL     1     -35.723  15.285  -3.043  1.00 20.00    -0.023 C 
HETATM    2  C2  UNL     1     -34.639  15.767  -2.426  1.00 20.00    -0.087 C 
HETATM    3  C4  UNL     1     -35.375  14.542  -4.291  1.00 20.00     0.042 C 
HETATM    4  C5  UNL     1     -33.381  15.429  -3.164  1.00 20.00     0.048 C 
HETATM    5  C6  UNL     1     -33.895  14.876  -4.499  1.00 20.00     0.093 C 
HETATM    6  C7  UNL     1     -34.602  16.527  -1.151  1.00 20.00     0.043 C 
ENDROOT
BRANCH   5   7
HETATM    7  C3  UNL     1     -33.745  15.898  -5.590  1.00 20.00     0.263 C 
HETATM    8  O9  UNL     1     -34.206  15.772  -6.715  1.00 20.00    -0.265 OA
BRANCH   7   9
HETATM    9  O10 UNL     1     -33.027  16.959  -5.123  1.00 20.00    -0.326 OA
HETATM   10  C8  UNL     1     -33.583  18.248  -5.403  1.00 20.00     0.213 C 
ENDBRANCH   7   9
ENDBRANCH   5   7
TORSDOF 2
ENDMDL
MODEL 8
REMARK VINA RESULT:      -4.1     11.831     13.071
REMARK  2 active torsions:
REMARK  status: ('A' for Active; 'I' for Inactive)
REMARK    1  A    between atoms: C3_3  and  C6_6 
REMARK    2  A    between atoms: C3_3  and  O10_10 
ROOT
HETATM    1  C1  UNL     1     -33.969  16.110  -6.178  1.00 20.00    -0.023 C 
HETATM    2  C2  UNL     1     -34.591  14.928  -6.248  1.00 20.00    -0.087 C 
HETATM    3  C4  UNL     1     -33.172  16.251  -4.923  1.00 20.00     0.042 C 
HETATM    4  C5  UNL     1     -34.317  14.081  -5.045  1.00 20.00     0.048 C 
HETATM    5  C6  UNL     1     -33.624  15.054  -4.082  1.00 20.00     0.093 C 
HETATM    6  C7  UNL     1     -35.441  14.432  -7.360  1.00 20.00     0.043 C 
ENDROOT
BRANCH   5   7
HETATM    7  C3  UNL     1     -34.574  15.505  -3.009  1.00 20.00     0.263 C 
HETATM    8  O9  UNL     1     -35.768  15.241  -2.996  1.00 20.00    -0.265 OA
BRANCH   7   9
HETATM    9  O10 UNL     1     -33.897  16.237  -2.080  1.00 20.00    -0.326 OA
HETATM   10  C8  UNL     1     -34.650  16.605  -0.920  1.00 20.00     0.213 C 
ENDBRANCH   7   9
ENDBRANCH   5   7
TORSDOF 2
ENDMDL
MODEL 9
REMARK VINA RESULT:      -4.1     11.702     12.598
REMARK  2 active torsions:
REMARK  status: ('A' for Active; 'I' for Inactive)
REMARK    1  A    between atoms: C3_3  and  C6_6 
REMARK    2  A    between atoms: C3_3  and  O10_10 
ROOT
HETATM    1  C1  UNL     1     -35.382  13.713  -4.267  1.00 20.00    -0.023 C 
HETATM    2  C2  UNL     1     -36.233  14.620  -3.776  1.00 20.00    -0.087 C 
HETATM    3  C4  UNL     1     -33.996  13.903  -3.746  1.00 20.00     0.042 C 
HETATM    4  C5  UNL     1     -35.553  15.575  -2.845  1.00 20.00     0.048 C 
HETATM    5  C6  UNL     1     -34.066  15.265  -3.049  1.00 20.00     0.093 C 
HETATM    6  C7  UNL     1     -37.690  14.717  -4.049  1.00 20.00     0.043 C 
ENDROOT
BRANCH   5   7
HETATM    7  C3  UNL     1     -33.417  16.317  -3.904  1.00 20.00     0.263 C 
HETATM    8  O9  UNL     1     -32.627  16.075  -4.806  1.00 20.00    -0.265 OA
BRANCH   7   9
HETATM    9  O10 UNL     1     -33.848  17.550  -3.514  1.00 20.00    -0.326 OA
HETATM   10  C8  UNL     1     -33.793  18.567  -4.519  1.00 20.00     0.213 C 
ENDBRANCH   7   9
ENDBRANCH   5   7
TORSDOF 2
ENDMDL
