MODEL 1
REMARK VINA RESULT:      -3.7      0.000      0.000
REMARK  2 active torsions:
REMARK  status: ('A' for Active; 'I' for Inactive)
REMARK    1  A    between atoms: C6_6  and  C7_7 
REMARK    2  A    between atoms: C6_6  and  N8_8 
ROOT
HETATM    1  C1  UNL     1     -33.230  15.953  -4.647  1.00 20.00     0.283 C 
HETATM    2  C2  UNL     1     -34.333  15.586  -5.633  1.00 20.00     0.105 C 
HETATM    3  C3  UNL     1     -33.913  13.951  -3.611  1.00 20.00     0.346 C 
HETATM    4  N8  UNL     1     -33.501  15.333  -3.338  1.00 20.00     0.098 N 
HETATM    5  S9  UNL     1     -34.725  13.868  -5.234  1.00 20.00    -0.138 SA
ENDROOT
BRANCH   4   6
HETATM    6  C6  UNL     1     -34.525  16.066  -2.592  1.00 20.00     0.277 C 
BRANCH   6   7
HETATM    7  C7  UNL     1     -33.910  16.948  -1.497  1.00 20.00     0.006 C 
HETATM    8  C4  UNL     1     -33.637  18.371  -1.984  1.00 20.00     0.011 C 
HETATM    9  C5  UNL     1     -34.763  16.967  -0.228  1.00 20.00     0.011 C 
ENDBRANCH   6   7
ENDBRANCH   4   6
TORSDOF 2
ENDMDL
MODEL 2
REMARK VINA RESULT:      -3.6      1.613      2.202
REMARK  2 active torsions:
REMARK  status: ('A' for Active; 'I' for Inactive)
REMARK    1  A    between atoms: C6_6  and  C7_7 
REMARK    2  A    between atoms: C6_6  and  N8_8 
ROOT
HETATM    1  C1  UNL     1     -34.543  13.423  -4.819  1.00 20.00     0.283 C 
HETATM    2  C2  UNL     1     -34.774  14.308  -6.038  1.00 20.00     0.105 C 
HETATM    3  C3  UNL     1     -36.276  14.738  -3.918  1.00 20.00     0.346 C 
HETATM    4  N8  UNL     1     -34.981  14.124  -3.599  1.00 20.00     0.098 N 
HETATM    5  S9  UNL     1     -36.342  15.135  -5.689  1.00 20.00    -0.138 SA
ENDROOT
BRANCH   4   6
HETATM    6  C6  UNL     1     -34.002  15.120  -3.163  1.00 20.00     0.277 C 
BRANCH   6   7
HETATM    7  C7  UNL     1     -34.681  16.380  -2.612  1.00 20.00     0.006 C 
HETATM    8  C4  UNL     1     -34.596  16.465  -1.087  1.00 20.00     0.011 C 
HETATM    9  C5  UNL     1     -34.131  17.655  -3.253  1.00 20.00     0.011 C 
ENDBRANCH   6   7
ENDBRANCH   4   6
TORSDOF 2
ENDMDL
MODEL 3
REMARK VINA RESULT:      -3.5      1.499      2.068
REMARK  2 active torsions:
REMARK  status: ('A' for Active; 'I' for Inactive)
REMARK    1  A    between atoms: C6_6  and  C7_7 
REMARK    2  A    between atoms: C6_6  and  N8_8 
ROOT
HETATM    1  C1  UNL     1     -35.619  16.162  -3.596  1.00 20.00     0.283 C 
HETATM    2  C2  UNL     1     -35.851  14.661  -3.722  1.00 20.00     0.105 C 
HETATM    3  C3  UNL     1     -33.379  15.484  -3.333  1.00 20.00     0.346 C 
HETATM    4  N8  UNL     1     -34.392  16.417  -2.822  1.00 20.00     0.098 N 
HETATM    5  S9  UNL     1     -34.193  13.978  -3.942  1.00 20.00    -0.138 SA
ENDROOT
BRANCH   4   6
HETATM    6  C6  UNL     1     -34.609  16.247  -1.386  1.00 20.00     0.277 C 
BRANCH   6   7
HETATM    7  C7  UNL     1     -34.564  17.587  -0.641  1.00 20.00     0.006 C 
HETATM    8  C4  UNL     1     -35.126  17.482   0.777  1.00 20.00     0.011 C 
HETATM    9  C5  UNL     1     -33.156  18.184  -0.619  1.00 20.00     0.011 C 
ENDBRANCH   6   7
ENDBRANCH   4   6
TORSDOF 2
ENDMDL
MODEL 4
REMARK VINA RESULT:      -3.3      2.203      4.114
REMARK  2 active torsions:
REMARK  status: ('A' for Active; 'I' for Inactive)
REMARK    1  A    between atoms: C6_6  and  C7_7 
REMARK    2  A    between atoms: C6_6  and  N8_8 
ROOT
HETATM    1  C1  UNL     1     -34.572  16.395  -1.359  1.00 20.00     0.283 C 
HETATM    2  C2  UNL     1     -35.558  17.557  -1.422  1.00 20.00     0.105 C 
HETATM    3  C3  UNL     1     -34.011  17.157  -3.516  1.00 20.00     0.346 C 
HETATM    4  N8  UNL     1     -34.242  15.943  -2.722  1.00 20.00     0.098 N 
HETATM    5  S9  UNL     1     -35.012  18.518  -2.850  1.00 20.00    -0.138 SA
ENDROOT
BRANCH   4   6
HETATM    6  C6  UNL     1     -35.306  15.117  -3.294  1.00 20.00     0.277 C 
BRANCH   6   7
HETATM    7  C7  UNL     1     -34.745  13.875  -3.999  1.00 20.00     0.006 C 
HETATM    8  C4  UNL     1     -34.947  13.928  -5.514  1.00 20.00     0.011 C 
HETATM    9  C5  UNL     1     -33.273  13.639  -3.660  1.00 20.00     0.011 C 
ENDBRANCH   6   7
ENDBRANCH   4   6
TORSDOF 2
ENDMDL
MODEL 5
REMARK VINA RESULT:      -3.3      2.550      4.203
REMARK  2 active torsions:
REMARK  status: ('A' for Active; 'I' for Inactive)
REMARK    1  A    between atoms: C6_6  and  C7_7 
REMARK    2  A    between atoms: C6_6  and  N8_8 
ROOT
HETATM    1  C1  UNL     1     -35.000  17.952  -2.725  1.00 20.00     0.283 C 
HETATM    2  C2  UNL     1     -33.752  18.695  -2.264  1.00 20.00     0.105 C 
HETATM    3  C3  UNL     1     -34.583  16.676  -0.790  1.00 20.00     0.346 C 
HETATM    4  N8  UNL     1     -34.990  16.576  -2.197  1.00 20.00     0.098 N 
HETATM    5  S9  UNL     1     -33.497  18.116  -0.572  1.00 20.00    -0.138 SA
ENDROOT
BRANCH   4   6
HETATM    6  C6  UNL     1     -34.092  15.708  -2.960  1.00 20.00     0.277 C 
BRANCH   6   7
HETATM    7  C7  UNL     1     -34.766  14.383  -3.337  1.00 20.00     0.006 C 
HETATM    8  C4  UNL     1     -36.199  14.581  -3.832  1.00 20.00     0.011 C 
HETATM    9  C5  UNL     1     -33.948  13.593  -4.359  1.00 20.00     0.011 C 
ENDBRANCH   6   7
ENDBRANCH   4   6
TORSDOF 2
ENDMDL
MODEL 6
REMARK VINA RESULT:      -3.2      1.980      3.191
REMARK  2 active torsions:
REMARK  status: ('A' for Active; 'I' for Inactive)
REMARK    1  A    between atoms: C6_6  and  C7_7 
REMARK    2  A    between atoms: C6_6  and  N8_8 
ROOT
HETATM    1  C1  UNL     1     -33.406  14.012  -3.746  1.00 20.00     0.283 C 
HETATM    2  C2  UNL     1     -34.463  13.366  -4.634  1.00 20.00     0.105 C 
HETATM    3  C3  UNL     1     -35.072  15.657  -3.485  1.00 20.00     0.346 C 
HETATM    4  N8  UNL     1     -33.628  15.467  -3.678  1.00 20.00     0.098 N 
HETATM    5  S9  UNL     1     -35.974  14.281  -4.254  1.00 20.00    -0.138 SA
ENDROOT
BRANCH   4   6
HETATM    6  C6  UNL     1     -33.149  16.146  -4.882  1.00 20.00     0.277 C 
BRANCH   6   7
HETATM    7  C7  UNL     1     -34.088  17.285  -5.304  1.00 20.00     0.006 C 
HETATM    8  C4  UNL     1     -33.506  18.663  -4.990  1.00 20.00     0.011 C 
HETATM    9  C5  UNL     1     -34.479  17.188  -6.779  1.00 20.00     0.011 C 
ENDBRANCH   6   7
ENDBRANCH   4   6
TORSDOF 2
ENDMDL
MODEL 7
REMARK VINA RESULT:      -3.2     11.318     12.462
REMARK  2 active torsions:
REMARK  status: ('A' for Active; 'I' for Inactive)
REMARK    1  A    between atoms: C6_6  and  C7_7 
REMARK    2  A    between atoms: C6_6  and  N8_8 
ROOT
HETATM    1  C1  UNL     1     -34.007   6.542   5.488  1.00 20.00     0.283 C 
HETATM    2  C2  UNL     1     -34.168   5.160   6.111  1.00 20.00     0.105 C 
HETATM    3  C3  UNL     1     -34.975   5.478   3.623  1.00 20.00     0.346 C 
HETATM    4  N8  UNL     1     -33.927   6.426   4.021  1.00 20.00     0.098 N 
HETATM    5  S9  UNL     1     -35.261   4.288   4.966  1.00 20.00    -0.138 SA
ENDROOT
BRANCH   4   6
HETATM    6  C6  UNL     1     -32.603   5.984   3.583  1.00 20.00     0.277 C 
BRANCH   6   7
HETATM    7  C7  UNL     1     -31.745   7.158   3.092  1.00 20.00     0.006 C 
HETATM    8  C4  UNL     1     -32.525   8.103   2.178  1.00 20.00     0.011 C 
HETATM    9  C5  UNL     1     -31.111   7.929   4.250  1.00 20.00     0.011 C 
ENDBRANCH   6   7
ENDBRANCH   4   6
TORSDOF 2
ENDMDL
MODEL 8
REMARK VINA RESULT:      -3.2      2.061      3.210
REMARK  2 active torsions:
REMARK  status: ('A' for Active; 'I' for Inactive)
REMARK    1  A    between atoms: C6_6  and  C7_7 
REMARK    2  A    between atoms: C6_6  and  N8_8 
ROOT
HETATM    1  C1  UNL     1     -34.587  14.798  -7.200  1.00 20.00     0.283 C 
HETATM    2  C2  UNL     1     -35.179  16.008  -7.914  1.00 20.00     0.105 C 
HETATM    3  C3  UNL     1     -36.107  15.434  -5.517  1.00 20.00     0.346 C 
HETATM    4  N8  UNL     1     -34.739  14.952  -5.742  1.00 20.00     0.098 N 
HETATM    5  S9  UNL     1     -36.652  16.411  -6.948  1.00 20.00    -0.138 SA
ENDROOT
BRANCH   4   6
HETATM    6  C6  UNL     1     -33.744  15.870  -5.187  1.00 20.00     0.277 C 
BRANCH   6   7
HETATM    7  C7  UNL     1     -33.164  15.349  -3.865  1.00 20.00     0.006 C 
HETATM    8  C4  UNL     1     -33.733  16.085  -2.652  1.00 20.00     0.011 C 
HETATM    9  C5  UNL     1     -33.350  13.838  -3.714  1.00 20.00     0.011 C 
ENDBRANCH   6   7
ENDBRANCH   4   6
TORSDOF 2
ENDMDL
MODEL 9
REMARK VINA RESULT:      -3.2      2.234      4.152
REMARK  2 active torsions:
REMARK  status: ('A' for Active; 'I' for Inactive)
REMARK    1  A    between atoms: C6_6  and  C7_7 
REMARK    2  A    between atoms: C6_6  and  N8_8 
ROOT
HETATM    1  C1  UNL     1     -34.887  17.495  -3.602  1.00 20.00     0.283 C 
HETATM    2  C2  UNL     1     -33.836  18.361  -2.916  1.00 20.00     0.105 C 
HETATM    3  C3  UNL     1     -34.594  16.160  -1.683  1.00 20.00     0.346 C 
HETATM    4  N8  UNL     1     -34.767  16.100  -3.140  1.00 20.00     0.098 N 
HETATM    5  S9  UNL     1     -33.762  17.710  -1.233  1.00 20.00    -0.138 SA
ENDROOT
BRANCH   4   6
HETATM    6  C6  UNL     1     -33.654  15.407  -3.789  1.00 20.00     0.277 C 
BRANCH   6   7
HETATM    7  C7  UNL     1     -34.145  14.305  -4.737  1.00 20.00     0.006 C 
HETATM    8  C4  UNL     1     -35.359  13.560  -4.181  1.00 20.00     0.011 C 
HETATM    9  C5  UNL     1     -34.439  14.842  -6.138  1.00 20.00     0.011 C 
ENDBRANCH   6   7
ENDBRANCH   4   6
TORSDOF 2
ENDMDL
