MODEL 1
REMARK VINA RESULT:      -5.5      0.000      0.000
REMARK  5 active torsions:
REMARK  status: ('A' for Active; 'I' for Inactive)
REMARK    1  A    between atoms: C1_1  and  C7_7 
REMARK    2  A    between atoms: C2_2  and  C9_9 
REMARK    3  A    between atoms: C4_4  and  C8_8 
REMARK    4  A    between atoms: C8_8  and  C9_9 
REMARK    5  A    between atoms: C9_9  and  O10_10 
ROOT
HETATM    1  C9  UNL     1     -33.723   5.760   3.979  1.00 20.00     0.200 C 
ENDROOT
BRANCH   1   2
HETATM    2  C2  UNL     1     -33.002   6.754   3.170  1.00 20.00    -0.074 C 
HETATM    3  C1  UNL     1     -32.415   7.568   2.510  1.00 20.00    -0.099 C 
BRANCH   3   4
HETATM    4  C7  UNL     1     -31.711   8.543   1.718  1.00 20.00     0.065 A 
HETATM    5  C5  UNL     1     -32.389   9.848   1.414  1.00 20.00     0.018 A 
HETATM    6  C6  UNL     1     -32.202   8.831   0.328  1.00 20.00     0.018 A 
ENDBRANCH   3   4
ENDBRANCH   1   2
BRANCH   1   7
HETATM    7  C8  UNL     1     -33.975   6.293   5.393  1.00 20.00     0.071 C 
BRANCH   7   8
HETATM    8  C4  UNL     1     -34.720   5.299   6.240  1.00 20.00    -0.033 C 
HETATM    9  C3  UNL     1     -34.756   3.984   5.996  1.00 20.00     0.007 C 
ENDBRANCH   7   8
ENDBRANCH   1   7
BRANCH   1  10
HETATM   10  O10 UNL     1     -34.982   5.478   3.368  1.00 20.00    -0.383 OA
HETATM   11  H22 UNL     1     -35.286   6.306   2.967  1.00 20.00     0.211 HD
ENDBRANCH   1  10
TORSDOF 5
ENDMDL
MODEL 2
REMARK VINA RESULT:      -5.4      1.642      5.564
REMARK  5 active torsions:
REMARK  status: ('A' for Active; 'I' for Inactive)
REMARK    1  A    between atoms: C1_1  and  C7_7 
REMARK    2  A    between atoms: C2_2  and  C9_9 
REMARK    3  A    between atoms: C4_4  and  C8_8 
REMARK    4  A    between atoms: C8_8  and  C9_9 
REMARK    5  A    between atoms: C9_9  and  O10_10 
ROOT
HETATM    1  C9  UNL     1     -31.968   7.262   3.013  1.00 20.00     0.200 C 
ENDROOT
BRANCH   1   2
HETATM    2  C2  UNL     1     -33.080   6.510   3.614  1.00 20.00    -0.074 C 
HETATM    3  C1  UNL     1     -33.989   5.898   4.106  1.00 20.00    -0.099 C 
BRANCH   3   4
HETATM    4  C7  UNL     1     -35.078   5.164   4.696  1.00 20.00     0.065 A 
HETATM    5  C5  UNL     1     -35.082   4.952   6.182  1.00 20.00     0.018 A 
HETATM    6  C6  UNL     1     -34.803   3.801   5.262  1.00 20.00     0.018 A 
ENDBRANCH   3   4
ENDBRANCH   1   2
BRANCH   1   7
HETATM    7  C8  UNL     1     -32.484   8.526   2.318  1.00 20.00     0.071 C 
BRANCH   7   8
HETATM    8  C4  UNL     1     -31.867   8.708   0.960  1.00 20.00    -0.033 C 
HETATM    9  C3  UNL     1     -32.548   9.078  -0.130  1.00 20.00     0.007 C 
ENDBRANCH   7   8
ENDBRANCH   1   7
BRANCH   1  10
HETATM   10  O10 UNL     1     -31.050   7.645   4.036  1.00 20.00    -0.383 OA
HETATM   11  H22 UNL     1     -30.533   8.383   3.679  1.00 20.00     0.211 HD
ENDBRANCH   1  10
TORSDOF 5
ENDMDL
MODEL 3
REMARK VINA RESULT:      -5.3      0.877      1.324
REMARK  5 active torsions:
REMARK  status: ('A' for Active; 'I' for Inactive)
REMARK    1  A    between atoms: C1_1  and  C7_7 
REMARK    2  A    between atoms: C2_2  and  C9_9 
REMARK    3  A    between atoms: C4_4  and  C8_8 
REMARK    4  A    between atoms: C8_8  and  C9_9 
REMARK    5  A    between atoms: C9_9  and  O10_10 
ROOT
HETATM    1  C9  UNL     1     -34.546   5.113   3.755  1.00 20.00     0.200 C 
ENDROOT
BRANCH   1   2
HETATM    2  C2  UNL     1     -33.606   6.149   3.301  1.00 20.00    -0.074 C 
HETATM    3  C1  UNL     1     -32.841   6.996   2.928  1.00 20.00    -0.099 C 
BRANCH   3   4
HETATM    4  C7  UNL     1     -31.922   8.010   2.482  1.00 20.00     0.065 A 
HETATM    5  C5  UNL     1     -32.478   9.287   1.918  1.00 20.00     0.018 A 
HETATM    6  C6  UNL     1     -31.819   8.290   1.010  1.00 20.00     0.018 A 
ENDBRANCH   3   4
ENDBRANCH   1   2
BRANCH   1   7
HETATM    7  C8  UNL     1     -34.227   4.685   5.191  1.00 20.00     0.071 C 
BRANCH   7   8
HETATM    8  C4  UNL     1     -34.649   5.725   6.191  1.00 20.00    -0.033 C 
HETATM    9  C3  UNL     1     -33.875   6.742   6.587  1.00 20.00     0.007 C 
ENDBRANCH   7   8
ENDBRANCH   1   7
BRANCH   1  10
HETATM   10  O10 UNL     1     -35.875   5.633   3.719  1.00 20.00    -0.383 OA
HETATM   11  H22 UNL     1     -35.792   6.597   3.671  1.00 20.00     0.211 HD
ENDBRANCH   1  10
TORSDOF 5
ENDMDL
MODEL 4
REMARK VINA RESULT:      -4.8     10.271     11.734
REMARK  5 active torsions:
REMARK  status: ('A' for Active; 'I' for Inactive)
REMARK    1  A    between atoms: C1_1  and  C7_7 
REMARK    2  A    between atoms: C2_2  and  C9_9 
REMARK    3  A    between atoms: C4_4  and  C8_8 
REMARK    4  A    between atoms: C8_8  and  C9_9 
REMARK    5  A    between atoms: C9_9  and  O10_10 
ROOT
HETATM    1  C9  UNL     1     -34.318  13.489  -3.824  1.00 20.00     0.200 C 
ENDROOT
BRANCH   1   2
HETATM    2  C2  UNL     1     -34.477  14.749  -3.082  1.00 20.00    -0.074 C 
HETATM    3  C1  UNL     1     -34.608  15.776  -2.474  1.00 20.00    -0.099 C 
BRANCH   3   4
HETATM    4  C7  UNL     1     -34.764  17.008  -1.746  1.00 20.00     0.065 A 
HETATM    5  C5  UNL     1     -33.587  17.551  -0.988  1.00 20.00     0.018 A 
HETATM    6  C6  UNL     1     -34.751  16.963  -0.246  1.00 20.00     0.018 A 
ENDBRANCH   3   4
ENDBRANCH   1   2
BRANCH   1   7
HETATM    7  C8  UNL     1     -34.915  13.609  -5.230  1.00 20.00     0.071 C 
BRANCH   7   8
HETATM    8  C4  UNL     1     -34.419  14.835  -5.944  1.00 20.00    -0.033 C 
HETATM    9  C3  UNL     1     -34.462  14.998  -7.272  1.00 20.00     0.007 C 
ENDBRANCH   7   8
ENDBRANCH   1   7
BRANCH   1  10
HETATM   10  O10 UNL     1     -32.929  13.184  -3.944  1.00 20.00    -0.383 OA
HETATM   11  H22 UNL     1     -32.628  12.919  -3.062  1.00 20.00     0.211 HD
ENDBRANCH   1  10
TORSDOF 5
ENDMDL
MODEL 5
REMARK VINA RESULT:      -4.7     11.101     12.366
REMARK  5 active torsions:
REMARK  status: ('A' for Active; 'I' for Inactive)
REMARK    1  A    between atoms: C1_1  and  C7_7 
REMARK    2  A    between atoms: C2_2  and  C9_9 
REMARK    3  A    between atoms: C4_4  and  C8_8 
REMARK    4  A    between atoms: C8_8  and  C9_9 
REMARK    5  A    between atoms: C9_9  and  O10_10 
ROOT
HETATM    1  C9  UNL     1     -33.323  15.306  -4.016  1.00 20.00     0.200 C 
ENDROOT
BRANCH   1   2
HETATM    2  C2  UNL     1     -33.827  15.859  -2.750  1.00 20.00    -0.074 C 
HETATM    3  C1  UNL     1     -34.236  16.310  -1.715  1.00 20.00    -0.099 C 
BRANCH   3   4
HETATM    4  C7  UNL     1     -34.727  16.851  -0.475  1.00 20.00     0.065 A 
HETATM    5  C5  UNL     1     -35.333  18.225  -0.478  1.00 20.00     0.018 A 
HETATM    6  C6  UNL     1     -33.990  18.000   0.151  1.00 20.00     0.018 A 
ENDBRANCH   3   4
ENDBRANCH   1   2
BRANCH   1   7
HETATM    7  C8  UNL     1     -33.276  16.389  -5.099  1.00 20.00     0.071 C 
BRANCH   7   8
HETATM    8  C4  UNL     1     -34.008  15.968  -6.342  1.00 20.00    -0.033 C 
HETATM    9  C3  UNL     1     -34.594  14.776  -6.500  1.00 20.00     0.007 C 
ENDBRANCH   7   8
ENDBRANCH   1   7
BRANCH   1  10
HETATM   10  O10 UNL     1     -32.003  14.801  -3.818  1.00 20.00    -0.383 OA
HETATM   11  H22 UNL     1     -31.934  14.568  -2.880  1.00 20.00     0.211 HD
ENDBRANCH   1  10
TORSDOF 5
ENDMDL
MODEL 6
REMARK VINA RESULT:      -4.4     10.822     11.729
REMARK  5 active torsions:
REMARK  status: ('A' for Active; 'I' for Inactive)
REMARK    1  A    between atoms: C1_1  and  C7_7 
REMARK    2  A    between atoms: C2_2  and  C9_9 
REMARK    3  A    between atoms: C4_4  and  C8_8 
REMARK    4  A    between atoms: C8_8  and  C9_9 
REMARK    5  A    between atoms: C9_9  and  O10_10 
ROOT
HETATM    1  C9  UNL     1     -33.208  14.966  -3.764  1.00 20.00     0.200 C 
ENDROOT
BRANCH   1   2
HETATM    2  C2  UNL     1     -33.657  15.974  -2.792  1.00 20.00    -0.074 C 
HETATM    3  C1  UNL     1     -34.024  16.796  -1.997  1.00 20.00    -0.099 C 
BRANCH   3   4
HETATM    4  C7  UNL     1     -34.464  17.781  -1.044  1.00 20.00     0.065 A 
HETATM    5  C5  UNL     1     -33.598  18.066   0.149  1.00 20.00     0.018 A 
HETATM    6  C6  UNL     1     -34.889  17.322   0.321  1.00 20.00     0.018 A 
ENDBRANCH   3   4
ENDBRANCH   1   2
BRANCH   1   7
HETATM    7  C8  UNL     1     -33.913  15.160  -5.110  1.00 20.00     0.071 C 
BRANCH   7   8
HETATM    8  C4  UNL     1     -34.895  14.057  -5.390  1.00 20.00    -0.033 C 
HETATM    9  C3  UNL     1     -35.251  13.125  -4.499  1.00 20.00     0.007 C 
ENDBRANCH   7   8
ENDBRANCH   1   7
BRANCH   1  10
HETATM   10  O10 UNL     1     -31.801  15.096  -3.964  1.00 20.00    -0.383 OA
HETATM   11  H22 UNL     1     -31.400  15.140  -3.082  1.00 20.00     0.211 HD
ENDBRANCH   1  10
TORSDOF 5
ENDMDL
MODEL 7
REMARK VINA RESULT:      -4.4     10.494     11.573
REMARK  5 active torsions:
REMARK  status: ('A' for Active; 'I' for Inactive)
REMARK    1  A    between atoms: C1_1  and  C7_7 
REMARK    2  A    between atoms: C2_2  and  C9_9 
REMARK    3  A    between atoms: C4_4  and  C8_8 
REMARK    4  A    between atoms: C8_8  and  C9_9 
REMARK    5  A    between atoms: C9_9  and  O10_10 
ROOT
HETATM    1  C9  UNL     1     -34.575  17.074  -0.428  1.00 20.00     0.200 C 
ENDROOT
BRANCH   1   2
HETATM    2  C2  UNL     1     -34.471  16.287  -1.666  1.00 20.00    -0.074 C 
HETATM    3  C1  UNL     1     -34.387  15.641  -2.676  1.00 20.00    -0.099 C 
BRANCH   3   4
HETATM    4  C7  UNL     1     -34.286  14.869  -3.886  1.00 20.00     0.065 A 
HETATM    5  C5  UNL     1     -34.986  13.542  -3.954  1.00 20.00     0.018 A 
HETATM    6  C6  UNL     1     -33.490  13.596  -3.862  1.00 20.00     0.018 A 
ENDBRANCH   3   4
ENDBRANCH   1   2
BRANCH   1   7
HETATM    7  C8  UNL     1     -33.717  18.341  -0.520  1.00 20.00     0.071 C 
BRANCH   7   8
HETATM    8  C4  UNL     1     -33.034  18.648   0.783  1.00 20.00    -0.033 C 
HETATM    9  C3  UNL     1     -31.756  19.028   0.889  1.00 20.00     0.007 C 
ENDBRANCH   7   8
ENDBRANCH   1   7
BRANCH   1  10
HETATM   10  O10 UNL     1     -35.934  17.458  -0.226  1.00 20.00    -0.383 OA
HETATM   11  H22 UNL     1     -36.287  17.693  -1.097  1.00 20.00     0.211 HD
ENDBRANCH   1  10
TORSDOF 5
ENDMDL
MODEL 8
REMARK VINA RESULT:      -4.4     10.740     11.676
REMARK  5 active torsions:
REMARK  status: ('A' for Active; 'I' for Inactive)
REMARK    1  A    between atoms: C1_1  and  C7_7 
REMARK    2  A    between atoms: C2_2  and  C9_9 
REMARK    3  A    between atoms: C4_4  and  C8_8 
REMARK    4  A    between atoms: C8_8  and  C9_9 
REMARK    5  A    between atoms: C9_9  and  O10_10 
ROOT
HETATM    1  C9  UNL     1     -36.162  14.907  -3.771  1.00 20.00     0.200 C 
ENDROOT
BRANCH   1   2
HETATM    2  C2  UNL     1     -35.447  15.647  -2.720  1.00 20.00    -0.074 C 
HETATM    3  C1  UNL     1     -34.865  16.249  -1.859  1.00 20.00    -0.099 C 
BRANCH   3   4
HETATM    4  C7  UNL     1     -34.168  16.972  -0.828  1.00 20.00     0.065 A 
HETATM    5  C5  UNL     1     -34.921  17.368   0.409  1.00 20.00     0.018 A 
HETATM    6  C6  UNL     1     -34.523  18.411  -0.593  1.00 20.00     0.018 A 
ENDBRANCH   3   4
ENDBRANCH   1   2
BRANCH   1   7
HETATM    7  C8  UNL     1     -35.443  13.592  -4.090  1.00 20.00     0.071 C 
BRANCH   7   8
HETATM    8  C4  UNL     1     -34.593  13.704  -5.324  1.00 20.00    -0.033 C 
HETATM    9  C3  UNL     1     -34.784  14.616  -6.285  1.00 20.00     0.007 C 
ENDBRANCH   7   8
ENDBRANCH   1   7
BRANCH   1  10
HETATM   10  O10 UNL     1     -37.483  14.607  -3.323  1.00 20.00    -0.383 OA
HETATM   11  H22 UNL     1     -37.387  14.101  -2.502  1.00 20.00     0.211 HD
ENDBRANCH   1  10
TORSDOF 5
ENDMDL
MODEL 9
REMARK VINA RESULT:      -4.4     10.337     12.229
REMARK  5 active torsions:
REMARK  status: ('A' for Active; 'I' for Inactive)
REMARK    1  A    between atoms: C1_1  and  C7_7 
REMARK    2  A    between atoms: C2_2  and  C9_9 
REMARK    3  A    between atoms: C4_4  and  C8_8 
REMARK    4  A    between atoms: C8_8  and  C9_9 
REMARK    5  A    between atoms: C9_9  and  O10_10 
ROOT
HETATM    1  C9  UNL     1     -34.250  13.317  -4.615  1.00 20.00     0.200 C 
ENDROOT
BRANCH   1   2
HETATM    2  C2  UNL     1     -34.581  14.186  -5.756  1.00 20.00    -0.074 C 
HETATM    3  C1  UNL     1     -34.853  14.892  -6.688  1.00 20.00    -0.099 C 
BRANCH   3   4
HETATM    4  C7  UNL     1     -35.178  15.740  -7.805  1.00 20.00     0.065 A 
HETATM    5  C5  UNL     1     -34.659  17.149  -7.814  1.00 20.00     0.018 A 
HETATM    6  C6  UNL     1     -36.119  16.889  -7.585  1.00 20.00     0.018 A 
ENDBRANCH   3   4
ENDBRANCH   1   2
BRANCH   1   7
HETATM    7  C8  UNL     1     -33.768  14.151  -3.423  1.00 20.00     0.071 C 
BRANCH   7   8
HETATM    8  C4  UNL     1     -34.773  15.196  -3.030  1.00 20.00    -0.033 C 
HETATM    9  C3  UNL     1     -34.605  16.055  -2.018  1.00 20.00     0.007 C 
ENDBRANCH   7   8
ENDBRANCH   1   7
BRANCH   1  10
HETATM   10  O10 UNL     1     -35.413  12.590  -4.222  1.00 20.00    -0.383 OA
HETATM   11  H22 UNL     1     -35.288  12.355  -3.290  1.00 20.00     0.211 HD
ENDBRANCH   1  10
TORSDOF 5
ENDMDL
