MODEL 1
REMARK VINA RESULT:      -4.9      0.000      0.000
REMARK  1 active torsions:
REMARK  status: ('A' for Active; 'I' for Inactive)
REMARK    1  A    between atoms: C2_2  and  C3_3 
ROOT
HETATM    1  C1  UNL     1     -35.101  15.906  -1.977  1.00 20.00    -0.009 C 
HETATM    2  C2  UNL     1     -33.863  16.161  -2.499  1.00 20.00    -0.007 C 
HETATM    3  C4  UNL     1     -33.880  18.538   0.370  1.00 20.00     0.002 C 
HETATM    4  C5  UNL     1     -35.201  17.766   0.099  1.00 20.00     0.009 C 
HETATM    5  C6  UNL     1     -32.885  18.051  -0.730  1.00 20.00     0.015 C 
HETATM    6  C7  UNL     1     -34.665  16.642  -0.739  1.00 20.00     0.021 C 
HETATM    7  C8  UNL     1     -33.830  17.499  -1.783  1.00 20.00    -0.007 C 
HETATM    8  C10 UNL     1     -34.389  18.632  -2.669  1.00 20.00     0.021 C 
ENDROOT
BRANCH   2   9
HETATM    9  C3  UNL     1     -33.258  15.586  -3.691  1.00 20.00     0.152 C 
HETATM   10  C9  UNL     1     -33.230  14.081  -3.830  1.00 20.00     0.096 C 
HETATM   11  O11 UNL     1     -32.770  16.310  -4.570  1.00 20.00    -0.293 OA
ENDBRANCH   2   9
TORSDOF 1
ENDMDL
MODEL 2
REMARK VINA RESULT:      -4.8      1.922      4.475
REMARK  1 active torsions:
REMARK  status: ('A' for Active; 'I' for Inactive)
REMARK    1  A    between atoms: C2_2  and  C3_3 
ROOT
HETATM    1  C1  UNL     1     -33.928  17.112  -3.758  1.00 20.00    -0.009 C 
HETATM    2  C2  UNL     1     -34.049  16.445  -2.571  1.00 20.00    -0.007 C 
HETATM    3  C4  UNL     1     -34.363  13.606  -4.962  1.00 20.00     0.002 C 
HETATM    4  C5  UNL     1     -34.290  15.030  -5.580  1.00 20.00     0.009 C 
HETATM    5  C6  UNL     1     -34.287  13.821  -3.418  1.00 20.00     0.015 C 
HETATM    6  C7  UNL     1     -33.706  15.776  -4.416  1.00 20.00     0.021 C 
HETATM    7  C8  UNL     1     -34.702  15.276  -3.286  1.00 20.00    -0.007 C 
HETATM    8  C10 UNL     1     -36.239  15.414  -3.315  1.00 20.00     0.021 C 
ENDROOT
BRANCH   2   9
HETATM    9  C3  UNL     1     -34.068  17.005  -1.228  1.00 20.00     0.152 C 
HETATM   10  C9  UNL     1     -33.215  18.220  -0.942  1.00 20.00     0.096 C 
HETATM   11  O11 UNL     1     -34.761  16.497  -0.335  1.00 20.00    -0.293 OA
ENDBRANCH   2   9
TORSDOF 1
ENDMDL
MODEL 3
REMARK VINA RESULT:      -4.7      1.727      4.412
REMARK  1 active torsions:
REMARK  status: ('A' for Active; 'I' for Inactive)
REMARK    1  A    between atoms: C2_2  and  C3_3 
ROOT
HETATM    1  C1  UNL     1     -33.960  17.043  -4.278  1.00 20.00    -0.009 C 
HETATM    2  C2  UNL     1     -33.970  16.561  -2.998  1.00 20.00    -0.007 C 
HETATM    3  C4  UNL     1     -34.413  13.393  -4.907  1.00 20.00     0.002 C 
HETATM    4  C5  UNL     1     -34.422  14.709  -5.733  1.00 20.00     0.009 C 
HETATM    5  C6  UNL     1     -34.218  13.838  -3.424  1.00 20.00     0.015 C 
HETATM    6  C7  UNL     1     -33.762  15.626  -4.746  1.00 20.00     0.021 C 
HETATM    7  C8  UNL     1     -34.653  15.292  -3.475  1.00 20.00    -0.007 C 
HETATM    8  C10 UNL     1     -36.190  15.410  -3.397  1.00 20.00     0.021 C 
ENDROOT
BRANCH   2   9
HETATM    9  C3  UNL     1     -33.893  17.316  -1.756  1.00 20.00     0.152 C 
HETATM   10  C9  UNL     1     -34.621  16.781  -0.543  1.00 20.00     0.096 C 
HETATM   11  O11 UNL     1     -33.254  18.374  -1.693  1.00 20.00    -0.293 OA
ENDBRANCH   2   9
TORSDOF 1
ENDMDL
MODEL 4
REMARK VINA RESULT:      -4.7      3.158      4.789
REMARK  1 active torsions:
REMARK  status: ('A' for Active; 'I' for Inactive)
REMARK    1  A    between atoms: C2_2  and  C3_3 
ROOT
HETATM    1  C1  UNL     1     -35.873  16.307  -2.963  1.00 20.00    -0.009 C 
HETATM    2  C2  UNL     1     -36.628  15.267  -3.429  1.00 20.00    -0.007 C 
HETATM    3  C4  UNL     1     -33.213  13.827  -3.798  1.00 20.00     0.002 C 
HETATM    4  C5  UNL     1     -33.296  15.311  -3.350  1.00 20.00     0.009 C 
HETATM    5  C6  UNL     1     -34.693  13.367  -3.979  1.00 20.00     0.015 C 
HETATM    6  C7  UNL     1     -34.717  15.347  -2.870  1.00 20.00     0.021 C 
HETATM    7  C8  UNL     1     -35.415  14.694  -4.137  1.00 20.00    -0.007 C 
HETATM    8  C10 UNL     1     -35.308  15.208  -5.589  1.00 20.00     0.021 C 
ENDROOT
BRANCH   2   9
HETATM    9  C3  UNL     1     -38.073  15.215  -3.599  1.00 20.00     0.152 C 
HETATM   10  C9  UNL     1     -38.867  16.486  -3.396  1.00 20.00     0.096 C 
HETATM   11  O11 UNL     1     -38.642  14.156  -3.897  1.00 20.00    -0.293 OA
ENDBRANCH   2   9
TORSDOF 1
ENDMDL
MODEL 5
REMARK VINA RESULT:      -4.6      1.923      2.437
REMARK  1 active torsions:
REMARK  status: ('A' for Active; 'I' for Inactive)
REMARK    1  A    between atoms: C2_2  and  C3_3 
ROOT
HETATM    1  C1  UNL     1     -36.189  15.449  -3.920  1.00 20.00    -0.009 C 
HETATM    2  C2  UNL     1     -35.113  14.824  -3.353  1.00 20.00    -0.007 C 
HETATM    3  C4  UNL     1     -35.432  17.776  -1.102  1.00 20.00     0.002 C 
HETATM    4  C5  UNL     1     -36.375  17.738  -2.336  1.00 20.00     0.009 C 
HETATM    5  C6  UNL     1     -34.572  16.477  -1.200  1.00 20.00     0.015 C 
HETATM    6  C7  UNL     1     -36.293  16.276  -2.667  1.00 20.00     0.021 C 
HETATM    7  C8  UNL     1     -34.713  16.119  -2.670  1.00 20.00    -0.007 C 
HETATM    8  C10 UNL     1     -33.729  16.937  -3.532  1.00 20.00     0.021 C 
ENDROOT
BRANCH   2   9
HETATM    9  C3  UNL     1     -34.437  13.617  -3.805  1.00 20.00     0.152 C 
HETATM   10  C9  UNL     1     -32.946  13.500  -3.581  1.00 20.00     0.096 C 
HETATM   11  O11 UNL     1     -35.064  12.709  -4.366  1.00 20.00    -0.293 OA
ENDBRANCH   2   9
TORSDOF 1
ENDMDL
MODEL 6
REMARK VINA RESULT:      -4.6      1.621      4.280
REMARK  1 active torsions:
REMARK  status: ('A' for Active; 'I' for Inactive)
REMARK    1  A    between atoms: C2_2  and  C3_3 
ROOT
HETATM    1  C1  UNL     1     -34.981  15.525  -2.218  1.00 20.00    -0.009 C 
HETATM    2  C2  UNL     1     -34.297  16.501  -2.887  1.00 20.00    -0.007 C 
HETATM    3  C4  UNL     1     -34.739  14.008  -5.620  1.00 20.00     0.002 C 
HETATM    4  C5  UNL     1     -35.215  13.580  -4.204  1.00 20.00     0.009 C 
HETATM    5  C6  UNL     1     -34.172  15.452  -5.445  1.00 20.00     0.015 C 
HETATM    6  C7  UNL     1     -35.322  14.930  -3.558  1.00 20.00     0.021 C 
HETATM    7  C8  UNL     1     -33.893  15.498  -3.952  1.00 20.00    -0.007 C 
HETATM    8  C10 UNL     1     -32.538  14.836  -3.625  1.00 20.00     0.021 C 
ENDROOT
BRANCH   2   9
HETATM    9  C3  UNL     1     -33.766  17.747  -2.355  1.00 20.00     0.152 C 
HETATM   10  C9  UNL     1     -33.489  17.836  -0.870  1.00 20.00     0.096 C 
HETATM   11  O11 UNL     1     -33.551  18.717  -3.095  1.00 20.00    -0.293 OA
ENDBRANCH   2   9
TORSDOF 1
ENDMDL
MODEL 7
REMARK VINA RESULT:      -4.6      2.202      2.870
REMARK  1 active torsions:
REMARK  status: ('A' for Active; 'I' for Inactive)
REMARK    1  A    between atoms: C2_2  and  C3_3 
ROOT
HETATM    1  C1  UNL     1     -35.612  16.840  -4.215  1.00 20.00    -0.009 C 
HETATM    2  C2  UNL     1     -35.736  15.698  -3.473  1.00 20.00    -0.007 C 
HETATM    3  C4  UNL     1     -33.925  17.873  -1.050  1.00 20.00     0.002 C 
HETATM    4  C5  UNL     1     -34.141  18.451  -2.476  1.00 20.00     0.009 C 
HETATM    5  C6  UNL     1     -34.571  16.452  -1.078  1.00 20.00     0.015 C 
HETATM    6  C7  UNL     1     -35.253  17.557  -2.941  1.00 20.00     0.021 C 
HETATM    7  C8  UNL     1     -34.607  16.156  -2.568  1.00 20.00    -0.007 C 
HETATM    8  C10 UNL     1     -33.239  15.636  -3.058  1.00 20.00     0.021 C 
ENDROOT
BRANCH   2   9
HETATM    9  C3  UNL     1     -36.315  14.426  -3.877  1.00 20.00     0.152 C 
HETATM   10  C9  UNL     1     -35.401  13.372  -4.461  1.00 20.00     0.096 C 
HETATM   11  O11 UNL     1     -37.529  14.211  -3.755  1.00 20.00    -0.293 OA
ENDBRANCH   2   9
TORSDOF 1
ENDMDL
MODEL 8
REMARK VINA RESULT:      -4.5      2.203      3.085
REMARK  1 active torsions:
REMARK  status: ('A' for Active; 'I' for Inactive)
REMARK    1  A    between atoms: C2_2  and  C3_3 
ROOT
HETATM    1  C1  UNL     1     -34.324  14.686  -2.931  1.00 20.00    -0.009 C 
HETATM    2  C2  UNL     1     -34.428  14.832  -4.287  1.00 20.00    -0.007 C 
HETATM    3  C4  UNL     1     -33.727  18.353  -3.291  1.00 20.00     0.002 C 
HETATM    4  C5  UNL     1     -33.929  17.332  -2.138  1.00 20.00     0.009 C 
HETATM    5  C6  UNL     1     -33.904  17.531  -4.606  1.00 20.00     0.015 C 
HETATM    6  C7  UNL     1     -33.699  16.055  -2.893  1.00 20.00     0.021 C 
HETATM    7  C8  UNL     1     -34.677  16.319  -4.114  1.00 20.00    -0.007 C 
HETATM    8  C10 UNL     1     -36.184  16.635  -4.009  1.00 20.00     0.021 C 
ENDROOT
BRANCH   2   9
HETATM    9  C3  UNL     1     -34.755  13.814  -5.274  1.00 20.00     0.152 C 
HETATM   10  C9  UNL     1     -35.091  14.258  -6.681  1.00 20.00     0.096 C 
HETATM   11  O11 UNL     1     -34.766  12.614  -4.972  1.00 20.00    -0.293 OA
ENDBRANCH   2   9
TORSDOF 1
ENDMDL
MODEL 9
REMARK VINA RESULT:      -4.5      2.292      3.664
REMARK  1 active torsions:
REMARK  status: ('A' for Active; 'I' for Inactive)
REMARK    1  A    between atoms: C2_2  and  C3_3 
ROOT
HETATM    1  C1  UNL     1     -33.336  16.398  -5.094  1.00 20.00    -0.009 C 
HETATM    2  C2  UNL     1     -34.498  15.727  -5.355  1.00 20.00    -0.007 C 
HETATM    3  C4  UNL     1     -34.807  16.181  -1.671  1.00 20.00     0.002 C 
HETATM    4  C5  UNL     1     -33.471  16.639  -2.318  1.00 20.00     0.009 C 
HETATM    5  C6  UNL     1     -35.665  15.621  -2.848  1.00 20.00     0.015 C 
HETATM    6  C7  UNL     1     -33.912  16.749  -3.748  1.00 20.00     0.021 C 
HETATM    7  C8  UNL     1     -34.604  15.328  -3.895  1.00 20.00    -0.007 C 
HETATM    8  C10 UNL     1     -33.930  13.966  -3.628  1.00 20.00     0.021 C 
ENDROOT
BRANCH   2   9
HETATM    9  C3  UNL     1     -34.959  15.199  -6.631  1.00 20.00     0.152 C 
HETATM   10  C9  UNL     1     -36.448  15.047  -6.851  1.00 20.00     0.096 C 
HETATM   11  O11 UNL     1     -34.155  14.874  -7.514  1.00 20.00    -0.293 OA
ENDBRANCH   2   9
TORSDOF 1
ENDMDL
