MODEL 1
REMARK VINA RESULT:      -4.0      0.000      0.000
REMARK  4 active torsions:
REMARK  status: ('A' for Active; 'I' for Inactive)
REMARK    1  A    between atoms: C5_5  and  N8_8 
REMARK    2  A    between atoms: C6_6  and  C7_7 
REMARK    3  A    between atoms: C6_6  and  N8_8 
REMARK    4  A    between atoms: C7_7  and  O9_9 
ROOT
HETATM    1  C1  UNL     1     -35.138   4.003   5.909  1.00 20.00     0.013 C 
HETATM    2  C2  UNL     1     -35.002   4.660   4.913  1.00 20.00    -0.087 C 
HETATM    3  C5  UNL     1     -34.840   5.460   3.697  1.00 20.00     0.364 C 
ENDROOT
BRANCH   3   4
HETATM    4  N8  UNL     1     -33.850   6.517   3.902  1.00 20.00     0.097 N 
HETATM    5  C3  UNL     1     -33.602   6.714   5.329  1.00 20.00     0.311 C 
BRANCH   4   6
HETATM    6  C6  UNL     1     -32.606   6.193   3.207  1.00 20.00     0.299 C 
BRANCH   6   7
HETATM    7  C7  UNL     1     -31.803   7.461   2.981  1.00 20.00     0.197 C 
BRANCH   7   8
HETATM    8  O9  UNL     1     -32.573   8.377   2.213  1.00 20.00    -0.394 OA
HETATM    9  C4  UNL     1     -31.864   8.816   1.062  1.00 20.00     0.201 C 
ENDBRANCH   7   8
ENDBRANCH   6   7
ENDBRANCH   4   6
ENDBRANCH   3   4
TORSDOF 4
ENDMDL
MODEL 2
REMARK VINA RESULT:      -3.9     10.670     11.523
REMARK  4 active torsions:
REMARK  status: ('A' for Active; 'I' for Inactive)
REMARK    1  A    between atoms: C5_5  and  N8_8 
REMARK    2  A    between atoms: C6_6  and  C7_7 
REMARK    3  A    between atoms: C6_6  and  N8_8 
REMARK    4  A    between atoms: C7_7  and  O9_9 
ROOT
HETATM    1  C1  UNL     1     -34.945  17.276   0.300  1.00 20.00     0.013 C 
HETATM    2  C2  UNL     1     -34.451  16.968  -0.750  1.00 20.00    -0.087 C 
HETATM    3  C5  UNL     1     -33.843  16.595  -2.030  1.00 20.00     0.364 C 
ENDROOT
BRANCH   3   4
HETATM    4  N8  UNL     1     -34.574  15.487  -2.644  1.00 20.00     0.097 N 
HETATM    5  C3  UNL     1     -35.942  15.891  -2.963  1.00 20.00     0.311 C 
BRANCH   4   6
HETATM    6  C6  UNL     1     -33.884  15.025  -3.847  1.00 20.00     0.299 C 
BRANCH   6   7
HETATM    7  C7  UNL     1     -33.653  13.527  -3.759  1.00 20.00     0.197 C 
BRANCH   7   8
HETATM    8  O9  UNL     1     -34.623  12.853  -4.551  1.00 20.00    -0.394 OA
HETATM    9  C4  UNL     1     -34.955  13.600  -5.714  1.00 20.00     0.201 C 
ENDBRANCH   7   8
ENDBRANCH   6   7
ENDBRANCH   4   6
ENDBRANCH   3   4
TORSDOF 4
ENDMDL
MODEL 3
REMARK VINA RESULT:      -3.8     11.220     12.067
REMARK  4 active torsions:
REMARK  status: ('A' for Active; 'I' for Inactive)
REMARK    1  A    between atoms: C5_5  and  N8_8 
REMARK    2  A    between atoms: C6_6  and  C7_7 
REMARK    3  A    between atoms: C6_6  and  N8_8 
REMARK    4  A    between atoms: C7_7  and  O9_9 
ROOT
HETATM    1  C1  UNL     1     -34.352  16.910  -0.737  1.00 20.00     0.013 C 
HETATM    2  C2  UNL     1     -34.779  16.248  -1.643  1.00 20.00    -0.087 C 
HETATM    3  C5  UNL     1     -35.303  15.444  -2.751  1.00 20.00     0.364 C 
ENDROOT
BRANCH   3   4
HETATM    4  N8  UNL     1     -34.297  14.491  -3.218  1.00 20.00     0.097 N 
HETATM    5  C3  UNL     1     -34.894  13.530  -4.144  1.00 20.00     0.311 C 
BRANCH   4   6
HETATM    6  C6  UNL     1     -33.186  15.194  -3.857  1.00 20.00     0.299 C 
BRANCH   6   7
HETATM    7  C7  UNL     1     -33.678  15.887  -5.115  1.00 20.00     0.197 C 
BRANCH   7   8
HETATM    8  O9  UNL     1     -33.001  17.128  -5.267  1.00 20.00    -0.394 OA
HETATM    9  C4  UNL     1     -33.714  18.189  -4.644  1.00 20.00     0.201 C 
ENDBRANCH   7   8
ENDBRANCH   6   7
ENDBRANCH   4   6
ENDBRANCH   3   4
TORSDOF 4
ENDMDL
MODEL 4
REMARK VINA RESULT:      -3.8      2.022      4.821
REMARK  4 active torsions:
REMARK  status: ('A' for Active; 'I' for Inactive)
REMARK    1  A    between atoms: C5_5  and  N8_8 
REMARK    2  A    between atoms: C6_6  and  C7_7 
REMARK    3  A    between atoms: C6_6  and  N8_8 
REMARK    4  A    between atoms: C7_7  and  O9_9 
ROOT
HETATM    1  C1  UNL     1     -32.127   9.105   0.860  1.00 20.00     0.013 C 
HETATM    2  C2  UNL     1     -32.112   8.459   1.873  1.00 20.00    -0.087 C 
HETATM    3  C5  UNL     1     -32.092   7.675   3.111  1.00 20.00     0.364 C 
ENDROOT
BRANCH   3   4
HETATM    4  N8  UNL     1     -32.965   6.508   2.996  1.00 20.00     0.097 N 
HETATM    5  C3  UNL     1     -32.174   5.279   2.963  1.00 20.00     0.311 C 
BRANCH   4   6
HETATM    6  C6  UNL     1     -33.918   6.473   4.104  1.00 20.00     0.299 C 
BRANCH   6   7
HETATM    7  C7  UNL     1     -35.003   5.452   3.811  1.00 20.00     0.197 C 
BRANCH   7   8
HETATM    8  O9  UNL     1     -35.199   4.629   4.954  1.00 20.00    -0.394 OA
HETATM    9  C4  UNL     1     -34.694   5.245   6.131  1.00 20.00     0.201 C 
ENDBRANCH   7   8
ENDBRANCH   6   7
ENDBRANCH   4   6
ENDBRANCH   3   4
TORSDOF 4
ENDMDL
MODEL 5
REMARK VINA RESULT:      -3.8     11.380     11.920
REMARK  4 active torsions:
REMARK  status: ('A' for Active; 'I' for Inactive)
REMARK    1  A    between atoms: C5_5  and  N8_8 
REMARK    2  A    between atoms: C6_6  and  C7_7 
REMARK    3  A    between atoms: C6_6  and  N8_8 
REMARK    4  A    between atoms: C7_7  and  O9_9 
ROOT
HETATM    1  C1  UNL     1     -34.773  16.976  -0.317  1.00 20.00     0.013 C 
HETATM    2  C2  UNL     1     -34.376  16.572  -1.375  1.00 20.00    -0.087 C 
HETATM    3  C5  UNL     1     -33.888  16.082  -2.667  1.00 20.00     0.364 C 
ENDROOT
BRANCH   3   4
HETATM    4  N8  UNL     1     -34.553  14.831  -3.029  1.00 20.00     0.097 N 
HETATM    5  C3  UNL     1     -35.942  15.082  -3.410  1.00 20.00     0.311 C 
BRANCH   4   6
HETATM    6  C6  UNL     1     -33.837  14.168  -4.117  1.00 20.00     0.299 C 
BRANCH   6   7
HETATM    7  C7  UNL     1     -34.815  13.791  -5.215  1.00 20.00     0.197 C 
BRANCH   7   8
HETATM    8  O9  UNL     1     -34.443  14.444  -6.423  1.00 20.00    -0.394 OA
HETATM    9  C4  UNL     1     -35.505  14.435  -7.367  1.00 20.00     0.201 C 
ENDBRANCH   7   8
ENDBRANCH   6   7
ENDBRANCH   4   6
ENDBRANCH   3   4
TORSDOF 4
ENDMDL
MODEL 6
REMARK VINA RESULT:      -3.8     11.592     12.287
REMARK  4 active torsions:
REMARK  status: ('A' for Active; 'I' for Inactive)
REMARK    1  A    between atoms: C5_5  and  N8_8 
REMARK    2  A    between atoms: C6_6  and  C7_7 
REMARK    3  A    between atoms: C6_6  and  N8_8 
REMARK    4  A    between atoms: C7_7  and  O9_9 
ROOT
HETATM    1  C1  UNL     1     -34.622  17.017  -0.498  1.00 20.00     0.013 C 
HETATM    2  C2  UNL     1     -34.509  16.347  -1.488  1.00 20.00    -0.087 C 
HETATM    3  C5  UNL     1     -34.373  15.526  -2.694  1.00 20.00     0.364 C 
ENDROOT
BRANCH   3   4
HETATM    4  N8  UNL     1     -34.690  16.307  -3.889  1.00 20.00     0.097 N 
HETATM    5  C3  UNL     1     -33.560  16.305  -4.817  1.00 20.00     0.311 C 
BRANCH   4   6
HETATM    6  C6  UNL     1     -35.888  15.780  -4.540  1.00 20.00     0.299 C 
BRANCH   6   7
HETATM    7  C7  UNL     1     -36.071  14.321  -4.164  1.00 20.00     0.197 C 
BRANCH   7   8
HETATM    8  O9  UNL     1     -37.422  14.099  -3.778  1.00 20.00    -0.394 OA
HETATM    9  C4  UNL     1     -38.148  15.319  -3.703  1.00 20.00     0.201 C 
ENDBRANCH   7   8
ENDBRANCH   6   7
ENDBRANCH   4   6
ENDBRANCH   3   4
TORSDOF 4
ENDMDL
MODEL 7
REMARK VINA RESULT:      -3.8     11.274     12.034
REMARK  4 active torsions:
REMARK  status: ('A' for Active; 'I' for Inactive)
REMARK    1  A    between atoms: C5_5  and  N8_8 
REMARK    2  A    between atoms: C6_6  and  C7_7 
REMARK    3  A    between atoms: C6_6  and  N8_8 
REMARK    4  A    between atoms: C7_7  and  O9_9 
ROOT
HETATM    1  C1  UNL     1     -34.792  17.040  -0.094  1.00 20.00     0.013 C 
HETATM    2  C2  UNL     1     -34.547  16.598  -1.183  1.00 20.00    -0.087 C 
HETATM    3  C5  UNL     1     -34.244  16.055  -2.510  1.00 20.00     0.364 C 
ENDROOT
BRANCH   3   4
HETATM    4  N8  UNL     1     -35.316  16.372  -3.453  1.00 20.00     0.097 N 
HETATM    5  C3  UNL     1     -35.123  17.708  -4.016  1.00 20.00     0.311 C 
BRANCH   4   6
HETATM    6  C6  UNL     1     -35.371  15.372  -4.518  1.00 20.00     0.299 C 
BRANCH   6   7
HETATM    7  C7  UNL     1     -36.333  14.265  -4.128  1.00 20.00     0.197 C 
BRANCH   7   8
HETATM    8  O9  UNL     1     -35.677  13.008  -4.239  1.00 20.00    -0.394 OA
HETATM    9  C4  UNL     1     -34.421  13.133  -4.892  1.00 20.00     0.201 C 
ENDBRANCH   7   8
ENDBRANCH   6   7
ENDBRANCH   4   6
ENDBRANCH   3   4
TORSDOF 4
ENDMDL
MODEL 8
REMARK VINA RESULT:      -3.8     11.125     12.067
REMARK  4 active torsions:
REMARK  status: ('A' for Active; 'I' for Inactive)
REMARK    1  A    between atoms: C5_5  and  N8_8 
REMARK    2  A    between atoms: C6_6  and  C7_7 
REMARK    3  A    between atoms: C6_6  and  N8_8 
REMARK    4  A    between atoms: C7_7  and  O9_9 
ROOT
HETATM    1  C1  UNL     1     -34.570  16.432  -1.177  1.00 20.00     0.013 C 
HETATM    2  C2  UNL     1     -34.109  16.416  -2.285  1.00 20.00    -0.087 C 
HETATM    3  C5  UNL     1     -33.541  16.400  -3.636  1.00 20.00     0.364 C 
ENDROOT
BRANCH   3   4
HETATM    4  N8  UNL     1     -34.033  15.246  -4.388  1.00 20.00     0.097 N 
HETATM    5  C3  UNL     1     -33.672  14.002  -3.709  1.00 20.00     0.311 C 
BRANCH   4   6
HETATM    6  C6  UNL     1     -35.481  15.330  -4.564  1.00 20.00     0.299 C 
BRANCH   6   7
HETATM    7  C7  UNL     1     -36.107  13.973  -4.296  1.00 20.00     0.197 C 
BRANCH   7   8
HETATM    8  O9  UNL     1     -37.429  14.151  -3.804  1.00 20.00    -0.394 OA
HETATM    9  C4  UNL     1     -37.714  15.523  -3.565  1.00 20.00     0.201 C 
ENDBRANCH   7   8
ENDBRANCH   6   7
ENDBRANCH   4   6
ENDBRANCH   3   4
TORSDOF 4
ENDMDL
MODEL 9
REMARK VINA RESULT:      -3.7      1.246      2.190
REMARK  4 active torsions:
REMARK  status: ('A' for Active; 'I' for Inactive)
REMARK    1  A    between atoms: C5_5  and  N8_8 
REMARK    2  A    between atoms: C6_6  and  C7_7 
REMARK    3  A    between atoms: C6_6  and  N8_8 
REMARK    4  A    between atoms: C7_7  and  O9_9 
ROOT
HETATM    1  C1  UNL     1     -33.650   7.362   6.995  1.00 20.00     0.013 C 
HETATM    2  C2  UNL     1     -34.012   6.378   6.411  1.00 20.00    -0.087 C 
HETATM    3  C5  UNL     1     -34.457   5.175   5.702  1.00 20.00     0.364 C 
ENDROOT
BRANCH   3   4
HETATM    4  N8  UNL     1     -34.386   5.373   4.254  1.00 20.00     0.097 N 
HETATM    5  C3  UNL     1     -35.729   5.411   3.677  1.00 20.00     0.311 C 
BRANCH   4   6
HETATM    6  C6  UNL     1     -33.661   6.603   3.942  1.00 20.00     0.299 C 
BRANCH   6   7
HETATM    7  C7  UNL     1     -32.379   6.265   3.201  1.00 20.00     0.197 C 
BRANCH   7   8
HETATM    8  O9  UNL     1     -31.597   7.443   3.051  1.00 20.00    -0.394 OA
HETATM    9  C4  UNL     1     -32.082   8.258   1.992  1.00 20.00     0.201 C 
ENDBRANCH   7   8
ENDBRANCH   6   7
ENDBRANCH   4   6
ENDBRANCH   3   4
TORSDOF 4
ENDMDL
