MODEL 1
REMARK VINA RESULT:      -4.7      0.000      0.000
REMARK  1 active torsions:
REMARK  status: ('A' for Active; 'I' for Inactive)
REMARK    1  A    between atoms: C3_3  and  C7_7 
ROOT
HETATM    1  C1  UNL     1     -36.144  15.984  -2.856  1.00 20.00    -0.020 C 
HETATM    2  C2  UNL     1     -36.494  15.000  -3.702  1.00 20.00    -0.086 C 
HETATM    3  C4  UNL     1     -35.474  14.121  -4.385  1.00 20.00     0.045 C 
HETATM    4  C5  UNL     1     -33.739  15.181  -2.870  1.00 20.00     0.020 C 
HETATM    5  C6  UNL     1     -34.721  16.299  -2.473  1.00 20.00     0.005 C 
HETATM    6  C7  UNL     1     -34.026  14.609  -4.257  1.00 20.00     0.059 C 
HETATM    7  C8  UNL     1     -37.930  14.714  -4.028  1.00 20.00     0.043 C 
HETATM    8  C10 UNL     1     -34.612  16.581  -0.974  1.00 20.00     0.014 C 
ENDROOT
BRANCH   6   9
HETATM    9  C3  UNL     1     -33.702  15.625  -5.315  1.00 20.00     0.127 C 
HETATM   10  C9  UNL     1     -34.417  15.481  -6.632  1.00 20.00     0.091 C 
HETATM   11  O11 UNL     1     -32.895  16.531  -5.115  1.00 20.00    -0.298 OA
ENDBRANCH   6   9
TORSDOF 1
ENDMDL
MODEL 2
REMARK VINA RESULT:      -4.5      1.717      3.049
REMARK  1 active torsions:
REMARK  status: ('A' for Active; 'I' for Inactive)
REMARK    1  A    between atoms: C3_3  and  C7_7 
ROOT
HETATM    1  C1  UNL     1     -35.900  16.665  -2.833  1.00 20.00    -0.020 C 
HETATM    2  C2  UNL     1     -34.758  16.425  -2.168  1.00 20.00    -0.086 C 
HETATM    3  C4  UNL     1     -33.518  15.905  -2.854  1.00 20.00     0.045 C 
HETATM    4  C5  UNL     1     -34.720  16.311  -5.049  1.00 20.00     0.020 C 
HETATM    5  C6  UNL     1     -36.067  16.475  -4.319  1.00 20.00     0.005 C 
HETATM    6  C7  UNL     1     -33.743  15.416  -4.290  1.00 20.00     0.059 C 
HETATM    7  C8  UNL     1     -34.642  16.657  -0.690  1.00 20.00     0.043 C 
HETATM    8  C10 UNL     1     -36.854  17.635  -4.930  1.00 20.00     0.014 C 
ENDROOT
BRANCH   6   9
HETATM    9  C3  UNL     1     -34.221  13.992  -4.307  1.00 20.00     0.127 C 
HETATM   10  C9  UNL     1     -34.881  13.514  -5.572  1.00 20.00     0.091 C 
HETATM   11  O11 UNL     1     -34.078  13.252  -3.335  1.00 20.00    -0.298 OA
ENDBRANCH   6   9
TORSDOF 1
ENDMDL
MODEL 3
REMARK VINA RESULT:      -4.5      1.871      2.887
REMARK  1 active torsions:
REMARK  status: ('A' for Active; 'I' for Inactive)
REMARK    1  A    between atoms: C3_3  and  C7_7 
ROOT
HETATM    1  C1  UNL     1     -33.882  16.794  -3.584  1.00 20.00    -0.020 C 
HETATM    2  C2  UNL     1     -34.355  17.062  -4.813  1.00 20.00    -0.086 C 
HETATM    3  C4  UNL     1     -35.579  16.378  -5.374  1.00 20.00     0.045 C 
HETATM    4  C5  UNL     1     -35.947  15.422  -3.054  1.00 20.00     0.020 C 
HETATM    5  C6  UNL     1     -34.521  15.820  -2.628  1.00 20.00     0.005 C 
HETATM    6  C7  UNL     1     -36.065  15.175  -4.557  1.00 20.00     0.059 C 
HETATM    7  C8  UNL     1     -33.691  18.062  -5.713  1.00 20.00     0.043 C 
HETATM    8  C10 UNL     1     -34.541  16.387  -1.208  1.00 20.00     0.014 C 
ENDROOT
BRANCH   6   9
HETATM    9  C3  UNL     1     -35.322  13.926  -4.940  1.00 20.00     0.127 C 
HETATM   10  C9  UNL     1     -34.701  13.902  -6.310  1.00 20.00     0.091 C 
HETATM   11  O11 UNL     1     -35.224  12.972  -4.170  1.00 20.00    -0.298 OA
ENDBRANCH   6   9
TORSDOF 1
ENDMDL
MODEL 4
REMARK VINA RESULT:      -4.4      1.808      3.040
REMARK  1 active torsions:
REMARK  status: ('A' for Active; 'I' for Inactive)
REMARK    1  A    between atoms: C3_3  and  C7_7 
ROOT
HETATM    1  C1  UNL     1     -34.534  17.488  -3.286  1.00 20.00    -0.020 C 
HETATM    2  C2  UNL     1     -34.330  16.458  -2.448  1.00 20.00    -0.086 C 
HETATM    3  C4  UNL     1     -33.793  15.128  -2.918  1.00 20.00     0.045 C 
HETATM    4  C5  UNL     1     -33.350  16.245  -5.151  1.00 20.00     0.020 C 
HETATM    5  C6  UNL     1     -34.230  17.447  -4.762  1.00 20.00     0.005 C 
HETATM    6  C7  UNL     1     -33.764  14.957  -4.442  1.00 20.00     0.059 C 
HETATM    7  C8  UNL     1     -34.628  16.564  -0.981  1.00 20.00     0.043 C 
HETATM    8  C10 UNL     1     -33.565  18.748  -5.215  1.00 20.00     0.014 C 
ENDROOT
BRANCH   6   9
HETATM    9  C3  UNL     1     -35.093  14.483  -4.958  1.00 20.00     0.127 C 
HETATM   10  C9  UNL     1     -35.244  14.384  -6.452  1.00 20.00     0.091 C 
HETATM   11  O11 UNL     1     -36.013  14.188  -4.196  1.00 20.00    -0.298 OA
ENDBRANCH   6   9
TORSDOF 1
ENDMDL
MODEL 5
REMARK VINA RESULT:      -4.4      2.062      2.680
REMARK  1 active torsions:
REMARK  status: ('A' for Active; 'I' for Inactive)
REMARK    1  A    between atoms: C3_3  and  C7_7 
ROOT
HETATM    1  C1  UNL     1     -34.528  15.391  -2.450  1.00 20.00    -0.020 C 
HETATM    2  C2  UNL     1     -33.800  15.066  -3.532  1.00 20.00    -0.086 C 
HETATM    3  C4  UNL     1     -33.180  16.107  -4.431  1.00 20.00     0.045 C 
HETATM    4  C5  UNL     1     -33.851  17.822  -2.688  1.00 20.00     0.020 C 
HETATM    5  C6  UNL     1     -34.781  16.807  -1.999  1.00 20.00     0.005 C 
HETATM    6  C7  UNL     1     -33.669  17.539  -4.178  1.00 20.00     0.059 C 
HETATM    7  C8  UNL     1     -33.559  13.636  -3.919  1.00 20.00     0.043 C 
HETATM    8  C10 UNL     1     -34.647  16.924  -0.480  1.00 20.00     0.014 C 
ENDROOT
BRANCH   6   9
HETATM    9  C3  UNL     1     -34.946  17.812  -4.920  1.00 20.00     0.127 C 
HETATM   10  C9  UNL     1     -35.245  16.929  -6.101  1.00 20.00     0.091 C 
HETATM   11  O11 UNL     1     -35.712  18.712  -4.577  1.00 20.00    -0.298 OA
ENDBRANCH   6   9
TORSDOF 1
ENDMDL
MODEL 6
REMARK VINA RESULT:      -4.4      2.290      3.688
REMARK  1 active torsions:
REMARK  status: ('A' for Active; 'I' for Inactive)
REMARK    1  A    between atoms: C3_3  and  C7_7 
ROOT
HETATM    1  C1  UNL     1     -35.838  16.748  -4.617  1.00 20.00    -0.020 C 
HETATM    2  C2  UNL     1     -34.530  16.864  -4.903  1.00 20.00    -0.086 C 
HETATM    3  C4  UNL     1     -33.775  15.808  -5.673  1.00 20.00     0.045 C 
HETATM    4  C5  UNL     1     -36.020  14.722  -6.129  1.00 20.00     0.020 C 
HETATM    5  C6  UNL     1     -36.695  15.586  -5.047  1.00 20.00     0.005 C 
HETATM    6  C7  UNL     1     -34.536  14.489  -5.856  1.00 20.00     0.059 C 
HETATM    7  C8  UNL     1     -33.731  18.058  -4.470  1.00 20.00     0.043 C 
HETATM    8  C10 UNL     1     -38.058  16.071  -5.543  1.00 20.00     0.014 C 
ENDROOT
BRANCH   6   9
HETATM    9  C3  UNL     1     -34.360  13.594  -4.662  1.00 20.00     0.127 C 
HETATM   10  C9  UNL     1     -33.225  13.923  -3.731  1.00 20.00     0.091 C 
HETATM   11  O11 UNL     1     -35.110  12.641  -4.453  1.00 20.00    -0.298 OA
ENDBRANCH   6   9
TORSDOF 1
ENDMDL
MODEL 7
REMARK VINA RESULT:      -4.4      2.006      2.905
REMARK  1 active torsions:
REMARK  status: ('A' for Active; 'I' for Inactive)
REMARK    1  A    between atoms: C3_3  and  C7_7 
ROOT
HETATM    1  C1  UNL     1     -35.415  16.330  -5.818  1.00 20.00    -0.020 C 
HETATM    2  C2  UNL     1     -36.509  15.684  -5.378  1.00 20.00    -0.086 C 
HETATM    3  C4  UNL     1     -36.560  15.007  -4.029  1.00 20.00     0.045 C 
HETATM    4  C5  UNL     1     -34.336  16.120  -3.533  1.00 20.00     0.020 C 
HETATM    5  C6  UNL     1     -34.145  16.477  -5.019  1.00 20.00     0.005 C 
HETATM    6  C7  UNL     1     -35.200  14.877  -3.331  1.00 20.00     0.059 C 
HETATM    7  C8  UNL     1     -37.756  15.591  -6.207  1.00 20.00     0.043 C 
HETATM    8  C10 UNL     1     -33.585  17.894  -5.148  1.00 20.00     0.014 C 
ENDROOT
BRANCH   6   9
HETATM    9  C3  UNL     1     -34.468  13.652  -3.800  1.00 20.00     0.127 C 
HETATM   10  C9  UNL     1     -32.981  13.624  -3.574  1.00 20.00     0.091 C 
HETATM   11  O11 UNL     1     -35.056  12.716  -4.340  1.00 20.00    -0.298 OA
ENDBRANCH   6   9
TORSDOF 1
ENDMDL
MODEL 8
REMARK VINA RESULT:      -4.3      1.766      3.709
REMARK  1 active torsions:
REMARK  status: ('A' for Active; 'I' for Inactive)
REMARK    1  A    between atoms: C3_3  and  C7_7 
ROOT
HETATM    1  C1  UNL     1     -35.006  15.234  -5.832  1.00 20.00    -0.020 C 
HETATM    2  C2  UNL     1     -34.362  16.380  -6.111  1.00 20.00    -0.086 C 
HETATM    3  C4  UNL     1     -33.375  17.006  -5.157  1.00 20.00     0.045 C 
HETATM    4  C5  UNL     1     -33.543  14.875  -3.792  1.00 20.00     0.020 C 
HETATM    5  C6  UNL     1     -34.800  14.439  -4.568  1.00 20.00     0.005 C 
HETATM    6  C7  UNL     1     -33.373  16.393  -3.751  1.00 20.00     0.059 C 
HETATM    7  C8  UNL     1     -34.588  17.118  -7.399  1.00 20.00     0.043 C 
HETATM    8  C10 UNL     1     -34.729  12.942  -4.875  1.00 20.00     0.014 C 
ENDROOT
BRANCH   6   9
HETATM    9  C3  UNL     1     -34.437  17.012  -2.890  1.00 20.00     0.127 C 
HETATM   10  C9  UNL     1     -34.660  16.392  -1.537  1.00 20.00     0.091 C 
HETATM   11  O11 UNL     1     -35.092  17.981  -3.271  1.00 20.00    -0.298 OA
ENDBRANCH   6   9
TORSDOF 1
ENDMDL
MODEL 9
REMARK VINA RESULT:      -4.3      1.556      3.564
REMARK  1 active torsions:
REMARK  status: ('A' for Active; 'I' for Inactive)
REMARK    1  A    between atoms: C3_3  and  C7_7 
ROOT
HETATM    1  C1  UNL     1     -35.752  16.404  -4.949  1.00 20.00    -0.020 C 
HETATM    2  C2  UNL     1     -34.492  16.726  -5.286  1.00 20.00    -0.086 C 
HETATM    3  C4  UNL     1     -33.308  16.374  -4.417  1.00 20.00     0.045 C 
HETATM    4  C5  UNL     1     -34.907  14.974  -3.033  1.00 20.00     0.020 C 
HETATM    5  C6  UNL     1     -36.123  15.642  -3.703  1.00 20.00     0.005 C 
HETATM    6  C7  UNL     1     -33.676  15.877  -3.013  1.00 20.00     0.059 C 
HETATM    7  C8  UNL     1     -34.179  17.464  -6.554  1.00 20.00     0.043 C 
HETATM    8  C10 UNL     1     -37.193  14.592  -4.006  1.00 20.00     0.014 C 
ENDROOT
BRANCH   6   9
HETATM    9  C3  UNL     1     -33.890  17.028  -2.072  1.00 20.00     0.127 C 
HETATM   10  C9  UNL     1     -34.552  16.714  -0.758  1.00 20.00     0.091 C 
HETATM   11  O11 UNL     1     -33.538  18.171  -2.360  1.00 20.00    -0.298 OA
ENDBRANCH   6   9
TORSDOF 1
ENDMDL
