MODEL 1
REMARK VINA RESULT:      -4.9      0.000      0.000
REMARK  2 active torsions:
REMARK  status: ('A' for Active; 'I' for Inactive)
REMARK    1  A    between atoms: C3_3  and  C6_6 
REMARK    2  A    between atoms: C7_7  and  O11_11 
ROOT
HETATM    1  C1  UNL     1     -35.720  16.249  -2.355  1.00 20.00    -0.023 C 
HETATM    2  C2  UNL     1     -34.557  16.726  -1.882  1.00 20.00    -0.085 C 
HETATM    3  C4  UNL     1     -35.818  15.183  -3.404  1.00 20.00     0.042 C 
HETATM    4  C5  UNL     1     -33.228  16.234  -2.397  1.00 20.00     0.071 C 
HETATM    5  C6  UNL     1     -34.486  14.473  -3.690  1.00 20.00     0.084 C 
HETATM    6  C7  UNL     1     -33.299  15.459  -3.734  1.00 20.00     0.068 C 
HETATM    7  C8  UNL     1     -34.506  17.770  -0.806  1.00 20.00     0.043 C 
HETATM    8  C9  UNL     1     -33.362  16.434  -4.920  1.00 20.00     0.047 C 
ENDROOT
BRANCH   6   9
HETATM    9  O11 UNL     1     -32.072  14.723  -3.828  1.00 20.00    -0.389 OA
HETATM   10  H25 UNL     1     -31.983  14.477  -4.757  1.00 20.00     0.210 HD
ENDBRANCH   6   9
BRANCH   5  11
HETATM   11  C3  UNL     1     -34.617  13.661  -4.951  1.00 20.00     0.238 C 
HETATM   12  O10 UNL     1     -34.736  12.440  -4.959  1.00 20.00    -0.306 OA
ENDBRANCH   5  11
TORSDOF 2
ENDMDL
MODEL 2
REMARK VINA RESULT:      -4.8      1.651      2.441
REMARK  2 active torsions:
REMARK  status: ('A' for Active; 'I' for Inactive)
REMARK    1  A    between atoms: C3_3  and  C6_6 
REMARK    2  A    between atoms: C7_7  and  O11_11 
ROOT
HETATM    1  C1  UNL     1     -33.657  16.975  -3.448  1.00 20.00    -0.023 C 
HETATM    2  C2  UNL     1     -34.311  16.370  -2.443  1.00 20.00    -0.085 C 
HETATM    3  C4  UNL     1     -33.698  16.505  -4.871  1.00 20.00     0.042 C 
HETATM    4  C5  UNL     1     -35.136  15.129  -2.666  1.00 20.00     0.071 C 
HETATM    5  C6  UNL     1     -34.777  15.446  -5.141  1.00 20.00     0.084 C 
HETATM    6  C7  UNL     1     -34.867  14.403  -4.005  1.00 20.00     0.068 C 
HETATM    7  C8  UNL     1     -34.269  16.896  -1.040  1.00 20.00     0.043 C 
HETATM    8  C9  UNL     1     -33.618  13.515  -3.895  1.00 20.00     0.047 C 
ENDROOT
BRANCH   6   9
HETATM    9  O11 UNL     1     -35.999  13.553  -4.227  1.00 20.00    -0.389 OA
HETATM   10  H25 UNL     1     -36.747  13.994  -3.806  1.00 20.00     0.210 HD
ENDBRANCH   6   9
BRANCH   5  11
HETATM   11  C3  UNL     1     -34.534  14.820  -6.489  1.00 20.00     0.238 C 
HETATM   12  O10 UNL     1     -35.368  14.142  -7.079  1.00 20.00    -0.306 OA
ENDBRANCH   5  11
TORSDOF 2
ENDMDL
MODEL 3
REMARK VINA RESULT:      -4.8      1.540      1.572
REMARK  2 active torsions:
REMARK  status: ('A' for Active; 'I' for Inactive)
REMARK    1  A    between atoms: C3_3  and  C6_6 
REMARK    2  A    between atoms: C7_7  and  O11_11 
ROOT
HETATM    1  C1  UNL     1     -35.944  15.909  -2.721  1.00 20.00    -0.023 C 
HETATM    2  C2  UNL     1     -34.774  16.255  -2.161  1.00 20.00    -0.085 C 
HETATM    3  C4  UNL     1     -36.093  15.505  -4.157  1.00 20.00     0.042 C 
HETATM    4  C5  UNL     1     -33.493  16.291  -2.955  1.00 20.00     0.071 C 
HETATM    5  C6  UNL     1     -34.757  15.241  -4.867  1.00 20.00     0.084 C 
HETATM    6  C7  UNL     1     -33.682  16.284  -4.491  1.00 20.00     0.068 C 
HETATM    7  C8  UNL     1     -34.665  16.620  -0.711  1.00 20.00     0.043 C 
HETATM    8  C9  UNL     1     -34.001  17.697  -5.001  1.00 20.00     0.047 C 
ENDROOT
BRANCH   6   9
HETATM    9  O11 UNL     1     -32.419  15.886  -5.041  1.00 20.00    -0.389 OA
HETATM   10  H25 UNL     1     -31.876  15.619  -4.289  1.00 20.00     0.210 HD
ENDBRANCH   6   9
BRANCH   5  11
HETATM   11  C3  UNL     1     -34.992  15.155  -6.352  1.00 20.00     0.238 C 
HETATM   12  O10 UNL     1     -34.107  14.900  -7.162  1.00 20.00    -0.306 OA
ENDBRANCH   5  11
TORSDOF 2
ENDMDL
MODEL 4
REMARK VINA RESULT:      -4.7      1.705      2.297
REMARK  2 active torsions:
REMARK  status: ('A' for Active; 'I' for Inactive)
REMARK    1  A    between atoms: C3_3  and  C6_6 
REMARK    2  A    between atoms: C7_7  and  O11_11 
ROOT
HETATM    1  C1  UNL     1     -34.103  17.107  -2.849  1.00 20.00    -0.023 C 
HETATM    2  C2  UNL     1     -33.749  17.718  -3.992  1.00 20.00    -0.085 C 
HETATM    3  C4  UNL     1     -34.450  15.652  -2.755  1.00 20.00     0.042 C 
HETATM    4  C5  UNL     1     -33.697  16.978  -5.305  1.00 20.00     0.071 C 
HETATM    5  C6  UNL     1     -34.093  14.849  -4.014  1.00 20.00     0.084 C 
HETATM    6  C7  UNL     1     -34.432  15.616  -5.311  1.00 20.00     0.068 C 
HETATM    7  C8  UNL     1     -33.376  19.169  -4.034  1.00 20.00     0.043 C 
HETATM    8  C9  UNL     1     -35.940  15.818  -5.521  1.00 20.00     0.047 C 
ENDROOT
BRANCH   6   9
HETATM    9  O11 UNL     1     -33.917  14.897  -6.439  1.00 20.00    -0.389 OA
HETATM   10  H25 UNL     1     -34.145  13.970  -6.287  1.00 20.00     0.210 HD
ENDBRANCH   6   9
BRANCH   5  11
HETATM   11  C3  UNL     1     -34.754  13.498  -3.947  1.00 20.00     0.238 C 
HETATM   12  O10 UNL     1     -34.624  12.637  -4.811  1.00 20.00    -0.306 OA
ENDBRANCH   5  11
TORSDOF 2
ENDMDL
MODEL 5
REMARK VINA RESULT:      -4.6      1.183      1.228
REMARK  2 active torsions:
REMARK  status: ('A' for Active; 'I' for Inactive)
REMARK    1  A    between atoms: C3_3  and  C6_6 
REMARK    2  A    between atoms: C7_7  and  O11_11 
ROOT
HETATM    1  C1  UNL     1     -36.046  16.369  -3.066  1.00 20.00    -0.023 C 
HETATM    2  C2  UNL     1     -35.160  17.374  -3.164  1.00 20.00    -0.085 C 
HETATM    3  C4  UNL     1     -35.751  14.955  -3.463  1.00 20.00     0.042 C 
HETATM    4  C5  UNL     1     -33.774  17.158  -3.718  1.00 20.00     0.071 C 
HETATM    5  C6  UNL     1     -34.261  14.685  -3.723  1.00 20.00     0.084 C 
HETATM    6  C7  UNL     1     -33.587  15.836  -4.500  1.00 20.00     0.068 C 
HETATM    7  C8  UNL     1     -35.488  18.768  -2.722  1.00 20.00     0.043 C 
HETATM    8  C9  UNL     1     -34.105  15.984  -5.939  1.00 20.00     0.047 C 
ENDROOT
BRANCH   6   9
HETATM    9  O11 UNL     1     -32.173  15.609  -4.557  1.00 20.00    -0.389 OA
HETATM   10  H25 UNL     1     -32.065  14.680  -4.798  1.00 20.00     0.210 HD
ENDBRANCH   6   9
BRANCH   5  11
HETATM   11  C3  UNL     1     -34.110  13.352  -4.408  1.00 20.00     0.238 C 
HETATM   12  O10 UNL     1     -35.038  12.568  -4.573  1.00 20.00    -0.306 OA
ENDBRANCH   5  11
TORSDOF 2
ENDMDL
MODEL 6
REMARK VINA RESULT:      -4.5      1.935      2.848
REMARK  2 active torsions:
REMARK  status: ('A' for Active; 'I' for Inactive)
REMARK    1  A    between atoms: C3_3  and  C6_6 
REMARK    2  A    between atoms: C7_7  and  O11_11 
ROOT
HETATM    1  C1  UNL     1     -33.916  16.839  -6.465  1.00 20.00    -0.023 C 
HETATM    2  C2  UNL     1     -33.888  17.590  -5.352  1.00 20.00    -0.085 C 
HETATM    3  C4  UNL     1     -34.215  15.370  -6.472  1.00 20.00     0.042 C 
HETATM    4  C5  UNL     1     -34.135  16.998  -3.988  1.00 20.00     0.071 C 
HETATM    5  C6  UNL     1     -34.771  14.846  -5.139  1.00 20.00     0.084 C 
HETATM    6  C7  UNL     1     -34.037  15.455  -3.923  1.00 20.00     0.068 C 
HETATM    7  C8  UNL     1     -33.617  19.064  -5.396  1.00 20.00     0.043 C 
HETATM    8  C9  UNL     1     -32.570  15.012  -3.814  1.00 20.00     0.047 C 
ENDROOT
BRANCH   6   9
HETATM    9  O11 UNL     1     -34.710  15.067  -2.718  1.00 20.00    -0.389 OA
HETATM   10  H25 UNL     1     -34.857  15.884  -2.224  1.00 20.00     0.210 HD
ENDBRANCH   6   9
BRANCH   5  11
HETATM   11  C3  UNL     1     -34.740  13.341  -5.144  1.00 20.00     0.238 C 
HETATM   12  O10 UNL     1     -35.155  12.653  -4.218  1.00 20.00    -0.306 OA
ENDBRANCH   5  11
TORSDOF 2
ENDMDL
MODEL 7
REMARK VINA RESULT:      -4.5      1.936      3.902
REMARK  2 active torsions:
REMARK  status: ('A' for Active; 'I' for Inactive)
REMARK    1  A    between atoms: C3_3  and  C6_6 
REMARK    2  A    between atoms: C7_7  and  O11_11 
ROOT
HETATM    1  C1  UNL     1     -36.625  15.092  -5.382  1.00 20.00    -0.023 C 
HETATM    2  C2  UNL     1     -35.695  14.961  -6.342  1.00 20.00    -0.085 C 
HETATM    3  C4  UNL     1     -36.310  15.457  -3.962  1.00 20.00     0.042 C 
HETATM    4  C5  UNL     1     -34.227  15.149  -6.057  1.00 20.00     0.071 C 
HETATM    5  C6  UNL     1     -34.871  15.950  -3.756  1.00 20.00     0.084 C 
HETATM    6  C7  UNL     1     -33.848  15.116  -4.557  1.00 20.00     0.068 C 
HETATM    7  C8  UNL     1     -36.058  14.628  -7.758  1.00 20.00     0.043 C 
HETATM    8  C9  UNL     1     -33.725  13.666  -4.064  1.00 20.00     0.047 C 
ENDROOT
BRANCH   6   9
HETATM    9  O11 UNL     1     -32.556  15.729  -4.464  1.00 20.00    -0.389 OA
HETATM   10  H25 UNL     1     -31.946  15.022  -4.216  1.00 20.00     0.210 HD
ENDBRANCH   6   9
BRANCH   5  11
HETATM   11  C3  UNL     1     -34.565  15.987  -2.282  1.00 20.00     0.238 C 
HETATM   12  O10 UNL     1     -33.650  16.645  -1.797  1.00 20.00    -0.306 OA
ENDBRANCH   5  11
TORSDOF 2
ENDMDL
MODEL 8
REMARK VINA RESULT:      -4.4     11.877     13.685
REMARK  2 active torsions:
REMARK  status: ('A' for Active; 'I' for Inactive)
REMARK    1  A    between atoms: C3_3  and  C6_6 
REMARK    2  A    between atoms: C7_7  and  O11_11 
ROOT
HETATM    1  C1  UNL     1     -43.277   4.043  -3.311  1.00 20.00    -0.023 C 
HETATM    2  C2  UNL     1     -42.281   3.198  -2.997  1.00 20.00    -0.085 C 
HETATM    3  C4  UNL     1     -43.347   5.462  -2.834  1.00 20.00     0.042 C 
HETATM    4  C5  UNL     1     -41.143   3.610  -2.099  1.00 20.00     0.071 C 
HETATM    5  C6  UNL     1     -42.045   5.963  -2.192  1.00 20.00     0.084 C 
HETATM    6  C7  UNL     1     -41.398   4.898  -1.279  1.00 20.00     0.068 C 
HETATM    7  C8  UNL     1     -42.234   1.796  -3.525  1.00 20.00     0.043 C 
HETATM    8  C9  UNL     1     -42.230   4.583  -0.027  1.00 20.00     0.047 C 
ENDROOT
BRANCH   6   9
HETATM    9  O11 UNL     1     -40.108   5.356  -0.853  1.00 20.00    -0.389 OA
HETATM   10  H25 UNL     1     -40.166   5.450   0.106  1.00 20.00     0.210 HD
ENDBRANCH   6   9
BRANCH   5  11
HETATM   11  C3  UNL     1     -42.312   7.260  -1.475  1.00 20.00     0.238 C 
HETATM   12  O10 UNL     1     -41.437   7.918  -0.921  1.00 20.00    -0.306 OA
ENDBRANCH   5  11
TORSDOF 2
ENDMDL
MODEL 9
REMARK VINA RESULT:      -4.3      2.241      4.275
REMARK  2 active torsions:
REMARK  status: ('A' for Active; 'I' for Inactive)
REMARK    1  A    between atoms: C3_3  and  C6_6 
REMARK    2  A    between atoms: C7_7  and  O11_11 
ROOT
HETATM    1  C1  UNL     1     -33.609  15.913  -5.573  1.00 20.00    -0.023 C 
HETATM    2  C2  UNL     1     -34.724  15.267  -5.950  1.00 20.00    -0.085 C 
HETATM    3  C4  UNL     1     -33.359  16.399  -4.177  1.00 20.00     0.042 C 
HETATM    4  C5  UNL     1     -35.850  14.996  -4.985  1.00 20.00     0.071 C 
HETATM    5  C6  UNL     1     -34.353  15.848  -3.144  1.00 20.00     0.084 C 
HETATM    6  C7  UNL     1     -35.801  15.828  -3.681  1.00 20.00     0.068 C 
HETATM    7  C8  UNL     1     -34.917  14.768  -7.351  1.00 20.00     0.043 C 
HETATM    8  C9  UNL     1     -36.382  17.231  -3.915  1.00 20.00     0.047 C 
ENDROOT
BRANCH   6   9
HETATM    9  O11 UNL     1     -36.647  15.146  -2.747  1.00 20.00    -0.389 OA
HETATM   10  H25 UNL     1     -37.527  15.526  -2.862  1.00 20.00     0.210 HD
ENDBRANCH   6   9
BRANCH   5  11
HETATM   11  C3  UNL     1     -34.218  16.625  -1.861  1.00 20.00     0.238 C 
HETATM   12  O10 UNL     1     -34.758  16.294  -0.811  1.00 20.00    -0.306 OA
ENDBRANCH   5  11
TORSDOF 2
ENDMDL
