MODEL 1
REMARK VINA RESULT:      -5.0      0.000      0.000
REMARK  1 active torsions:
REMARK  status: ('A' for Active; 'I' for Inactive)
REMARK    1  A    between atoms: C1_1  and  C8_8 
ROOT
HETATM    1  C2  UNL     1     -34.728  16.449  -5.050  1.00 20.00     0.019 A 
HETATM    2  C3  UNL     1     -33.136  15.424  -3.991  1.00 20.00     0.019 A 
HETATM    3  C4  UNL     1     -35.129  15.500  -3.142  1.00 20.00     0.019 A 
HETATM    4  C5  UNL     1     -33.325  16.838  -4.561  1.00 20.00     0.038 A 
HETATM    5  C6  UNL     1     -35.319  16.914  -3.711  1.00 20.00     0.038 A 
HETATM    6  C7  UNL     1     -33.727  15.890  -2.653  1.00 20.00     0.038 A 
HETATM    7  C8  UNL     1     -34.537  15.038  -4.480  1.00 20.00     0.050 A 
HETATM    8  C9  UNL     1     -33.920  17.287  -3.231  1.00 20.00     0.117 A 
HETATM    9  F11 UNL     1     -33.610  18.417  -2.603  1.00 20.00    -0.242 F 
ENDROOT
BRANCH   7  10
HETATM   10  C1  UNL     1     -34.884  13.764  -5.186  1.00 20.00     0.228 C 
HETATM   11  O10 UNL     1     -34.899  12.685  -4.600  1.00 20.00    -0.279 OA
HETATM   12 CL12 UNL     1     -35.240  14.023  -6.867  1.00 20.00    -0.043 Cl
ENDBRANCH   7  10
TORSDOF 1
ENDMDL
MODEL 2
REMARK VINA RESULT:      -4.9      3.177      3.836
REMARK  1 active torsions:
REMARK  status: ('A' for Active; 'I' for Inactive)
REMARK    1  A    between atoms: C1_1  and  C8_8 
ROOT
HETATM    1  C2  UNL     1     -34.537  16.834  -4.152  1.00 20.00     0.019 A 
HETATM    2  C3  UNL     1     -35.116  15.003  -3.146  1.00 20.00     0.019 A 
HETATM    3  C4  UNL     1     -33.018  15.460  -3.441  1.00 20.00     0.019 A 
HETATM    4  C5  UNL     1     -35.448  15.647  -4.500  1.00 20.00     0.038 A 
HETATM    5  C6  UNL     1     -33.348  16.104  -4.796  1.00 20.00     0.038 A 
HETATM    6  C7  UNL     1     -33.928  14.273  -3.789  1.00 20.00     0.038 A 
HETATM    7  C8  UNL     1     -34.207  16.188  -2.801  1.00 20.00     0.050 A 
HETATM    8  C9  UNL     1     -34.259  14.927  -5.125  1.00 20.00     0.117 A 
HETATM    9  F11 UNL     1     -34.285  14.292  -6.293  1.00 20.00    -0.242 F 
ENDROOT
BRANCH   7  10
HETATM   10  C1  UNL     1     -34.179  16.900  -1.484  1.00 20.00     0.228 C 
HETATM   11  O10 UNL     1     -34.726  16.435  -0.488  1.00 20.00    -0.279 OA
HETATM   12 CL12 UNL     1     -33.307  18.401  -1.570  1.00 20.00    -0.043 Cl
ENDBRANCH   7  10
TORSDOF 1
ENDMDL
MODEL 3
REMARK VINA RESULT:      -4.9      3.191      3.856
REMARK  1 active torsions:
REMARK  status: ('A' for Active; 'I' for Inactive)
REMARK    1  A    between atoms: C1_1  and  C8_8 
ROOT
HETATM    1  C2  UNL     1     -33.012  15.421  -3.348  1.00 20.00     0.019 A 
HETATM    2  C3  UNL     1     -34.451  16.854  -4.108  1.00 20.00     0.019 A 
HETATM    3  C4  UNL     1     -35.136  15.052  -3.116  1.00 20.00     0.019 A 
HETATM    4  C5  UNL     1     -33.275  16.075  -4.714  1.00 20.00     0.038 A 
HETATM    5  C6  UNL     1     -33.960  14.271  -3.722  1.00 20.00     0.038 A 
HETATM    6  C7  UNL     1     -35.399  15.705  -4.481  1.00 20.00     0.038 A 
HETATM    7  C8  UNL     1     -34.187  16.200  -2.747  1.00 20.00     0.050 A 
HETATM    8  C9  UNL     1     -34.223  14.934  -5.069  1.00 20.00     0.117 A 
HETATM    9  F11 UNL     1     -34.240  14.299  -6.236  1.00 20.00    -0.242 F 
ENDROOT
BRANCH   7  10
HETATM   10  C1  UNL     1     -34.169  16.919  -1.433  1.00 20.00     0.228 C 
HETATM   11  O10 UNL     1     -34.732  16.465  -0.441  1.00 20.00    -0.279 OA
HETATM   12 CL12 UNL     1     -33.283  18.412  -1.517  1.00 20.00    -0.043 Cl
ENDBRANCH   7  10
TORSDOF 1
ENDMDL
MODEL 4
REMARK VINA RESULT:      -4.9      3.198      3.831
REMARK  1 active torsions:
REMARK  status: ('A' for Active; 'I' for Inactive)
REMARK    1  A    between atoms: C1_1  and  C8_8 
ROOT
HETATM    1  C2  UNL     1     -35.173  15.101  -3.108  1.00 20.00     0.019 A 
HETATM    2  C3  UNL     1     -33.038  15.409  -3.322  1.00 20.00     0.019 A 
HETATM    3  C4  UNL     1     -34.428  16.878  -4.102  1.00 20.00     0.019 A 
HETATM    4  C5  UNL     1     -34.013  14.285  -3.699  1.00 20.00     0.038 A 
HETATM    5  C6  UNL     1     -35.405  15.755  -4.480  1.00 20.00     0.038 A 
HETATM    6  C7  UNL     1     -33.269  16.062  -4.692  1.00 20.00     0.038 A 
HETATM    7  C8  UNL     1     -34.197  16.222  -2.734  1.00 20.00     0.050 A 
HETATM    8  C9  UNL     1     -34.244  14.948  -5.052  1.00 20.00     0.117 A 
HETATM    9  F11 UNL     1     -34.268  14.308  -6.216  1.00 20.00    -0.242 F 
ENDROOT
BRANCH   7  10
HETATM   10  C1  UNL     1     -34.166  16.944  -1.422  1.00 20.00     0.228 C 
HETATM   11  O10 UNL     1     -34.714  16.488  -0.423  1.00 20.00    -0.279 OA
HETATM   12 CL12 UNL     1     -33.289  18.440  -1.519  1.00 20.00    -0.043 Cl
ENDBRANCH   7  10
TORSDOF 1
ENDMDL
MODEL 5
REMARK VINA RESULT:      -4.9      2.095      2.581
REMARK  1 active torsions:
REMARK  status: ('A' for Active; 'I' for Inactive)
REMARK    1  A    between atoms: C1_1  and  C8_8 
ROOT
HETATM    1  C2  UNL     1     -34.671  14.377  -5.329  1.00 20.00     0.019 A 
HETATM    2  C3  UNL     1     -34.976  14.230  -3.188  1.00 20.00     0.019 A 
HETATM    3  C4  UNL     1     -34.932  16.174  -4.145  1.00 20.00     0.019 A 
HETATM    4  C5  UNL     1     -33.908  13.723  -4.168  1.00 20.00     0.038 A 
HETATM    5  C6  UNL     1     -33.864  15.669  -5.126  1.00 20.00     0.038 A 
HETATM    6  C7  UNL     1     -34.169  15.521  -2.984  1.00 20.00     0.038 A 
HETATM    7  C8  UNL     1     -35.735  14.883  -4.348  1.00 20.00     0.050 A 
HETATM    8  C9  UNL     1     -33.121  15.013  -3.967  1.00 20.00     0.117 A 
HETATM    9  F11 UNL     1     -31.807  15.079  -3.774  1.00 20.00    -0.242 F 
ENDROOT
BRANCH   7  10
HETATM   10  C1  UNL     1     -37.216  14.808  -4.561  1.00 20.00     0.228 C 
HETATM   11  O10 UNL     1     -37.952  14.225  -3.771  1.00 20.00    -0.279 OA
HETATM   12 CL12 UNL     1     -37.709  15.623  -6.014  1.00 20.00    -0.043 Cl
ENDBRANCH   7  10
TORSDOF 1
ENDMDL
MODEL 6
REMARK VINA RESULT:      -4.8      2.175      2.535
REMARK  1 active torsions:
REMARK  status: ('A' for Active; 'I' for Inactive)
REMARK    1  A    between atoms: C1_1  and  C8_8 
ROOT
HETATM    1  C2  UNL     1     -35.170  15.986  -4.869  1.00 20.00     0.019 A 
HETATM    2  C3  UNL     1     -35.056  13.821  -4.819  1.00 20.00     0.019 A 
HETATM    3  C4  UNL     1     -35.315  14.935  -2.978  1.00 20.00     0.019 A 
HETATM    4  C5  UNL     1     -34.162  14.941  -5.372  1.00 20.00     0.038 A 
HETATM    5  C6  UNL     1     -34.421  16.056  -3.530  1.00 20.00     0.038 A 
HETATM    6  C7  UNL     1     -34.307  13.891  -3.481  1.00 20.00     0.038 A 
HETATM    7  C8  UNL     1     -36.060  14.866  -4.317  1.00 20.00     0.050 A 
HETATM    8  C9  UNL     1     -33.434  15.010  -4.035  1.00 20.00     0.117 A 
HETATM    9  F11 UNL     1     -32.114  15.082  -3.893  1.00 20.00    -0.242 F 
ENDROOT
BRANCH   7  10
HETATM   10  C1  UNL     1     -37.546  14.781  -4.478  1.00 20.00     0.228 C 
HETATM   11  O10 UNL     1     -38.263  14.302  -3.605  1.00 20.00    -0.279 OA
HETATM   12 CL12 UNL     1     -38.077  15.425  -6.002  1.00 20.00    -0.043 Cl
ENDBRANCH   7  10
TORSDOF 1
ENDMDL
MODEL 7
REMARK VINA RESULT:      -4.8      3.314      3.981
REMARK  1 active torsions:
REMARK  status: ('A' for Active; 'I' for Inactive)
REMARK    1  A    between atoms: C1_1  and  C8_8 
ROOT
HETATM    1  C2  UNL     1     -34.982  16.433  -4.433  1.00 20.00     0.019 A 
HETATM    2  C3  UNL     1     -34.868  14.857  -2.949  1.00 20.00     0.019 A 
HETATM    3  C4  UNL     1     -33.069  15.535  -3.949  1.00 20.00     0.019 A 
HETATM    4  C5  UNL     1     -35.669  15.073  -4.242  1.00 20.00     0.038 A 
HETATM    5  C6  UNL     1     -33.868  15.751  -5.243  1.00 20.00     0.038 A 
HETATM    6  C7  UNL     1     -33.755  14.175  -3.758  1.00 20.00     0.038 A 
HETATM    7  C8  UNL     1     -34.183  16.214  -3.143  1.00 20.00     0.050 A 
HETATM    8  C9  UNL     1     -34.552  14.404  -5.036  1.00 20.00     0.117 A 
HETATM    9  F11 UNL     1     -34.738  13.494  -5.987  1.00 20.00    -0.242 F 
ENDROOT
BRANCH   7  10
HETATM   10  C1  UNL     1     -33.975  17.237  -2.069  1.00 20.00     0.228 C 
HETATM   11  O10 UNL     1     -33.439  18.316  -2.301  1.00 20.00    -0.279 OA
HETATM   12 CL12 UNL     1     -34.570  16.697  -0.528  1.00 20.00    -0.043 Cl
ENDBRANCH   7  10
TORSDOF 1
ENDMDL
MODEL 8
REMARK VINA RESULT:      -4.8      2.095      2.800
REMARK  1 active torsions:
REMARK  status: ('A' for Active; 'I' for Inactive)
REMARK    1  A    between atoms: C1_1  and  C8_8 
ROOT
HETATM    1  C2  UNL     1     -35.032  14.428  -3.078  1.00 20.00     0.019 A 
HETATM    2  C3  UNL     1     -34.955  16.200  -4.324  1.00 20.00     0.019 A 
HETATM    3  C4  UNL     1     -34.732  14.238  -5.217  1.00 20.00     0.019 A 
HETATM    4  C5  UNL     1     -34.200  15.719  -3.076  1.00 20.00     0.038 A 
HETATM    5  C6  UNL     1     -33.977  13.755  -3.970  1.00 20.00     0.038 A 
HETATM    6  C7  UNL     1     -33.900  15.528  -5.215  1.00 20.00     0.038 A 
HETATM    7  C8  UNL     1     -35.783  14.911  -4.325  1.00 20.00     0.050 A 
HETATM    8  C9  UNL     1     -33.165  15.046  -3.971  1.00 20.00     0.117 A 
HETATM    9  F11 UNL     1     -31.850  15.114  -3.793  1.00 20.00    -0.242 F 
ENDROOT
BRANCH   7  10
HETATM   10  C1  UNL     1     -37.265  14.837  -4.526  1.00 20.00     0.228 C 
HETATM   11  O10 UNL     1     -37.994  14.239  -3.741  1.00 20.00    -0.279 OA
HETATM   12 CL12 UNL     1     -37.772  15.677  -5.960  1.00 20.00    -0.043 Cl
ENDBRANCH   7  10
TORSDOF 1
ENDMDL
MODEL 9
REMARK VINA RESULT:      -4.7      3.330      4.017
REMARK  1 active torsions:
REMARK  status: ('A' for Active; 'I' for Inactive)
REMARK    1  A    between atoms: C1_1  and  C8_8 
ROOT
HETATM    1  C2  UNL     1     -33.113  15.526  -4.247  1.00 20.00     0.019 A 
HETATM    2  C3  UNL     1     -35.145  16.183  -4.625  1.00 20.00     0.019 A 
HETATM    3  C4  UNL     1     -34.686  15.063  -2.828  1.00 20.00     0.019 A 
HETATM    4  C5  UNL     1     -34.109  15.359  -5.404  1.00 20.00     0.038 A 
HETATM    5  C6  UNL     1     -33.650  14.237  -3.605  1.00 20.00     0.038 A 
HETATM    6  C7  UNL     1     -35.681  14.895  -3.984  1.00 20.00     0.038 A 
HETATM    7  C8  UNL     1     -34.149  16.348  -3.471  1.00 20.00     0.050 A 
HETATM    8  C9  UNL     1     -34.642  14.087  -4.753  1.00 20.00     0.117 A 
HETATM    9  F11 UNL     1     -34.890  12.951  -5.398  1.00 20.00    -0.242 F 
ENDROOT
BRANCH   7  10
HETATM   10  C1  UNL     1     -33.873  17.629  -2.746  1.00 20.00     0.228 C 
HETATM   11  O10 UNL     1     -33.850  18.708  -3.330  1.00 20.00    -0.279 OA
HETATM   12 CL12 UNL     1     -33.603  17.375  -1.049  1.00 20.00    -0.043 Cl
ENDBRANCH   7  10
TORSDOF 1
ENDMDL
