MODEL 1
REMARK VINA RESULT:      -5.3      0.000      0.000
REMARK  1 active torsions:
REMARK  status: ('A' for Active; 'I' for Inactive)
REMARK    1  A    between atoms: C10_10  and  O11_11 
ROOT
HETATM    1  C1  UNL     1     -33.660  17.399  -1.358  1.00 20.00     0.012 C 
HETATM    2  C2  UNL     1     -33.650  17.095  -5.681  1.00 20.00     0.015 C 
HETATM    3  C3  UNL     1     -34.027  16.443  -1.983  1.00 20.00    -0.108 C 
HETATM    4  C4  UNL     1     -33.630  16.159  -4.930  1.00 20.00    -0.078 C 
HETATM    5  C5  UNL     1     -36.414  14.574  -4.303  1.00 20.00     0.002 C 
HETATM    6  C6  UNL     1     -35.532  13.354  -4.511  1.00 20.00     0.004 C 
HETATM    7  C7  UNL     1     -35.975  15.403  -3.094  1.00 20.00     0.021 C 
HETATM    8  C8  UNL     1     -34.063  13.726  -4.739  1.00 20.00     0.053 C 
HETATM    9  C9  UNL     1     -34.478  15.264  -2.754  1.00 20.00     0.111 C 
HETATM   10  C10 UNL     1     -33.606  15.007  -4.003  1.00 20.00     0.134 C 
ENDROOT
BRANCH  10  11
HETATM   11  O11 UNL     1     -32.246  14.808  -3.602  1.00 20.00    -0.376 OA
HETATM   12  H23 UNL     1     -31.791  14.428  -4.368  1.00 20.00     0.211 HD
ENDBRANCH  10  11
TORSDOF 1
ENDMDL
MODEL 2
REMARK VINA RESULT:      -5.3      1.932      4.058
REMARK  1 active torsions:
REMARK  status: ('A' for Active; 'I' for Inactive)
REMARK    1  A    between atoms: C10_10  and  O11_11 
ROOT
HETATM    1  C1  UNL     1     -35.937  14.389  -7.918  1.00 20.00     0.012 C 
HETATM    2  C2  UNL     1     -37.207  14.761  -3.791  1.00 20.00     0.015 C 
HETATM    3  C3  UNL     1     -35.202  14.519  -6.978  1.00 20.00    -0.108 C 
HETATM    4  C4  UNL     1     -36.125  14.380  -4.141  1.00 20.00    -0.078 C 
HETATM    5  C5  UNL     1     -33.622  16.475  -4.106  1.00 20.00     0.002 C 
HETATM    6  C6  UNL     1     -32.905  15.296  -3.469  1.00 20.00     0.004 C 
HETATM    7  C7  UNL     1     -34.060  16.175  -5.541  1.00 20.00     0.021 C 
HETATM    8  C8  UNL     1     -33.780  14.040  -3.410  1.00 20.00     0.053 C 
HETATM    9  C9  UNL     1     -34.295  14.678  -5.821  1.00 20.00     0.111 C 
HETATM   10  C10 UNL     1     -34.791  13.911  -4.574  1.00 20.00     0.134 C 
ENDROOT
BRANCH  10  11
HETATM   11  O11 UNL     1     -34.907  12.518  -4.887  1.00 20.00    -0.376 OA
HETATM   12  H23 UNL     1     -35.762  12.232  -4.532  1.00 20.00     0.211 HD
ENDBRANCH  10  11
TORSDOF 1
ENDMDL
MODEL 3
REMARK VINA RESULT:      -4.8     11.397     13.560
REMARK  1 active torsions:
REMARK  status: ('A' for Active; 'I' for Inactive)
REMARK    1  A    between atoms: C10_10  and  O11_11 
ROOT
HETATM    1  C1  UNL     1     -43.292   3.245  -3.575  1.00 20.00     0.012 C 
HETATM    2  C2  UNL     1     -43.412   4.102   0.672  1.00 20.00     0.015 C 
HETATM    3  C3  UNL     1     -42.742   4.168  -3.041  1.00 20.00    -0.108 C 
HETATM    4  C4  UNL     1     -42.550   4.473  -0.077  1.00 20.00    -0.078 C 
HETATM    5  C5  UNL     1     -42.660   7.526  -1.227  1.00 20.00     0.002 C 
HETATM    6  C6  UNL     1     -41.181   7.496  -0.878  1.00 20.00     0.004 C 
HETATM    7  C7  UNL     1     -43.012   6.518  -2.323  1.00 20.00     0.021 C 
HETATM    8  C8  UNL     1     -40.723   6.122  -0.379  1.00 20.00     0.053 C 
HETATM    9  C9  UNL     1     -42.063   5.306  -2.384  1.00 20.00     0.111 C 
HETATM   10  C10 UNL     1     -41.489   4.930  -1.000  1.00 20.00     0.134 C 
ENDROOT
BRANCH  10  11
HETATM   11  O11 UNL     1     -40.557   3.853  -1.147  1.00 20.00    -0.376 OA
HETATM   12  H23 UNL     1     -40.576   3.363  -0.312  1.00 20.00     0.211 HD
ENDBRANCH  10  11
TORSDOF 1
ENDMDL
MODEL 4
REMARK VINA RESULT:      -4.8      1.078      1.090
REMARK  1 active torsions:
REMARK  status: ('A' for Active; 'I' for Inactive)
REMARK    1  A    between atoms: C10_10  and  O11_11 
ROOT
HETATM    1  C1  UNL     1     -34.414  16.641  -0.985  1.00 20.00     0.012 C 
HETATM    2  C2  UNL     1     -33.531  18.129  -4.959  1.00 20.00     0.015 C 
HETATM    3  C3  UNL     1     -34.672  16.070  -2.009  1.00 20.00    -0.108 C 
HETATM    4  C4  UNL     1     -33.691  16.973  -4.682  1.00 20.00    -0.078 C 
HETATM    5  C5  UNL     1     -36.586  15.589  -5.277  1.00 20.00     0.002 C 
HETATM    6  C6  UNL     1     -35.715  14.470  -5.823  1.00 20.00     0.004 C 
HETATM    7  C7  UNL     1     -36.381  15.797  -3.775  1.00 20.00     0.021 C 
HETATM    8  C8  UNL     1     -34.220  14.738  -5.615  1.00 20.00     0.053 C 
HETATM    9  C9  UNL     1     -34.989  15.367  -3.271  1.00 20.00     0.111 C 
HETATM   10  C10 UNL     1     -33.888  15.547  -4.340  1.00 20.00     0.134 C 
ENDROOT
BRANCH  10  11
HETATM   11  O11 UNL     1     -32.644  15.053  -3.831  1.00 20.00    -0.376 OA
HETATM   12  H23 UNL     1     -32.009  15.780  -3.918  1.00 20.00     0.211 HD
ENDBRANCH  10  11
TORSDOF 1
ENDMDL
MODEL 5
REMARK VINA RESULT:      -4.8      1.860      2.830
REMARK  1 active torsions:
REMARK  status: ('A' for Active; 'I' for Inactive)
REMARK    1  A    between atoms: C10_10  and  O11_11 
ROOT
HETATM    1  C1  UNL     1     -34.711  16.458  -1.058  1.00 20.00     0.012 C 
HETATM    2  C2  UNL     1     -38.034  15.162  -3.521  1.00 20.00     0.015 C 
HETATM    3  C3  UNL     1     -34.617  16.034  -2.177  1.00 20.00    -0.108 C 
HETATM    4  C4  UNL     1     -36.972  15.527  -3.943  1.00 20.00    -0.078 C 
HETATM    5  C5  UNL     1     -34.765  13.290  -4.826  1.00 20.00     0.002 C 
HETATM    6  C6  UNL     1     -34.615  14.205  -6.030  1.00 20.00     0.004 C 
HETATM    7  C7  UNL     1     -34.350  13.979  -3.524  1.00 20.00     0.021 C 
HETATM    8  C8  UNL     1     -35.466  15.474  -5.912  1.00 20.00     0.053 C 
HETATM    9  C9  UNL     1     -34.501  15.512  -3.555  1.00 20.00     0.111 C 
HETATM   10  C10 UNL     1     -35.662  15.978  -4.462  1.00 20.00     0.134 C 
ENDROOT
BRANCH  10  11
HETATM   11  O11 UNL     1     -35.688  17.408  -4.506  1.00 20.00    -0.376 OA
HETATM   12  H23 UNL     1     -35.841  17.704  -3.597  1.00 20.00     0.211 HD
ENDBRANCH  10  11
TORSDOF 1
ENDMDL
MODEL 6
REMARK VINA RESULT:      -4.7      1.799      3.158
REMARK  1 active torsions:
REMARK  status: ('A' for Active; 'I' for Inactive)
REMARK    1  A    between atoms: C10_10  and  O11_11 
ROOT
HETATM    1  C1  UNL     1     -33.455  18.856  -4.482  1.00 20.00     0.012 C 
HETATM    2  C2  UNL     1     -34.632  16.585  -0.982  1.00 20.00     0.015 C 
HETATM    3  C3  UNL     1     -33.787  17.703  -4.487  1.00 20.00    -0.108 C 
HETATM    4  C4  UNL     1     -34.950  16.320  -2.109  1.00 20.00    -0.078 C 
HETATM    5  C5  UNL     1     -33.312  13.996  -3.711  1.00 20.00     0.002 C 
HETATM    6  C6  UNL     1     -34.714  13.557  -4.101  1.00 20.00     0.004 C 
HETATM    7  C7  UNL     1     -32.969  15.381  -4.261  1.00 20.00     0.021 C 
HETATM    8  C8  UNL     1     -35.793  14.517  -3.587  1.00 20.00     0.053 C 
HETATM    9  C9  UNL     1     -34.197  16.282  -4.494  1.00 20.00     0.111 C 
HETATM   10  C10 UNL     1     -35.343  15.994  -3.497  1.00 20.00     0.134 C 
ENDROOT
BRANCH  10  11
HETATM   11  O11 UNL     1     -36.475  16.807  -3.824  1.00 20.00    -0.376 OA
HETATM   12  H23 UNL     1     -37.118  16.218  -4.245  1.00 20.00     0.211 HD
ENDBRANCH  10  11
TORSDOF 1
ENDMDL
MODEL 7
REMARK VINA RESULT:      -4.7      1.266      3.353
REMARK  1 active torsions:
REMARK  status: ('A' for Active; 'I' for Inactive)
REMARK    1  A    between atoms: C10_10  and  O11_11 
ROOT
HETATM    1  C1  UNL     1     -34.726  16.583  -7.568  1.00 20.00     0.012 C 
HETATM    2  C2  UNL     1     -34.578  13.188  -4.878  1.00 20.00     0.015 C 
HETATM    3  C3  UNL     1     -34.682  16.652  -6.371  1.00 20.00    -0.108 C 
HETATM    4  C4  UNL     1     -34.194  14.292  -4.607  1.00 20.00    -0.078 C 
HETATM    5  C5  UNL     1     -36.127  16.257  -2.860  1.00 20.00     0.002 C 
HETATM    6  C6  UNL     1     -34.834  16.531  -2.110  1.00 20.00     0.004 C 
HETATM    7  C7  UNL     1     -36.056  16.719  -4.317  1.00 20.00     0.021 C 
HETATM    8  C8  UNL     1     -33.630  15.822  -2.740  1.00 20.00     0.053 C 
HETATM    9  C9  UNL     1     -34.628  16.738  -4.896  1.00 20.00     0.111 C 
HETATM   10  C10 UNL     1     -33.720  15.653  -4.275  1.00 20.00     0.134 C 
ENDROOT
BRANCH  10  11
HETATM   11  O11 UNL     1     -32.394  15.785  -4.798  1.00 20.00    -0.376 OA
HETATM   12  H23 UNL     1     -32.463  15.626  -5.752  1.00 20.00     0.211 HD
ENDBRANCH  10  11
TORSDOF 1
ENDMDL
MODEL 8
REMARK VINA RESULT:      -4.6      2.002      2.789
REMARK  1 active torsions:
REMARK  status: ('A' for Active; 'I' for Inactive)
REMARK    1  A    between atoms: C10_10  and  O11_11 
ROOT
HETATM    1  C1  UNL     1     -32.266  14.711  -3.617  1.00 20.00     0.012 C 
HETATM    2  C2  UNL     1     -35.060  14.574  -6.927  1.00 20.00     0.015 C 
HETATM    3  C3  UNL     1     -33.450  14.885  -3.528  1.00 20.00    -0.108 C 
HETATM    4  C4  UNL     1     -35.353  14.395  -5.778  1.00 20.00    -0.078 C 
HETATM    5  C5  UNL     1     -36.677  16.848  -4.080  1.00 20.00     0.002 C 
HETATM    6  C6  UNL     1     -37.625  15.753  -3.621  1.00 20.00     0.004 C 
HETATM    7  C7  UNL     1     -35.238  16.590  -3.630  1.00 20.00     0.021 C 
HETATM    8  C8  UNL     1     -37.234  14.374  -4.163  1.00 20.00     0.053 C 
HETATM    9  C9  UNL     1     -34.909  15.099  -3.419  1.00 20.00     0.111 C 
HETATM   10  C10 UNL     1     -35.713  14.174  -4.360  1.00 20.00     0.134 C 
ENDROOT
BRANCH  10  11
HETATM   11  O11 UNL     1     -35.417  12.807  -4.051  1.00 20.00    -0.376 OA
HETATM   12  H23 UNL     1     -36.240  12.423  -3.714  1.00 20.00     0.211 HD
ENDBRANCH  10  11
TORSDOF 1
ENDMDL
MODEL 9
REMARK VINA RESULT:      -4.6      1.405      3.549
REMARK  1 active torsions:
REMARK  status: ('A' for Active; 'I' for Inactive)
REMARK    1  A    between atoms: C10_10  and  O11_11 
ROOT
HETATM    1  C1  UNL     1     -34.773  13.059  -4.712  1.00 20.00     0.012 C 
HETATM    2  C2  UNL     1     -34.094  16.391  -2.025  1.00 20.00     0.015 C 
HETATM    3  C3  UNL     1     -34.719  14.211  -5.042  1.00 20.00    -0.108 C 
HETATM    4  C4  UNL     1     -33.867  16.405  -3.203  1.00 20.00    -0.078 C 
HETATM    5  C5  UNL     1     -36.031  17.792  -5.215  1.00 20.00     0.002 C 
HETATM    6  C6  UNL     1     -34.778  18.405  -5.817  1.00 20.00     0.004 C 
HETATM    7  C7  UNL     1     -36.052  16.269  -5.359  1.00 20.00     0.021 C 
HETATM    8  C8  UNL     1     -33.496  17.882  -5.160  1.00 20.00     0.053 C 
HETATM    9  C9  UNL     1     -34.652  15.631  -5.448  1.00 20.00     0.111 C 
HETATM   10  C10 UNL     1     -33.587  16.422  -4.655  1.00 20.00     0.134 C 
ENDROOT
BRANCH  10  11
HETATM   11  O11 UNL     1     -32.303  15.820  -4.851  1.00 20.00    -0.376 OA
HETATM   12  H23 UNL     1     -31.711  16.533  -5.133  1.00 20.00     0.211 HD
ENDBRANCH  10  11
TORSDOF 1
ENDMDL
