MODEL 1
REMARK VINA RESULT:      -4.7      0.000      0.000
REMARK  1 active torsions:
REMARK  status: ('A' for Active; 'I' for Inactive)
REMARK    1  A    between atoms: C1_1  and  C5_5 
ROOT
HETATM    1  C2  UNL     1     -33.150  15.315  -3.528  1.00 20.00     0.015 C 
HETATM    2  C3  UNL     1     -33.730  16.726  -3.463  1.00 20.00     0.021 C 
HETATM    3  C4  UNL     1     -35.571  15.252  -3.124  1.00 20.00     0.033 C 
HETATM    4  C5  UNL     1     -34.359  14.375  -3.464  1.00 20.00     0.073 C 
HETATM    5  C6  UNL     1     -34.995  16.575  -2.629  1.00 20.00     0.083 C 
HETATM    6 CL9  UNL     1     -34.601  16.482  -0.889  1.00 20.00    -0.125 Cl
ENDROOT
BRANCH   4   7
HETATM    7  C1  UNL     1     -34.569  13.682  -4.773  1.00 20.00     0.223 C 
HETATM    8  O7  UNL     1     -34.831  12.485  -4.835  1.00 20.00    -0.279 OA
HETATM    9 CL8  UNL     1     -34.398  14.766  -6.120  1.00 20.00    -0.043 Cl
ENDBRANCH   4   7
TORSDOF 1
ENDMDL
MODEL 2
REMARK VINA RESULT:      -4.1      2.267      3.906
REMARK  1 active torsions:
REMARK  status: ('A' for Active; 'I' for Inactive)
REMARK    1  A    between atoms: C1_1  and  C5_5 
ROOT
HETATM    1  C2  UNL     1     -32.925  15.496  -3.972  1.00 20.00     0.015 C 
HETATM    2  C3  UNL     1     -33.113  14.028  -3.598  1.00 20.00     0.021 C 
HETATM    3  C4  UNL     1     -35.228  15.064  -3.237  1.00 20.00     0.033 C 
HETATM    4  C5  UNL     1     -34.242  16.184  -3.592  1.00 20.00     0.073 C 
HETATM    5  C6  UNL     1     -34.604  13.781  -3.777  1.00 20.00     0.083 C 
HETATM    6 CL9  UNL     1     -35.008  13.559  -5.504  1.00 20.00    -0.125 Cl
ENDROOT
BRANCH   4   7
HETATM    7  C1  UNL     1     -34.051  17.098  -2.424  1.00 20.00     0.223 C 
HETATM    8  O7  UNL     1     -33.535  18.205  -2.548  1.00 20.00    -0.279 OA
HETATM    9 CL8  UNL     1     -34.637  16.400  -0.945  1.00 20.00    -0.043 Cl
ENDBRANCH   4   7
TORSDOF 1
ENDMDL
MODEL 3
REMARK VINA RESULT:      -4.1      1.824      2.139
REMARK  1 active torsions:
REMARK  status: ('A' for Active; 'I' for Inactive)
REMARK    1  A    between atoms: C1_1  and  C5_5 
ROOT
HETATM    1  C2  UNL     1     -35.075  15.526  -2.412  1.00 20.00     0.015 C 
HETATM    2  C3  UNL     1     -33.990  16.561  -2.126  1.00 20.00     0.021 C 
HETATM    3  C4  UNL     1     -33.807  16.054  -4.448  1.00 20.00     0.033 C 
HETATM    4  C5  UNL     1     -34.851  15.093  -3.865  1.00 20.00     0.073 C 
HETATM    5  C6  UNL     1     -33.739  17.225  -3.473  1.00 20.00     0.083 C 
HETATM    6 CL9  UNL     1     -35.013  18.425  -3.837  1.00 20.00    -0.125 Cl
ENDROOT
BRANCH   4   7
HETATM    7  C1  UNL     1     -34.356  13.682  -3.933  1.00 20.00     0.223 C 
HETATM    8  O7  UNL     1     -35.087  12.757  -4.271  1.00 20.00    -0.279 OA
HETATM    9 CL8  UNL     1     -32.681  13.556  -3.488  1.00 20.00    -0.043 Cl
ENDBRANCH   4   7
TORSDOF 1
ENDMDL
MODEL 4
REMARK VINA RESULT:      -4.1      1.651      1.749
REMARK  1 active torsions:
REMARK  status: ('A' for Active; 'I' for Inactive)
REMARK    1  A    between atoms: C1_1  and  C5_5 
ROOT
HETATM    1  C2  UNL     1     -33.266  16.175  -4.565  1.00 20.00     0.015 C 
HETATM    2  C3  UNL     1     -34.454  17.131  -4.496  1.00 20.00     0.021 C 
HETATM    3  C4  UNL     1     -34.520  15.871  -2.475  1.00 20.00     0.033 C 
HETATM    4  C5  UNL     1     -33.405  15.266  -3.338  1.00 20.00     0.073 C 
HETATM    5  C6  UNL     1     -34.728  17.286  -3.007  1.00 20.00     0.083 C 
HETATM    6 CL9  UNL     1     -33.565  18.419  -2.261  1.00 20.00    -0.125 Cl
ENDROOT
BRANCH   4   7
HETATM    7  C1  UNL     1     -33.760  13.870  -3.743  1.00 20.00     0.223 C 
HETATM    8  O7  UNL     1     -32.921  12.975  -3.776  1.00 20.00    -0.279 OA
HETATM    9 CL8  UNL     1     -35.445  13.713  -4.138  1.00 20.00    -0.043 Cl
ENDBRANCH   4   7
TORSDOF 1
ENDMDL
MODEL 5
REMARK VINA RESULT:      -4.0      2.206      2.501
REMARK  1 active torsions:
REMARK  status: ('A' for Active; 'I' for Inactive)
REMARK    1  A    between atoms: C1_1  and  C5_5 
ROOT
HETATM    1  C2  UNL     1     -35.137  15.959  -2.449  1.00 20.00     0.015 C 
HETATM    2  C3  UNL     1     -33.635  16.015  -2.717  1.00 20.00     0.021 C 
HETATM    3  C4  UNL     1     -34.673  15.940  -4.861  1.00 20.00     0.033 C 
HETATM    4  C5  UNL     1     -35.787  15.755  -3.823  1.00 20.00     0.073 C 
HETATM    5  C6  UNL     1     -33.524  16.609  -4.114  1.00 20.00     0.083 C 
HETATM    6 CL9  UNL     1     -33.746  18.382  -4.070  1.00 20.00    -0.125 Cl
ENDROOT
BRANCH   4   7
HETATM    7  C1  UNL     1     -36.383  14.387  -3.936  1.00 20.00     0.223 C 
HETATM    8  O7  UNL     1     -37.583  14.189  -3.771  1.00 20.00    -0.279 OA
HETATM    9 CL8  UNL     1     -35.188  13.184  -4.315  1.00 20.00    -0.043 Cl
ENDBRANCH   4   7
TORSDOF 1
ENDMDL
MODEL 6
REMARK VINA RESULT:      -4.0      2.324      4.088
REMARK  1 active torsions:
REMARK  status: ('A' for Active; 'I' for Inactive)
REMARK    1  A    between atoms: C1_1  and  C5_5 
ROOT
HETATM    1  C2  UNL     1     -35.790  15.608  -3.209  1.00 20.00     0.015 C 
HETATM    2  C3  UNL     1     -35.514  15.647  -4.710  1.00 20.00     0.021 C 
HETATM    3  C4  UNL     1     -33.385  15.410  -3.666  1.00 20.00     0.033 C 
HETATM    4  C5  UNL     1     -34.409  15.611  -2.542  1.00 20.00     0.073 C 
HETATM    5  C6  UNL     1     -34.187  14.920  -4.868  1.00 20.00     0.083 C 
HETATM    6 CL9  UNL     1     -34.419  13.149  -4.793  1.00 20.00    -0.125 Cl
ENDROOT
BRANCH   4   7
HETATM    7  C1  UNL     1     -34.159  16.906  -1.835  1.00 20.00     0.223 C 
HETATM    8  O7  UNL     1     -33.602  17.847  -2.391  1.00 20.00    -0.279 OA
HETATM    9 CL8  UNL     1     -34.744  16.881  -0.199  1.00 20.00    -0.043 Cl
ENDBRANCH   4   7
TORSDOF 1
ENDMDL
MODEL 7
REMARK VINA RESULT:      -4.0      2.436      3.437
REMARK  1 active torsions:
REMARK  status: ('A' for Active; 'I' for Inactive)
REMARK    1  A    between atoms: C1_1  and  C5_5 
ROOT
HETATM    1  C2  UNL     1     -35.907  14.769  -6.106  1.00 20.00     0.015 C 
HETATM    2  C3  UNL     1     -36.146  16.220  -5.697  1.00 20.00     0.021 C 
HETATM    3  C4  UNL     1     -33.809  15.847  -5.423  1.00 20.00     0.033 C 
HETATM    4  C5  UNL     1     -34.434  14.493  -5.781  1.00 20.00     0.073 C 
HETATM    5  C6  UNL     1     -34.801  16.898  -5.911  1.00 20.00     0.083 C 
HETATM    6 CL9  UNL     1     -34.540  17.259  -7.642  1.00 20.00    -0.125 Cl
ENDROOT
BRANCH   4   7
HETATM    7  C1  UNL     1     -34.308  13.542  -4.632  1.00 20.00     0.223 C 
HETATM    8  O7  UNL     1     -35.110  12.629  -4.459  1.00 20.00    -0.279 OA
HETATM    9 CL8  UNL     1     -32.931  13.901  -3.635  1.00 20.00    -0.043 Cl
ENDBRANCH   4   7
TORSDOF 1
ENDMDL
MODEL 8
REMARK VINA RESULT:      -4.0      1.092      1.262
REMARK  1 active torsions:
REMARK  status: ('A' for Active; 'I' for Inactive)
REMARK    1  A    between atoms: C1_1  and  C5_5 
ROOT
HETATM    1  C2  UNL     1     -34.534  16.171  -4.944  1.00 20.00     0.015 C 
HETATM    2  C3  UNL     1     -35.523  16.726  -3.922  1.00 20.00     0.021 C 
HETATM    3  C4  UNL     1     -34.726  14.675  -3.006  1.00 20.00     0.033 C 
HETATM    4  C5  UNL     1     -34.145  14.783  -4.422  1.00 20.00     0.073 C 
HETATM    5  C6  UNL     1     -35.092  16.100  -2.603  1.00 20.00     0.083 C 
HETATM    6 CL9  UNL     1     -33.671  16.951  -1.930  1.00 20.00    -0.125 Cl
ENDROOT
BRANCH   4   7
HETATM    7  C1  UNL     1     -34.703  13.706  -5.297  1.00 20.00     0.223 C 
HETATM    8  O7  UNL     1     -34.800  12.545  -4.910  1.00 20.00    -0.279 OA
HETATM    9 CL8  UNL     1     -35.168  14.309  -6.859  1.00 20.00    -0.043 Cl
ENDBRANCH   4   7
TORSDOF 1
ENDMDL
MODEL 9
REMARK VINA RESULT:      -3.9      2.366      2.950
REMARK  1 active torsions:
REMARK  status: ('A' for Active; 'I' for Inactive)
REMARK    1  A    between atoms: C1_1  and  C5_5 
ROOT
HETATM    1  C2  UNL     1     -35.208  14.111  -5.169  1.00 20.00     0.015 C 
HETATM    2  C3  UNL     1     -34.192  15.200  -5.507  1.00 20.00     0.021 C 
HETATM    3  C4  UNL     1     -34.881  15.631  -3.267  1.00 20.00     0.033 C 
HETATM    4  C5  UNL     1     -35.758  14.485  -3.787  1.00 20.00     0.073 C 
HETATM    5  C6  UNL     1     -33.642  15.634  -4.156  1.00 20.00     0.083 C 
HETATM    6 CL9  UNL     1     -32.430  14.465  -3.557  1.00 20.00    -0.125 Cl
ENDROOT
BRANCH   4   7
HETATM    7  C1  UNL     1     -37.186  14.923  -3.881  1.00 20.00     0.223 C 
HETATM    8  O7  UNL     1     -38.115  14.136  -3.728  1.00 20.00    -0.279 OA
HETATM    9 CL8  UNL     1     -37.327  16.622  -4.218  1.00 20.00    -0.043 Cl
ENDBRANCH   4   7
TORSDOF 1
ENDMDL
