MODEL 1
REMARK VINA RESULT:      -4.5      0.000      0.000
REMARK  1 active torsions:
REMARK  status: ('A' for Active; 'I' for Inactive)
REMARK    1  A    between atoms: C1_1  and  C2_2 
ROOT
HETATM    1  C2  UNL     1     -33.262   5.765   4.515  1.00 20.00     0.084 A 
HETATM    2  C3  UNL     1     -34.076   6.702   5.374  1.00 20.00     0.018 A 
HETATM    3  C4  UNL     1     -34.672   5.380   4.924  1.00 20.00     0.048 A 
HETATM    4  C6  UNL     1     -33.677   6.960   6.788  1.00 20.00     0.012 C 
HETATM    5  C7  UNL     1     -34.858   4.246   5.890  1.00 20.00     0.034 C 
HETATM    6 CL9  UNL     1     -35.978   5.501   3.715  1.00 20.00    -0.118 Cl
ENDROOT
BRANCH   1   7
HETATM    7  C1  UNL     1     -32.950   6.151   3.132  1.00 20.00     0.129 C 
HETATM    8  C5  UNL     1     -32.140   7.405   2.946  1.00 20.00     0.091 C 
HETATM    9  O8  UNL     1     -33.331   5.481   2.173  1.00 20.00    -0.298 OA
ENDBRANCH   1   7
TORSDOF 1
ENDMDL
MODEL 2
REMARK VINA RESULT:      -4.5     11.888     12.646
REMARK  1 active torsions:
REMARK  status: ('A' for Active; 'I' for Inactive)
REMARK    1  A    between atoms: C1_1  and  C2_2 
ROOT
HETATM    1  C2  UNL     1     -34.813  15.005  -3.354  1.00 20.00     0.084 A 
HETATM    2  C3  UNL     1     -33.997  15.930  -2.485  1.00 20.00     0.018 A 
HETATM    3  C4  UNL     1     -34.477  16.401  -3.846  1.00 20.00     0.048 A 
HETATM    4  C6  UNL     1     -34.564  16.456  -1.210  1.00 20.00     0.012 C 
HETATM    5  C7  UNL     1     -35.585  17.407  -3.971  1.00 20.00     0.034 C 
HETATM    6 CL9  UNL     1     -33.206  16.591  -5.083  1.00 20.00    -0.118 Cl
ENDROOT
BRANCH   1   7
HETATM    7  C1  UNL     1     -34.172  13.819  -3.937  1.00 20.00     0.129 C 
HETATM    8  C5  UNL     1     -34.806  13.246  -5.175  1.00 20.00     0.091 C 
HETATM    9  O8  UNL     1     -33.164  13.319  -3.438  1.00 20.00    -0.298 OA
ENDBRANCH   1   7
TORSDOF 1
ENDMDL
MODEL 3
REMARK VINA RESULT:      -4.2     11.951     12.816
REMARK  1 active torsions:
REMARK  status: ('A' for Active; 'I' for Inactive)
REMARK    1  A    between atoms: C1_1  and  C2_2 
ROOT
HETATM    1  C2  UNL     1     -34.219  14.859  -4.239  1.00 20.00     0.084 A 
HETATM    2  C3  UNL     1     -34.599  16.282  -4.568  1.00 20.00     0.018 A 
HETATM    3  C4  UNL     1     -35.155  15.622  -3.320  1.00 20.00     0.048 A 
HETATM    4  C6  UNL     1     -33.573  17.364  -4.511  1.00 20.00     0.012 C 
HETATM    5  C7  UNL     1     -34.666  16.010  -1.954  1.00 20.00     0.034 C 
HETATM    6 CL9  UNL     1     -36.898  15.244  -3.365  1.00 20.00    -0.118 Cl
ENDROOT
BRANCH   1   7
HETATM    7  C1  UNL     1     -34.713  13.771  -5.095  1.00 20.00     0.129 C 
HETATM    8  C5  UNL     1     -35.120  14.143  -6.494  1.00 20.00     0.091 C 
HETATM    9  O8  UNL     1     -34.789  12.613  -4.686  1.00 20.00    -0.298 OA
ENDBRANCH   1   7
TORSDOF 1
ENDMDL
MODEL 4
REMARK VINA RESULT:      -4.1     11.929     12.804
REMARK  1 active torsions:
REMARK  status: ('A' for Active; 'I' for Inactive)
REMARK    1  A    between atoms: C1_1  and  C2_2 
ROOT
HETATM    1  C2  UNL     1     -35.706  15.728  -3.954  1.00 20.00     0.084 A 
HETATM    2  C3  UNL     1     -35.044  15.279  -2.674  1.00 20.00     0.018 A 
HETATM    3  C4  UNL     1     -34.322  15.106  -3.998  1.00 20.00     0.048 A 
HETATM    4  C6  UNL     1     -34.620  16.284  -1.657  1.00 20.00     0.012 C 
HETATM    5  C7  UNL     1     -33.153  15.974  -4.362  1.00 20.00     0.034 C 
HETATM    6 CL9  UNL     1     -34.156  13.423  -4.566  1.00 20.00    -0.118 Cl
ENDROOT
BRANCH   1   7
HETATM    7  C1  UNL     1     -36.883  14.998  -4.445  1.00 20.00     0.129 C 
HETATM    8  C5  UNL     1     -37.329  15.301  -5.849  1.00 20.00     0.091 C 
HETATM    9  O8  UNL     1     -37.473  14.179  -3.743  1.00 20.00    -0.298 OA
ENDBRANCH   1   7
TORSDOF 1
ENDMDL
MODEL 5
REMARK VINA RESULT:      -4.1     11.713     13.489
REMARK  1 active torsions:
REMARK  status: ('A' for Active; 'I' for Inactive)
REMARK    1  A    between atoms: C1_1  and  C2_2 
ROOT
HETATM    1  C2  UNL     1     -34.427  14.626  -5.565  1.00 20.00     0.084 A 
HETATM    2  C3  UNL     1     -35.638  14.564  -6.463  1.00 20.00     0.018 A 
HETATM    3  C4  UNL     1     -35.546  15.637  -5.393  1.00 20.00     0.048 A 
HETATM    4  C6  UNL     1     -35.510  14.871  -7.917  1.00 20.00     0.012 C 
HETATM    5  C7  UNL     1     -35.285  17.071  -5.754  1.00 20.00     0.034 C 
HETATM    6 CL9  UNL     1     -36.670  15.447  -4.020  1.00 20.00    -0.118 Cl
ENDROOT
BRANCH   1   7
HETATM    7  C1  UNL     1     -34.211  13.557  -4.581  1.00 20.00     0.129 C 
HETATM    8  C5  UNL     1     -33.096  13.764  -3.592  1.00 20.00     0.091 C 
HETATM    9  O8  UNL     1     -34.908  12.543  -4.565  1.00 20.00    -0.298 OA
ENDBRANCH   1   7
TORSDOF 1
ENDMDL
MODEL 6
REMARK VINA RESULT:      -4.0     11.924     13.101
REMARK  1 active torsions:
REMARK  status: ('A' for Active; 'I' for Inactive)
REMARK    1  A    between atoms: C1_1  and  C2_2 
ROOT
HETATM    1  C2  UNL     1     -33.577  16.197  -2.583  1.00 20.00     0.084 A 
HETATM    2  C3  UNL     1     -34.499  15.160  -3.176  1.00 20.00     0.018 A 
HETATM    3  C4  UNL     1     -34.242  16.456  -3.923  1.00 20.00     0.048 A 
HETATM    4  C6  UNL     1     -33.956  13.849  -3.637  1.00 20.00     0.012 C 
HETATM    5  C7  UNL     1     -33.388  16.482  -5.158  1.00 20.00     0.034 C 
HETATM    6 CL9  UNL     1     -35.620  17.586  -3.992  1.00 20.00    -0.118 Cl
ENDROOT
BRANCH   1   7
HETATM    7  C1  UNL     1     -33.997  16.919  -1.374  1.00 20.00     0.129 C 
HETATM    8  C5  UNL     1     -33.394  18.280  -1.156  1.00 20.00     0.091 C 
HETATM    9  O8  UNL     1     -34.804  16.436  -0.581  1.00 20.00    -0.298 OA
ENDBRANCH   1   7
TORSDOF 1
ENDMDL
MODEL 7
REMARK VINA RESULT:      -4.0     11.680     13.108
REMARK  1 active torsions:
REMARK  status: ('A' for Active; 'I' for Inactive)
REMARK    1  A    between atoms: C1_1  and  C2_2 
ROOT
HETATM    1  C2  UNL     1     -35.995  14.503  -4.717  1.00 20.00     0.084 A 
HETATM    2  C3  UNL     1     -34.994  15.530  -5.188  1.00 20.00     0.018 A 
HETATM    3  C4  UNL     1     -34.720  14.734  -3.925  1.00 20.00     0.048 A 
HETATM    4  C6  UNL     1     -34.233  15.310  -6.453  1.00 20.00     0.012 C 
HETATM    5  C7  UNL     1     -33.681  13.651  -3.902  1.00 20.00     0.034 C 
HETATM    6 CL9  UNL     1     -34.813  15.658  -2.402  1.00 20.00    -0.118 Cl
ENDROOT
BRANCH   1   7
HETATM    7  C1  UNL     1     -37.297  14.955  -4.210  1.00 20.00     0.129 C 
HETATM    8  C5  UNL     1     -37.660  16.393  -4.462  1.00 20.00     0.091 C 
HETATM    9  O8  UNL     1     -38.055  14.194  -3.610  1.00 20.00    -0.298 OA
ENDBRANCH   1   7
TORSDOF 1
ENDMDL
MODEL 8
REMARK VINA RESULT:      -4.0     11.940     13.456
REMARK  1 active torsions:
REMARK  status: ('A' for Active; 'I' for Inactive)
REMARK    1  A    between atoms: C1_1  and  C2_2 
ROOT
HETATM    1  C2  UNL     1     -35.567  14.784  -4.662  1.00 20.00     0.084 A 
HETATM    2  C3  UNL     1     -34.985  16.164  -4.850  1.00 20.00     0.018 A 
HETATM    3  C4  UNL     1     -35.579  15.427  -6.037  1.00 20.00     0.048 A 
HETATM    4  C6  UNL     1     -35.648  17.348  -4.229  1.00 20.00     0.012 C 
HETATM    5  C7  UNL     1     -36.896  15.843  -6.627  1.00 20.00     0.034 C 
HETATM    6 CL9  UNL     1     -34.404  14.867  -7.256  1.00 20.00    -0.118 Cl
ENDROOT
BRANCH   1   7
HETATM    7  C1  UNL     1     -34.668  13.664  -4.355  1.00 20.00     0.129 C 
HETATM    8  C5  UNL     1     -33.339  14.013  -3.741  1.00 20.00     0.091 C 
HETATM    9  O8  UNL     1     -34.986  12.498  -4.586  1.00 20.00    -0.298 OA
ENDBRANCH   1   7
TORSDOF 1
ENDMDL
MODEL 9
REMARK VINA RESULT:      -4.0     11.843     12.816
REMARK  1 active torsions:
REMARK  status: ('A' for Active; 'I' for Inactive)
REMARK    1  A    between atoms: C1_1  and  C2_2 
ROOT
HETATM    1  C2  UNL     1     -34.994  15.758  -4.137  1.00 20.00     0.084 A 
HETATM    2  C3  UNL     1     -36.026  14.938  -3.401  1.00 20.00     0.018 A 
HETATM    3  C4  UNL     1     -35.613  16.295  -2.859  1.00 20.00     0.048 A 
HETATM    4  C6  UNL     1     -37.365  14.694  -4.013  1.00 20.00     0.012 C 
HETATM    5  C7  UNL     1     -36.535  17.477  -2.947  1.00 20.00     0.034 C 
HETATM    6 CL9  UNL     1     -34.650  16.259  -1.359  1.00 20.00    -0.118 Cl
ENDROOT
BRANCH   1   7
HETATM    7  C1  UNL     1     -33.601  15.292  -4.169  1.00 20.00     0.129 C 
HETATM    8  C5  UNL     1     -33.358  13.858  -3.783  1.00 20.00     0.091 C 
HETATM    9  O8  UNL     1     -32.679  16.037  -4.497  1.00 20.00    -0.298 OA
ENDBRANCH   1   7
TORSDOF 1
ENDMDL
