MODEL 1
REMARK VINA RESULT:      -5.0      0.000      0.000
REMARK  1 active torsions:
REMARK  status: ('A' for Active; 'I' for Inactive)
REMARK    1  A    between atoms: C2_2  and  C7_7 
ROOT
HETATM    1  C1  UNL     1     -34.775  13.809  -4.557  1.00 20.00     0.132 C 
HETATM    2  C3  UNL     1     -35.083  14.762  -5.694  1.00 20.00     0.084 C 
HETATM    3  C4  UNL     1     -32.948  15.112  -3.649  1.00 20.00     0.013 C 
HETATM    4  C5  UNL     1     -33.191  16.144  -4.769  1.00 20.00     0.007 C 
HETATM    5  C6  UNL     1     -34.365  14.610  -3.335  1.00 20.00     0.068 C 
HETATM    6  C7  UNL     1     -35.251  15.836  -3.568  1.00 20.00     0.088 C 
HETATM    7  C8  UNL     1     -34.722  16.088  -4.985  1.00 20.00     0.006 C 
HETATM    8  O9  UNL     1     -34.818  12.591  -4.625  1.00 20.00    -0.298 OA
ENDROOT
BRANCH   6   9
HETATM    9  C2  UNL     1     -35.027  16.960  -2.605  1.00 20.00     0.224 C 
HETATM   10  O10 UNL     1     -35.096  18.134  -2.957  1.00 20.00    -0.279 OA
HETATM   11 CL11 UNL     1     -34.674  16.388  -1.003  1.00 20.00    -0.043 Cl
ENDBRANCH   6   9
TORSDOF 1
ENDMDL
MODEL 2
REMARK VINA RESULT:      -4.8      1.964      2.604
REMARK  1 active torsions:
REMARK  status: ('A' for Active; 'I' for Inactive)
REMARK    1  A    between atoms: C2_2  and  C7_7 
ROOT
HETATM    1  C1  UNL     1     -34.559  13.618  -4.241  1.00 20.00     0.132 C 
HETATM    2  C3  UNL     1     -33.170  13.844  -3.682  1.00 20.00     0.084 C 
HETATM    3  C4  UNL     1     -35.556  15.551  -3.178  1.00 20.00     0.013 C 
HETATM    4  C5  UNL     1     -34.175  15.866  -2.567  1.00 20.00     0.007 C 
HETATM    5  C6  UNL     1     -35.195  14.962  -4.548  1.00 20.00     0.068 C 
HETATM    6  C7  UNL     1     -33.928  15.718  -4.954  1.00 20.00     0.088 C 
HETATM    7  C8  UNL     1     -33.183  15.390  -3.654  1.00 20.00     0.006 C 
HETATM    8  O9  UNL     1     -35.094  12.530  -4.389  1.00 20.00    -0.298 OA
ENDROOT
BRANCH   6   9
HETATM    9  C2  UNL     1     -34.128  17.179  -5.211  1.00 20.00     0.224 C 
HETATM   10  O10 UNL     1     -33.302  18.015  -4.858  1.00 20.00    -0.279 OA
HETATM   11 CL11 UNL     1     -35.622  17.498  -6.040  1.00 20.00    -0.043 Cl
ENDBRANCH   6   9
TORSDOF 1
ENDMDL
MODEL 3
REMARK VINA RESULT:      -4.8      1.979      3.873
REMARK  1 active torsions:
REMARK  status: ('A' for Active; 'I' for Inactive)
REMARK    1  A    between atoms: C2_2  and  C7_7 
ROOT
HETATM    1  C1  UNL     1     -35.076  16.988  -3.383  1.00 20.00     0.132 C 
HETATM    2  C3  UNL     1     -34.780  16.077  -2.210  1.00 20.00     0.084 C 
HETATM    3  C4  UNL     1     -33.313  16.126  -4.800  1.00 20.00     0.013 C 
HETATM    4  C5  UNL     1     -32.941  15.153  -3.662  1.00 20.00     0.007 C 
HETATM    5  C6  UNL     1     -34.840  16.228  -4.675  1.00 20.00     0.068 C 
HETATM    6  C7  UNL     1     -35.265  14.839  -4.194  1.00 20.00     0.088 C 
HETATM    7  C8  UNL     1     -34.303  14.836  -3.000  1.00 20.00     0.006 C 
HETATM    8  O9  UNL     1     -35.418  18.158  -3.301  1.00 20.00    -0.298 OA
ENDROOT
BRANCH   6   9
HETATM    9  C2  UNL     1     -35.039  13.739  -5.183  1.00 20.00     0.224 C 
HETATM   10  O10 UNL     1     -34.708  12.611  -4.830  1.00 20.00    -0.279 OA
HETATM   11 CL11 UNL     1     -35.303  14.267  -6.818  1.00 20.00    -0.043 Cl
ENDBRANCH   6   9
TORSDOF 1
ENDMDL
MODEL 4
REMARK VINA RESULT:      -4.8      1.899      2.258
REMARK  1 active torsions:
REMARK  status: ('A' for Active; 'I' for Inactive)
REMARK    1  A    between atoms: C2_2  and  C7_7 
ROOT
HETATM    1  C1  UNL     1     -37.049  14.652  -4.225  1.00 20.00     0.132 C 
HETATM    2  C3  UNL     1     -36.848  15.026  -5.679  1.00 20.00     0.084 C 
HETATM    3  C4  UNL     1     -34.861  13.657  -3.937  1.00 20.00     0.013 C 
HETATM    4  C5  UNL     1     -34.562  14.005  -5.410  1.00 20.00     0.007 C 
HETATM    5  C6  UNL     1     -35.738  14.831  -3.481  1.00 20.00     0.068 C 
HETATM    6  C7  UNL     1     -35.198  16.025  -4.271  1.00 20.00     0.088 C 
HETATM    7  C8  UNL     1     -35.332  15.328  -5.631  1.00 20.00     0.006 C 
HETATM    8  O9  UNL     1     -38.090  14.239  -3.738  1.00 20.00    -0.298 OA
ENDROOT
BRANCH   6   9
HETATM    9  C2  UNL     1     -33.804  16.433  -3.911  1.00 20.00     0.224 C 
HETATM   10  O10 UNL     1     -32.959  16.674  -4.769  1.00 20.00    -0.279 OA
HETATM   11 CL11 UNL     1     -33.570  16.512  -2.190  1.00 20.00    -0.043 Cl
ENDBRANCH   6   9
TORSDOF 1
ENDMDL
MODEL 5
REMARK VINA RESULT:      -4.7      2.548      3.556
REMARK  1 active torsions:
REMARK  status: ('A' for Active; 'I' for Inactive)
REMARK    1  A    between atoms: C2_2  and  C7_7 
ROOT
HETATM    1  C1  UNL     1     -33.753  15.933  -4.653  1.00 20.00     0.132 C 
HETATM    2  C3  UNL     1     -33.748  15.296  -3.279  1.00 20.00     0.084 C 
HETATM    3  C4  UNL     1     -34.787  14.055  -5.777  1.00 20.00     0.013 C 
HETATM    4  C5  UNL     1     -34.831  13.328  -4.418  1.00 20.00     0.007 C 
HETATM    5  C6  UNL     1     -35.016  15.521  -5.387  1.00 20.00     0.068 C 
HETATM    6  C7  UNL     1     -35.955  15.440  -4.181  1.00 20.00     0.088 C 
HETATM    7  C8  UNL     1     -35.053  14.474  -3.403  1.00 20.00     0.006 C 
HETATM    8  O9  UNL     1     -32.866  16.638  -5.109  1.00 20.00    -0.298 OA
ENDROOT
BRANCH   6   9
HETATM    9  C2  UNL     1     -37.322  14.912  -4.487  1.00 20.00     0.224 C 
HETATM   10  O10 UNL     1     -37.917  14.173  -3.709  1.00 20.00    -0.279 OA
HETATM   11 CL11 UNL     1     -37.908  15.472  -6.025  1.00 20.00    -0.043 Cl
ENDBRANCH   6   9
TORSDOF 1
ENDMDL
MODEL 6
REMARK VINA RESULT:      -4.6      2.192      3.246
REMARK  1 active torsions:
REMARK  status: ('A' for Active; 'I' for Inactive)
REMARK    1  A    between atoms: C2_2  and  C7_7 
ROOT
HETATM    1  C1  UNL     1     -37.136  14.670  -3.818  1.00 20.00     0.132 C 
HETATM    2  C3  UNL     1     -36.634  16.027  -3.370  1.00 20.00     0.084 C 
HETATM    3  C4  UNL     1     -35.675  14.504  -5.741  1.00 20.00     0.013 C 
HETATM    4  C5  UNL     1     -35.096  15.882  -5.359  1.00 20.00     0.007 C 
HETATM    5  C6  UNL     1     -35.973  13.870  -4.375  1.00 20.00     0.068 C 
HETATM    6  C7  UNL     1     -34.872  14.418  -3.465  1.00 20.00     0.088 C 
HETATM    7  C8  UNL     1     -35.159  15.883  -3.813  1.00 20.00     0.006 C 
HETATM    8  O9  UNL     1     -38.297  14.294  -3.770  1.00 20.00    -0.298 OA
ENDROOT
BRANCH   6   9
HETATM    9  C2  UNL     1     -33.491  13.952  -3.804  1.00 20.00     0.224 C 
HETATM   10  O10 UNL     1     -33.273  12.808  -4.192  1.00 20.00    -0.279 OA
HETATM   11 CL11 UNL     1     -32.306  15.203  -3.579  1.00 20.00    -0.043 Cl
ENDBRANCH   6   9
TORSDOF 1
ENDMDL
MODEL 7
REMARK VINA RESULT:      -4.6      2.199      3.816
REMARK  1 active torsions:
REMARK  status: ('A' for Active; 'I' for Inactive)
REMARK    1  A    between atoms: C2_2  and  C7_7 
ROOT
HETATM    1  C1  UNL     1     -33.908  16.426  -2.645  1.00 20.00     0.132 C 
HETATM    2  C3  UNL     1     -33.745  17.216  -3.927  1.00 20.00     0.084 C 
HETATM    3  C4  UNL     1     -36.095  15.544  -3.191  1.00 20.00     0.013 C 
HETATM    4  C5  UNL     1     -36.017  16.310  -4.528  1.00 20.00     0.007 C 
HETATM    5  C6  UNL     1     -34.637  15.130  -2.950  1.00 20.00     0.068 C 
HETATM    6  C7  UNL     1     -34.083  14.891  -4.356  1.00 20.00     0.088 C 
HETATM    7  C8  UNL     1     -34.511  16.268  -4.879  1.00 20.00     0.006 C 
HETATM    8  O9  UNL     1     -33.541  16.790  -1.538  1.00 20.00    -0.298 OA
ENDROOT
BRANCH   6   9
HETATM    9  C2  UNL     1     -34.691  13.730  -5.078  1.00 20.00     0.224 C 
HETATM   10  O10 UNL     1     -34.917  12.664  -4.512  1.00 20.00    -0.279 OA
HETATM   11 CL11 UNL     1     -35.014  14.094  -6.747  1.00 20.00    -0.043 Cl
ENDBRANCH   6   9
TORSDOF 1
ENDMDL
MODEL 8
REMARK VINA RESULT:      -4.6      2.221      3.003
REMARK  1 active torsions:
REMARK  status: ('A' for Active; 'I' for Inactive)
REMARK    1  A    between atoms: C2_2  and  C7_7 
ROOT
HETATM    1  C1  UNL     1     -33.299  14.749  -3.822  1.00 20.00     0.132 C 
HETATM    2  C3  UNL     1     -33.645  13.280  -3.949  1.00 20.00     0.084 C 
HETATM    3  C4  UNL     1     -34.790  15.493  -5.577  1.00 20.00     0.013 C 
HETATM    4  C5  UNL     1     -35.212  14.023  -5.776  1.00 20.00     0.007 C 
HETATM    5  C6  UNL     1     -34.548  15.577  -4.064  1.00 20.00     0.068 C 
HETATM    6  C7  UNL     1     -35.572  14.607  -3.471  1.00 20.00     0.088 C 
HETATM    7  C8  UNL     1     -35.132  13.430  -4.349  1.00 20.00     0.006 C 
HETATM    8  O9  UNL     1     -32.185  15.196  -3.596  1.00 20.00    -0.298 OA
ENDROOT
BRANCH   6   9
HETATM    9  C2  UNL     1     -37.000  15.021  -3.648  1.00 20.00     0.224 C 
HETATM   10  O10 UNL     1     -37.893  14.199  -3.825  1.00 20.00    -0.279 OA
HETATM   11 CL11 UNL     1     -37.194  16.747  -3.570  1.00 20.00    -0.043 Cl
ENDBRANCH   6   9
TORSDOF 1
ENDMDL
MODEL 9
REMARK VINA RESULT:      -4.4      2.736      3.429
REMARK  1 active torsions:
REMARK  status: ('A' for Active; 'I' for Inactive)
REMARK    1  A    between atoms: C2_2  and  C7_7 
ROOT
HETATM    1  C1  UNL     1     -33.416  13.862  -3.912  1.00 20.00     0.132 C 
HETATM    2  C3  UNL     1     -33.403  15.260  -3.330  1.00 20.00     0.084 C 
HETATM    3  C4  UNL     1     -35.809  13.778  -4.265  1.00 20.00     0.013 C 
HETATM    4  C5  UNL     1     -35.895  15.208  -3.691  1.00 20.00     0.007 C 
HETATM    5  C6  UNL     1     -34.465  13.790  -5.007  1.00 20.00     0.068 C 
HETATM    6  C7  UNL     1     -34.341  15.223  -5.526  1.00 20.00     0.088 C 
HETATM    7  C8  UNL     1     -34.569  15.860  -4.150  1.00 20.00     0.006 C 
HETATM    8  O9  UNL     1     -32.717  12.933  -3.538  1.00 20.00    -0.298 OA
ENDROOT
BRANCH   6   9
HETATM    9  C2  UNL     1     -35.349  15.601  -6.566  1.00 20.00     0.224 C 
HETATM   10  O10 UNL     1     -35.926  16.684  -6.543  1.00 20.00    -0.279 OA
HETATM   11 CL11 UNL     1     -35.568  14.346  -7.748  1.00 20.00    -0.043 Cl
ENDBRANCH   6   9
TORSDOF 1
ENDMDL
