MODEL 1
REMARK VINA RESULT:      -5.3      0.000      0.000
REMARK  1 active torsions:
REMARK  status: ('A' for Active; 'I' for Inactive)
REMARK    1  A    between atoms: C8_8  and  O11_11 
ROOT
HETATM    1  C1  UNL     1     -33.488  15.509  -3.394  1.00 20.00     0.005 C 
HETATM    2  C2  UNL     1     -33.767  14.194  -3.457  1.00 20.00     0.005 C 
HETATM    3  C3  UNL     1     -33.639  16.410  -4.533  1.00 20.00    -0.063 C 
HETATM    4  C4  UNL     1     -33.507  17.737  -4.391  1.00 20.00     0.019 C 
HETATM    5  C5  UNL     1     -35.191  15.399  -7.886  1.00 20.00     0.001 C 
HETATM    6  C6  UNL     1     -34.606  16.494  -6.982  1.00 20.00     0.010 C 
HETATM    7  C7  UNL     1     -35.187  14.102  -7.064  1.00 20.00     0.008 C 
HETATM    8  C8  UNL     1     -34.320  13.520  -4.690  1.00 20.00     0.145 C 
HETATM    9  C9  UNL     1     -33.924  15.726  -5.849  1.00 20.00     0.024 C 
HETATM   10  C10 UNL     1     -34.902  14.565  -5.641  1.00 20.00     0.026 C 
ENDROOT
BRANCH   8  11
HETATM   11  O11 UNL     1     -35.346  12.617  -4.295  1.00 20.00    -0.391 OA
HETATM   12  H25 UNL     1     -36.069  13.156  -3.936  1.00 20.00     0.210 HD
ENDBRANCH   8  11
TORSDOF 1
ENDMDL
MODEL 2
REMARK VINA RESULT:      -5.0      2.618      4.090
REMARK  1 active torsions:
REMARK  status: ('A' for Active; 'I' for Inactive)
REMARK    1  A    between atoms: C8_8  and  O11_11 
ROOT
HETATM    1  C1  UNL     1     -35.048  13.573  -4.360  1.00 20.00     0.005 C 
HETATM    2  C2  UNL     1     -33.717  13.598  -4.162  1.00 20.00     0.005 C 
HETATM    3  C3  UNL     1     -35.958  14.552  -3.773  1.00 20.00    -0.063 C 
HETATM    4  C4  UNL     1     -37.252  14.593  -4.121  1.00 20.00     0.019 C 
HETATM    5  C5  UNL     1     -34.823  17.648  -1.824  1.00 20.00     0.001 C 
HETATM    6  C6  UNL     1     -35.962  16.828  -2.447  1.00 20.00     0.010 C 
HETATM    7  C7  UNL     1     -33.518  16.910  -2.155  1.00 20.00     0.008 C 
HETATM    8  C8  UNL     1     -33.016  14.671  -3.364  1.00 20.00     0.145 C 
HETATM    9  C9  UNL     1     -35.329  15.470  -2.752  1.00 20.00     0.024 C 
HETATM   10  C10 UNL     1     -33.927  15.887  -3.208  1.00 20.00     0.026 C 
ENDROOT
BRANCH   8  11
HETATM   11  O11 UNL     1     -31.831  15.053  -4.054  1.00 20.00    -0.391 OA
HETATM   12  H25 UNL     1     -32.115  15.494  -4.870  1.00 20.00     0.210 HD
ENDBRANCH   8  11
TORSDOF 1
ENDMDL
MODEL 3
REMARK VINA RESULT:      -4.9      2.229      2.803
REMARK  1 active torsions:
REMARK  status: ('A' for Active; 'I' for Inactive)
REMARK    1  A    between atoms: C8_8  and  O11_11 
ROOT
HETATM    1  C1  UNL     1     -33.237  15.193  -3.186  1.00 20.00     0.005 C 
HETATM    2  C2  UNL     1     -33.610  14.113  -3.895  1.00 20.00     0.005 C 
HETATM    3  C3  UNL     1     -34.156  16.275  -2.842  1.00 20.00    -0.063 C 
HETATM    4  C4  UNL     1     -33.793  17.253  -2.000  1.00 20.00     0.019 C 
HETATM    5  C5  UNL     1     -37.924  16.198  -3.527  1.00 20.00     0.001 C 
HETATM    6  C6  UNL     1     -36.713  16.908  -2.906  1.00 20.00     0.010 C 
HETATM    7  C7  UNL     1     -37.402  14.890  -4.137  1.00 20.00     0.008 C 
HETATM    8  C8  UNL     1     -35.027  13.872  -4.361  1.00 20.00     0.145 C 
HETATM    9  C9  UNL     1     -35.503  16.203  -3.521  1.00 20.00     0.024 C 
HETATM   10  C10 UNL     1     -35.994  14.752  -3.571  1.00 20.00     0.026 C 
ENDROOT
BRANCH   8  11
HETATM   11  O11 UNL     1     -35.351  12.503  -4.148  1.00 20.00    -0.391 OA
HETATM   12  H25 UNL     1     -36.315  12.430  -4.227  1.00 20.00     0.210 HD
ENDBRANCH   8  11
TORSDOF 1
ENDMDL
MODEL 4
REMARK VINA RESULT:      -4.9     12.074     13.814
REMARK  1 active torsions:
REMARK  status: ('A' for Active; 'I' for Inactive)
REMARK    1  A    between atoms: C8_8  and  O11_11 
ROOT
HETATM    1  C1  UNL     1     -33.686   5.623   2.508  1.00 20.00     0.005 C 
HETATM    2  C2  UNL     1     -34.684   4.849   2.972  1.00 20.00     0.005 C 
HETATM    3  C3  UNL     1     -33.006   6.621   3.329  1.00 20.00    -0.063 C 
HETATM    4  C4  UNL     1     -31.913   7.258   2.885  1.00 20.00     0.019 C 
HETATM    5  C5  UNL     1     -33.597   7.082   7.086  1.00 20.00     0.001 C 
HETATM    6  C6  UNL     1     -32.815   7.460   5.819  1.00 20.00     0.010 C 
HETATM    7  C7  UNL     1     -34.590   5.985   6.679  1.00 20.00     0.008 C 
HETATM    8  C8  UNL     1     -35.169   4.886   4.402  1.00 20.00     0.145 C 
HETATM    9  C9  UNL     1     -33.644   6.877   4.674  1.00 20.00     0.024 C 
HETATM   10  C10 UNL     1     -34.126   5.560   5.291  1.00 20.00     0.026 C 
ENDROOT
BRANCH   8  11
HETATM   11  O11 UNL     1     -35.379   3.551   4.847  1.00 20.00    -0.391 OA
HETATM   12  H25 UNL     1     -34.579   3.052   4.617  1.00 20.00     0.210 HD
ENDBRANCH   8  11
TORSDOF 1
ENDMDL
MODEL 5
REMARK VINA RESULT:      -4.6      1.031      3.107
REMARK  1 active torsions:
REMARK  status: ('A' for Active; 'I' for Inactive)
REMARK    1  A    between atoms: C8_8  and  O11_11 
ROOT
HETATM    1  C1  UNL     1     -34.916  15.426  -7.063  1.00 20.00     0.005 C 
HETATM    2  C2  UNL     1     -35.240  14.239  -6.519  1.00 20.00     0.005 C 
HETATM    3  C3  UNL     1     -34.499  16.578  -6.268  1.00 20.00    -0.063 C 
HETATM    4  C4  UNL     1     -34.029  17.690  -6.850  1.00 20.00     0.019 C 
HETATM    5  C5  UNL     1     -33.861  16.469  -2.492  1.00 20.00     0.001 C 
HETATM    6  C6  UNL     1     -33.827  17.253  -3.811  1.00 20.00     0.010 C 
HETATM    7  C7  UNL     1     -34.348  15.054  -2.834  1.00 20.00     0.008 C 
HETATM    8  C8  UNL     1     -35.152  13.950  -5.039  1.00 20.00     0.145 C 
HETATM    9  C9  UNL     1     -34.663  16.411  -4.776  1.00 20.00     0.024 C 
HETATM   10  C10 UNL     1     -34.269  14.991  -4.355  1.00 20.00     0.026 C 
ENDROOT
BRANCH   8  11
HETATM   11  O11 UNL     1     -34.586  12.657  -4.860  1.00 20.00    -0.391 OA
HETATM   12  H25 UNL     1     -35.196  12.163  -4.288  1.00 20.00     0.210 HD
ENDBRANCH   8  11
TORSDOF 1
ENDMDL
MODEL 6
REMARK VINA RESULT:      -4.6      1.488      3.092
REMARK  1 active torsions:
REMARK  status: ('A' for Active; 'I' for Inactive)
REMARK    1  A    between atoms: C8_8  and  O11_11 
ROOT
HETATM    1  C1  UNL     1     -34.831  13.498  -5.685  1.00 20.00     0.005 C 
HETATM    2  C2  UNL     1     -34.135  13.686  -4.549  1.00 20.00     0.005 C 
HETATM    3  C3  UNL     1     -35.177  14.587  -6.595  1.00 20.00    -0.063 C 
HETATM    4  C4  UNL     1     -35.727  14.343  -7.793  1.00 20.00     0.019 C 
HETATM    5  C5  UNL     1     -33.924  18.188  -6.217  1.00 20.00     0.001 C 
HETATM    6  C6  UNL     1     -34.696  17.140  -7.033  1.00 20.00     0.010 C 
HETATM    7  C7  UNL     1     -33.358  17.459  -4.990  1.00 20.00     0.008 C 
HETATM    8  C8  UNL     1     -33.588  15.026  -4.120  1.00 20.00     0.145 C 
HETATM    9  C9  UNL     1     -34.888  15.971  -6.065  1.00 20.00     0.024 C 
HETATM   10  C10 UNL     1     -33.554  15.982  -5.311  1.00 20.00     0.026 C 
ENDROOT
BRANCH   8  11
HETATM   11  O11 UNL     1     -32.268  14.843  -3.622  1.00 20.00    -0.391 OA
HETATM   12  H25 UNL     1     -32.345  14.292  -2.827  1.00 20.00     0.210 HD
ENDBRANCH   8  11
TORSDOF 1
ENDMDL
MODEL 7
REMARK VINA RESULT:      -4.6      2.605      4.066
REMARK  1 active torsions:
REMARK  status: ('A' for Active; 'I' for Inactive)
REMARK    1  A    between atoms: C8_8  and  O11_11 
ROOT
HETATM    1  C1  UNL     1     -35.095  13.613  -4.212  1.00 20.00     0.005 C 
HETATM    2  C2  UNL     1     -36.379  14.014  -4.232  1.00 20.00     0.005 C 
HETATM    3  C3  UNL     1     -34.020  14.415  -3.636  1.00 20.00    -0.063 C 
HETATM    4  C4  UNL     1     -32.784  13.916  -3.488  1.00 20.00     0.019 C 
HETATM    5  C5  UNL     1     -34.566  17.684  -1.714  1.00 20.00     0.001 C 
HETATM    6  C6  UNL     1     -33.608  16.588  -2.204  1.00 20.00     0.010 C 
HETATM    7  C7  UNL     1     -35.972  17.277  -2.177  1.00 20.00     0.008 C 
HETATM    8  C8  UNL     1     -36.856  15.305  -3.611  1.00 20.00     0.145 C 
HETATM    9  C9  UNL     1     -34.413  15.822  -3.255  1.00 20.00     0.024 C 
HETATM   10  C10 UNL     1     -35.811  15.831  -2.628  1.00 20.00     0.026 C 
ENDROOT
BRANCH   8  11
HETATM   11  O11 UNL     1     -38.074  15.055  -2.917  1.00 20.00    -0.391 OA
HETATM   12  H25 UNL     1     -38.719  14.768  -3.583  1.00 20.00     0.210 HD
ENDBRANCH   8  11
TORSDOF 1
ENDMDL
MODEL 8
REMARK VINA RESULT:      -4.6      1.814      2.953
REMARK  1 active torsions:
REMARK  status: ('A' for Active; 'I' for Inactive)
REMARK    1  A    between atoms: C8_8  and  O11_11 
ROOT
HETATM    1  C1  UNL     1     -33.807  18.112  -3.946  1.00 20.00     0.005 C 
HETATM    2  C2  UNL     1     -33.832  17.645  -2.684  1.00 20.00     0.005 C 
HETATM    3  C3  UNL     1     -33.888  17.244  -5.117  1.00 20.00    -0.063 C 
HETATM    4  C4  UNL     1     -34.024  17.753  -6.350  1.00 20.00     0.019 C 
HETATM    5  C5  UNL     1     -34.546  13.474  -4.960  1.00 20.00     0.001 C 
HETATM    6  C6  UNL     1     -34.353  14.744  -5.802  1.00 20.00     0.010 C 
HETATM    7  C7  UNL     1     -34.474  13.907  -3.489  1.00 20.00     0.008 C 
HETATM    8  C8  UNL     1     -34.003  16.185  -2.342  1.00 20.00     0.145 C 
HETATM    9  C9  UNL     1     -33.783  15.768  -4.820  1.00 20.00     0.024 C 
HETATM   10  C10 UNL     1     -34.562  15.427  -3.545  1.00 20.00     0.026 C 
ENDROOT
BRANCH   8  11
HETATM   11  O11 UNL     1     -34.911  16.075  -1.251  1.00 20.00    -0.391 OA
HETATM   12  H25 UNL     1     -35.698  16.590  -1.491  1.00 20.00     0.210 HD
ENDBRANCH   8  11
TORSDOF 1
ENDMDL
MODEL 9
REMARK VINA RESULT:      -4.6      1.280      2.399
REMARK  1 active torsions:
REMARK  status: ('A' for Active; 'I' for Inactive)
REMARK    1  A    between atoms: C8_8  and  O11_11 
ROOT
HETATM    1  C1  UNL     1     -34.452  14.298  -3.316  1.00 20.00     0.005 C 
HETATM    2  C2  UNL     1     -34.570  13.731  -4.530  1.00 20.00     0.005 C 
HETATM    3  C3  UNL     1     -34.102  15.702  -3.124  1.00 20.00    -0.063 C 
HETATM    4  C4  UNL     1     -34.152  16.271  -1.911  1.00 20.00     0.019 C 
HETATM    5  C5  UNL     1     -33.773  18.246  -5.969  1.00 20.00     0.001 C 
HETATM    6  C6  UNL     1     -33.776  17.947  -4.462  1.00 20.00     0.010 C 
HETATM    7  C7  UNL     1     -34.070  16.919  -6.681  1.00 20.00     0.008 C 
HETATM    8  C8  UNL     1     -34.412  14.495  -5.823  1.00 20.00     0.145 C 
HETATM    9  C9  UNL     1     -33.669  16.424  -4.377  1.00 20.00     0.024 C 
HETATM   10  C10 UNL     1     -34.539  15.995  -5.563  1.00 20.00     0.026 C 
ENDROOT
BRANCH   8  11
HETATM   11  O11 UNL     1     -35.432  14.083  -6.725  1.00 20.00    -0.391 OA
HETATM   12  H25 UNL     1     -35.632  14.848  -7.287  1.00 20.00     0.210 HD
ENDBRANCH   8  11
TORSDOF 1
ENDMDL
