MODEL 1
REMARK VINA RESULT:      -5.9      0.000      0.000
REMARK  0 active torsions:
REMARK  status: ('A' for Active; 'I' for Inactive)
ROOT
HETATM    1  C1  UNL     1     -33.382   6.585   5.467  1.00 20.00     0.012 C 
HETATM    2  C2  UNL     1     -33.915   6.717   4.041  1.00 20.00     0.077 C 
HETATM    3  C3  UNL     1     -34.420   5.956   6.393  1.00 20.00     0.082 C 
HETATM    4  C4  UNL     1     -35.004   4.386   4.502  1.00 20.00     0.264 A 
HETATM    5  C5  UNL     1     -34.551   5.457   3.546  1.00 20.00     0.237 A 
HETATM    6  C6  UNL     1     -34.737   4.533   5.957  1.00 20.00     0.274 C 
HETATM    7  O7  UNL     1     -35.929   5.318   3.941  1.00 20.00    -0.332 OA
HETATM    8  F8  UNL     1     -34.250   5.062   2.250  1.00 20.00    -0.209 F 
HETATM    9  F9  UNL     1     -35.803   4.072   6.662  1.00 20.00    -0.203 F 
HETATM   10  F10 UNL     1     -33.688   3.730   6.283  1.00 20.00    -0.203 F 
ENDROOT
TORSDOF 0
ENDMDL
MODEL 2
REMARK VINA RESULT:      -5.2      1.189      3.165
REMARK  0 active torsions:
REMARK  status: ('A' for Active; 'I' for Inactive)
ROOT
HETATM    1  C1  UNL     1     -33.958   6.802   5.509  1.00 20.00     0.012 C 
HETATM    2  C2  UNL     1     -34.099   5.678   6.536  1.00 20.00     0.077 C 
HETATM    3  C3  UNL     1     -33.618   6.251   4.126  1.00 20.00     0.082 C 
HETATM    4  C4  UNL     1     -35.254   4.381   4.582  1.00 20.00     0.264 A 
HETATM    5  C5  UNL     1     -34.966   4.560   6.049  1.00 20.00     0.237 A 
HETATM    6  C6  UNL     1     -34.749   5.378   3.602  1.00 20.00     0.274 C 
HETATM    7  O7  UNL     1     -34.258   3.598   5.242  1.00 20.00    -0.332 OA
HETATM    8  F8  UNL     1     -35.889   4.038   6.943  1.00 20.00    -0.209 F 
HETATM    9  F9  UNL     1     -34.340   4.739   2.475  1.00 20.00    -0.203 F 
HETATM   10  F10 UNL     1     -35.786   6.178   3.233  1.00 20.00    -0.203 F 
ENDROOT
TORSDOF 0
ENDMDL
MODEL 3
REMARK VINA RESULT:      -5.1      1.992      2.961
REMARK  0 active torsions:
REMARK  status: ('A' for Active; 'I' for Inactive)
ROOT
HETATM    1  C1  UNL     1     -33.554   6.571   3.610  1.00 20.00     0.012 C 
HETATM    2  C2  UNL     1     -33.034   6.928   5.002  1.00 20.00     0.077 C 
HETATM    3  C3  UNL     1     -33.970   5.104   3.532  1.00 20.00     0.082 C 
HETATM    4  C4  UNL     1     -34.954   5.367   5.843  1.00 20.00     0.264 A 
HETATM    5  C5  UNL     1     -33.938   6.448   6.094  1.00 20.00     0.237 A 
HETATM    6  C6  UNL     1     -35.134   4.824   4.471  1.00 20.00     0.274 C 
HETATM    7  O7  UNL     1     -33.704   5.077   6.468  1.00 20.00    -0.332 OA
HETATM    8  F8  UNL     1     -34.192   7.326   7.138  1.00 20.00    -0.209 F 
HETATM    9  F9  UNL     1     -35.348   3.485   4.537  1.00 20.00    -0.203 F 
HETATM   10  F10 UNL     1     -36.264   5.366   3.941  1.00 20.00    -0.203 F 
ENDROOT
TORSDOF 0
ENDMDL
MODEL 4
REMARK VINA RESULT:      -5.0      1.878      2.655
REMARK  0 active torsions:
REMARK  status: ('A' for Active; 'I' for Inactive)
ROOT
HETATM    1  C1  UNL     1     -35.033   4.247   6.151  1.00 20.00     0.012 C 
HETATM    2  C2  UNL     1     -35.250   4.148   4.641  1.00 20.00     0.077 C 
HETATM    3  C3  UNL     1     -33.744   4.996   6.479  1.00 20.00     0.082 C 
HETATM    4  C4  UNL     1     -34.311   6.588   4.601  1.00 20.00     0.264 A 
HETATM    5  C5  UNL     1     -35.063   5.460   3.946  1.00 20.00     0.237 A 
HETATM    6  C6  UNL     1     -33.821   6.437   5.997  1.00 20.00     0.274 C 
HETATM    7  O7  UNL     1     -33.688   5.749   3.628  1.00 20.00    -0.332 OA
HETATM    8  F8  UNL     1     -35.994   5.801   2.975  1.00 20.00    -0.209 F 
HETATM    9  F9  UNL     1     -32.598   7.017   6.113  1.00 20.00    -0.203 F 
HETATM   10  F10 UNL     1     -34.653   7.131   6.820  1.00 20.00    -0.203 F 
ENDROOT
TORSDOF 0
ENDMDL
MODEL 5
REMARK VINA RESULT:      -4.6      1.577      3.556
REMARK  0 active torsions:
REMARK  status: ('A' for Active; 'I' for Inactive)
ROOT
HETATM    1  C1  UNL     1     -35.325   4.182   4.290  1.00 20.00     0.012 C 
HETATM    2  C2  UNL     1     -35.210   4.213   5.814  1.00 20.00     0.077 C 
HETATM    3  C3  UNL     1     -35.270   5.589   3.700  1.00 20.00     0.082 C 
HETATM    4  C4  UNL     1     -33.469   6.117   5.391  1.00 20.00     0.264 A 
HETATM    5  C5  UNL     1     -34.082   5.074   6.288  1.00 20.00     0.237 A 
HETATM    6  C6  UNL     1     -33.923   6.238   3.981  1.00 20.00     0.274 C 
HETATM    7  O7  UNL     1     -34.431   6.469   6.386  1.00 20.00    -0.332 OA
HETATM    8  F8  UNL     1     -33.289   4.575   7.311  1.00 20.00    -0.209 F 
HETATM    9  F9  UNL     1     -33.973   7.550   3.631  1.00 20.00    -0.203 F 
HETATM   10  F10 UNL     1     -32.985   5.665   3.179  1.00 20.00    -0.203 F 
ENDROOT
TORSDOF 0
ENDMDL
MODEL 6
REMARK VINA RESULT:      -4.5      1.683      2.432
REMARK  0 active torsions:
REMARK  status: ('A' for Active; 'I' for Inactive)
ROOT
HETATM    1  C1  UNL     1     -35.785   5.066   4.052  1.00 20.00     0.012 C 
HETATM    2  C2  UNL     1     -34.775   5.651   3.065  1.00 20.00     0.077 C 
HETATM    3  C3  UNL     1     -35.087   4.322   5.188  1.00 20.00     0.082 C 
HETATM    4  C4  UNL     1     -33.370   6.176   5.206  1.00 20.00     0.264 A 
HETATM    5  C5  UNL     1     -33.670   6.394   3.747  1.00 20.00     0.237 A 
HETATM    6  C6  UNL     1     -34.237   5.278   6.014  1.00 20.00     0.274 C 
HETATM    7  O7  UNL     1     -32.595   5.542   4.188  1.00 20.00    -0.332 OA
HETATM    8  F8  UNL     1     -33.292   7.611   3.199  1.00 20.00    -0.209 F 
HETATM    9  F9  UNL     1     -33.471   4.566   6.880  1.00 20.00    -0.203 F 
HETATM   10  F10 UNL     1     -35.060   6.049   6.775  1.00 20.00    -0.203 F 
ENDROOT
TORSDOF 0
ENDMDL
MODEL 7
REMARK VINA RESULT:      -4.5     12.894     13.295
REMARK  0 active torsions:
REMARK  status: ('A' for Active; 'I' for Inactive)
ROOT
HETATM    1  C1  UNL     1     -35.107  16.357  -2.938  1.00 20.00     0.012 C 
HETATM    2  C2  UNL     1     -36.013  15.168  -3.257  1.00 20.00     0.077 C 
HETATM    3  C3  UNL     1     -33.691  15.900  -2.596  1.00 20.00     0.082 C 
HETATM    4  C4  UNL     1     -33.900  14.202  -4.455  1.00 20.00     0.264 A 
HETATM    5  C5  UNL     1     -35.387  14.210  -4.221  1.00 20.00     0.237 A 
HETATM    6  C6  UNL     1     -33.042  15.219  -3.792  1.00 20.00     0.274 C 
HETATM    7  O7  UNL     1     -34.518  13.250  -3.589  1.00 20.00    -0.332 OA
HETATM    8  F8  UNL     1     -36.190  13.721  -5.241  1.00 20.00    -0.209 F 
HETATM    9  F9  UNL     1     -31.874  14.644  -3.404  1.00 20.00    -0.203 F 
HETATM   10  F10 UNL     1     -32.714  16.167  -4.711  1.00 20.00    -0.203 F 
ENDROOT
TORSDOF 0
ENDMDL
MODEL 8
REMARK VINA RESULT:      -4.5     12.617     13.754
REMARK  0 active torsions:
REMARK  status: ('A' for Active; 'I' for Inactive)
ROOT
HETATM    1  C1  UNL     1     -34.310  16.195  -5.799  1.00 20.00     0.012 C 
HETATM    2  C2  UNL     1     -33.279  16.482  -4.708  1.00 20.00     0.077 C 
HETATM    3  C3  UNL     1     -34.395  14.701  -6.103  1.00 20.00     0.082 C 
HETATM    4  C4  UNL     1     -34.194  14.289  -3.619  1.00 20.00     0.264 A 
HETATM    5  C5  UNL     1     -33.433  15.584  -3.521  1.00 20.00     0.237 A 
HETATM    6  C6  UNL     1     -34.885  13.931  -4.885  1.00 20.00     0.274 C 
HETATM    7  O7  UNL     1     -32.767  14.315  -3.675  1.00 20.00    -0.332 OA
HETATM    8  F8  UNL     1     -33.338  16.169  -2.267  1.00 20.00    -0.209 F 
HETATM    9  F9  UNL     1     -34.755  12.598  -5.112  1.00 20.00    -0.203 F 
HETATM   10  F10 UNL     1     -36.216  14.164  -4.727  1.00 20.00    -0.203 F 
ENDROOT
TORSDOF 0
ENDMDL
MODEL 9
REMARK VINA RESULT:      -4.5     12.643     14.353
REMARK  0 active torsions:
REMARK  status: ('A' for Active; 'I' for Inactive)
ROOT
HETATM    1  C1  UNL     1     -34.857  13.409  -4.990  1.00 20.00     0.012 C 
HETATM    2  C2  UNL     1     -34.045  13.626  -3.713  1.00 20.00     0.077 C 
HETATM    3  C3  UNL     1     -35.475  14.715  -5.485  1.00 20.00     0.082 C 
HETATM    4  C4  UNL     1     -33.307  15.854  -4.864  1.00 20.00     0.264 A 
HETATM    5  C5  UNL     1     -33.110  14.790  -3.818  1.00 20.00     0.237 A 
HETATM    6  C6  UNL     1     -34.390  15.710  -5.872  1.00 20.00     0.274 C 
HETATM    7  O7  UNL     1     -33.734  16.053  -3.516  1.00 20.00    -0.332 OA
HETATM    8  F8  UNL     1     -31.825  14.617  -3.326  1.00 20.00    -0.209 F 
HETATM    9  F9  UNL     1     -34.954  16.922  -6.109  1.00 20.00    -0.203 F 
HETATM   10  F10 UNL     1     -33.831  15.312  -7.047  1.00 20.00    -0.203 F 
ENDROOT
TORSDOF 0
ENDMDL
