MODEL 1
REMARK VINA RESULT:      -4.3      0.000      0.000
REMARK  1 active torsions:
REMARK  status: ('A' for Active; 'I' for Inactive)
REMARK    1  A    between atoms: C1_1  and  C2_2 
ROOT
HETATM    1  C2  UNL     1     -34.755  15.020  -3.369  1.00 20.00     0.084 A 
HETATM    2  C3  UNL     1     -33.946  15.936  -2.483  1.00 20.00     0.018 A 
HETATM    3  C4  UNL     1     -34.366  16.406  -3.861  1.00 20.00     0.048 A 
HETATM    4  C6  UNL     1     -34.540  16.473  -1.226  1.00 20.00     0.012 C 
HETATM    5  C7  UNL     1     -33.303  16.575  -4.908  1.00 20.00     0.034 C 
HETATM    6 CL9  UNL     1     -35.696  17.581  -4.008  1.00 20.00    -0.118 Cl
ENDROOT
BRANCH   1   7
HETATM    7  C1  UNL     1     -34.118  13.820  -3.928  1.00 20.00     0.129 C 
HETATM    8  C5  UNL     1     -34.817  13.160  -5.086  1.00 20.00     0.091 C 
HETATM    9  O8  UNL     1     -33.064  13.378  -3.474  1.00 20.00    -0.298 OA
ENDBRANCH   1   7
TORSDOF 1
ENDMDL
MODEL 2
REMARK VINA RESULT:      -4.2     11.890     12.601
REMARK  1 active torsions:
REMARK  status: ('A' for Active; 'I' for Inactive)
REMARK    1  A    between atoms: C1_1  and  C2_2 
ROOT
HETATM    1  C2  UNL     1     -33.035   5.784   4.493  1.00 20.00     0.084 A 
HETATM    2  C3  UNL     1     -33.955   6.720   5.239  1.00 20.00     0.018 A 
HETATM    3  C4  UNL     1     -34.506   5.432   4.661  1.00 20.00     0.048 A 
HETATM    4  C6  UNL     1     -33.769   6.940   6.702  1.00 20.00     0.012 C 
HETATM    5  C7  UNL     1     -35.451   5.523   3.499  1.00 20.00     0.034 C 
HETATM    6 CL9  UNL     1     -34.861   4.073   5.757  1.00 20.00    -0.118 Cl
ENDROOT
BRANCH   1   7
HETATM    7  C1  UNL     1     -32.507   6.191   3.185  1.00 20.00     0.129 C 
HETATM    8  C5  UNL     1     -32.311   7.667   2.963  1.00 20.00     0.091 C 
HETATM    9  O8  UNL     1     -32.234   5.367   2.314  1.00 20.00    -0.298 OA
ENDBRANCH   1   7
TORSDOF 1
ENDMDL
MODEL 3
REMARK VINA RESULT:      -4.1      1.694      2.458
REMARK  1 active torsions:
REMARK  status: ('A' for Active; 'I' for Inactive)
REMARK    1  A    between atoms: C1_1  and  C2_2 
ROOT
HETATM    1  C2  UNL     1     -34.242  14.850  -4.266  1.00 20.00     0.084 A 
HETATM    2  C3  UNL     1     -34.616  16.277  -4.590  1.00 20.00     0.018 A 
HETATM    3  C4  UNL     1     -35.220  15.602  -3.375  1.00 20.00     0.048 A 
HETATM    4  C6  UNL     1     -33.592  17.355  -4.495  1.00 20.00     0.012 C 
HETATM    5  C7  UNL     1     -36.685  15.273  -3.400  1.00 20.00     0.034 C 
HETATM    6 CL9  UNL     1     -34.620  16.036  -1.755  1.00 20.00    -0.118 Cl
ENDROOT
BRANCH   1   7
HETATM    7  C1  UNL     1     -34.708  13.771  -5.147  1.00 20.00     0.129 C 
HETATM    8  C5  UNL     1     -35.069  14.155  -6.557  1.00 20.00     0.091 C 
HETATM    9  O8  UNL     1     -34.796  12.609  -4.752  1.00 20.00    -0.298 OA
ENDBRANCH   1   7
TORSDOF 1
ENDMDL
MODEL 4
REMARK VINA RESULT:      -3.9      2.404      2.752
REMARK  1 active torsions:
REMARK  status: ('A' for Active; 'I' for Inactive)
REMARK    1  A    between atoms: C1_1  and  C2_2 
ROOT
HETATM    1  C2  UNL     1     -35.731  15.675  -3.980  1.00 20.00     0.084 A 
HETATM    2  C3  UNL     1     -35.093  15.236  -2.684  1.00 20.00     0.018 A 
HETATM    3  C4  UNL     1     -34.377  14.980  -3.995  1.00 20.00     0.048 A 
HETATM    4  C6  UNL     1     -34.637  16.255  -1.696  1.00 20.00     0.012 C 
HETATM    5  C7  UNL     1     -34.251  13.562  -4.470  1.00 20.00     0.034 C 
HETATM    6 CL9  UNL     1     -32.985  16.000  -4.436  1.00 20.00    -0.118 Cl
ENDROOT
BRANCH   1   7
HETATM    7  C1  UNL     1     -36.935  14.980  -4.455  1.00 20.00     0.129 C 
HETATM    8  C5  UNL     1     -37.356  15.250  -5.875  1.00 20.00     0.091 C 
HETATM    9  O8  UNL     1     -37.566  14.214  -3.730  1.00 20.00    -0.298 OA
ENDBRANCH   1   7
TORSDOF 1
ENDMDL
MODEL 5
REMARK VINA RESULT:      -3.8      2.206      3.429
REMARK  1 active torsions:
REMARK  status: ('A' for Active; 'I' for Inactive)
REMARK    1  A    between atoms: C1_1  and  C2_2 
ROOT
HETATM    1  C2  UNL     1     -33.593  16.203  -3.348  1.00 20.00     0.084 A 
HETATM    2  C3  UNL     1     -34.369  14.913  -3.467  1.00 20.00     0.018 A 
HETATM    3  C4  UNL     1     -34.601  16.022  -4.474  1.00 20.00     0.048 A 
HETATM    4  C6  UNL     1     -33.659  13.646  -3.804  1.00 20.00     0.012 C 
HETATM    5  C7  UNL     1     -35.917  16.743  -4.445  1.00 20.00     0.034 C 
HETATM    6 CL9  UNL     1     -33.918  15.863  -6.111  1.00 20.00    -0.118 Cl
ENDROOT
BRANCH   1   7
HETATM    7  C1  UNL     1     -33.877  17.108  -2.226  1.00 20.00     0.129 C 
HETATM    8  C5  UNL     1     -34.592  16.514  -1.042  1.00 20.00     0.091 C 
HETATM    9  O8  UNL     1     -33.545  18.292  -2.252  1.00 20.00    -0.298 OA
ENDBRANCH   1   7
TORSDOF 1
ENDMDL
MODEL 6
REMARK VINA RESULT:      -3.8      2.154      2.558
REMARK  1 active torsions:
REMARK  status: ('A' for Active; 'I' for Inactive)
REMARK    1  A    between atoms: C1_1  and  C2_2 
ROOT
HETATM    1  C2  UNL     1     -35.502  14.827  -4.666  1.00 20.00     0.084 A 
HETATM    2  C3  UNL     1     -34.860  16.176  -4.883  1.00 20.00     0.018 A 
HETATM    3  C4  UNL     1     -35.462  15.435  -6.060  1.00 20.00     0.048 A 
HETATM    4  C6  UNL     1     -35.474  17.398  -4.291  1.00 20.00     0.012 C 
HETATM    5  C7  UNL     1     -34.535  14.889  -7.106  1.00 20.00     0.034 C 
HETATM    6 CL9  UNL     1     -37.027  15.979  -6.716  1.00 20.00    -0.118 Cl
ENDROOT
BRANCH   1   7
HETATM    7  C1  UNL     1     -34.654  13.677  -4.325  1.00 20.00     0.129 C 
HETATM    8  C5  UNL     1     -33.312  13.982  -3.716  1.00 20.00     0.091 C 
HETATM    9  O8  UNL     1     -35.025  12.521  -4.525  1.00 20.00    -0.298 OA
ENDBRANCH   1   7
TORSDOF 1
ENDMDL
MODEL 7
REMARK VINA RESULT:      -3.8      2.572      2.976
REMARK  1 active torsions:
REMARK  status: ('A' for Active; 'I' for Inactive)
REMARK    1  A    between atoms: C1_1  and  C2_2 
ROOT
HETATM    1  C2  UNL     1     -35.644  14.970  -3.315  1.00 20.00     0.084 A 
HETATM    2  C3  UNL     1     -34.549  15.854  -3.862  1.00 20.00     0.018 A 
HETATM    3  C4  UNL     1     -35.390  16.338  -2.698  1.00 20.00     0.048 A 
HETATM    4  C6  UNL     1     -33.122  15.447  -3.719  1.00 20.00     0.012 C 
HETATM    5  C7  UNL     1     -36.344  17.472  -2.934  1.00 20.00     0.034 C 
HETATM    6 CL9  UNL     1     -34.687  16.334  -1.061  1.00 20.00    -0.118 Cl
ENDROOT
BRANCH   1   7
HETATM    7  C1  UNL     1     -36.841  14.727  -4.130  1.00 20.00     0.129 C 
HETATM    8  C5  UNL     1     -36.733  15.032  -5.600  1.00 20.00     0.091 C 
HETATM    9  O8  UNL     1     -37.880  14.292  -3.636  1.00 20.00    -0.298 OA
ENDBRANCH   1   7
TORSDOF 1
ENDMDL
MODEL 8
REMARK VINA RESULT:      -3.7      1.651      2.509
REMARK  1 active torsions:
REMARK  status: ('A' for Active; 'I' for Inactive)
REMARK    1  A    between atoms: C1_1  and  C2_2 
ROOT
HETATM    1  C2  UNL     1     -34.974  15.782  -4.083  1.00 20.00     0.084 A 
HETATM    2  C3  UNL     1     -36.015  15.013  -3.305  1.00 20.00     0.018 A 
HETATM    3  C4  UNL     1     -35.518  16.345  -2.778  1.00 20.00     0.048 A 
HETATM    4  C6  UNL     1     -37.380  14.823  -3.873  1.00 20.00     0.012 C 
HETATM    5  C7  UNL     1     -34.675  16.347  -1.536  1.00 20.00     0.034 C 
HETATM    6 CL9  UNL     1     -36.563  17.779  -2.926  1.00 20.00    -0.118 Cl
ENDROOT
BRANCH   1   7
HETATM    7  C1  UNL     1     -33.604  15.255  -4.158  1.00 20.00     0.129 C 
HETATM    8  C5  UNL     1     -33.422  13.795  -3.844  1.00 20.00     0.091 C 
HETATM    9  O8  UNL     1     -32.654  15.973  -4.467  1.00 20.00    -0.298 OA
ENDBRANCH   1   7
TORSDOF 1
ENDMDL
MODEL 9
REMARK VINA RESULT:      -3.7      1.870      3.474
REMARK  1 active torsions:
REMARK  status: ('A' for Active; 'I' for Inactive)
REMARK    1  A    between atoms: C1_1  and  C2_2 
ROOT
HETATM    1  C2  UNL     1     -34.476  15.831  -4.652  1.00 20.00     0.084 A 
HETATM    2  C3  UNL     1     -34.257  15.031  -5.914  1.00 20.00     0.018 A 
HETATM    3  C4  UNL     1     -35.415  14.684  -4.999  1.00 20.00     0.048 A 
HETATM    4  C6  UNL     1     -34.439  15.675  -7.246  1.00 20.00     0.012 C 
HETATM    5  C7  UNL     1     -35.356  13.392  -4.238  1.00 20.00     0.034 C 
HETATM    6 CL9  UNL     1     -37.066  15.148  -5.478  1.00 20.00    -0.118 Cl
ENDROOT
BRANCH   1   7
HETATM    7  C1  UNL     1     -33.515  15.705  -3.549  1.00 20.00     0.129 C 
HETATM    8  C5  UNL     1     -33.893  16.355  -2.245  1.00 20.00     0.091 C 
HETATM    9  O8  UNL     1     -32.455  15.096  -3.683  1.00 20.00    -0.298 OA
ENDBRANCH   1   7
TORSDOF 1
ENDMDL
