MODEL 1
REMARK VINA RESULT:      -5.1      0.000      0.000
REMARK  2 active torsions:
REMARK  status: ('A' for Active; 'I' for Inactive)
REMARK    1  A    between atoms: C3_3  and  C7_7 
REMARK    2  A    between atoms: C8_8  and  C10_10 
ROOT
HETATM    1  C1  UNL     1     -34.835  17.096   0.013  1.00 20.00     0.012 C 
HETATM    2  C2  UNL     1     -34.380  16.809  -1.060  1.00 20.00    -0.117 C 
HETATM    3  C10 UNL     1     -33.819  16.464  -2.372  1.00 20.00     0.098 C 
ENDROOT
BRANCH   3   4
HETATM    4  C8  UNL     1     -34.427  15.179  -2.910  1.00 20.00     0.008 C 
HETATM    5  C6  UNL     1     -35.917  15.299  -3.216  1.00 20.00     0.006 C 
HETATM    6  C4  UNL     1     -36.206  14.063  -4.057  1.00 20.00     0.001 C 
HETATM    7  C5  UNL     1     -34.903  13.741  -4.799  1.00 20.00     0.013 C 
HETATM    8  C7  UNL     1     -33.833  14.672  -4.222  1.00 20.00     0.060 C 
BRANCH   8   9
HETATM    9  C3  UNL     1     -33.592  15.762  -5.256  1.00 20.00     0.127 C 
HETATM   10  C9  UNL     1     -34.287  15.604  -6.581  1.00 20.00     0.091 C 
HETATM   11  O11 UNL     1     -32.866  16.726  -5.019  1.00 20.00    -0.298 OA
ENDBRANCH   8   9
ENDBRANCH   3   4
TORSDOF 2
ENDMDL
MODEL 2
REMARK VINA RESULT:      -4.8     12.320     14.388
REMARK  2 active torsions:
REMARK  status: ('A' for Active; 'I' for Inactive)
REMARK    1  A    between atoms: C3_3  and  C7_7 
REMARK    2  A    between atoms: C8_8  and  C10_10 
ROOT
HETATM    1  C1  UNL     1     -41.279   1.690  -3.928  1.00 20.00     0.012 C 
HETATM    2  C2  UNL     1     -41.847   2.515  -3.266  1.00 20.00    -0.117 C 
HETATM    3  C10 UNL     1     -42.548   3.519  -2.457  1.00 20.00     0.098 C 
ENDROOT
BRANCH   3   4
HETATM    4  C8  UNL     1     -41.577   4.538  -1.882  1.00 20.00     0.008 C 
HETATM    5  C6  UNL     1     -41.964   5.981  -2.193  1.00 20.00     0.006 C 
HETATM    6  C4  UNL     1     -41.097   6.792  -1.240  1.00 20.00     0.001 C 
HETATM    7  C5  UNL     1     -40.870   5.903  -0.012  1.00 20.00     0.013 C 
HETATM    8  C7  UNL     1     -41.440   4.526  -0.361  1.00 20.00     0.060 C 
BRANCH   8   9
HETATM    9  C3  UNL     1     -42.761   4.392   0.381  1.00 20.00     0.127 C 
HETATM   10  C9  UNL     1     -43.264   5.618   1.095  1.00 20.00     0.091 C 
HETATM   11  O11 UNL     1     -43.389   3.335   0.394  1.00 20.00    -0.298 OA
ENDBRANCH   8   9
ENDBRANCH   3   4
TORSDOF 2
ENDMDL
MODEL 3
REMARK VINA RESULT:      -4.8      2.093      2.871
REMARK  2 active torsions:
REMARK  status: ('A' for Active; 'I' for Inactive)
REMARK    1  A    between atoms: C3_3  and  C7_7 
REMARK    2  A    between atoms: C8_8  and  C10_10 
ROOT
HETATM    1  C1  UNL     1     -33.480  17.862  -1.191  1.00 20.00     0.012 C 
HETATM    2  C2  UNL     1     -34.136  16.912  -1.521  1.00 20.00    -0.117 C 
HETATM    3  C10 UNL     1     -34.941  15.751  -1.919  1.00 20.00     0.098 C 
ENDROOT
BRANCH   3   4
HETATM    4  C8  UNL     1     -34.624  15.323  -3.343  1.00 20.00     0.008 C 
HETATM    5  C6  UNL     1     -34.333  13.831  -3.472  1.00 20.00     0.006 C 
HETATM    6  C4  UNL     1     -34.413  13.584  -4.972  1.00 20.00     0.001 C 
HETATM    7  C5  UNL     1     -35.412  14.610  -5.518  1.00 20.00     0.013 C 
HETATM    8  C7  UNL     1     -35.738  15.558  -4.360  1.00 20.00     0.060 C 
BRANCH   8   9
HETATM    9  C3  UNL     1     -37.125  15.185  -3.860  1.00 20.00     0.127 C 
HETATM   10  C9  UNL     1     -38.027  16.320  -3.456  1.00 20.00     0.091 C 
HETATM   11  O11 UNL     1     -37.494  14.013  -3.793  1.00 20.00    -0.298 OA
ENDBRANCH   8   9
ENDBRANCH   3   4
TORSDOF 2
ENDMDL
MODEL 4
REMARK VINA RESULT:      -4.7      1.739      2.227
REMARK  2 active torsions:
REMARK  status: ('A' for Active; 'I' for Inactive)
REMARK    1  A    between atoms: C3_3  and  C7_7 
REMARK    2  A    between atoms: C8_8  and  C10_10 
ROOT
HETATM    1  C1  UNL     1     -34.803  17.233   0.108  1.00 20.00     0.012 C 
HETATM    2  C2  UNL     1     -34.655  16.621  -0.915  1.00 20.00    -0.117 C 
HETATM    3  C10 UNL     1     -34.469  15.871  -2.162  1.00 20.00     0.098 C 
ENDROOT
BRANCH   3   4
HETATM    4  C8  UNL     1     -35.714  15.930  -3.032  1.00 20.00     0.008 C 
HETATM    5  C6  UNL     1     -35.559  16.842  -4.245  1.00 20.00     0.006 C 
HETATM    6  C4  UNL     1     -36.742  16.462  -5.126  1.00 20.00     0.001 C 
HETATM    7  C5  UNL     1     -37.036  14.987  -4.828  1.00 20.00     0.013 C 
HETATM    8  C7  UNL     1     -36.152  14.599  -3.640  1.00 20.00     0.060 C 
BRANCH   8   9
HETATM    9  C3  UNL     1     -35.008  13.764  -4.194  1.00 20.00     0.127 C 
HETATM   10  C9  UNL     1     -34.891  13.684  -5.692  1.00 20.00     0.091 C 
HETATM   11  O11 UNL     1     -34.215  13.183  -3.454  1.00 20.00    -0.298 OA
ENDBRANCH   8   9
ENDBRANCH   3   4
TORSDOF 2
ENDMDL
MODEL 5
REMARK VINA RESULT:      -4.7      1.816      2.714
REMARK  2 active torsions:
REMARK  status: ('A' for Active; 'I' for Inactive)
REMARK    1  A    between atoms: C3_3  and  C7_7 
REMARK    2  A    between atoms: C8_8  and  C10_10 
ROOT
HETATM    1  C1  UNL     1     -34.139  17.728  -0.125  1.00 20.00     0.012 C 
HETATM    2  C2  UNL     1     -34.466  16.899  -0.929  1.00 20.00    -0.117 C 
HETATM    3  C10 UNL     1     -34.867  15.881  -1.908  1.00 20.00     0.098 C 
ENDROOT
BRANCH   3   4
HETATM    4  C8  UNL     1     -34.627  16.360  -3.330  1.00 20.00     0.008 C 
HETATM    5  C6  UNL     1     -33.284  15.912  -3.898  1.00 20.00     0.006 C 
HETATM    6  C4  UNL     1     -33.424  16.176  -5.390  1.00 20.00     0.001 C 
HETATM    7  C5  UNL     1     -34.915  16.020  -5.710  1.00 20.00     0.013 C 
HETATM    8  C7  UNL     1     -35.634  15.867  -4.367  1.00 20.00     0.060 C 
BRANCH   8   9
HETATM    9  C3  UNL     1     -36.000  14.397  -4.226  1.00 20.00     0.127 C 
HETATM   10  C9  UNL     1     -34.963  13.396  -4.658  1.00 20.00     0.091 C 
HETATM   11  O11 UNL     1     -37.090  14.044  -3.779  1.00 20.00    -0.298 OA
ENDBRANCH   8   9
ENDBRANCH   3   4
TORSDOF 2
ENDMDL
MODEL 6
REMARK VINA RESULT:      -4.5      1.559      4.080
REMARK  2 active torsions:
REMARK  status: ('A' for Active; 'I' for Inactive)
REMARK    1  A    between atoms: C3_3  and  C7_7 
REMARK    2  A    between atoms: C8_8  and  C10_10 
ROOT
HETATM    1  C1  UNL     1     -34.404  15.156  -6.998  1.00 20.00     0.012 C 
HETATM    2  C2  UNL     1     -34.481  14.482  -6.008  1.00 20.00    -0.117 C 
HETATM    3  C10 UNL     1     -34.577  13.652  -4.801  1.00 20.00     0.098 C 
ENDROOT
BRANCH   3   4
HETATM    4  C8  UNL     1     -34.236  14.452  -3.554  1.00 20.00     0.008 C 
HETATM    5  C6  UNL     1     -33.381  15.682  -3.843  1.00 20.00     0.006 C 
HETATM    6  C4  UNL     1     -33.481  16.492  -2.558  1.00 20.00     0.001 C 
HETATM    7  C5  UNL     1     -34.850  16.162  -1.954  1.00 20.00     0.013 C 
HETATM    8  C7  UNL     1     -35.432  15.021  -2.793  1.00 20.00     0.060 C 
BRANCH   8   9
HETATM    9  C3  UNL     1     -36.504  15.628  -3.684  1.00 20.00     0.127 C 
HETATM   10  C9  UNL     1     -37.728  14.790  -3.938  1.00 20.00     0.091 C 
HETATM   11  O11 UNL     1     -36.378  16.750  -4.172  1.00 20.00    -0.298 OA
ENDBRANCH   8   9
ENDBRANCH   3   4
TORSDOF 2
ENDMDL
MODEL 7
REMARK VINA RESULT:      -4.5     11.400     13.141
REMARK  2 active torsions:
REMARK  status: ('A' for Active; 'I' for Inactive)
REMARK    1  A    between atoms: C3_3  and  C7_7 
REMARK    2  A    between atoms: C8_8  and  C10_10 
ROOT
HETATM    1  C1  UNL     1     -42.499   8.762  -4.712  1.00 20.00     0.012 C 
HETATM    2  C2  UNL     1     -42.724   7.826  -3.995  1.00 20.00    -0.117 C 
HETATM    3  C10 UNL     1     -43.005   6.681  -3.121  1.00 20.00     0.098 C 
ENDROOT
BRANCH   3   4
HETATM    4  C8  UNL     1     -41.797   6.331  -2.267  1.00 20.00     0.008 C 
HETATM    5  C6  UNL     1     -41.882   6.885  -0.848  1.00 20.00     0.006 C 
HETATM    6  C4  UNL     1     -40.793   6.123  -0.105  1.00 20.00     0.001 C 
HETATM    7  C5  UNL     1     -40.678   4.762  -0.801  1.00 20.00     0.013 C 
HETATM    8  C7  UNL     1     -41.557   4.838  -2.052  1.00 20.00     0.060 C 
BRANCH   8   9
HETATM    9  C3  UNL     1     -42.819   4.043  -1.755  1.00 20.00     0.127 C 
HETATM   10  C9  UNL     1     -43.410   3.259  -2.897  1.00 20.00     0.091 C 
HETATM   11  O11 UNL     1     -43.330   4.036  -0.636  1.00 20.00    -0.298 OA
ENDBRANCH   8   9
ENDBRANCH   3   4
TORSDOF 2
ENDMDL
MODEL 8
REMARK VINA RESULT:      -4.5      1.667      3.964
REMARK  2 active torsions:
REMARK  status: ('A' for Active; 'I' for Inactive)
REMARK    1  A    between atoms: C3_3  and  C7_7 
REMARK    2  A    between atoms: C8_8  and  C10_10 
ROOT
HETATM    1  C1  UNL     1     -35.031  13.106  -4.440  1.00 20.00     0.012 C 
HETATM    2  C2  UNL     1     -34.119  13.806  -4.096  1.00 20.00    -0.117 C 
HETATM    3  C10 UNL     1     -33.001  14.657  -3.671  1.00 20.00     0.098 C 
ENDROOT
BRANCH   3   4
HETATM    4  C8  UNL     1     -33.055  16.016  -4.350  1.00 20.00     0.008 C 
HETATM    5  C6  UNL     1     -33.922  16.029  -5.605  1.00 20.00     0.006 C 
HETATM    6  C4  UNL     1     -34.119  17.512  -5.883  1.00 20.00     0.001 C 
HETATM    7  C5  UNL     1     -34.062  18.211  -4.520  1.00 20.00     0.013 C 
HETATM    8  C7  UNL     1     -33.635  17.148  -3.504  1.00 20.00     0.060 C 
BRANCH   8   9
HETATM    9  C3  UNL     1     -34.879  16.761  -2.719  1.00 20.00     0.127 C 
HETATM   10  C9  UNL     1     -34.692  16.473  -1.253  1.00 20.00     0.091 C 
HETATM   11  O11 UNL     1     -35.984  16.690  -3.254  1.00 20.00    -0.298 OA
ENDBRANCH   8   9
ENDBRANCH   3   4
TORSDOF 2
ENDMDL
MODEL 9
REMARK VINA RESULT:      -4.5      1.752      2.918
REMARK  2 active torsions:
REMARK  status: ('A' for Active; 'I' for Inactive)
REMARK    1  A    between atoms: C3_3  and  C7_7 
REMARK    2  A    between atoms: C8_8  and  C10_10 
ROOT
HETATM    1  C1  UNL     1     -38.253  14.738  -4.019  1.00 20.00     0.012 C 
HETATM    2  C2  UNL     1     -37.309  15.376  -3.639  1.00 20.00    -0.117 C 
HETATM    3  C10 UNL     1     -36.160  16.162  -3.175  1.00 20.00     0.098 C 
ENDROOT
BRANCH   3   4
HETATM    4  C8  UNL     1     -34.929  15.287  -3.003  1.00 20.00     0.008 C 
HETATM    5  C6  UNL     1     -34.926  14.065  -3.915  1.00 20.00     0.006 C 
HETATM    6  C4  UNL     1     -33.488  13.570  -3.840  1.00 20.00     0.001 C 
HETATM    7  C5  UNL     1     -32.626  14.810  -3.579  1.00 20.00     0.013 C 
HETATM    8  C7  UNL     1     -33.595  15.965  -3.311  1.00 20.00     0.060 C 
BRANCH   8   9
HETATM    9  C3  UNL     1     -33.612  16.828  -4.563  1.00 20.00     0.127 C 
HETATM   10  C9  UNL     1     -33.688  18.317  -4.358  1.00 20.00     0.091 C 
HETATM   11  O11 UNL     1     -33.563  16.334  -5.689  1.00 20.00    -0.298 OA
ENDBRANCH   8   9
ENDBRANCH   3   4
TORSDOF 2
ENDMDL
