MODEL 1
REMARK VINA RESULT:      -4.5      0.000      0.000
REMARK  2 active torsions:
REMARK  status: ('A' for Active; 'I' for Inactive)
REMARK    1  A    between atoms: C3_3  and  C5_5 
REMARK    2  A    between atoms: C3_3  and  O11_11 
ROOT
HETATM    1  C1  UNL     1     -37.793  14.799  -3.653  1.00 20.00     0.013 C 
HETATM    2  C2  UNL     1     -36.641  14.851  -3.990  1.00 20.00    -0.096 C 
HETATM    3  C4  UNL     1     -34.679  16.295  -4.632  1.00 20.00     0.044 A 
HETATM    4  C5  UNL     1     -35.260  14.915  -4.394  1.00 20.00     0.118 A 
HETATM    5  C6  UNL     1     -34.227  15.510  -3.426  1.00 20.00    -0.018 A 
HETATM    6  C7  UNL     1     -32.815  14.973  -3.432  1.00 20.00     0.017 C 
HETATM    7  C8  UNL     1     -34.667  16.000  -2.067  1.00 20.00     0.017 C 
ENDROOT
BRANCH   4   8
HETATM    8  C3  UNL     1     -34.841  13.834  -5.311  1.00 20.00     0.280 C 
HETATM    9  O10 UNL     1     -34.813  12.649  -5.005  1.00 20.00    -0.263 OA
BRANCH   8  10
HETATM   10  O11 UNL     1     -34.502  14.365  -6.519  1.00 20.00    -0.325 OA
HETATM   11  C9  UNL     1     -35.527  14.332  -7.516  1.00 20.00     0.213 C 
ENDBRANCH   8  10
ENDBRANCH   4   8
TORSDOF 2
ENDMDL
MODEL 2
REMARK VINA RESULT:      -4.5      1.730      3.045
REMARK  2 active torsions:
REMARK  status: ('A' for Active; 'I' for Inactive)
REMARK    1  A    between atoms: C3_3  and  C5_5 
REMARK    2  A    between atoms: C3_3  and  O11_11 
ROOT
HETATM    1  C1  UNL     1     -34.562  14.763  -7.189  1.00 20.00     0.013 C 
HETATM    2  C2  UNL     1     -34.886  14.697  -6.034  1.00 20.00    -0.096 C 
HETATM    3  C4  UNL     1     -34.552  13.593  -3.794  1.00 20.00     0.044 A 
HETATM    4  C5  UNL     1     -35.273  14.616  -4.649  1.00 20.00     0.118 A 
HETATM    5  C6  UNL     1     -34.275  15.058  -3.569  1.00 20.00    -0.018 A 
HETATM    6  C7  UNL     1     -34.794  15.678  -2.293  1.00 20.00     0.017 C 
HETATM    7  C8  UNL     1     -32.917  15.583  -3.972  1.00 20.00     0.017 C 
ENDROOT
BRANCH   4   8
HETATM    8  C3  UNL     1     -36.719  14.806  -4.407  1.00 20.00     0.280 C 
HETATM    9  O10 UNL     1     -37.421  14.013  -3.793  1.00 20.00    -0.263 OA
BRANCH   8  10
HETATM   10  O11 UNL     1     -37.125  15.980  -4.967  1.00 20.00    -0.325 OA
HETATM   11  C9  UNL     1     -37.799  16.883  -4.085  1.00 20.00     0.213 C 
ENDBRANCH   8  10
ENDBRANCH   4   8
TORSDOF 2
ENDMDL
MODEL 3
REMARK VINA RESULT:      -4.4      1.937      3.427
REMARK  2 active torsions:
REMARK  status: ('A' for Active; 'I' for Inactive)
REMARK    1  A    between atoms: C3_3  and  C5_5 
REMARK    2  A    between atoms: C3_3  and  O11_11 
ROOT
HETATM    1  C1  UNL     1     -34.743  16.543  -0.923  1.00 20.00     0.013 C 
HETATM    2  C2  UNL     1     -34.574  16.131  -2.039  1.00 20.00    -0.096 C 
HETATM    3  C4  UNL     1     -34.472  14.136  -3.575  1.00 20.00     0.044 A 
HETATM    4  C5  UNL     1     -34.372  15.636  -3.377  1.00 20.00     0.118 A 
HETATM    5  C6  UNL     1     -35.560  15.020  -4.130  1.00 20.00    -0.018 A 
HETATM    6  C7  UNL     1     -35.639  15.169  -5.632  1.00 20.00     0.017 C 
HETATM    7  C8  UNL     1     -36.917  14.958  -3.470  1.00 20.00     0.017 C 
ENDROOT
BRANCH   4   8
HETATM    8  C3  UNL     1     -33.335  16.355  -4.145  1.00 20.00     0.280 C 
HETATM    9  O10 UNL     1     -32.401  15.808  -4.716  1.00 20.00    -0.263 OA
BRANCH   8  10
HETATM   10  O11 UNL     1     -33.586  17.695  -4.109  1.00 20.00    -0.325 OA
HETATM   11  C9  UNL     1     -33.608  18.351  -5.380  1.00 20.00     0.213 C 
ENDBRANCH   8  10
ENDBRANCH   4   8
TORSDOF 2
ENDMDL
MODEL 4
REMARK VINA RESULT:      -4.4      1.814      2.761
REMARK  2 active torsions:
REMARK  status: ('A' for Active; 'I' for Inactive)
REMARK    1  A    between atoms: C3_3  and  C5_5 
REMARK    2  A    between atoms: C3_3  and  O11_11 
ROOT
HETATM    1  C1  UNL     1     -34.709  16.331  -1.360  1.00 20.00     0.013 C 
HETATM    2  C2  UNL     1     -34.933  15.842  -2.435  1.00 20.00    -0.096 C 
HETATM    3  C4  UNL     1     -34.275  15.648  -4.859  1.00 20.00     0.044 A 
HETATM    4  C5  UNL     1     -35.201  15.258  -3.724  1.00 20.00     0.118 A 
HETATM    5  C6  UNL     1     -34.201  14.248  -4.306  1.00 20.00    -0.018 A 
HETATM    6  C7  UNL     1     -34.710  13.125  -5.179  1.00 20.00     0.017 C 
HETATM    7  C8  UNL     1     -32.969  13.871  -3.517  1.00 20.00     0.017 C 
ENDROOT
BRANCH   4   8
HETATM    8  C3  UNL     1     -36.636  15.106  -4.039  1.00 20.00     0.280 C 
HETATM    9  O10 UNL     1     -37.380  14.311  -3.481  1.00 20.00    -0.263 OA
BRANCH   8  10
HETATM   10  O11 UNL     1     -36.981  15.976  -5.030  1.00 20.00    -0.325 OA
HETATM   11  C9  UNL     1     -37.760  15.422  -6.094  1.00 20.00     0.213 C 
ENDBRANCH   8  10
ENDBRANCH   4   8
TORSDOF 2
ENDMDL
MODEL 5
REMARK VINA RESULT:      -4.3      1.397      2.709
REMARK  2 active torsions:
REMARK  status: ('A' for Active; 'I' for Inactive)
REMARK    1  A    between atoms: C3_3  and  C5_5 
REMARK    2  A    between atoms: C3_3  and  O11_11 
ROOT
HETATM    1  C1  UNL     1     -34.248  16.271  -6.943  1.00 20.00     0.013 C 
HETATM    2  C2  UNL     1     -34.213  15.835  -5.824  1.00 20.00    -0.096 C 
HETATM    3  C4  UNL     1     -32.832  15.365  -3.769  1.00 20.00     0.044 A 
HETATM    4  C5  UNL     1     -34.169  15.312  -4.483  1.00 20.00     0.118 A 
HETATM    5  C6  UNL     1     -33.941  16.280  -3.313  1.00 20.00    -0.018 A 
HETATM    6  C7  UNL     1     -34.581  15.986  -1.976  1.00 20.00     0.017 C 
HETATM    7  C8  UNL     1     -33.785  17.758  -3.581  1.00 20.00     0.017 C 
ENDROOT
BRANCH   4   8
HETATM    8  C3  UNL     1     -35.007  14.114  -4.267  1.00 20.00     0.280 C 
HETATM    9  O10 UNL     1     -34.627  13.108  -3.681  1.00 20.00    -0.263 OA
BRANCH   8  10
HETATM   10  O11 UNL     1     -36.239  14.313  -4.814  1.00 20.00    -0.325 OA
HETATM   11  C9  UNL     1     -37.278  14.647  -3.889  1.00 20.00     0.213 C 
ENDBRANCH   8  10
ENDBRANCH   4   8
TORSDOF 2
ENDMDL
MODEL 6
REMARK VINA RESULT:      -4.2      1.926      3.019
REMARK  2 active torsions:
REMARK  status: ('A' for Active; 'I' for Inactive)
REMARK    1  A    between atoms: C3_3  and  C5_5 
REMARK    2  A    between atoms: C3_3  and  O11_11 
ROOT
HETATM    1  C1  UNL     1     -34.459  16.809  -0.567  1.00 20.00     0.013 C 
HETATM    2  C2  UNL     1     -34.428  16.532  -1.736  1.00 20.00    -0.096 C 
HETATM    3  C4  UNL     1     -35.569  16.654  -3.979  1.00 20.00     0.044 A 
HETATM    4  C5  UNL     1     -34.393  16.199  -3.137  1.00 20.00     0.118 A 
HETATM    5  C6  UNL     1     -34.233  17.328  -4.166  1.00 20.00    -0.018 A 
HETATM    6  C7  UNL     1     -33.487  17.054  -5.451  1.00 20.00     0.017 C 
HETATM    7  C8  UNL     1     -34.098  18.757  -3.698  1.00 20.00     0.017 C 
ENDROOT
BRANCH   4   8
HETATM    8  C3  UNL     1     -33.816  14.872  -3.436  1.00 20.00     0.280 C 
HETATM    9  O10 UNL     1     -32.616  14.636  -3.459  1.00 20.00    -0.263 OA
BRANCH   8  10
HETATM   10  O11 UNL     1     -34.820  13.982  -3.675  1.00 20.00    -0.325 OA
HETATM   11  C9  UNL     1     -34.682  13.203  -4.868  1.00 20.00     0.213 C 
ENDBRANCH   8  10
ENDBRANCH   4   8
TORSDOF 2
ENDMDL
MODEL 7
REMARK VINA RESULT:      -4.1      2.566      3.505
REMARK  2 active torsions:
REMARK  status: ('A' for Active; 'I' for Inactive)
REMARK    1  A    between atoms: C3_3  and  C5_5 
REMARK    2  A    between atoms: C3_3  and  O11_11 
ROOT
HETATM    1  C1  UNL     1     -34.692  16.394  -1.185  1.00 20.00     0.013 C 
HETATM    2  C2  UNL     1     -34.444  16.331  -2.359  1.00 20.00    -0.096 C 
HETATM    3  C4  UNL     1     -32.832  15.608  -4.155  1.00 20.00     0.044 A 
HETATM    4  C5  UNL     1     -34.146  16.256  -3.766  1.00 20.00     0.118 A 
HETATM    5  C6  UNL     1     -34.119  14.881  -4.449  1.00 20.00    -0.018 A 
HETATM    6  C7  UNL     1     -34.541  14.768  -5.896  1.00 20.00     0.017 C 
HETATM    7  C8  UNL     1     -34.421  13.638  -3.647  1.00 20.00     0.017 C 
ENDROOT
BRANCH   4   8
HETATM    8  C3  UNL     1     -34.580  17.434  -4.546  1.00 20.00     0.280 C 
HETATM    9  O10 UNL     1     -35.742  17.806  -4.637  1.00 20.00    -0.263 OA
BRANCH   8  10
HETATM   10  O11 UNL     1     -33.496  18.019  -5.131  1.00 20.00    -0.325 OA
HETATM   11  C9  UNL     1     -33.751  18.688  -6.369  1.00 20.00     0.213 C 
ENDBRANCH   8  10
ENDBRANCH   4   8
TORSDOF 2
ENDMDL
MODEL 8
REMARK VINA RESULT:      -4.1     10.794     12.099
REMARK  2 active torsions:
REMARK  status: ('A' for Active; 'I' for Inactive)
REMARK    1  A    between atoms: C3_3  and  C5_5 
REMARK    2  A    between atoms: C3_3  and  O11_11 
ROOT
HETATM    1  C1  UNL     1     -42.336   7.641  -3.592  1.00 20.00     0.013 C 
HETATM    2  C2  UNL     1     -42.074   6.927  -2.662  1.00 20.00    -0.096 C 
HETATM    3  C4  UNL     1     -40.979   6.693  -0.405  1.00 20.00     0.044 A 
HETATM    4  C5  UNL     1     -41.760   6.071  -1.547  1.00 20.00     0.118 A 
HETATM    5  C6  UNL     1     -42.429   6.340  -0.190  1.00 20.00    -0.018 A 
HETATM    6  C7  UNL     1     -42.736   5.176   0.724  1.00 20.00     0.017 C 
HETATM    7  C8  UNL     1     -43.413   7.477  -0.051  1.00 20.00     0.017 C 
ENDROOT
BRANCH   4   8
HETATM    8  C3  UNL     1     -41.429   4.680  -1.918  1.00 20.00     0.280 C 
HETATM    9  O10 UNL     1     -40.418   4.095  -1.553  1.00 20.00    -0.263 OA
BRANCH   8  10
HETATM   10  O11 UNL     1     -42.413   4.173  -2.713  1.00 20.00    -0.325 OA
HETATM   11  C9  UNL     1     -42.409   2.751  -2.869  1.00 20.00     0.213 C 
ENDBRANCH   8  10
ENDBRANCH   4   8
TORSDOF 2
ENDMDL
MODEL 9
REMARK VINA RESULT:      -4.1      1.462      3.515
REMARK  2 active torsions:
REMARK  status: ('A' for Active; 'I' for Inactive)
REMARK    1  A    between atoms: C3_3  and  C5_5 
REMARK    2  A    between atoms: C3_3  and  O11_11 
ROOT
HETATM    1  C1  UNL     1     -34.756  14.776  -7.716  1.00 20.00     0.013 C 
HETATM    2  C2  UNL     1     -35.162  14.827  -6.586  1.00 20.00    -0.096 C 
HETATM    3  C4  UNL     1     -36.006  16.262  -4.695  1.00 20.00     0.044 A 
HETATM    4  C5  UNL     1     -35.648  14.890  -5.232  1.00 20.00     0.118 A 
HETATM    5  C6  UNL     1     -37.113  15.279  -4.983  1.00 20.00    -0.018 A 
HETATM    6  C7  UNL     1     -37.844  14.685  -3.802  1.00 20.00     0.017 C 
HETATM    7  C8  UNL     1     -38.021  15.571  -6.155  1.00 20.00     0.017 C 
ENDROOT
BRANCH   4   8
HETATM    8  C3  UNL     1     -34.992  13.947  -4.302  1.00 20.00     0.280 C 
HETATM    9  O10 UNL     1     -35.079  12.729  -4.386  1.00 20.00    -0.263 OA
BRANCH   8  10
HETATM   10  O11 UNL     1     -34.293  14.644  -3.362  1.00 20.00    -0.325 OA
HETATM   11  C9  UNL     1     -32.885  14.749  -3.593  1.00 20.00     0.213 C 
ENDBRANCH   8  10
ENDBRANCH   4   8
TORSDOF 2
ENDMDL
