MODEL 1
REMARK VINA RESULT:      -5.4      0.000      0.000
REMARK  1 active torsions:
REMARK  status: ('A' for Active; 'I' for Inactive)
REMARK    1  A    between atoms: C1_1  and  C7_7 
ROOT
HETATM    1  C2  UNL     1     -34.919   5.350   6.282  1.00 20.00     0.001 C 
HETATM    2  C3  UNL     1     -33.080   5.822   2.283  1.00 20.00     0.014 C 
HETATM    3  C4  UNL     1     -35.429   4.745   4.978  1.00 20.00     0.005 C 
HETATM    4  C5  UNL     1     -33.513   5.813   5.925  1.00 20.00     0.006 C 
HETATM    5  C6  UNL     1     -34.215   4.903   2.710  1.00 20.00     0.006 C 
HETATM    6  C7  UNL     1     -32.483   6.292   3.608  1.00 20.00     0.076 C 
HETATM    7  C8  UNL     1     -34.843   5.641   3.888  1.00 20.00    -0.010 C 
HETATM    8  C9  UNL     1     -33.691   6.433   4.540  1.00 20.00     0.002 C 
ENDROOT
BRANCH   6   9
HETATM    9  C1  UNL     1     -31.772   7.598   3.451  1.00 20.00     0.223 C 
HETATM   10  O10 UNL     1     -31.060   8.056   4.338  1.00 20.00    -0.279 OA
HETATM   11 CL11 UNL     1     -32.085   8.331   1.907  1.00 20.00    -0.043 Cl
ENDBRANCH   6   9
TORSDOF 1
ENDMDL
MODEL 2
REMARK VINA RESULT:      -5.0     11.103     12.527
REMARK  1 active torsions:
REMARK  status: ('A' for Active; 'I' for Inactive)
REMARK    1  A    between atoms: C1_1  and  C7_7 
ROOT
HETATM    1  C2  UNL     1     -33.823  17.602  -1.222  1.00 20.00     0.001 C 
HETATM    2  C3  UNL     1     -34.860  15.802  -5.132  1.00 20.00     0.014 C 
HETATM    3  C4  UNL     1     -33.951  18.341  -2.549  1.00 20.00     0.005 C 
HETATM    4  C5  UNL     1     -34.463  16.250  -1.513  1.00 20.00     0.006 C 
HETATM    5  C6  UNL     1     -34.736  17.273  -4.760  1.00 20.00     0.006 C 
HETATM    6  C7  UNL     1     -34.890  15.093  -3.779  1.00 20.00     0.076 C 
HETATM    7  C8  UNL     1     -33.735  17.262  -3.609  1.00 20.00    -0.010 C 
HETATM    8  C9  UNL     1     -33.931  15.905  -2.903  1.00 20.00     0.002 C 
ENDROOT
BRANCH   6   9
HETATM    9  C1  UNL     1     -34.435  13.674  -3.900  1.00 20.00     0.223 C 
HETATM   10  O10 UNL     1     -35.200  12.778  -4.242  1.00 20.00    -0.279 OA
HETATM   11 CL11 UNL     1     -32.752  13.491  -3.507  1.00 20.00    -0.043 Cl
ENDBRANCH   6   9
TORSDOF 1
ENDMDL
MODEL 3
REMARK VINA RESULT:      -4.8     11.852     13.305
REMARK  1 active torsions:
REMARK  status: ('A' for Active; 'I' for Inactive)
REMARK    1  A    between atoms: C1_1  and  C7_7 
ROOT
HETATM    1  C2  UNL     1     -33.746  18.172  -3.411  1.00 20.00     0.001 C 
HETATM    2  C3  UNL     1     -34.458  14.997  -6.411  1.00 20.00     0.014 C 
HETATM    3  C4  UNL     1     -33.677  18.332  -4.925  1.00 20.00     0.005 C 
HETATM    4  C5  UNL     1     -34.437  16.827  -3.233  1.00 20.00     0.006 C 
HETATM    5  C6  UNL     1     -34.279  16.493  -6.627  1.00 20.00     0.006 C 
HETATM    6  C7  UNL     1     -34.685  14.878  -4.905  1.00 20.00     0.076 C 
HETATM    7  C8  UNL     1     -33.415  16.919  -5.445  1.00 20.00    -0.010 C 
HETATM    8  C9  UNL     1     -33.778  15.953  -4.299  1.00 20.00     0.002 C 
ENDROOT
BRANCH   6   9
HETATM    9  C1  UNL     1     -34.314  13.518  -4.406  1.00 20.00     0.223 C 
HETATM   10  O10 UNL     1     -35.016  12.537  -4.626  1.00 20.00    -0.279 OA
HETATM   11 CL11 UNL     1     -32.820  13.533  -3.518  1.00 20.00    -0.043 Cl
ENDBRANCH   6   9
TORSDOF 1
ENDMDL
MODEL 4
REMARK VINA RESULT:      -4.7     11.928     12.911
REMARK  1 active torsions:
REMARK  status: ('A' for Active; 'I' for Inactive)
REMARK    1  A    between atoms: C1_1  and  C7_7 
ROOT
HETATM    1  C2  UNL     1     -34.737  16.198  -1.562  1.00 20.00     0.001 C 
HETATM    2  C3  UNL     1     -33.844  16.196  -5.898  1.00 20.00     0.014 C 
HETATM    3  C4  UNL     1     -33.764  17.125  -2.282  1.00 20.00     0.005 C 
HETATM    4  C5  UNL     1     -35.531  15.573  -2.702  1.00 20.00     0.006 C 
HETATM    5  C6  UNL     1     -33.419  17.199  -4.835  1.00 20.00     0.006 C 
HETATM    6  C7  UNL     1     -34.933  15.380  -5.204  1.00 20.00     0.076 C 
HETATM    7  C8  UNL     1     -33.391  16.368  -3.557  1.00 20.00    -0.010 C 
HETATM    8  C9  UNL     1     -34.461  15.275  -3.750  1.00 20.00     0.002 C 
ENDROOT
BRANCH   6   9
HETATM    9  C1  UNL     1     -35.074  14.026  -5.822  1.00 20.00     0.223 C 
HETATM   10  O10 UNL     1     -34.928  12.999  -5.166  1.00 20.00    -0.279 OA
HETATM   11 CL11 UNL     1     -35.455  14.116  -7.514  1.00 20.00    -0.043 Cl
ENDBRANCH   6   9
TORSDOF 1
ENDMDL
MODEL 5
REMARK VINA RESULT:      -4.7     11.213     12.551
REMARK  1 active torsions:
REMARK  status: ('A' for Active; 'I' for Inactive)
REMARK    1  A    between atoms: C1_1  and  C7_7 
ROOT
HETATM    1  C2  UNL     1     -34.859  13.194  -4.713  1.00 20.00     0.001 C 
HETATM    2  C3  UNL     1     -33.584  17.393  -4.130  1.00 20.00     0.014 C 
HETATM    3  C4  UNL     1     -34.688  14.244  -5.805  1.00 20.00     0.005 C 
HETATM    4  C5  UNL     1     -34.169  13.826  -3.511  1.00 20.00     0.006 C 
HETATM    5  C6  UNL     1     -33.767  16.622  -5.429  1.00 20.00     0.006 C 
HETATM    6  C7  UNL     1     -33.600  16.301  -3.061  1.00 20.00     0.076 C 
HETATM    7  C8  UNL     1     -34.823  15.579  -5.074  1.00 20.00    -0.010 C 
HETATM    8  C9  UNL     1     -34.623  15.283  -3.574  1.00 20.00     0.002 C 
ENDROOT
BRANCH   6   9
HETATM    9  C1  UNL     1     -34.009  16.850  -1.732  1.00 20.00     0.223 C 
HETATM   10  O10 UNL     1     -34.735  16.220  -0.970  1.00 20.00    -0.279 OA
HETATM   11 CL11 UNL     1     -33.338  18.426  -1.440  1.00 20.00    -0.043 Cl
ENDBRANCH   6   9
TORSDOF 1
ENDMDL
MODEL 6
REMARK VINA RESULT:      -4.6      1.269      2.374
REMARK  1 active torsions:
REMARK  status: ('A' for Active; 'I' for Inactive)
REMARK    1  A    between atoms: C1_1  and  C7_7 
ROOT
HETATM    1  C2  UNL     1     -35.568   3.915   5.245  1.00 20.00     0.001 C 
HETATM    2  C3  UNL     1     -32.936   7.471   5.412  1.00 20.00     0.014 C 
HETATM    3  C4  UNL     1     -35.176   4.688   6.500  1.00 20.00     0.005 C 
HETATM    4  C5  UNL     1     -35.145   4.845   4.116  1.00 20.00     0.006 C 
HETATM    5  C6  UNL     1     -33.787   6.859   6.515  1.00 20.00     0.006 C 
HETATM    6  C7  UNL     1     -33.457   6.796   4.144  1.00 20.00     0.076 C 
HETATM    7  C8  UNL     1     -33.871   5.388   6.123  1.00 20.00    -0.010 C 
HETATM    8  C9  UNL     1     -33.787   5.366   4.583  1.00 20.00     0.002 C 
ENDROOT
BRANCH   6   9
HETATM    9  C1  UNL     1     -32.424   6.801   3.063  1.00 20.00     0.223 C 
HETATM   10  O10 UNL     1     -31.789   5.792   2.773  1.00 20.00    -0.279 OA
HETATM   11 CL11 UNL     1     -32.267   8.362   2.316  1.00 20.00    -0.043 Cl
ENDBRANCH   6   9
TORSDOF 1
ENDMDL
MODEL 7
REMARK VINA RESULT:      -4.6     11.724     13.325
REMARK  1 active torsions:
REMARK  status: ('A' for Active; 'I' for Inactive)
REMARK    1  A    between atoms: C1_1  and  C7_7 
ROOT
HETATM    1  C2  UNL     1     -33.618  17.994  -5.825  1.00 20.00     0.001 C 
HETATM    2  C3  UNL     1     -34.624  15.532  -2.286  1.00 20.00     0.014 C 
HETATM    3  C4  UNL     1     -33.663  18.472  -4.378  1.00 20.00     0.005 C 
HETATM    4  C5  UNL     1     -33.645  16.477  -5.692  1.00 20.00     0.006 C 
HETATM    5  C6  UNL     1     -34.078  16.951  -2.339  1.00 20.00     0.006 C 
HETATM    6  C7  UNL     1     -34.422  15.019  -3.711  1.00 20.00     0.076 C 
HETATM    7  C8  UNL     1     -34.587  17.476  -3.677  1.00 20.00    -0.010 C 
HETATM    8  C9  UNL     1     -34.683  16.242  -4.596  1.00 20.00     0.002 C 
ENDROOT
BRANCH   6   9
HETATM    9  C1  UNL     1     -35.376  13.912  -4.030  1.00 20.00     0.223 C 
HETATM   10  O10 UNL     1     -34.986  12.775  -4.273  1.00 20.00    -0.279 OA
HETATM   11 CL11 UNL     1     -37.029  14.447  -4.005  1.00 20.00    -0.043 Cl
ENDBRANCH   6   9
TORSDOF 1
ENDMDL
MODEL 8
REMARK VINA RESULT:      -4.6     11.210     12.345
REMARK  1 active torsions:
REMARK  status: ('A' for Active; 'I' for Inactive)
REMARK    1  A    between atoms: C1_1  and  C7_7 
ROOT
HETATM    1  C2  UNL     1     -33.402  13.435  -3.840  1.00 20.00     0.001 C 
HETATM    2  C3  UNL     1     -35.764  17.160  -3.462  1.00 20.00     0.014 C 
HETATM    3  C4  UNL     1     -34.839  13.642  -4.306  1.00 20.00     0.005 C 
HETATM    4  C5  UNL     1     -32.915  14.852  -3.571  1.00 20.00     0.006 C 
HETATM    5  C6  UNL     1     -36.102  15.887  -4.225  1.00 20.00     0.006 C 
HETATM    6  C7  UNL     1     -34.278  17.000  -3.144  1.00 20.00     0.076 C 
HETATM    7  C8  UNL     1     -35.350  14.805  -3.457  1.00 20.00    -0.010 C 
HETATM    8  C9  UNL     1     -34.107  15.503  -2.870  1.00 20.00     0.002 C 
ENDROOT
BRANCH   6   9
HETATM    9  C1  UNL     1     -33.889  17.812  -1.950  1.00 20.00     0.223 C 
HETATM   10  O10 UNL     1     -33.281  18.872  -2.060  1.00 20.00    -0.279 OA
HETATM   11 CL11 UNL     1     -34.399  17.073  -0.462  1.00 20.00    -0.043 Cl
ENDBRANCH   6   9
TORSDOF 1
ENDMDL
MODEL 9
REMARK VINA RESULT:      -4.5     11.764     13.057
REMARK  1 active torsions:
REMARK  status: ('A' for Active; 'I' for Inactive)
REMARK    1  A    between atoms: C1_1  and  C7_7 
ROOT
HETATM    1  C2  UNL     1     -33.869  17.359  -3.270  1.00 20.00     0.001 C 
HETATM    2  C3  UNL     1     -34.785  13.324  -4.843  1.00 20.00     0.014 C 
HETATM    3  C4  UNL     1     -33.841  16.056  -2.479  1.00 20.00     0.005 C 
HETATM    4  C5  UNL     1     -33.928  16.888  -4.717  1.00 20.00     0.006 C 
HETATM    5  C6  UNL     1     -34.206  13.714  -3.490  1.00 20.00     0.006 C 
HETATM    6  C7  UNL     1     -34.656  14.603  -5.668  1.00 20.00     0.076 C 
HETATM    7  C8  UNL     1     -34.758  15.117  -3.261  1.00 20.00    -0.010 C 
HETATM    8  C9  UNL     1     -34.924  15.730  -4.666  1.00 20.00     0.002 C 
ENDROOT
BRANCH   6   9
HETATM    9  C1  UNL     1     -35.649  14.630  -6.785  1.00 20.00     0.223 C 
HETATM   10  O10 UNL     1     -35.362  14.245  -7.914  1.00 20.00    -0.279 OA
HETATM   11 CL11 UNL     1     -37.189  15.253  -6.275  1.00 20.00    -0.043 Cl
ENDBRANCH   6   9
TORSDOF 1
ENDMDL
