MODEL 1
REMARK VINA RESULT:      -4.5      0.000      0.000
REMARK  2 active torsions:
REMARK  status: ('A' for Active; 'I' for Inactive)
REMARK    1  A    between atoms: C2_2  and  C7_7 
REMARK    2  A    between atoms: C3_3  and  C6_6 
ROOT
HETATM    1  C4  UNL     1     -37.008  14.502  -4.064  1.00 20.00     0.014 C 
HETATM    2  C5  UNL     1     -36.876  15.207  -5.426  1.00 20.00     0.015 C 
HETATM    3  C6  UNL     1     -35.500  14.778  -3.820  1.00 20.00     0.067 C 
HETATM    4  C7  UNL     1     -35.606  15.928  -4.884  1.00 20.00    -0.011 C 
HETATM    5  C10 UNL     1     -35.880  17.311  -4.292  1.00 20.00     0.021 C 
ENDROOT
BRANCH   4   6
HETATM    6  C2  UNL     1     -34.486  15.984  -5.861  1.00 20.00    -0.084 C 
HETATM    7  C1  UNL     1     -34.505  15.282  -7.003  1.00 20.00     0.015 C 
HETATM    8  C8  UNL     1     -33.335  16.873  -5.496  1.00 20.00     0.043 C 
ENDBRANCH   4   6
BRANCH   3   9
HETATM    9  C3  UNL     1     -34.538  13.604  -4.076  1.00 20.00     0.128 C 
HETATM   10  C9  UNL     1     -33.134  13.753  -3.556  1.00 20.00     0.091 C 
HETATM   11  O11 UNL     1     -34.899  12.592  -4.675  1.00 20.00    -0.298 OA
ENDBRANCH   3   9
TORSDOF 2
ENDMDL
MODEL 2
REMARK VINA RESULT:      -4.3      1.558      3.312
REMARK  2 active torsions:
REMARK  status: ('A' for Active; 'I' for Inactive)
REMARK    1  A    between atoms: C2_2  and  C7_7 
REMARK    2  A    between atoms: C3_3  and  C6_6 
ROOT
HETATM    1  C4  UNL     1     -34.628  13.476  -4.905  1.00 20.00     0.014 C 
HETATM    2  C5  UNL     1     -33.941  14.054  -3.656  1.00 20.00     0.015 C 
HETATM    3  C6  UNL     1     -35.390  14.819  -5.059  1.00 20.00     0.067 C 
HETATM    4  C7  UNL     1     -34.263  15.482  -4.188  1.00 20.00    -0.011 C 
HETATM    5  C10 UNL     1     -33.131  16.115  -4.998  1.00 20.00     0.021 C 
ENDROOT
BRANCH   4   6
HETATM    6  C2  UNL     1     -34.748  16.416  -3.139  1.00 20.00    -0.084 C 
HETATM    7  C1  UNL     1     -34.864  16.045  -1.855  1.00 20.00     0.015 C 
HETATM    8  C8  UNL     1     -35.101  17.800  -3.598  1.00 20.00     0.043 C 
ENDBRANCH   4   6
BRANCH   3   9
HETATM    9  C3  UNL     1     -36.843  14.845  -4.552  1.00 20.00     0.128 C 
HETATM   10  C9  UNL     1     -37.760  15.862  -5.177  1.00 20.00     0.091 C 
HETATM   11  O11 UNL     1     -37.237  14.072  -3.681  1.00 20.00    -0.298 OA
ENDBRANCH   3   9
TORSDOF 2
ENDMDL
MODEL 3
REMARK VINA RESULT:      -4.3      2.020      3.375
REMARK  2 active torsions:
REMARK  status: ('A' for Active; 'I' for Inactive)
REMARK    1  A    between atoms: C2_2  and  C7_7 
REMARK    2  A    between atoms: C3_3  and  C6_6 
ROOT
HETATM    1  C4  UNL     1     -34.513  16.013  -2.057  1.00 20.00     0.014 C 
HETATM    2  C5  UNL     1     -33.579  16.305  -3.245  1.00 20.00     0.015 C 
HETATM    3  C6  UNL     1     -35.395  15.164  -3.011  1.00 20.00     0.067 C 
HETATM    4  C7  UNL     1     -34.141  15.034  -3.948  1.00 20.00    -0.011 C 
HETATM    5  C10 UNL     1     -33.308  13.773  -3.715  1.00 20.00     0.021 C 
ENDROOT
BRANCH   4   6
HETATM    6  C2  UNL     1     -34.418  15.224  -5.397  1.00 20.00    -0.084 C 
HETATM    7  C1  UNL     1     -34.160  16.381  -6.023  1.00 20.00     0.015 C 
HETATM    8  C8  UNL     1     -35.000  14.045  -6.118  1.00 20.00     0.043 C 
ENDBRANCH   4   6
BRANCH   3   9
HETATM    9  C3  UNL     1     -36.669  15.839  -3.551  1.00 20.00     0.128 C 
HETATM   10  C9  UNL     1     -37.820  14.935  -3.897  1.00 20.00     0.091 C 
HETATM   11  O11 UNL     1     -36.743  17.059  -3.689  1.00 20.00    -0.298 OA
ENDBRANCH   3   9
TORSDOF 2
ENDMDL
MODEL 4
REMARK VINA RESULT:      -4.2      1.646      3.460
REMARK  2 active torsions:
REMARK  status: ('A' for Active; 'I' for Inactive)
REMARK    1  A    between atoms: C2_2  and  C7_7 
REMARK    2  A    between atoms: C3_3  and  C6_6 
ROOT
HETATM    1  C4  UNL     1     -32.743  14.826  -3.765  1.00 20.00     0.014 C 
HETATM    2  C5  UNL     1     -34.043  14.155  -3.289  1.00 20.00     0.015 C 
HETATM    3  C6  UNL     1     -33.573  16.087  -4.125  1.00 20.00     0.067 C 
HETATM    4  C7  UNL     1     -34.667  15.572  -3.123  1.00 20.00    -0.011 C 
HETATM    5  C10 UNL     1     -34.546  16.144  -1.710  1.00 20.00     0.021 C 
ENDROOT
BRANCH   4   6
HETATM    6  C2  UNL     1     -36.066  15.671  -3.615  1.00 20.00    -0.084 C 
HETATM    7  C1  UNL     1     -36.702  14.626  -4.162  1.00 20.00     0.015 C 
HETATM    8  C8  UNL     1     -36.727  17.010  -3.463  1.00 20.00     0.043 C 
ENDBRANCH   4   6
BRANCH   3   9
HETATM    9  C3  UNL     1     -33.940  16.267  -5.609  1.00 20.00     0.128 C 
HETATM   10  C9  UNL     1     -34.144  17.678  -6.090  1.00 20.00     0.091 C 
HETATM   11  O11 UNL     1     -34.058  15.304  -6.366  1.00 20.00    -0.298 OA
ENDBRANCH   3   9
TORSDOF 2
ENDMDL
MODEL 5
REMARK VINA RESULT:      -4.2      1.659      2.249
REMARK  2 active torsions:
REMARK  status: ('A' for Active; 'I' for Inactive)
REMARK    1  A    between atoms: C2_2  and  C7_7 
REMARK    2  A    between atoms: C3_3  and  C6_6 
ROOT
HETATM    1  C4  UNL     1     -34.957  13.307  -4.203  1.00 20.00     0.014 C 
HETATM    2  C5  UNL     1     -35.036  13.903  -5.620  1.00 20.00     0.015 C 
HETATM    3  C6  UNL     1     -35.076  14.747  -3.635  1.00 20.00     0.067 C 
HETATM    4  C7  UNL     1     -35.713  15.166  -5.008  1.00 20.00    -0.011 C 
HETATM    5  C10 UNL     1     -37.241  15.127  -5.032  1.00 20.00     0.021 C 
ENDROOT
BRANCH   4   6
HETATM    6  C2  UNL     1     -35.208  16.446  -5.570  1.00 20.00    -0.084 C 
HETATM    7  C1  UNL     1     -34.223  16.484  -6.479  1.00 20.00     0.015 C 
HETATM    8  C8  UNL     1     -35.865  17.695  -5.061  1.00 20.00     0.043 C 
ENDBRANCH   4   6
BRANCH   3   9
HETATM    9  C3  UNL     1     -33.766  15.415  -3.180  1.00 20.00     0.128 C 
HETATM   10  C9  UNL     1     -33.884  16.497  -2.141  1.00 20.00     0.091 C 
HETATM   11  O11 UNL     1     -32.676  15.079  -3.640  1.00 20.00    -0.298 OA
ENDBRANCH   3   9
TORSDOF 2
ENDMDL
MODEL 6
REMARK VINA RESULT:      -4.1      1.972      3.644
REMARK  2 active torsions:
REMARK  status: ('A' for Active; 'I' for Inactive)
REMARK    1  A    between atoms: C2_2  and  C7_7 
REMARK    2  A    between atoms: C3_3  and  C6_6 
ROOT
HETATM    1  C4  UNL     1     -34.408  14.791  -6.576  1.00 20.00     0.014 C 
HETATM    2  C5  UNL     1     -35.414  14.206  -5.570  1.00 20.00     0.015 C 
HETATM    3  C6  UNL     1     -33.927  15.765  -5.467  1.00 20.00     0.067 C 
HETATM    4  C7  UNL     1     -34.524  14.761  -4.418  1.00 20.00    -0.011 C 
HETATM    5  C10 UNL     1     -33.517  13.752  -3.867  1.00 20.00     0.021 C 
ENDROOT
BRANCH   4   6
HETATM    6  C2  UNL     1     -35.297  15.392  -3.315  1.00 20.00    -0.084 C 
HETATM    7  C1  UNL     1     -36.635  15.477  -3.344  1.00 20.00     0.015 C 
HETATM    8  C8  UNL     1     -34.493  15.927  -2.167  1.00 20.00     0.043 C 
ENDBRANCH   4   6
BRANCH   3   9
HETATM    9  C3  UNL     1     -34.476  17.202  -5.530  1.00 20.00     0.128 C 
HETATM   10  C9  UNL     1     -33.621  18.281  -4.925  1.00 20.00     0.091 C 
HETATM   11  O11 UNL     1     -35.561  17.455  -6.052  1.00 20.00    -0.298 OA
ENDBRANCH   3   9
TORSDOF 2
ENDMDL
MODEL 7
REMARK VINA RESULT:      -4.1      2.408      3.688
REMARK  2 active torsions:
REMARK  status: ('A' for Active; 'I' for Inactive)
REMARK    1  A    between atoms: C2_2  and  C7_7 
REMARK    2  A    between atoms: C3_3  and  C6_6 
ROOT
HETATM    1  C4  UNL     1     -32.770  15.156  -3.860  1.00 20.00     0.014 C 
HETATM    2  C5  UNL     1     -33.741  15.428  -5.022  1.00 20.00     0.015 C 
HETATM    3  C6  UNL     1     -33.967  15.297  -2.881  1.00 20.00     0.067 C 
HETATM    4  C7  UNL     1     -34.913  14.986  -4.095  1.00 20.00    -0.011 C 
HETATM    5  C10 UNL     1     -35.295  13.512  -4.235  1.00 20.00     0.021 C 
ENDROOT
BRANCH   4   6
HETATM    6  C2  UNL     1     -36.115  15.855  -4.193  1.00 20.00    -0.084 C 
HETATM    7  C1  UNL     1     -36.122  16.977  -4.927  1.00 20.00     0.015 C 
HETATM    8  C8  UNL     1     -37.321  15.404  -3.424  1.00 20.00     0.043 C 
ENDBRANCH   4   6
BRANCH   3   9
HETATM    9  C3  UNL     1     -34.100  16.646  -2.151  1.00 20.00     0.128 C 
HETATM   10  C9  UNL     1     -34.775  16.624  -0.806  1.00 20.00     0.091 C 
HETATM   11  O11 UNL     1     -33.673  17.690  -2.641  1.00 20.00    -0.298 OA
ENDBRANCH   3   9
TORSDOF 2
ENDMDL
MODEL 8
REMARK VINA RESULT:      -4.1      1.942      3.450
REMARK  2 active torsions:
REMARK  status: ('A' for Active; 'I' for Inactive)
REMARK    1  A    between atoms: C2_2  and  C7_7 
REMARK    2  A    between atoms: C3_3  and  C6_6 
ROOT
HETATM    1  C4  UNL     1     -37.099  15.171  -5.202  1.00 20.00     0.014 C 
HETATM    2  C5  UNL     1     -36.751  14.816  -3.746  1.00 20.00     0.015 C 
HETATM    3  C6  UNL     1     -35.608  15.538  -5.427  1.00 20.00     0.067 C 
HETATM    4  C7  UNL     1     -35.267  14.638  -4.186  1.00 20.00    -0.011 C 
HETATM    5  C10 UNL     1     -34.890  13.198  -4.537  1.00 20.00     0.021 C 
ENDROOT
BRANCH   4   6
HETATM    6  C2  UNL     1     -34.286  15.224  -3.235  1.00 20.00    -0.084 C 
HETATM    7  C1  UNL     1     -34.673  15.914  -2.152  1.00 20.00     0.015 C 
HETATM    8  C8  UNL     1     -32.839  14.999  -3.556  1.00 20.00     0.043 C 
ENDBRANCH   4   6
BRANCH   3   9
HETATM    9  C3  UNL     1     -35.257  17.037  -5.386  1.00 20.00     0.128 C 
HETATM   10  C9  UNL     1     -34.002  17.458  -6.101  1.00 20.00     0.091 C 
HETATM   11  O11 UNL     1     -35.969  17.850  -4.799  1.00 20.00    -0.298 OA
ENDBRANCH   3   9
TORSDOF 2
ENDMDL
MODEL 9
REMARK VINA RESULT:      -4.1      1.611      2.994
REMARK  2 active torsions:
REMARK  status: ('A' for Active; 'I' for Inactive)
REMARK    1  A    between atoms: C2_2  and  C7_7 
REMARK    2  A    between atoms: C3_3  and  C6_6 
ROOT
HETATM    1  C4  UNL     1     -36.306  14.960  -6.555  1.00 20.00     0.014 C 
HETATM    2  C5  UNL     1     -35.053  14.167  -6.143  1.00 20.00     0.015 C 
HETATM    3  C6  UNL     1     -36.179  15.768  -5.237  1.00 20.00     0.067 C 
HETATM    4  C7  UNL     1     -34.667  15.344  -5.199  1.00 20.00    -0.011 C 
HETATM    5  C10 UNL     1     -33.712  16.359  -5.828  1.00 20.00     0.021 C 
ENDROOT
BRANCH   4   6
HETATM    6  C2  UNL     1     -34.171  14.906  -3.868  1.00 20.00    -0.084 C 
HETATM    7  C1  UNL     1     -34.049  13.610  -3.547  1.00 20.00     0.015 C 
HETATM    8  C8  UNL     1     -33.812  15.998  -2.904  1.00 20.00     0.043 C 
ENDBRANCH   4   6
BRANCH   3   9
HETATM    9  C3  UNL     1     -37.106  15.347  -4.082  1.00 20.00     0.128 C 
HETATM   10  C9  UNL     1     -37.557  16.434  -3.145  1.00 20.00     0.091 C 
HETATM   11  O11 UNL     1     -37.462  14.179  -3.934  1.00 20.00    -0.298 OA
ENDBRANCH   3   9
TORSDOF 2
ENDMDL
