MODEL 1
REMARK VINA RESULT:      -4.9      0.000      0.000
REMARK  0 active torsions:
REMARK  status: ('A' for Active; 'I' for Inactive)
ROOT
HETATM    1  C1  UNL     1     -33.982   5.481   2.770  1.00 20.00     0.041 A 
HETATM    2  C2  UNL     1     -34.410   5.349   4.125  1.00 20.00    -0.008 A 
HETATM    3  C3  UNL     1     -32.991   6.400   2.878  1.00 20.00     0.041 A 
HETATM    4  C4  UNL     1     -33.665   6.177   4.938  1.00 20.00     0.064 A 
HETATM    5  C5  UNL     1     -31.935   7.282   2.482  1.00 20.00     0.047 A 
HETATM    6  C6  UNL     1     -34.088   6.044   6.272  1.00 20.00     0.141 A 
HETATM    7  C7  UNL     1     -31.812   7.641   3.792  1.00 20.00     0.100 A 
HETATM    8  C8  UNL     1     -35.372   4.639   4.982  1.00 20.00     0.189 A 
HETATM    9  N9  UNL     1     -35.065   5.181   6.387  1.00 20.00    -0.295 NA
HETATM   10  N10 UNL     1     -32.817   6.793   4.133  1.00 20.00    -0.320 N 
ENDROOT
TORSDOF 0
ENDMDL
MODEL 2
REMARK VINA RESULT:      -4.3     11.755     13.392
REMARK  0 active torsions:
REMARK  status: ('A' for Active; 'I' for Inactive)
ROOT
HETATM    1  C1  UNL     1     -33.317  16.192  -3.778  1.00 20.00     0.041 A 
HETATM    2  C2  UNL     1     -33.867  14.916  -4.102  1.00 20.00    -0.008 A 
HETATM    3  C3  UNL     1     -33.597  16.908  -4.895  1.00 20.00     0.041 A 
HETATM    4  C4  UNL     1     -34.427  14.949  -5.361  1.00 20.00     0.064 A 
HETATM    5  C5  UNL     1     -33.650  18.024  -5.791  1.00 20.00     0.047 A 
HETATM    6  C6  UNL     1     -34.968  13.690  -5.678  1.00 20.00     0.141 A 
HETATM    7  C7  UNL     1     -34.306  17.218  -6.675  1.00 20.00     0.100 A 
HETATM    8  C8  UNL     1     -34.056  13.556  -3.571  1.00 20.00     0.189 A 
HETATM    9  N9  UNL     1     -34.798  12.832  -4.705  1.00 20.00    -0.295 NA
HETATM   10  N10 UNL     1     -34.237  16.181  -5.801  1.00 20.00    -0.320 N 
ENDROOT
TORSDOF 0
ENDMDL
MODEL 3
REMARK VINA RESULT:      -4.3     11.229     12.451
REMARK  0 active torsions:
REMARK  status: ('A' for Active; 'I' for Inactive)
ROOT
HETATM    1  C1  UNL     1     -33.724  16.117  -2.656  1.00 20.00     0.041 A 
HETATM    2  C2  UNL     1     -34.084  14.904  -3.316  1.00 20.00    -0.008 A 
HETATM    3  C3  UNL     1     -34.911  16.773  -2.612  1.00 20.00     0.041 A 
HETATM    4  C4  UNL     1     -35.429  14.910  -3.616  1.00 20.00     0.064 A 
HETATM    5  C5  UNL     1     -35.856  17.811  -2.330  1.00 20.00     0.047 A 
HETATM    6  C6  UNL     1     -35.781  13.714  -4.265  1.00 20.00     0.141 A 
HETATM    7  C7  UNL     1     -36.810  17.031  -2.917  1.00 20.00     0.100 A 
HETATM    8  C8  UNL     1     -33.531  13.629  -3.799  1.00 20.00     0.189 A 
HETATM    9  N9  UNL     1     -34.749  12.921  -4.411  1.00 20.00    -0.295 NA
HETATM   10  N10 UNL     1     -35.886  16.067  -3.168  1.00 20.00    -0.320 N 
ENDROOT
TORSDOF 0
ENDMDL
MODEL 4
REMARK VINA RESULT:      -4.2     11.331     12.066
REMARK  0 active torsions:
REMARK  status: ('A' for Active; 'I' for Inactive)
ROOT
HETATM    1  C1  UNL     1     -36.391  15.618  -3.200  1.00 20.00     0.041 A 
HETATM    2  C2  UNL     1     -35.502  14.625  -3.708  1.00 20.00    -0.008 A 
HETATM    3  C3  UNL     1     -35.564  16.363  -2.425  1.00 20.00     0.041 A 
HETATM    4  C4  UNL     1     -34.231  14.834  -3.218  1.00 20.00     0.064 A 
HETATM    5  C5  UNL     1     -35.138  17.402  -1.537  1.00 20.00     0.047 A 
HETATM    6  C6  UNL     1     -33.357  13.853  -3.721  1.00 20.00     0.141 A 
HETATM    7  C7  UNL     1     -33.882  16.873  -1.603  1.00 20.00     0.100 A 
HETATM    8  C8  UNL     1     -35.449  13.440  -4.579  1.00 20.00     0.189 A 
HETATM    9  N9  UNL     1     -33.975  13.013  -4.510  1.00 20.00    -0.295 NA
HETATM   10  N10 UNL     1     -34.321  15.901  -2.444  1.00 20.00    -0.320 N 
ENDROOT
TORSDOF 0
ENDMDL
MODEL 5
REMARK VINA RESULT:      -4.2     11.730     13.276
REMARK  0 active torsions:
REMARK  status: ('A' for Active; 'I' for Inactive)
ROOT
HETATM    1  C1  UNL     1     -34.204  15.784  -6.605  1.00 20.00     0.041 A 
HETATM    2  C2  UNL     1     -34.442  14.701  -5.707  1.00 20.00    -0.008 A 
HETATM    3  C3  UNL     1     -33.915  16.797  -5.750  1.00 20.00     0.041 A 
HETATM    4  C4  UNL     1     -34.283  15.124  -4.405  1.00 20.00     0.064 A 
HETATM    5  C5  UNL     1     -33.565  18.111  -5.303  1.00 20.00     0.047 A 
HETATM    6  C6  UNL     1     -34.518  14.054  -3.523  1.00 20.00     0.141 A 
HETATM    7  C7  UNL     1     -33.633  17.638  -4.025  1.00 20.00     0.100 A 
HETATM    8  C8  UNL     1     -34.800  13.274  -5.667  1.00 20.00     0.189 A 
HETATM    9  N9  UNL     1     -34.822  12.955  -4.165  1.00 20.00    -0.295 NA
HETATM   10  N10 UNL     1     -33.963  16.403  -4.485  1.00 20.00    -0.320 N 
ENDROOT
TORSDOF 0
ENDMDL
MODEL 6
REMARK VINA RESULT:      -4.1     11.901     13.557
REMARK  0 active torsions:
REMARK  status: ('A' for Active; 'I' for Inactive)
ROOT
HETATM    1  C1  UNL     1     -33.573  16.447  -5.491  1.00 20.00     0.041 A 
HETATM    2  C2  UNL     1     -33.752  15.224  -4.778  1.00 20.00    -0.008 A 
HETATM    3  C3  UNL     1     -34.276  16.212  -6.627  1.00 20.00     0.041 A 
HETATM    4  C4  UNL     1     -34.532  14.357  -5.513  1.00 20.00     0.064 A 
HETATM    5  C5  UNL     1     -34.850  16.446  -7.918  1.00 20.00     0.047 A 
HETATM    6  C6  UNL     1     -34.706  13.153  -4.808  1.00 20.00     0.141 A 
HETATM    7  C7  UNL     1     -35.384  15.192  -7.851  1.00 20.00     0.100 A 
HETATM    8  C8  UNL     1     -33.400  14.542  -3.522  1.00 20.00     0.189 A 
HETATM    9  N9  UNL     1     -34.088  13.175  -3.654  1.00 20.00    -0.295 NA
HETATM   10  N10 UNL     1     -34.825  15.005  -6.628  1.00 20.00    -0.320 N 
ENDROOT
TORSDOF 0
ENDMDL
MODEL 7
REMARK VINA RESULT:      -4.1      1.117      3.950
REMARK  0 active torsions:
REMARK  status: ('A' for Active; 'I' for Inactive)
ROOT
HETATM    1  C1  UNL     1     -33.604   6.713   6.204  1.00 20.00     0.041 A 
HETATM    2  C2  UNL     1     -33.063   6.866   4.892  1.00 20.00    -0.008 A 
HETATM    3  C3  UNL     1     -34.373   5.605   6.061  1.00 20.00     0.041 A 
HETATM    4  C4  UNL     1     -33.530   5.863   4.069  1.00 20.00     0.064 A 
HETATM    5  C5  UNL     1     -35.267   4.543   6.412  1.00 20.00     0.047 A 
HETATM    6  C6  UNL     1     -32.995   6.017   2.778  1.00 20.00     0.141 A 
HETATM    7  C7  UNL     1     -35.167   4.103   5.124  1.00 20.00     0.100 A 
HETATM    8  C8  UNL     1     -32.174   7.719   4.088  1.00 20.00     0.189 A 
HETATM    9  N9  UNL     1     -32.206   7.058   2.701  1.00 20.00    -0.295 NA
HETATM   10  N10 UNL     1     -34.321   5.124   4.827  1.00 20.00    -0.320 N 
ENDROOT
TORSDOF 0
ENDMDL
MODEL 8
REMARK VINA RESULT:      -4.0     11.698     13.501
REMARK  0 active torsions:
REMARK  status: ('A' for Active; 'I' for Inactive)
ROOT
HETATM    1  C1  UNL     1     -34.490  15.593  -2.593  1.00 20.00     0.041 A 
HETATM    2  C2  UNL     1     -34.104  16.731  -3.361  1.00 20.00    -0.008 A 
HETATM    3  C3  UNL     1     -34.607  14.638  -3.549  1.00 20.00     0.041 A 
HETATM    4  C4  UNL     1     -34.015  16.393  -4.695  1.00 20.00     0.064 A 
HETATM    5  C5  UNL     1     -34.852  13.355  -4.135  1.00 20.00     0.047 A 
HETATM    6  C6  UNL     1     -33.635  17.517  -5.449  1.00 20.00     0.141 A 
HETATM    7  C7  UNL     1     -34.555  13.908  -5.346  1.00 20.00     0.100 A 
HETATM    8  C8  UNL     1     -33.761  18.158  -3.245  1.00 20.00     0.189 A 
HETATM    9  N9  UNL     1     -33.468  18.573  -4.694  1.00 20.00    -0.295 NA
HETATM   10  N10 UNL     1     -34.330  15.111  -4.756  1.00 20.00    -0.320 N 
ENDROOT
TORSDOF 0
ENDMDL
MODEL 9
REMARK VINA RESULT:      -4.0      1.011      3.479
REMARK  0 active torsions:
REMARK  status: ('A' for Active; 'I' for Inactive)
ROOT
HETATM    1  C1  UNL     1     -34.449   5.223   3.221  1.00 20.00     0.041 A 
HETATM    2  C2  UNL     1     -33.379   6.164   3.129  1.00 20.00    -0.008 A 
HETATM    3  C3  UNL     1     -34.663   5.176   4.559  1.00 20.00     0.041 A 
HETATM    4  C4  UNL     1     -33.031   6.608   4.386  1.00 20.00     0.064 A 
HETATM    5  C5  UNL     1     -35.250   4.789   5.807  1.00 20.00     0.047 A 
HETATM    6  C6  UNL     1     -31.977   7.534   4.292  1.00 20.00     0.141 A 
HETATM    7  C7  UNL     1     -34.373   5.635   6.422  1.00 20.00     0.100 A 
HETATM    8  C8  UNL     1     -32.500   6.841   2.163  1.00 20.00     0.189 A 
HETATM    9  N9  UNL     1     -31.611   7.725   3.050  1.00 20.00    -0.295 NA
HETATM   10  N10 UNL     1     -33.840   5.978   5.220  1.00 20.00    -0.320 N 
ENDROOT
TORSDOF 0
ENDMDL
