MODEL 1
REMARK VINA RESULT:      -4.7      0.000      0.000
REMARK  2 active torsions:
REMARK  status: ('A' for Active; 'I' for Inactive)
REMARK    1  A    between atoms: C6_6  and  C9_9 
REMARK    2  A    between atoms: C9_9  and  N10_10 
ROOT
HETATM    1  C1  UNL     1     -34.883   5.428   6.404  1.00 20.00     0.006 C 
HETATM    2  C2  UNL     1     -35.162   4.608   5.380  1.00 20.00     0.004 C 
HETATM    3  C3  UNL     1     -33.919   6.504   6.260  1.00 20.00    -0.040 C 
HETATM    4  C4  UNL     1     -33.733   7.418   7.223  1.00 20.00     0.020 C 
HETATM    5  C7  UNL     1     -34.542   4.786   4.018  1.00 20.00     0.300 C 
HETATM    6  C8  UNL     1     -33.138   6.524   4.962  1.00 20.00     0.310 C 
HETATM    7  N10 UNL     1     -33.979   6.133   3.817  1.00 20.00     0.099 N 
ENDROOT
BRANCH   7   8
HETATM    8  C9  UNL     1     -33.229   6.200   2.565  1.00 20.00     0.299 C 
BRANCH   8   9
HETATM    9  C6  UNL     1     -32.175   7.250   2.692  1.00 20.00    -0.007 C 
HETATM   10  C5  UNL     1     -32.086   8.318   1.891  1.00 20.00     0.008 C 
ENDBRANCH   8   9
ENDBRANCH   7   8
TORSDOF 2
ENDMDL
MODEL 2
REMARK VINA RESULT:      -4.7      0.807      2.149
REMARK  2 active torsions:
REMARK  status: ('A' for Active; 'I' for Inactive)
REMARK    1  A    between atoms: C6_6  and  C9_9 
REMARK    2  A    between atoms: C9_9  and  N10_10 
ROOT
HETATM    1  C1  UNL     1     -34.263   5.954   6.425  1.00 20.00     0.006 C 
HETATM    2  C2  UNL     1     -33.481   7.016   6.181  1.00 20.00     0.004 C 
HETATM    3  C3  UNL     1     -34.641   5.042   5.360  1.00 20.00    -0.040 C 
HETATM    4  C4  UNL     1     -35.300   3.901   5.609  1.00 20.00     0.020 C 
HETATM    5  C7  UNL     1     -32.908   7.294   4.816  1.00 20.00     0.300 C 
HETATM    6  C8  UNL     1     -34.249   5.463   3.958  1.00 20.00     0.310 C 
HETATM    7  N10 UNL     1     -32.926   6.111   3.936  1.00 20.00     0.099 N 
ENDROOT
BRANCH   7   8
HETATM    8  C9  UNL     1     -32.539   6.472   2.574  1.00 20.00     0.299 C 
BRANCH   8   9
HETATM    9  C6  UNL     1     -32.090   7.896   2.563  1.00 20.00    -0.007 C 
HETATM   10  C5  UNL     1     -31.979   8.635   1.454  1.00 20.00     0.008 C 
ENDBRANCH   8   9
ENDBRANCH   7   8
TORSDOF 2
ENDMDL
MODEL 3
REMARK VINA RESULT:      -4.5     11.516     13.001
REMARK  2 active torsions:
REMARK  status: ('A' for Active; 'I' for Inactive)
REMARK    1  A    between atoms: C6_6  and  C9_9 
REMARK    2  A    between atoms: C9_9  and  N10_10 
ROOT
HETATM    1  C1  UNL     1     -34.834  13.619  -5.583  1.00 20.00     0.006 C 
HETATM    2  C2  UNL     1     -34.865  13.344  -4.270  1.00 20.00     0.004 C 
HETATM    3  C3  UNL     1     -34.572  14.965  -6.058  1.00 20.00    -0.040 C 
HETATM    4  C4  UNL     1     -34.396  15.232  -7.361  1.00 20.00     0.020 C 
HETATM    5  C7  UNL     1     -34.578  14.389  -3.224  1.00 20.00     0.300 C 
HETATM    6  C8  UNL     1     -34.516  16.044  -4.996  1.00 20.00     0.310 C 
HETATM    7  N10 UNL     1     -33.866  15.560  -3.765  1.00 20.00     0.099 N 
ENDROOT
BRANCH   7   8
HETATM    8  C9  UNL     1     -33.776  16.621  -2.764  1.00 20.00     0.299 C 
BRANCH   8   9
HETATM    9  C6  UNL     1     -34.633  16.254  -1.597  1.00 20.00    -0.007 C 
HETATM   10  C5  UNL     1     -34.659  16.937  -0.447  1.00 20.00     0.008 C 
ENDBRANCH   8   9
ENDBRANCH   7   8
TORSDOF 2
ENDMDL
MODEL 4
REMARK VINA RESULT:      -4.2      9.963     11.015
REMARK  2 active torsions:
REMARK  status: ('A' for Active; 'I' for Inactive)
REMARK    1  A    between atoms: C6_6  and  C9_9 
REMARK    2  A    between atoms: C9_9  and  N10_10 
ROOT
HETATM    1  C1  UNL     1     -40.807   4.666  -0.892  1.00 20.00     0.006 C 
HETATM    2  C2  UNL     1     -40.660   5.889  -0.361  1.00 20.00     0.004 C 
HETATM    3  C3  UNL     1     -41.670   4.446  -2.038  1.00 20.00    -0.040 C 
HETATM    4  C4  UNL     1     -41.719   3.264  -2.668  1.00 20.00     0.020 C 
HETATM    5  C7  UNL     1     -41.328   7.104  -0.949  1.00 20.00     0.300 C 
HETATM    6  C8  UNL     1     -42.511   5.630  -2.470  1.00 20.00     0.310 C 
HETATM    7  N10 UNL     1     -41.771   6.897  -2.340  1.00 20.00     0.099 N 
ENDROOT
BRANCH   7   8
HETATM    8  C9  UNL     1     -42.574   8.027  -2.802  1.00 20.00     0.299 C 
BRANCH   8   9
HETATM    9  C6  UNL     1     -42.622   8.003  -4.295  1.00 20.00    -0.007 C 
HETATM   10  C5  UNL     1     -42.148   8.982  -5.072  1.00 20.00     0.008 C 
ENDBRANCH   8   9
ENDBRANCH   7   8
TORSDOF 2
ENDMDL
MODEL 5
REMARK VINA RESULT:      -4.2     11.810     13.336
REMARK  2 active torsions:
REMARK  status: ('A' for Active; 'I' for Inactive)
REMARK    1  A    between atoms: C6_6  and  C9_9 
REMARK    2  A    between atoms: C9_9  and  N10_10 
ROOT
HETATM    1  C1  UNL     1     -34.238  15.271  -6.032  1.00 20.00     0.006 C 
HETATM    2  C2  UNL     1     -33.936  16.577  -5.988  1.00 20.00     0.004 C 
HETATM    3  C3  UNL     1     -34.299  14.476  -4.819  1.00 20.00    -0.040 C 
HETATM    4  C4  UNL     1     -34.737  13.209  -4.827  1.00 20.00     0.020 C 
HETATM    5  C7  UNL     1     -33.699  17.303  -4.690  1.00 20.00     0.300 C 
HETATM    6  C8  UNL     1     -33.833  15.165  -3.552  1.00 20.00     0.310 C 
HETATM    7  N10 UNL     1     -34.239  16.581  -3.524  1.00 20.00     0.099 N 
ENDROOT
BRANCH   7   8
HETATM    8  C9  UNL     1     -33.825  17.223  -2.278  1.00 20.00     0.299 C 
BRANCH   8   9
HETATM    9  C6  UNL     1     -34.527  16.559  -1.139  1.00 20.00    -0.007 C 
HETATM   10  C5  UNL     1     -34.893  17.191  -0.019  1.00 20.00     0.008 C 
ENDBRANCH   8   9
ENDBRANCH   7   8
TORSDOF 2
ENDMDL
MODEL 6
REMARK VINA RESULT:      -4.2     11.649     12.368
REMARK  2 active torsions:
REMARK  status: ('A' for Active; 'I' for Inactive)
REMARK    1  A    between atoms: C6_6  and  C9_9 
REMARK    2  A    between atoms: C9_9  and  N10_10 
ROOT
HETATM    1  C1  UNL     1     -35.489  13.575  -4.408  1.00 20.00     0.006 C 
HETATM    2  C2  UNL     1     -34.170  13.625  -4.171  1.00 20.00     0.004 C 
HETATM    3  C3  UNL     1     -36.382  14.594  -3.885  1.00 20.00    -0.040 C 
HETATM    4  C4  UNL     1     -37.677  14.640  -4.229  1.00 20.00     0.020 C 
HETATM    5  C7  UNL     1     -33.534  14.756  -3.406  1.00 20.00     0.300 C 
HETATM    6  C8  UNL     1     -35.761  15.591  -2.928  1.00 20.00     0.310 C 
HETATM    7  N10 UNL     1     -34.392  15.952  -3.334  1.00 20.00     0.099 N 
ENDROOT
BRANCH   7   8
HETATM    8  C9  UNL     1     -33.819  16.949  -2.431  1.00 20.00     0.299 C 
BRANCH   8   9
HETATM    9  C6  UNL     1     -34.362  16.721  -1.059  1.00 20.00    -0.007 C 
HETATM   10  C5  UNL     1     -34.285  17.616  -0.068  1.00 20.00     0.008 C 
ENDBRANCH   8   9
ENDBRANCH   7   8
TORSDOF 2
ENDMDL
MODEL 7
REMARK VINA RESULT:      -4.1      9.810     11.076
REMARK  2 active torsions:
REMARK  status: ('A' for Active; 'I' for Inactive)
REMARK    1  A    between atoms: C6_6  and  C9_9 
REMARK    2  A    between atoms: C9_9  and  N10_10 
ROOT
HETATM    1  C1  UNL     1     -41.203   7.111  -1.098  1.00 20.00     0.006 C 
HETATM    2  C2  UNL     1     -40.738   6.038  -0.441  1.00 20.00     0.004 C 
HETATM    3  C3  UNL     1     -42.111   6.965  -2.221  1.00 20.00    -0.040 C 
HETATM    4  C4  UNL     1     -42.697   8.024  -2.797  1.00 20.00     0.020 C 
HETATM    5  C7  UNL     1     -41.168   4.636  -0.788  1.00 20.00     0.300 C 
HETATM    6  C8  UNL     1     -42.349   5.547  -2.700  1.00 20.00     0.310 C 
HETATM    7  N10 UNL     1     -42.412   4.597  -1.576  1.00 20.00     0.099 N 
ENDROOT
BRANCH   7   8
HETATM    8  C9  UNL     1     -42.688   3.241  -2.046  1.00 20.00     0.299 C 
BRANCH   8   9
HETATM    9  C6  UNL     1     -41.600   2.827  -2.982  1.00 20.00    -0.007 C 
HETATM   10  C5  UNL     1     -41.629   1.706  -3.710  1.00 20.00     0.008 C 
ENDBRANCH   8   9
ENDBRANCH   7   8
TORSDOF 2
ENDMDL
MODEL 8
REMARK VINA RESULT:      -4.0     11.134     12.205
REMARK  2 active torsions:
REMARK  status: ('A' for Active; 'I' for Inactive)
REMARK    1  A    between atoms: C6_6  and  C9_9 
REMARK    2  A    between atoms: C9_9  and  N10_10 
ROOT
HETATM    1  C1  UNL     1     -35.350  13.692  -4.193  1.00 20.00     0.006 C 
HETATM    2  C2  UNL     1     -36.483  14.398  -4.067  1.00 20.00     0.004 C 
HETATM    3  C3  UNL     1     -34.103  14.174  -3.628  1.00 20.00    -0.040 C 
HETATM    4  C4  UNL     1     -32.995  13.419  -3.618  1.00 20.00     0.020 C 
HETATM    5  C7  UNL     1     -36.543  15.690  -3.295  1.00 20.00     0.300 C 
HETATM    6  C8  UNL     1     -34.132  15.578  -3.058  1.00 20.00     0.310 C 
HETATM    7  N10 UNL     1     -35.405  15.859  -2.374  1.00 20.00     0.099 N 
ENDROOT
BRANCH   7   8
HETATM    8  C9  UNL     1     -35.405  17.198  -1.789  1.00 20.00     0.299 C 
BRANCH   8   9
HETATM    9  C6  UNL     1     -34.550  17.188  -0.564  1.00 20.00    -0.007 C 
HETATM   10  C5  UNL     1     -35.009  17.430   0.668  1.00 20.00     0.008 C 
ENDBRANCH   8   9
ENDBRANCH   7   8
TORSDOF 2
ENDMDL
MODEL 9
REMARK VINA RESULT:      -4.0     11.449     12.635
REMARK  2 active torsions:
REMARK  status: ('A' for Active; 'I' for Inactive)
REMARK    1  A    between atoms: C6_6  and  C9_9 
REMARK    2  A    between atoms: C9_9  and  N10_10 
ROOT
HETATM    1  C1  UNL     1     -34.476  18.309  -2.161  1.00 20.00     0.006 C 
HETATM    2  C2  UNL     1     -34.071  18.254  -3.439  1.00 20.00     0.004 C 
HETATM    3  C3  UNL     1     -34.576  17.105  -1.356  1.00 20.00    -0.040 C 
HETATM    4  C4  UNL     1     -34.839  17.155  -0.042  1.00 20.00     0.020 C 
HETATM    5  C7  UNL     1     -33.648  16.965  -4.092  1.00 20.00     0.300 C 
HETATM    6  C8  UNL     1     -34.371  15.797  -2.093  1.00 20.00     0.310 C 
HETATM    7  N10 UNL     1     -33.318  15.910  -3.117  1.00 20.00     0.099 N 
ENDROOT
BRANCH   7   8
HETATM    8  C9  UNL     1     -33.097  14.632  -3.789  1.00 20.00     0.299 C 
BRANCH   8   9
HETATM    9  C6  UNL     1     -34.346  13.818  -3.697  1.00 20.00    -0.007 C 
HETATM   10  C5  UNL     1     -34.907  13.192  -4.737  1.00 20.00     0.008 C 
ENDBRANCH   8   9
ENDBRANCH   7   8
TORSDOF 2
ENDMDL
