MODEL 1
REMARK VINA RESULT:      -4.5      0.000      0.000
REMARK  5 active torsions:
REMARK  status: ('A' for Active; 'I' for Inactive)
REMARK    1  A    between atoms: C2_2  and  C7_7 
REMARK    2  A    between atoms: C7_7  and  N11_11 
REMARK    3  A    between atoms: C8_8  and  C9_9 
REMARK    4  A    between atoms: C8_8  and  C10_10 
REMARK    5  A    between atoms: C9_9  and  N11_11 
ROOT
HETATM    1  C1  UNL     1     -32.164   8.740   1.465  1.00 20.00    -0.109 C 
HETATM    2  C2  UNL     1     -31.987   8.071   2.446  1.00 20.00    -0.077 C 
HETATM    3  C3  UNL     1     -32.379   9.555   0.270  1.00 20.00     0.112 C 
ENDROOT
BRANCH   2   4
HETATM    4  C7  UNL     1     -31.773   7.248   3.641  1.00 20.00     0.365 C 
BRANCH   4   5
HETATM    5  N11 UNL     1     -32.717   6.120   3.677  1.00 20.00     0.095 N 
HETATM    6  C6  UNL     1     -32.531   5.288   2.477  1.00 20.00     0.310 C 
BRANCH   5   7
HETATM    7  C9  UNL     1     -34.074   6.575   3.795  1.00 20.00     0.273 C 
BRANCH   7   8
HETATM    8  C8  UNL     1     -35.043   5.442   4.127  1.00 20.00     0.034 C 
BRANCH   8   9
HETATM    9  C10 UNL     1     -35.074   5.026   5.611  1.00 20.00    -0.021 C 
HETATM   10  C4  UNL     1     -34.344   6.073   6.458  1.00 20.00     0.009 C 
HETATM   11  C5  UNL     1     -34.453   3.649   5.846  1.00 20.00     0.009 C 
ENDBRANCH   8   9
ENDBRANCH   7   8
ENDBRANCH   5   7
ENDBRANCH   4   5
ENDBRANCH   2   4
TORSDOF 5
ENDMDL
MODEL 2
REMARK VINA RESULT:      -4.4     11.018     12.481
REMARK  5 active torsions:
REMARK  status: ('A' for Active; 'I' for Inactive)
REMARK    1  A    between atoms: C2_2  and  C7_7 
REMARK    2  A    between atoms: C7_7  and  N11_11 
REMARK    3  A    between atoms: C8_8  and  C9_9 
REMARK    4  A    between atoms: C8_8  and  C10_10 
REMARK    5  A    between atoms: C9_9  and  N11_11 
ROOT
HETATM    1  C1  UNL     1     -34.792  16.686  -0.962  1.00 20.00    -0.109 C 
HETATM    2  C2  UNL     1     -34.891  16.112  -2.012  1.00 20.00    -0.077 C 
HETATM    3  C3  UNL     1     -34.672  17.385   0.316  1.00 20.00     0.112 C 
ENDROOT
BRANCH   2   4
HETATM    4  C7  UNL     1     -35.018  15.410  -3.293  1.00 20.00     0.365 C 
BRANCH   4   5
HETATM    5  N11 UNL     1     -34.012  14.343  -3.409  1.00 20.00     0.095 N 
HETATM    6  C6  UNL     1     -32.675  14.943  -3.549  1.00 20.00     0.310 C 
BRANCH   5   7
HETATM    7  C9  UNL     1     -34.307  13.460  -4.503  1.00 20.00     0.273 C 
BRANCH   7   8
HETATM    8  C8  UNL     1     -35.345  14.043  -5.460  1.00 20.00     0.034 C 
BRANCH   8   9
HETATM    9  C10 UNL     1     -34.810  14.408  -6.858  1.00 20.00    -0.021 C 
HETATM   10  C4  UNL     1     -34.110  15.770  -6.804  1.00 20.00     0.009 C 
HETATM   11  C5  UNL     1     -35.912  14.436  -7.918  1.00 20.00     0.009 C 
ENDBRANCH   8   9
ENDBRANCH   7   8
ENDBRANCH   5   7
ENDBRANCH   4   5
ENDBRANCH   2   4
TORSDOF 5
ENDMDL
MODEL 3
REMARK VINA RESULT:      -4.3     11.630     13.153
REMARK  5 active torsions:
REMARK  status: ('A' for Active; 'I' for Inactive)
REMARK    1  A    between atoms: C2_2  and  C7_7 
REMARK    2  A    between atoms: C7_7  and  N11_11 
REMARK    3  A    between atoms: C8_8  and  C9_9 
REMARK    4  A    between atoms: C8_8  and  C10_10 
REMARK    5  A    between atoms: C9_9  and  N11_11 
ROOT
HETATM    1  C1  UNL     1     -34.720  16.961  -0.386  1.00 20.00    -0.109 C 
HETATM    2  C2  UNL     1     -34.379  16.502  -1.442  1.00 20.00    -0.077 C 
HETATM    3  C3  UNL     1     -35.135  17.520   0.900  1.00 20.00     0.112 C 
ENDROOT
BRANCH   2   4
HETATM    4  C7  UNL     1     -33.964  15.935  -2.729  1.00 20.00     0.365 C 
BRANCH   4   5
HETATM    5  N11 UNL     1     -33.826  16.990  -3.747  1.00 20.00     0.095 N 
HETATM    6  C6  UNL     1     -35.143  17.593  -4.008  1.00 20.00     0.310 C 
BRANCH   5   7
HETATM    7  C9  UNL     1     -33.233  16.481  -4.951  1.00 20.00     0.273 C 
BRANCH   7   8
HETATM    8  C8  UNL     1     -34.252  16.301  -6.074  1.00 20.00     0.034 C 
BRANCH   8   9
HETATM    9  C10 UNL     1     -34.374  14.864  -6.619  1.00 20.00    -0.021 C 
HETATM   10  C4  UNL     1     -35.189  14.871  -7.917  1.00 20.00     0.009 C 
HETATM   11  C5  UNL     1     -35.016  13.909  -5.612  1.00 20.00     0.009 C 
ENDBRANCH   8   9
ENDBRANCH   7   8
ENDBRANCH   5   7
ENDBRANCH   4   5
ENDBRANCH   2   4
TORSDOF 5
ENDMDL
MODEL 4
REMARK VINA RESULT:      -4.2     10.831     12.073
REMARK  5 active torsions:
REMARK  status: ('A' for Active; 'I' for Inactive)
REMARK    1  A    between atoms: C2_2  and  C7_7 
REMARK    2  A    between atoms: C7_7  and  N11_11 
REMARK    3  A    between atoms: C8_8  and  C9_9 
REMARK    4  A    between atoms: C8_8  and  C10_10 
REMARK    5  A    between atoms: C9_9  and  N11_11 
ROOT
HETATM    1  C1  UNL     1     -34.201  17.717   0.116  1.00 20.00    -0.109 C 
HETATM    2  C2  UNL     1     -34.348  16.968  -0.811  1.00 20.00    -0.077 C 
HETATM    3  C3  UNL     1     -34.022  18.630   1.245  1.00 20.00     0.112 C 
ENDROOT
BRANCH   2   4
HETATM    4  C7  UNL     1     -34.529  16.048  -1.938  1.00 20.00     0.365 C 
BRANCH   4   5
HETATM    5  N11 UNL     1     -33.525  16.297  -2.985  1.00 20.00     0.095 N 
HETATM    6  C6  UNL     1     -33.959  17.429  -3.819  1.00 20.00     0.310 C 
BRANCH   5   7
HETATM    7  C9  UNL     1     -33.291  15.121  -3.776  1.00 20.00     0.273 C 
BRANCH   7   8
HETATM    8  C8  UNL     1     -34.272  13.996  -3.455  1.00 20.00     0.034 C 
BRANCH   8   9
HETATM    9  C10 UNL     1     -35.323  13.717  -4.549  1.00 20.00    -0.021 C 
HETATM   10  C4  UNL     1     -34.815  14.234  -5.898  1.00 20.00     0.009 C 
HETATM   11  C5  UNL     1     -36.679  14.349  -4.231  1.00 20.00     0.009 C 
ENDBRANCH   8   9
ENDBRANCH   7   8
ENDBRANCH   5   7
ENDBRANCH   4   5
ENDBRANCH   2   4
TORSDOF 5
ENDMDL
MODEL 5
REMARK VINA RESULT:      -4.0     10.940     12.231
REMARK  5 active torsions:
REMARK  status: ('A' for Active; 'I' for Inactive)
REMARK    1  A    between atoms: C2_2  and  C7_7 
REMARK    2  A    between atoms: C7_7  and  N11_11 
REMARK    3  A    between atoms: C8_8  and  C9_9 
REMARK    4  A    between atoms: C8_8  and  C10_10 
REMARK    5  A    between atoms: C9_9  and  N11_11 
ROOT
HETATM    1  C1  UNL     1     -37.188  14.813  -4.453  1.00 20.00    -0.109 C 
HETATM    2  C2  UNL     1     -36.133  14.791  -5.025  1.00 20.00    -0.077 C 
HETATM    3  C3  UNL     1     -38.474  14.839  -3.757  1.00 20.00     0.112 C 
ENDROOT
BRANCH   2   4
HETATM    4  C7  UNL     1     -34.841  14.766  -5.718  1.00 20.00     0.365 C 
BRANCH   4   5
HETATM    5  N11 UNL     1     -33.734  14.973  -4.771  1.00 20.00     0.095 N 
HETATM    6  C6  UNL     1     -33.659  13.828  -3.849  1.00 20.00     0.310 C 
BRANCH   5   7
HETATM    7  C9  UNL     1     -33.877  16.212  -4.059  1.00 20.00     0.273 C 
BRANCH   7   8
HETATM    8  C8  UNL     1     -33.771  16.032  -2.547  1.00 20.00     0.034 C 
BRANCH   8   9
HETATM    9  C10 UNL     1     -35.006  16.496  -1.748  1.00 20.00    -0.021 C 
HETATM   10  C4  UNL     1     -35.730  17.607  -2.514  1.00 20.00     0.009 C 
HETATM   11  C5  UNL     1     -34.646  16.987  -0.346  1.00 20.00     0.009 C 
ENDBRANCH   8   9
ENDBRANCH   7   8
ENDBRANCH   5   7
ENDBRANCH   4   5
ENDBRANCH   2   4
TORSDOF 5
ENDMDL
MODEL 6
REMARK VINA RESULT:      -4.0     11.013     12.960
REMARK  5 active torsions:
REMARK  status: ('A' for Active; 'I' for Inactive)
REMARK    1  A    between atoms: C2_2  and  C7_7 
REMARK    2  A    between atoms: C7_7  and  N11_11 
REMARK    3  A    between atoms: C8_8  and  C9_9 
REMARK    4  A    between atoms: C8_8  and  C10_10 
REMARK    5  A    between atoms: C9_9  and  N11_11 
ROOT
HETATM    1  C1  UNL     1     -34.578  16.474  -1.207  1.00 20.00    -0.109 C 
HETATM    2  C2  UNL     1     -34.305  15.824  -2.178  1.00 20.00    -0.077 C 
HETATM    3  C3  UNL     1     -34.911  17.268  -0.024  1.00 20.00     0.112 C 
ENDROOT
BRANCH   2   4
HETATM    4  C7  UNL     1     -33.975  15.023  -3.362  1.00 20.00     0.365 C 
BRANCH   4   5
HETATM    5  N11 UNL     1     -35.179  14.383  -3.915  1.00 20.00     0.095 N 
HETATM    6  C6  UNL     1     -34.801  13.134  -4.595  1.00 20.00     0.310 C 
BRANCH   5   7
HETATM    7  C9  UNL     1     -35.886  15.269  -4.797  1.00 20.00     0.273 C 
BRANCH   7   8
HETATM    8  C8  UNL     1     -34.968  15.915  -5.833  1.00 20.00     0.034 C 
BRANCH   8   9
HETATM    9  C10 UNL     1     -34.986  17.456  -5.847  1.00 20.00    -0.021 C 
HETATM   10  C4  UNL     1     -33.561  17.991  -5.678  1.00 20.00     0.009 C 
HETATM   11  C5  UNL     1     -35.889  18.041  -4.761  1.00 20.00     0.009 C 
ENDBRANCH   8   9
ENDBRANCH   7   8
ENDBRANCH   5   7
ENDBRANCH   4   5
ENDBRANCH   2   4
TORSDOF 5
ENDMDL
MODEL 7
REMARK VINA RESULT:      -4.0     11.124     13.162
REMARK  5 active torsions:
REMARK  status: ('A' for Active; 'I' for Inactive)
REMARK    1  A    between atoms: C2_2  and  C7_7 
REMARK    2  A    between atoms: C7_7  and  N11_11 
REMARK    3  A    between atoms: C8_8  and  C9_9 
REMARK    4  A    between atoms: C8_8  and  C10_10 
REMARK    5  A    between atoms: C9_9  and  N11_11 
ROOT
HETATM    1  C1  UNL     1     -37.056  14.760  -3.789  1.00 20.00    -0.109 C 
HETATM    2  C2  UNL     1     -35.875  14.682  -3.591  1.00 20.00    -0.077 C 
HETATM    3  C3  UNL     1     -38.496  14.855  -4.030  1.00 20.00     0.112 C 
ENDROOT
BRANCH   2   4
HETATM    4  C7  UNL     1     -34.433  14.585  -3.344  1.00 20.00     0.365 C 
BRANCH   4   5
HETATM    5  N11 UNL     1     -33.876  15.892  -2.961  1.00 20.00     0.095 N 
HETATM    6  C6  UNL     1     -34.466  16.320  -1.683  1.00 20.00     0.310 C 
BRANCH   5   7
HETATM    7  C9  UNL     1     -34.085  16.872  -3.990  1.00 20.00     0.273 C 
BRANCH   7   8
HETATM    8  C8  UNL     1     -33.302  16.558  -5.263  1.00 20.00     0.034 C 
BRANCH   8   9
HETATM    9  C10 UNL     1     -34.149  16.491  -6.549  1.00 20.00    -0.021 C 
HETATM   10  C4  UNL     1     -35.495  17.186  -6.319  1.00 20.00     0.009 C 
HETATM   11  C5  UNL     1     -34.384  15.055  -7.021  1.00 20.00     0.009 C 
ENDBRANCH   8   9
ENDBRANCH   7   8
ENDBRANCH   5   7
ENDBRANCH   4   5
ENDBRANCH   2   4
TORSDOF 5
ENDMDL
MODEL 8
REMARK VINA RESULT:      -4.0     11.104     12.442
REMARK  5 active torsions:
REMARK  status: ('A' for Active; 'I' for Inactive)
REMARK    1  A    between atoms: C2_2  and  C7_7 
REMARK    2  A    between atoms: C7_7  and  N11_11 
REMARK    3  A    between atoms: C8_8  and  C9_9 
REMARK    4  A    between atoms: C8_8  and  C10_10 
REMARK    5  A    between atoms: C9_9  and  N11_11 
ROOT
HETATM    1  C1  UNL     1     -34.034  16.719  -6.062  1.00 20.00    -0.109 C 
HETATM    2  C2  UNL     1     -33.675  16.055  -5.128  1.00 20.00    -0.077 C 
HETATM    3  C3  UNL     1     -34.472  17.527  -7.200  1.00 20.00     0.112 C 
ENDROOT
BRANCH   2   4
HETATM    4  C7  UNL     1     -33.231  15.249  -3.987  1.00 20.00     0.365 C 
BRANCH   4   5
HETATM    5  N11 UNL     1     -34.371  14.865  -3.140  1.00 20.00     0.095 N 
HETATM    6  C6  UNL     1     -35.286  14.008  -3.910  1.00 20.00     0.310 C 
BRANCH   5   7
HETATM    7  C9  UNL     1     -35.048  16.019  -2.617  1.00 20.00     0.273 C 
BRANCH   7   8
HETATM    8  C8  UNL     1     -34.608  16.359  -1.194  1.00 20.00     0.034 C 
BRANCH   8   9
HETATM    9  C10 UNL     1     -33.618  17.535  -1.082  1.00 20.00    -0.021 C 
HETATM   10  C4  UNL     1     -33.826  18.260   0.251  1.00 20.00     0.009 C 
HETATM   11  C5  UNL     1     -33.756  18.528  -2.236  1.00 20.00     0.009 C 
ENDBRANCH   8   9
ENDBRANCH   7   8
ENDBRANCH   5   7
ENDBRANCH   4   5
ENDBRANCH   2   4
TORSDOF 5
ENDMDL
MODEL 9
REMARK VINA RESULT:      -3.9     11.568     13.272
REMARK  5 active torsions:
REMARK  status: ('A' for Active; 'I' for Inactive)
REMARK    1  A    between atoms: C2_2  and  C7_7 
REMARK    2  A    between atoms: C7_7  and  N11_11 
REMARK    3  A    between atoms: C8_8  and  C9_9 
REMARK    4  A    between atoms: C8_8  and  C10_10 
REMARK    5  A    between atoms: C9_9  and  N11_11 
ROOT
HETATM    1  C1  UNL     1     -34.716  16.356  -1.638  1.00 20.00    -0.109 C 
HETATM    2  C2  UNL     1     -35.200  15.646  -2.476  1.00 20.00    -0.077 C 
HETATM    3  C3  UNL     1     -34.125  17.221  -0.617  1.00 20.00     0.112 C 
ENDROOT
BRANCH   2   4
HETATM    4  C7  UNL     1     -35.793  14.785  -3.504  1.00 20.00     0.365 C 
BRANCH   4   5
HETATM    5  N11 UNL     1     -36.888  15.477  -4.202  1.00 20.00     0.095 N 
HETATM    6  C6  UNL     1     -38.159  14.792  -3.919  1.00 20.00     0.310 C 
BRANCH   5   7
HETATM    7  C9  UNL     1     -36.640  15.561  -5.614  1.00 20.00     0.273 C 
BRANCH   7   8
HETATM    8  C8  UNL     1     -35.866  16.821  -5.997  1.00 20.00     0.034 C 
BRANCH   8   9
HETATM    9  C10 UNL     1     -34.432  16.574  -6.507  1.00 20.00    -0.021 C 
HETATM   10  C4  UNL     1     -34.310  15.142  -7.035  1.00 20.00     0.009 C 
HETATM   11  C5  UNL     1     -33.377  16.817  -5.427  1.00 20.00     0.009 C 
ENDBRANCH   8   9
ENDBRANCH   7   8
ENDBRANCH   5   7
ENDBRANCH   4   5
ENDBRANCH   2   4
TORSDOF 5
ENDMDL
