MODEL 1
REMARK VINA RESULT:      -5.5      0.000      0.000
REMARK  0 active torsions:
REMARK  status: ('A' for Active; 'I' for Inactive)
ROOT
HETATM    1  C1  UNL     1     -34.380  16.846  -0.870  1.00 20.00     0.012 C 
HETATM    2  C2  UNL     1     -34.687  16.172  -1.815  1.00 20.00    -0.111 C 
HETATM    3  C3  UNL     1     -34.743  13.699  -4.552  1.00 20.00     0.132 C 
HETATM    4  C4  UNL     1     -35.301  14.890  -5.304  1.00 20.00     0.084 C 
HETATM    5  C5  UNL     1     -32.799  14.859  -3.695  1.00 20.00     0.014 C 
HETATM    6  C6  UNL     1     -33.294  16.128  -4.419  1.00 20.00     0.007 C 
HETATM    7  C7  UNL     1     -35.061  15.348  -2.967  1.00 20.00     0.080 C 
HETATM    8  C8  UNL     1     -34.108  14.183  -3.260  1.00 20.00     0.071 C 
HETATM    9  C9  UNL     1     -34.836  16.008  -4.338  1.00 20.00     0.009 C 
HETATM   10  O10 UNL     1     -34.770  12.541  -4.940  1.00 20.00    -0.298 OA
ENDROOT
TORSDOF 0
ENDMDL
MODEL 2
REMARK VINA RESULT:      -5.1      1.124      2.708
REMARK  0 active torsions:
REMARK  status: ('A' for Active; 'I' for Inactive)
ROOT
HETATM    1  C1  UNL     1     -33.673  18.238  -5.575  1.00 20.00     0.012 C 
HETATM    2  C2  UNL     1     -33.645  17.064  -5.322  1.00 20.00    -0.111 C 
HETATM    3  C3  UNL     1     -34.496  13.630  -4.280  1.00 20.00     0.132 C 
HETATM    4  C4  UNL     1     -33.125  13.732  -3.644  1.00 20.00     0.084 C 
HETATM    5  C5  UNL     1     -35.348  15.681  -3.319  1.00 20.00     0.014 C 
HETATM    6  C6  UNL     1     -33.977  15.877  -2.638  1.00 20.00     0.007 C 
HETATM    7  C7  UNL     1     -33.612  15.632  -5.014  1.00 20.00     0.080 C 
HETATM    8  C8  UNL     1     -34.973  15.022  -4.655  1.00 20.00     0.071 C 
HETATM    9  C9  UNL     1     -32.981  15.274  -3.658  1.00 20.00     0.009 C 
HETATM   10  O10 UNL     1     -35.129  12.597  -4.434  1.00 20.00    -0.298 OA
ENDROOT
TORSDOF 0
ENDMDL
MODEL 3
REMARK VINA RESULT:      -4.7      1.434      2.351
REMARK  0 active torsions:
REMARK  status: ('A' for Active; 'I' for Inactive)
ROOT
HETATM    1  C1  UNL     1     -34.514  16.515  -1.291  1.00 20.00     0.012 C 
HETATM    2  C2  UNL     1     -34.350  15.925  -2.324  1.00 20.00    -0.111 C 
HETATM    3  C3  UNL     1     -34.459  14.814  -5.840  1.00 20.00     0.132 C 
HETATM    4  C4  UNL     1     -34.582  13.462  -5.166  1.00 20.00     0.084 C 
HETATM    5  C5  UNL     1     -36.258  15.854  -4.600  1.00 20.00     0.014 C 
HETATM    6  C6  UNL     1     -36.452  14.519  -3.850  1.00 20.00     0.007 C 
HETATM    7  C7  UNL     1     -34.151  15.207  -3.586  1.00 20.00     0.080 C 
HETATM    8  C8  UNL     1     -34.739  15.903  -4.820  1.00 20.00     0.071 C 
HETATM    9  C9  UNL     1     -35.016  13.948  -3.760  1.00 20.00     0.009 C 
HETATM   10  O10 UNL     1     -34.208  14.994  -7.021  1.00 20.00    -0.298 OA
ENDROOT
TORSDOF 0
ENDMDL
MODEL 4
REMARK VINA RESULT:      -4.7      1.798      2.767
REMARK  0 active torsions:
REMARK  status: ('A' for Active; 'I' for Inactive)
ROOT
HETATM    1  C1  UNL     1     -34.970  17.378   0.277  1.00 20.00     0.012 C 
HETATM    2  C2  UNL     1     -34.505  16.919  -0.731  1.00 20.00    -0.111 C 
HETATM    3  C3  UNL     1     -33.484  16.319  -4.224  1.00 20.00     0.132 C 
HETATM    4  C4  UNL     1     -33.926  14.915  -3.867  1.00 20.00     0.084 C 
HETATM    5  C5  UNL     1     -35.520  17.397  -3.482  1.00 20.00     0.014 C 
HETATM    6  C6  UNL     1     -36.053  16.007  -3.075  1.00 20.00     0.007 C 
HETATM    7  C7  UNL     1     -33.938  16.361  -1.961  1.00 20.00     0.080 C 
HETATM    8  C8  UNL     1     -34.018  17.286  -3.182  1.00 20.00     0.071 C 
HETATM    9  C9  UNL     1     -34.779  15.254  -2.619  1.00 20.00     0.009 C 
HETATM   10  O10 UNL     1     -32.832  16.627  -5.210  1.00 20.00    -0.298 OA
ENDROOT
TORSDOF 0
ENDMDL
MODEL 5
REMARK VINA RESULT:      -4.6      1.172      1.568
REMARK  0 active torsions:
REMARK  status: ('A' for Active; 'I' for Inactive)
ROOT
HETATM    1  C1  UNL     1     -33.766  18.471  -1.832  1.00 20.00     0.012 C 
HETATM    2  C2  UNL     1     -33.939  17.326  -2.150  1.00 20.00    -0.111 C 
HETATM    3  C3  UNL     1     -33.702  13.995  -3.718  1.00 20.00     0.132 C 
HETATM    4  C4  UNL     1     -35.207  14.167  -3.765  1.00 20.00     0.084 C 
HETATM    5  C5  UNL     1     -33.196  16.120  -4.761  1.00 20.00     0.014 C 
HETATM    6  C6  UNL     1     -34.713  16.389  -4.842  1.00 20.00     0.007 C 
HETATM    7  C7  UNL     1     -34.149  15.928  -2.538  1.00 20.00     0.080 C 
HETATM    8  C8  UNL     1     -33.058  15.343  -3.443  1.00 20.00     0.071 C 
HETATM    9  C9  UNL     1     -35.267  15.703  -3.570  1.00 20.00     0.009 C 
HETATM   10  O10 UNL     1     -33.103  12.947  -3.906  1.00 20.00    -0.298 OA
ENDROOT
TORSDOF 0
ENDMDL
MODEL 6
REMARK VINA RESULT:      -4.5      2.026      3.633
REMARK  0 active torsions:
REMARK  status: ('A' for Active; 'I' for Inactive)
ROOT
HETATM    1  C1  UNL     1     -34.423  14.908  -7.372  1.00 20.00     0.012 C 
HETATM    2  C2  UNL     1     -34.553  15.318  -6.250  1.00 20.00    -0.111 C 
HETATM    3  C3  UNL     1     -34.062  16.164  -2.694  1.00 20.00     0.132 C 
HETATM    4  C4  UNL     1     -35.508  15.718  -2.628  1.00 20.00     0.084 C 
HETATM    5  C5  UNL     1     -33.261  14.183  -3.828  1.00 20.00     0.014 C 
HETATM    6  C6  UNL     1     -34.708  13.648  -3.819  1.00 20.00     0.007 C 
HETATM    7  C7  UNL     1     -34.711  15.818  -4.882  1.00 20.00     0.080 C 
HETATM    8  C8  UNL     1     -33.458  15.695  -4.006  1.00 20.00     0.071 C 
HETATM    9  C9  UNL     1     -35.564  14.930  -3.961  1.00 20.00     0.009 C 
HETATM   10  O10 UNL     1     -33.469  16.774  -1.817  1.00 20.00    -0.298 OA
ENDROOT
TORSDOF 0
ENDMDL
MODEL 7
REMARK VINA RESULT:      -4.5      2.054      3.258
REMARK  0 active torsions:
REMARK  status: ('A' for Active; 'I' for Inactive)
ROOT
HETATM    1  C1  UNL     1     -38.266  14.707  -3.836  1.00 20.00     0.012 C 
HETATM    2  C2  UNL     1     -37.086  14.922  -3.789  1.00 20.00    -0.111 C 
HETATM    3  C3  UNL     1     -33.581  15.726  -4.614  1.00 20.00     0.132 C 
HETATM    4  C4  UNL     1     -33.338  14.553  -3.687  1.00 20.00     0.084 C 
HETATM    5  C5  UNL     1     -35.169  14.574  -6.032  1.00 20.00     0.014 C 
HETATM    6  C6  UNL     1     -34.995  13.329  -5.136  1.00 20.00     0.007 C 
HETATM    7  C7  UNL     1     -35.645  15.185  -3.732  1.00 20.00     0.080 C 
HETATM    8  C8  UNL     1     -35.042  15.733  -5.032  1.00 20.00     0.071 C 
HETATM    9  C9  UNL     1     -34.756  13.931  -3.730  1.00 20.00     0.009 C 
HETATM   10  O10 UNL     1     -32.732  16.519  -4.991  1.00 20.00    -0.298 OA
ENDROOT
TORSDOF 0
ENDMDL
MODEL 8
REMARK VINA RESULT:      -4.4      1.761      3.560
REMARK  0 active torsions:
REMARK  status: ('A' for Active; 'I' for Inactive)
ROOT
HETATM    1  C1  UNL     1     -36.596  15.039  -7.618  1.00 20.00     0.012 C 
HETATM    2  C2  UNL     1     -35.687  14.907  -6.844  1.00 20.00    -0.111 C 
HETATM    3  C3  UNL     1     -33.483  13.794  -4.104  1.00 20.00     0.132 C 
HETATM    4  C4  UNL     1     -33.318  15.292  -3.940  1.00 20.00     0.084 C 
HETATM    5  C5  UNL     1     -35.902  13.825  -4.086  1.00 20.00     0.014 C 
HETATM    6  C6  UNL     1     -35.835  15.359  -3.929  1.00 20.00     0.007 C 
HETATM    7  C7  UNL     1     -34.578  14.745  -5.899  1.00 20.00     0.080 C 
HETATM    8  C8  UNL     1     -34.692  13.522  -4.981  1.00 20.00     0.071 C 
HETATM    9  C9  UNL     1     -34.570  15.746  -4.732  1.00 20.00     0.009 C 
HETATM   10  O10 UNL     1     -32.776  12.944  -3.585  1.00 20.00    -0.298 OA
ENDROOT
TORSDOF 0
ENDMDL
MODEL 9
REMARK VINA RESULT:      -4.4      1.670      2.861
REMARK  0 active torsions:
REMARK  status: ('A' for Active; 'I' for Inactive)
ROOT
HETATM    1  C1  UNL     1     -33.504  17.885  -5.442  1.00 20.00     0.012 C 
HETATM    2  C2  UNL     1     -34.184  16.909  -5.277  1.00 20.00    -0.111 C 
HETATM    3  C3  UNL     1     -36.594  14.430  -3.991  1.00 20.00     0.132 C 
HETATM    4  C4  UNL     1     -35.446  13.494  -4.307  1.00 20.00     0.084 C 
HETATM    5  C5  UNL     1     -35.276  15.977  -2.676  1.00 20.00     0.014 C 
HETATM    6  C6  UNL     1     -34.044  15.090  -2.954  1.00 20.00     0.007 C 
HETATM    7  C7  UNL     1     -35.016  15.720  -5.075  1.00 20.00     0.080 C 
HETATM    8  C8  UNL     1     -36.080  15.859  -3.980  1.00 20.00     0.071 C 
HETATM    9  C9  UNL     1     -34.309  14.545  -4.379  1.00 20.00     0.009 C 
HETATM   10  O10 UNL     1     -37.742  14.087  -3.750  1.00 20.00    -0.298 OA
ENDROOT
TORSDOF 0
ENDMDL
