MODEL 1
REMARK VINA RESULT:      -4.8      0.000      0.000
REMARK  1 active torsions:
REMARK  status: ('A' for Active; 'I' for Inactive)
REMARK    1  A    between atoms: C3_3  and  C6_6 
ROOT
HETATM    1  C1  UNL     1     -34.052  16.158  -2.138  1.00 20.00    -0.154 C 
HETATM    2  C5  UNL     1     -34.810  16.619  -1.190  1.00 20.00     0.096 C 
HETATM    3  C6  UNL     1     -33.289  15.696  -3.084  1.00 20.00     0.061 C 
ENDROOT
BRANCH   3   4
HETATM    4  C3  UNL     1     -33.753  15.545  -4.432  1.00 20.00    -0.010 A 
HETATM    5  C2  UNL     1     -34.516  14.566  -4.920  1.00 20.00     0.023 A 
HETATM    6  C4  UNL     1     -34.669  14.838  -6.357  1.00 20.00     0.290 A 
HETATM    7  C8  UNL     1     -35.134  13.378  -4.282  1.00 20.00     0.055 C 
HETATM    8  O10 UNL     1     -35.309  14.159  -7.143  1.00 20.00    -0.260 OA
HETATM    9  O11 UNL     1     -33.973  15.967  -6.676  1.00 20.00    -0.308 OA
HETATM   10  C7  UNL     1     -33.370  16.513  -5.493  1.00 20.00     0.162 A 
HETATM   11  C9  UNL     1     -33.913  17.920  -5.287  1.00 20.00     0.045 C 
ENDBRANCH   3   4
TORSDOF 1
ENDMDL
MODEL 2
REMARK VINA RESULT:      -4.7      1.869      2.381
REMARK  1 active torsions:
REMARK  status: ('A' for Active; 'I' for Inactive)
REMARK    1  A    between atoms: C3_3  and  C6_6 
ROOT
HETATM    1  C1  UNL     1     -34.280  16.878  -1.683  1.00 20.00    -0.154 C 
HETATM    2  C5  UNL     1     -34.429  17.035  -0.403  1.00 20.00     0.096 C 
HETATM    3  C6  UNL     1     -34.128  16.726  -2.965  1.00 20.00     0.061 C 
ENDROOT
BRANCH   3   4
HETATM    4  C3  UNL     1     -34.650  15.589  -3.665  1.00 20.00    -0.010 A 
HETATM    5  C2  UNL     1     -34.066  14.400  -3.823  1.00 20.00     0.023 A 
HETATM    6  C4  UNL     1     -34.978  13.598  -4.654  1.00 20.00     0.290 A 
HETATM    7  C8  UNL     1     -32.769  13.859  -3.346  1.00 20.00     0.055 C 
HETATM    8  O10 UNL     1     -34.787  12.446  -5.007  1.00 20.00    -0.260 OA
HETATM    9  O11 UNL     1     -36.070  14.351  -4.973  1.00 20.00    -0.308 OA
HETATM   10  C7  UNL     1     -35.963  15.643  -4.357  1.00 20.00     0.162 A 
HETATM   11  C9  UNL     1     -37.157  15.828  -3.430  1.00 20.00     0.045 C 
ENDBRANCH   3   4
TORSDOF 1
ENDMDL
MODEL 3
REMARK VINA RESULT:      -4.6      1.186      2.423
REMARK  1 active torsions:
REMARK  status: ('A' for Active; 'I' for Inactive)
REMARK    1  A    between atoms: C3_3  and  C6_6 
ROOT
HETATM    1  C1  UNL     1     -34.114  16.492  -2.136  1.00 20.00    -0.154 C 
HETATM    2  C5  UNL     1     -34.608  16.554  -0.937  1.00 20.00     0.096 C 
HETATM    3  C6  UNL     1     -33.616  16.435  -3.335  1.00 20.00     0.061 C 
ENDROOT
BRANCH   3   4
HETATM    4  C3  UNL     1     -34.077  15.488  -4.307  1.00 20.00    -0.010 A 
HETATM    5  C2  UNL     1     -34.382  15.724  -5.584  1.00 20.00     0.023 A 
HETATM    6  C4  UNL     1     -34.850  14.445  -6.141  1.00 20.00     0.290 A 
HETATM    7  C8  UNL     1     -34.335  16.960  -6.404  1.00 20.00     0.055 C 
HETATM    8  O10 UNL     1     -35.213  14.264  -7.291  1.00 20.00    -0.260 OA
HETATM    9  O11 UNL     1     -34.821  13.494  -5.164  1.00 20.00    -0.308 OA
HETATM   10  C7  UNL     1     -34.309  14.064  -3.950  1.00 20.00     0.162 A 
HETATM   11  C9  UNL     1     -33.051  13.301  -3.558  1.00 20.00     0.045 C 
ENDBRANCH   3   4
TORSDOF 1
ENDMDL
MODEL 4
REMARK VINA RESULT:      -4.5      1.910      2.752
REMARK  1 active torsions:
REMARK  status: ('A' for Active; 'I' for Inactive)
REMARK    1  A    between atoms: C3_3  and  C6_6 
ROOT
HETATM    1  C1  UNL     1     -34.356  16.743  -1.229  1.00 20.00    -0.154 C 
HETATM    2  C5  UNL     1     -34.803  17.090  -0.060  1.00 20.00     0.096 C 
HETATM    3  C6  UNL     1     -33.904  16.399  -2.397  1.00 20.00     0.061 C 
ENDROOT
BRANCH   3   4
HETATM    4  C3  UNL     1     -34.697  15.658  -3.334  1.00 20.00    -0.010 A 
HETATM    5  C2  UNL     1     -35.567  16.146  -4.219  1.00 20.00     0.023 A 
HETATM    6  C4  UNL     1     -36.155  14.985  -4.905  1.00 20.00     0.290 A 
HETATM    7  C8  UNL     1     -35.979  17.533  -4.546  1.00 20.00     0.055 C 
HETATM    8  O10 UNL     1     -36.992  15.034  -5.791  1.00 20.00    -0.260 OA
HETATM    9  O11 UNL     1     -35.621  13.842  -4.386  1.00 20.00    -0.308 OA
HETATM   10  C7  UNL     1     -34.648  14.174  -3.384  1.00 20.00     0.162 A 
HETATM   11  C9  UNL     1     -33.305  13.603  -3.817  1.00 20.00     0.045 C 
ENDBRANCH   3   4
TORSDOF 1
ENDMDL
MODEL 5
REMARK VINA RESULT:      -4.5     11.967     13.360
REMARK  1 active torsions:
REMARK  status: ('A' for Active; 'I' for Inactive)
REMARK    1  A    between atoms: C3_3  and  C6_6 
ROOT
HETATM    1  C1  UNL     1     -32.264   7.751   2.686  1.00 20.00    -0.154 C 
HETATM    2  C5  UNL     1     -32.414   8.737   1.855  1.00 20.00     0.096 C 
HETATM    3  C6  UNL     1     -32.108   6.764   3.517  1.00 20.00     0.061 C 
ENDROOT
BRANCH   3   4
HETATM    4  C3  UNL     1     -33.221   6.076   4.101  1.00 20.00    -0.010 A 
HETATM    5  C2  UNL     1     -33.705   6.223   5.335  1.00 20.00     0.023 A 
HETATM    6  C4  UNL     1     -34.812   5.262   5.463  1.00 20.00     0.290 A 
HETATM    7  C8  UNL     1     -33.308   7.107   6.459  1.00 20.00     0.055 C 
HETATM    8  O10 UNL     1     -35.506   5.108   6.455  1.00 20.00    -0.260 OA
HETATM    9  O11 UNL     1     -34.935   4.563   4.299  1.00 20.00    -0.308 OA
HETATM   10  C7  UNL     1     -33.969   5.037   3.347  1.00 20.00     0.162 A 
HETATM   11  C9  UNL     1     -34.718   5.559   2.128  1.00 20.00     0.045 C 
ENDBRANCH   3   4
TORSDOF 1
ENDMDL
MODEL 6
REMARK VINA RESULT:      -4.4      1.768      1.942
REMARK  1 active torsions:
REMARK  status: ('A' for Active; 'I' for Inactive)
REMARK    1  A    between atoms: C3_3  and  C6_6 
ROOT
HETATM    1  C1  UNL     1     -34.121  16.888  -1.315  1.00 20.00    -0.154 C 
HETATM    2  C5  UNL     1     -33.475  17.853  -0.734  1.00 20.00     0.096 C 
HETATM    3  C6  UNL     1     -34.769  15.920  -1.891  1.00 20.00     0.061 C 
ENDROOT
BRANCH   3   4
HETATM    4  C3  UNL     1     -34.869  15.811  -3.316  1.00 20.00    -0.010 A 
HETATM    5  C2  UNL     1     -34.319  14.879  -4.096  1.00 20.00     0.023 A 
HETATM    6  C4  UNL     1     -34.673  15.235  -5.479  1.00 20.00     0.290 A 
HETATM    7  C8  UNL     1     -33.487  13.690  -3.787  1.00 20.00     0.055 C 
HETATM    8  O10 UNL     1     -34.352  14.610  -6.476  1.00 20.00    -0.260 OA
HETATM    9  O11 UNL     1     -35.410  16.383  -5.471  1.00 20.00    -0.308 OA
HETATM   10  C7  UNL     1     -35.614  16.817  -4.118  1.00 20.00     0.162 A 
HETATM   11  C9  UNL     1     -37.112  16.851  -3.850  1.00 20.00     0.045 C 
ENDBRANCH   3   4
TORSDOF 1
ENDMDL
MODEL 7
REMARK VINA RESULT:      -4.3      2.343      3.861
REMARK  1 active torsions:
REMARK  status: ('A' for Active; 'I' for Inactive)
REMARK    1  A    between atoms: C3_3  and  C6_6 
ROOT
HETATM    1  C1  UNL     1     -34.041  13.824  -4.157  1.00 20.00    -0.154 C 
HETATM    2  C5  UNL     1     -34.851  12.999  -4.748  1.00 20.00     0.096 C 
HETATM    3  C6  UNL     1     -33.227  14.646  -3.565  1.00 20.00     0.061 C 
ENDROOT
BRANCH   3   4
HETATM    4  C3  UNL     1     -33.477  16.056  -3.504  1.00 20.00    -0.010 A 
HETATM    5  C2  UNL     1     -33.626  16.895  -4.531  1.00 20.00     0.023 A 
HETATM    6  C4  UNL     1     -33.811  18.233  -3.947  1.00 20.00     0.290 A 
HETATM    7  C8  UNL     1     -33.612  16.681  -5.998  1.00 20.00     0.055 C 
HETATM    8  O10 UNL     1     -33.985  19.263  -4.578  1.00 20.00    -0.260 OA
HETATM    9  O11 UNL     1     -33.747  18.141  -2.588  1.00 20.00    -0.308 OA
HETATM   10  C7  UNL     1     -33.562  16.770  -2.204  1.00 20.00     0.162 A 
HETATM   11  C9  UNL     1     -34.741  16.356  -1.334  1.00 20.00     0.045 C 
ENDBRANCH   3   4
TORSDOF 1
ENDMDL
MODEL 8
REMARK VINA RESULT:      -4.3      1.806      3.262
REMARK  1 active torsions:
REMARK  status: ('A' for Active; 'I' for Inactive)
REMARK    1  A    between atoms: C3_3  and  C6_6 
ROOT
HETATM    1  C1  UNL     1     -34.554  17.960  -5.682  1.00 20.00    -0.154 C 
HETATM    2  C5  UNL     1     -33.657  18.724  -6.227  1.00 20.00     0.096 C 
HETATM    3  C6  UNL     1     -35.456  17.200  -5.137  1.00 20.00     0.061 C 
ENDROOT
BRANCH   3   4
HETATM    4  C3  UNL     1     -35.171  15.859  -4.717  1.00 20.00    -0.010 A 
HETATM    5  C2  UNL     1     -35.052  14.778  -5.490  1.00 20.00     0.023 A 
HETATM    6  C4  UNL     1     -34.808  13.646  -4.582  1.00 20.00     0.290 A 
HETATM    7  C8  UNL     1     -35.141  14.593  -6.959  1.00 20.00     0.055 C 
HETATM    8  O10 UNL     1     -34.640  12.487  -4.924  1.00 20.00    -0.260 OA
HETATM    9  O11 UNL     1     -34.809  14.096  -3.295  1.00 20.00    -0.308 OA
HETATM   10  C7  UNL     1     -35.007  15.518  -3.280  1.00 20.00     0.162 A 
HETATM   11  C9  UNL     1     -33.797  16.161  -2.614  1.00 20.00     0.045 C 
ENDBRANCH   3   4
TORSDOF 1
ENDMDL
MODEL 9
REMARK VINA RESULT:      -4.3      1.610      2.462
REMARK  1 active torsions:
REMARK  status: ('A' for Active; 'I' for Inactive)
REMARK    1  A    between atoms: C3_3  and  C6_6 
ROOT
HETATM    1  C1  UNL     1     -33.668  17.914  -4.436  1.00 20.00    -0.154 C 
HETATM    2  C5  UNL     1     -33.864  18.743  -3.457  1.00 20.00     0.096 C 
HETATM    3  C6  UNL     1     -33.469  17.088  -5.419  1.00 20.00     0.061 C 
ENDROOT
BRANCH   3   4
HETATM    4  C3  UNL     1     -34.123  15.814  -5.489  1.00 20.00    -0.010 A 
HETATM    5  C2  UNL     1     -33.912  14.753  -4.707  1.00 20.00     0.023 A 
HETATM    6  C4  UNL     1     -34.789  13.686  -5.213  1.00 20.00     0.290 A 
HETATM    7  C8  UNL     1     -33.007  14.535  -3.552  1.00 20.00     0.055 C 
HETATM    8  O10 UNL     1     -34.880  12.562  -4.747  1.00 20.00    -0.260 OA
HETATM    9  O11 UNL     1     -35.481  14.150  -6.293  1.00 20.00    -0.308 OA
HETATM   10  C7  UNL     1     -35.140  15.524  -6.532  1.00 20.00     0.162 A 
HETATM   11  C9  UNL     1     -36.410  16.356  -6.423  1.00 20.00     0.045 C 
ENDBRANCH   3   4
TORSDOF 1
ENDMDL
