MODEL 1
REMARK VINA RESULT:      -4.7      0.000      0.000
REMARK  0 active torsions:
REMARK  status: ('A' for Active; 'I' for Inactive)
ROOT
HETATM    1  C1  UNL     1     -35.167   4.466   4.711  1.00 20.00     0.131 A 
HETATM    2  C2  UNL     1     -34.530   5.722   6.562  1.00 20.00     0.233 A 
HETATM    3  C3  UNL     1     -34.362   5.270   3.997  1.00 20.00     0.010 A 
HETATM    4  C4  UNL     1     -33.689   6.254   4.618  1.00 20.00     0.070 A 
HETATM    5  C5  UNL     1     -33.787   5.649   2.735  1.00 20.00     0.017 A 
HETATM    6  C6  UNL     1     -33.100   6.653   3.359  1.00 20.00     0.033 A 
HETATM    7  N7  UNL     1     -35.270   4.683   6.045  1.00 20.00    -0.253 NA
HETATM    8  N8  UNL     1     -33.703   6.566   5.898  1.00 20.00    -0.241 NA
ENDROOT
TORSDOF 0
ENDMDL
MODEL 2
REMARK VINA RESULT:      -4.6      0.947      1.838
REMARK  0 active torsions:
REMARK  status: ('A' for Active; 'I' for Inactive)
ROOT
HETATM    1  C1  UNL     1     -33.795   6.524   5.949  1.00 20.00     0.131 A 
HETATM    2  C2  UNL     1     -35.212   4.680   5.959  1.00 20.00     0.233 A 
HETATM    3  C3  UNL     1     -33.665   6.308   4.630  1.00 20.00     0.010 A 
HETATM    4  C4  UNL     1     -34.323   5.285   4.059  1.00 20.00     0.070 A 
HETATM    5  C5  UNL     1     -33.099   6.677   3.360  1.00 20.00     0.017 A 
HETATM    6  C6  UNL     1     -33.764   5.638   2.772  1.00 20.00     0.033 A 
HETATM    7  N7  UNL     1     -34.593   5.690   6.660  1.00 20.00    -0.253 NA
HETATM    8  N8  UNL     1     -35.122   4.410   4.634  1.00 20.00    -0.241 NA
ENDROOT
TORSDOF 0
ENDMDL
MODEL 3
REMARK VINA RESULT:      -4.4      1.579      2.725
REMARK  0 active torsions:
REMARK  status: ('A' for Active; 'I' for Inactive)
ROOT
HETATM    1  C1  UNL     1     -34.872   4.912   3.794  1.00 20.00     0.131 A 
HETATM    2  C2  UNL     1     -33.152   6.213   2.922  1.00 20.00     0.233 A 
HETATM    3  C3  UNL     1     -34.561   5.453   4.984  1.00 20.00     0.010 A 
HETATM    4  C4  UNL     1     -33.559   6.345   5.064  1.00 20.00     0.070 A 
HETATM    5  C5  UNL     1     -34.800   5.568   6.397  1.00 20.00     0.017 A 
HETATM    6  C6  UNL     1     -33.781   6.474   6.487  1.00 20.00     0.033 A 
HETATM    7  N7  UNL     1     -34.153   5.292   2.709  1.00 20.00    -0.253 NA
HETATM    8  N8  UNL     1     -32.790   6.793   4.093  1.00 20.00    -0.241 NA
ENDROOT
TORSDOF 0
ENDMDL
MODEL 4
REMARK VINA RESULT:      -4.3      1.498      3.225
REMARK  0 active torsions:
REMARK  status: ('A' for Active; 'I' for Inactive)
ROOT
HETATM    1  C1  UNL     1     -32.945   6.718   3.982  1.00 20.00     0.131 A 
HETATM    2  C2  UNL     1     -34.269   5.190   2.831  1.00 20.00     0.233 A 
HETATM    3  C3  UNL     1     -33.623   6.346   5.080  1.00 20.00     0.010 A 
HETATM    4  C4  UNL     1     -34.585   5.413   4.980  1.00 20.00     0.070 A 
HETATM    5  C5  UNL     1     -33.860   6.464   6.493  1.00 20.00     0.017 A 
HETATM    6  C6  UNL     1     -34.840   5.517   6.400  1.00 20.00     0.033 A 
HETATM    7  N7  UNL     1     -33.264   6.131   2.802  1.00 20.00    -0.253 NA
HETATM    8  N8  UNL     1     -34.987   4.772   3.901  1.00 20.00    -0.241 NA
ENDROOT
TORSDOF 0
ENDMDL
MODEL 5
REMARK VINA RESULT:      -4.1      1.306      2.729
REMARK  0 active torsions:
REMARK  status: ('A' for Active; 'I' for Inactive)
ROOT
HETATM    1  C1  UNL     1     -34.092   5.282   2.958  1.00 20.00     0.131 A 
HETATM    2  C2  UNL     1     -32.711   6.912   3.878  1.00 20.00     0.233 A 
HETATM    3  C3  UNL     1     -34.531   5.071   4.210  1.00 20.00     0.010 A 
HETATM    4  C4  UNL     1     -34.027   5.799   5.220  1.00 20.00     0.070 A 
HETATM    5  C5  UNL     1     -35.384   4.360   5.123  1.00 20.00     0.017 A 
HETATM    6  C6  UNL     1     -34.876   5.096   6.157  1.00 20.00     0.033 A 
HETATM    7  N7  UNL     1     -33.147   6.234   2.762  1.00 20.00    -0.253 NA
HETATM    8  N8  UNL     1     -33.112   6.745   5.162  1.00 20.00    -0.241 NA
ENDROOT
TORSDOF 0
ENDMDL
MODEL 6
REMARK VINA RESULT:      -4.0      1.560      3.234
REMARK  0 active torsions:
REMARK  status: ('A' for Active; 'I' for Inactive)
ROOT
HETATM    1  C1  UNL     1     -33.144   6.747   5.115  1.00 20.00     0.131 A 
HETATM    2  C2  UNL     1     -33.215   6.212   2.853  1.00 20.00     0.233 A 
HETATM    3  C3  UNL     1     -34.065   5.784   5.284  1.00 20.00     0.010 A 
HETATM    4  C4  UNL     1     -34.504   5.094   4.217  1.00 20.00     0.070 A 
HETATM    5  C5  UNL     1     -34.926   5.027   6.151  1.00 20.00     0.017 A 
HETATM    6  C6  UNL     1     -35.378   4.321   5.072  1.00 20.00     0.033 A 
HETATM    7  N7  UNL     1     -32.688   6.987   3.861  1.00 20.00    -0.253 NA
HETATM    8  N8  UNL     1     -34.144   5.229   2.957  1.00 20.00    -0.241 NA
ENDROOT
TORSDOF 0
ENDMDL
MODEL 7
REMARK VINA RESULT:      -4.0     12.029     12.511
REMARK  0 active torsions:
REMARK  status: ('A' for Active; 'I' for Inactive)
ROOT
HETATM    1  C1  UNL     1     -33.261  14.093  -3.695  1.00 20.00     0.131 A 
HETATM    2  C2  UNL     1     -35.339  13.349  -4.429  1.00 20.00     0.233 A 
HETATM    3  C3  UNL     1     -33.927  15.100  -3.105  1.00 20.00     0.010 A 
HETATM    4  C4  UNL     1     -35.264  15.164  -3.216  1.00 20.00     0.070 A 
HETATM    5  C5  UNL     1     -33.917  16.297  -2.308  1.00 20.00     0.017 A 
HETATM    6  C6  UNL     1     -35.277  16.370  -2.417  1.00 20.00     0.033 A 
HETATM    7  N7  UNL     1     -33.974  13.172  -4.389  1.00 20.00    -0.253 NA
HETATM    8  N8  UNL     1     -36.067  14.339  -3.856  1.00 20.00    -0.241 NA
ENDROOT
TORSDOF 0
ENDMDL
MODEL 8
REMARK VINA RESULT:      -3.8      9.844     10.583
REMARK  0 active torsions:
REMARK  status: ('A' for Active; 'I' for Inactive)
ROOT
HETATM    1  C1  UNL     1     -42.696   6.482  -2.962  1.00 20.00     0.131 A 
HETATM    2  C2  UNL     1     -42.684   4.157  -2.909  1.00 20.00     0.233 A 
HETATM    3  C3  UNL     1     -41.860   6.424  -1.912  1.00 20.00     0.010 A 
HETATM    4  C4  UNL     1     -41.489   5.227  -1.427  1.00 20.00     0.070 A 
HETATM    5  C5  UNL     1     -41.062   7.094  -0.922  1.00 20.00     0.017 A 
HETATM    6  C6  UNL     1     -40.680   5.880  -0.422  1.00 20.00     0.033 A 
HETATM    7  N7  UNL     1     -43.137   5.317  -3.496  1.00 20.00    -0.253 NA
HETATM    8  N8  UNL     1     -41.844   4.032  -1.853  1.00 20.00    -0.241 NA
ENDROOT
TORSDOF 0
ENDMDL
MODEL 9
REMARK VINA RESULT:      -3.8     12.313     13.396
REMARK  0 active torsions:
REMARK  status: ('A' for Active; 'I' for Inactive)
ROOT
HETATM    1  C1  UNL     1     -34.816  13.157  -4.787  1.00 20.00     0.131 A 
HETATM    2  C2  UNL     1     -33.503  14.653  -3.584  1.00 20.00     0.233 A 
HETATM    3  C3  UNL     1     -34.810  14.074  -5.768  1.00 20.00     0.010 A 
HETATM    4  C4  UNL     1     -34.145  15.228  -5.591  1.00 20.00     0.070 A 
HETATM    5  C5  UNL     1     -35.212  14.486  -7.085  1.00 20.00     0.017 A 
HETATM    6  C6  UNL     1     -34.539  15.663  -6.913  1.00 20.00     0.033 A 
HETATM    7  N7  UNL     1     -34.144  13.436  -3.643  1.00 20.00    -0.253 NA
HETATM    8  N8  UNL     1     -33.459  15.618  -4.536  1.00 20.00    -0.241 NA
ENDROOT
TORSDOF 0
ENDMDL
