MODEL 1
REMARK VINA RESULT:      -5.5      0.000      0.000
REMARK  0 active torsions:
REMARK  status: ('A' for Active; 'I' for Inactive)
ROOT
HETATM    1  C1  UNL     1     -32.289   5.305   2.979  1.00 20.00     0.012 A 
HETATM    2  C2  UNL     1     -34.118   5.883   6.373  1.00 20.00     0.006 A 
HETATM    3  C3  UNL     1     -32.036   7.438   4.057  1.00 20.00     0.101 C 
HETATM    4  C4  UNL     1     -32.429   6.628   2.872  1.00 20.00     0.016 A 
HETATM    5  C5  UNL     1     -33.716   6.576   5.296  1.00 20.00     0.035 A 
HETATM    6  C6  UNL     1     -34.786   3.699   5.190  1.00 20.00     0.015 A 
HETATM    7  C7  UNL     1     -33.629   5.799   2.875  1.00 20.00     0.017 A 
HETATM    8  C8  UNL     1     -35.143   4.870   6.064  1.00 20.00     0.015 A 
HETATM    9  C9  UNL     1     -34.500   6.105   4.063  1.00 20.00     0.048 A 
HETATM   10  C10 UNL     1     -35.349   4.946   4.559  1.00 20.00     0.004 A 
HETATM   11  N11 UNL     1     -32.649   7.436   5.205  1.00 20.00    -0.269 NA
ENDROOT
TORSDOF 0
ENDMDL
MODEL 2
REMARK VINA RESULT:      -5.0     11.978     13.265
REMARK  0 active torsions:
REMARK  status: ('A' for Active; 'I' for Inactive)
ROOT
HETATM    1  C1  UNL     1     -35.171  16.781  -2.306  1.00 20.00     0.012 A 
HETATM    2  C2  UNL     1     -34.239  15.200  -5.746  1.00 20.00     0.006 A 
HETATM    3  C3  UNL     1     -33.733  18.026  -3.776  1.00 20.00     0.101 C 
HETATM    4  C4  UNL     1     -33.992  17.388  -2.457  1.00 20.00     0.016 A 
HETATM    5  C5  UNL     1     -33.717  16.025  -4.823  1.00 20.00     0.035 A 
HETATM    6  C6  UNL     1     -35.474  13.593  -4.163  1.00 20.00     0.015 A 
HETATM    7  C7  UNL     1     -34.014  15.939  -2.298  1.00 20.00     0.017 A 
HETATM    8  C8  UNL     1     -34.458  13.832  -5.246  1.00 20.00     0.015 A 
HETATM    9  C9  UNL     1     -33.476  15.247  -3.522  1.00 20.00     0.048 A 
HETATM   10  C10 UNL     1     -34.040  13.861  -3.784  1.00 20.00     0.004 A 
HETATM   11  N11 UNL     1     -33.583  17.389  -4.901  1.00 20.00    -0.269 NA
ENDROOT
TORSDOF 0
ENDMDL
MODEL 3
REMARK VINA RESULT:      -4.8     11.889     13.326
REMARK  0 active torsions:
REMARK  status: ('A' for Active; 'I' for Inactive)
ROOT
HETATM    1  C1  UNL     1     -35.718  15.029  -5.935  1.00 20.00     0.012 A 
HETATM    2  C2  UNL     1     -34.190  15.669  -2.405  1.00 20.00     0.006 A 
HETATM    3  C3  UNL     1     -34.717  13.175  -4.778  1.00 20.00     0.101 C 
HETATM    4  C4  UNL     1     -34.800  14.061  -5.970  1.00 20.00     0.016 A 
HETATM    5  C5  UNL     1     -34.004  14.876  -3.474  1.00 20.00     0.035 A 
HETATM    6  C6  UNL     1     -34.884  17.814  -3.643  1.00 20.00     0.015 A 
HETATM    7  C7  UNL     1     -34.349  15.447  -5.928  1.00 20.00     0.017 A 
HETATM    8  C8  UNL     1     -33.965  17.096  -2.694  1.00 20.00     0.015 A 
HETATM    9  C9  UNL     1     -33.569  15.729  -4.673  1.00 20.00     0.048 A 
HETATM   10  C10 UNL     1     -33.635  17.164  -4.178  1.00 20.00     0.004 A 
HETATM   11  N11 UNL     1     -34.324  13.546  -3.594  1.00 20.00    -0.269 NA
ENDROOT
TORSDOF 0
ENDMDL
MODEL 4
REMARK VINA RESULT:      -4.7     12.201     13.710
REMARK  0 active torsions:
REMARK  status: ('A' for Active; 'I' for Inactive)
ROOT
HETATM    1  C1  UNL     1     -35.891  15.527  -3.080  1.00 20.00     0.012 A 
HETATM    2  C2  UNL     1     -33.974  16.354  -6.372  1.00 20.00     0.006 A 
HETATM    3  C3  UNL     1     -33.882  16.837  -2.925  1.00 20.00     0.101 C 
HETATM    4  C4  UNL     1     -34.674  15.637  -2.543  1.00 20.00     0.016 A 
HETATM    5  C5  UNL     1     -33.727  16.143  -5.069  1.00 20.00     0.035 A 
HETATM    6  C6  UNL     1     -35.880  14.654  -6.677  1.00 20.00     0.015 A 
HETATM    7  C7  UNL     1     -34.925  14.552  -3.485  1.00 20.00     0.017 A 
HETATM    8  C8  UNL     1     -34.521  15.171  -7.061  1.00 20.00     0.015 A 
HETATM    9  C9  UNL     1     -34.067  14.688  -4.715  1.00 20.00     0.048 A 
HETATM   10  C10 UNL     1     -34.659  14.104  -5.986  1.00 20.00     0.004 A 
HETATM   11  N11 UNL     1     -33.412  17.078  -4.115  1.00 20.00    -0.269 NA
ENDROOT
TORSDOF 0
ENDMDL
MODEL 5
REMARK VINA RESULT:      -4.7      9.850     10.921
REMARK  0 active torsions:
REMARK  status: ('A' for Active; 'I' for Inactive)
ROOT
HETATM    1  C1  UNL     1     -43.414   7.894  -0.889  1.00 20.00     0.012 A 
HETATM    2  C2  UNL     1     -42.092   4.465  -2.192  1.00 20.00     0.006 A 
HETATM    3  C3  UNL     1     -43.417   7.503  -3.260  1.00 20.00     0.101 C 
HETATM    4  C4  UNL     1     -43.002   8.316  -2.086  1.00 20.00     0.016 A 
HETATM    5  C5  UNL     1     -42.167   5.749  -2.581  1.00 20.00     0.035 A 
HETATM    6  C6  UNL     1     -41.681   4.854   0.317  1.00 20.00     0.015 A 
HETATM    7  C7  UNL     1     -42.005   7.836  -1.136  1.00 20.00     0.017 A 
HETATM    8  C8  UNL     1     -41.250   4.267  -0.999  1.00 20.00     0.015 A 
HETATM    9  C9  UNL     1     -41.299   6.614  -1.656  1.00 20.00     0.048 A 
HETATM   10  C10 UNL     1     -40.788   5.658  -0.592  1.00 20.00     0.004 A 
HETATM   11  N11 UNL     1     -43.014   6.291  -3.515  1.00 20.00    -0.269 NA
ENDROOT
TORSDOF 0
ENDMDL
MODEL 6
REMARK VINA RESULT:      -4.7     11.613     12.830
REMARK  0 active torsions:
REMARK  status: ('A' for Active; 'I' for Inactive)
ROOT
HETATM    1  C1  UNL     1     -33.123  15.974  -4.415  1.00 20.00     0.012 A 
HETATM    2  C2  UNL     1     -36.748  14.567  -4.128  1.00 20.00     0.006 A 
HETATM    3  C3  UNL     1     -33.399  13.642  -3.903  1.00 20.00     0.101 C 
HETATM    4  C4  UNL     1     -32.853  14.983  -3.563  1.00 20.00     0.016 A 
HETATM    5  C5  UNL     1     -35.524  14.354  -3.619  1.00 20.00     0.035 A 
HETATM    6  C6  UNL     1     -36.639  17.130  -4.316  1.00 20.00     0.015 A 
HETATM    7  C7  UNL     1     -33.715  16.071  -3.115  1.00 20.00     0.017 A 
HETATM    8  C8  UNL     1     -37.300  15.890  -3.783  1.00 20.00     0.015 A 
HETATM    9  C9  UNL     1     -35.097  15.572  -2.788  1.00 20.00     0.048 A 
HETATM   10  C10 UNL     1     -36.213  16.586  -2.978  1.00 20.00     0.004 A 
HETATM   11  N11 UNL     1     -34.662  13.327  -3.915  1.00 20.00    -0.269 NA
ENDROOT
TORSDOF 0
ENDMDL
MODEL 7
REMARK VINA RESULT:      -4.7     12.461     14.013
REMARK  0 active torsions:
REMARK  status: ('A' for Active; 'I' for Inactive)
ROOT
HETATM    1  C1  UNL     1     -35.206  14.031  -3.817  1.00 20.00     0.012 A 
HETATM    2  C2  UNL     1     -34.822  16.745  -6.590  1.00 20.00     0.006 A 
HETATM    3  C3  UNL     1     -33.156  15.283  -3.905  1.00 20.00     0.101 C 
HETATM    4  C4  UNL     1     -33.876  13.982  -3.919  1.00 20.00     0.016 A 
HETATM    5  C5  UNL     1     -34.066  15.892  -5.881  1.00 20.00     0.035 A 
HETATM    6  C6  UNL     1     -36.906  15.264  -6.866  1.00 20.00     0.015 A 
HETATM    7  C7  UNL     1     -34.679  13.562  -5.062  1.00 20.00     0.017 A 
HETATM    8  C8  UNL     1     -35.791  16.070  -7.471  1.00 20.00     0.015 A 
HETATM    9  C9  UNL     1     -34.437  14.450  -6.254  1.00 20.00     0.048 A 
HETATM   10  C10 UNL     1     -35.608  14.582  -7.212  1.00 20.00     0.004 A 
HETATM   11  N11 UNL     1     -33.224  16.189  -4.837  1.00 20.00    -0.269 NA
ENDROOT
TORSDOF 0
ENDMDL
MODEL 8
REMARK VINA RESULT:      -4.7      9.515     10.639
REMARK  0 active torsions:
REMARK  status: ('A' for Active; 'I' for Inactive)
ROOT
HETATM    1  C1  UNL     1     -41.697   5.348   0.463  1.00 20.00     0.012 A 
HETATM    2  C2  UNL     1     -43.134   5.444  -3.160  1.00 20.00     0.006 A 
HETATM    3  C3  UNL     1     -41.232   7.278  -0.892  1.00 20.00     0.101 C 
HETATM    4  C4  UNL     1     -40.758   6.132  -0.070  1.00 20.00     0.016 A 
HETATM    5  C5  UNL     1     -42.076   5.894  -2.465  1.00 20.00     0.035 A 
HETATM    6  C6  UNL     1     -43.415   3.171  -1.989  1.00 20.00     0.015 A 
HETATM    7  C7  UNL     1     -40.865   4.756  -0.540  1.00 20.00     0.017 A 
HETATM    8  C8  UNL     1     -43.193   3.974  -3.241  1.00 20.00     0.015 A 
HETATM    9  C9  UNL     1     -41.227   4.704  -2.000  1.00 20.00     0.048 A 
HETATM   10  C10 UNL     1     -42.007   3.474  -2.431  1.00 20.00     0.004 A 
HETATM   11  N11 UNL     1     -41.842   7.178  -2.038  1.00 20.00    -0.269 NA
ENDROOT
TORSDOF 0
ENDMDL
MODEL 9
REMARK VINA RESULT:      -4.7     11.809     13.123
REMARK  0 active torsions:
REMARK  status: ('A' for Active; 'I' for Inactive)
ROOT
HETATM    1  C1  UNL     1     -33.446  13.722  -3.935  1.00 20.00     0.012 A 
HETATM    2  C2  UNL     1     -34.661  17.421  -4.143  1.00 20.00     0.006 A 
HETATM    3  C3  UNL     1     -34.577  14.435  -5.932  1.00 20.00     0.101 C 
HETATM    4  C4  UNL     1     -34.469  13.517  -4.767  1.00 20.00     0.016 A 
HETATM    5  C5  UNL     1     -35.005  16.203  -4.593  1.00 20.00     0.035 A 
HETATM    6  C6  UNL     1     -33.805  16.736  -1.816  1.00 20.00     0.015 A 
HETATM    7  C7  UNL     1     -34.754  13.966  -3.409  1.00 20.00     0.017 A 
HETATM    8  C8  UNL     1     -34.738  17.542  -2.676  1.00 20.00     0.015 A 
HETATM    9  C9  UNL     1     -35.415  15.318  -3.408  1.00 20.00     0.048 A 
HETATM   10  C10 UNL     1     -35.153  16.167  -2.176  1.00 20.00     0.004 A 
HETATM   11  N11 UNL     1     -34.849  15.706  -5.864  1.00 20.00    -0.269 NA
ENDROOT
TORSDOF 0
ENDMDL
