MODEL 1
REMARK VINA RESULT:      -5.0      0.000      0.000
REMARK  1 active torsions:
REMARK  status: ('A' for Active; 'I' for Inactive)
REMARK    1  A    between atoms: C6_6  and  C7_7 
ROOT
HETATM    1  C1  UNL     1     -33.660  17.710  -4.355  1.00 20.00    -0.003 C 
HETATM    2  C2  UNL     1     -33.476  16.264  -4.425  1.00 20.00     0.015 C 
HETATM    3  C3  UNL     1     -35.116  15.712  -2.714  1.00 20.00     0.011 C 
HETATM    4  C4  UNL     1     -33.741  18.562  -3.314  1.00 20.00    -0.026 C 
HETATM    5  C5  UNL     1     -34.559  16.107  -1.557  1.00 20.00    -0.021 C 
HETATM    6  C6  UNL     1     -34.172  15.333  -3.744  1.00 20.00     0.009 C 
HETATM    7  C8  UNL     1     -33.603  18.347  -1.818  1.00 20.00     0.035 C 
HETATM    8  C9  UNL     1     -34.704  17.531  -1.083  1.00 20.00     0.007 C 
HETATM    9  C11 UNL     1     -36.091  18.160  -1.221  1.00 20.00     0.014 C 
ENDROOT
BRANCH   6  10
HETATM   10  C7  UNL     1     -33.906  13.918  -4.015  1.00 20.00     0.155 C 
HETATM   11  C10 UNL     1     -34.876  13.173  -4.895  1.00 20.00     0.096 C 
HETATM   12  O12 UNL     1     -32.920  13.363  -3.527  1.00 20.00    -0.293 OA
ENDBRANCH   6  10
TORSDOF 1
ENDMDL
MODEL 2
REMARK VINA RESULT:      -5.0      1.587      2.177
REMARK  1 active torsions:
REMARK  status: ('A' for Active; 'I' for Inactive)
REMARK    1  A    between atoms: C6_6  and  C7_7 
ROOT
HETATM    1  C1  UNL     1     -37.163  16.699  -3.420  1.00 20.00    -0.003 C 
HETATM    2  C2  UNL     1     -36.556  15.670  -4.258  1.00 20.00     0.015 C 
HETATM    3  C3  UNL     1     -34.812  15.047  -2.679  1.00 20.00     0.011 C 
HETATM    4  C4  UNL     1     -36.633  17.703  -2.694  1.00 20.00    -0.026 C 
HETATM    5  C5  UNL     1     -33.957  16.083  -2.677  1.00 20.00    -0.021 C 
HETATM    6  C6  UNL     1     -35.534  14.859  -3.919  1.00 20.00     0.009 C 
HETATM    7  C8  UNL     1     -35.205  18.186  -2.529  1.00 20.00     0.035 C 
HETATM    8  C9  UNL     1     -34.196  17.272  -1.779  1.00 20.00     0.007 C 
HETATM    9  C11 UNL     1     -34.632  16.968  -0.346  1.00 20.00     0.014 C 
ENDROOT
BRANCH   6  10
HETATM   10  C7  UNL     1     -35.119  13.819  -4.864  1.00 20.00     0.155 C 
HETATM   11  C10 UNL     1     -34.905  14.217  -6.302  1.00 20.00     0.096 C 
HETATM   12  O12 UNL     1     -34.961  12.658  -4.486  1.00 20.00    -0.293 OA
ENDBRANCH   6  10
TORSDOF 1
ENDMDL
MODEL 3
REMARK VINA RESULT:      -5.0      1.835      4.122
REMARK  1 active torsions:
REMARK  status: ('A' for Active; 'I' for Inactive)
REMARK    1  A    between atoms: C6_6  and  C7_7 
ROOT
HETATM    1  C1  UNL     1     -33.403  16.962  -4.998  1.00 20.00    -0.003 C 
HETATM    2  C2  UNL     1     -33.632  17.372  -3.616  1.00 20.00     0.015 C 
HETATM    3  C3  UNL     1     -34.266  15.170  -2.796  1.00 20.00     0.011 C 
HETATM    4  C4  UNL     1     -34.120  16.196  -5.845  1.00 20.00    -0.026 C 
HETATM    5  C5  UNL     1     -35.478  14.936  -3.325  1.00 20.00    -0.021 C 
HETATM    6  C6  UNL     1     -33.955  16.567  -2.584  1.00 20.00     0.009 C 
HETATM    7  C8  UNL     1     -35.473  15.526  -5.703  1.00 20.00     0.035 C 
HETATM    8  C9  UNL     1     -35.611  14.342  -4.705  1.00 20.00     0.007 C 
HETATM    9  C11 UNL     1     -34.677  13.179  -5.041  1.00 20.00     0.014 C 
ENDROOT
BRANCH   6  10
HETATM   10  C7  UNL     1     -34.055  17.150  -1.243  1.00 20.00     0.155 C 
HETATM   11  C10 UNL     1     -33.277  18.410  -0.962  1.00 20.00     0.096 C 
HETATM   12  O12 UNL     1     -34.749  16.614  -0.379  1.00 20.00    -0.293 OA
ENDBRANCH   6  10
TORSDOF 1
ENDMDL
MODEL 4
REMARK VINA RESULT:      -4.8      2.212      4.515
REMARK  1 active torsions:
REMARK  status: ('A' for Active; 'I' for Inactive)
REMARK    1  A    between atoms: C6_6  and  C7_7 
ROOT
HETATM    1  C1  UNL     1     -34.605  13.629  -3.952  1.00 20.00    -0.003 C 
HETATM    2  C2  UNL     1     -34.198  14.751  -3.112  1.00 20.00     0.015 C 
HETATM    3  C3  UNL     1     -35.755  16.362  -4.062  1.00 20.00     0.011 C 
HETATM    4  C4  UNL     1     -34.831  13.526  -5.277  1.00 20.00    -0.026 C 
HETATM    5  C5  UNL     1     -35.281  16.621  -5.292  1.00 20.00    -0.021 C 
HETATM    6  C6  UNL     1     -34.751  15.980  -3.093  1.00 20.00     0.009 C 
HETATM    7  C8  UNL     1     -34.681  14.525  -6.408  1.00 20.00     0.035 C 
HETATM    8  C9  UNL     1     -35.651  15.738  -6.458  1.00 20.00     0.007 C 
HETATM    9  C11 UNL     1     -37.116  15.314  -6.556  1.00 20.00     0.014 C 
ENDROOT
BRANCH   6  10
HETATM   10  C7  UNL     1     -34.265  16.953  -2.111  1.00 20.00     0.155 C 
HETATM   11  C10 UNL     1     -34.611  16.728  -0.662  1.00 20.00     0.096 C 
HETATM   12  O12 UNL     1     -33.601  17.926  -2.472  1.00 20.00    -0.293 OA
ENDBRANCH   6  10
TORSDOF 1
ENDMDL
MODEL 5
REMARK VINA RESULT:      -4.7      2.710      4.592
REMARK  1 active torsions:
REMARK  status: ('A' for Active; 'I' for Inactive)
REMARK    1  A    between atoms: C6_6  and  C7_7 
ROOT
HETATM    1  C1  UNL     1     -34.629  14.913  -6.887  1.00 20.00    -0.003 C 
HETATM    2  C2  UNL     1     -34.461  16.351  -6.703  1.00 20.00     0.015 C 
HETATM    3  C3  UNL     1     -33.166  16.199  -4.649  1.00 20.00     0.011 C 
HETATM    4  C4  UNL     1     -34.978  13.927  -6.037  1.00 20.00    -0.026 C 
HETATM    5  C5  UNL     1     -34.043  15.799  -3.713  1.00 20.00    -0.021 C 
HETATM    6  C6  UNL     1     -33.744  16.958  -5.737  1.00 20.00     0.009 C 
HETATM    7  C8  UNL     1     -35.396  13.950  -4.579  1.00 20.00     0.035 C 
HETATM    8  C9  UNL     1     -34.334  14.333  -3.510  1.00 20.00     0.007 C 
HETATM    9  C11 UNL     1     -33.130  13.391  -3.516  1.00 20.00     0.014 C 
ENDROOT
BRANCH   6  10
HETATM   10  C7  UNL     1     -33.617  18.417  -5.768  1.00 20.00     0.155 C 
HETATM   11  C10 UNL     1     -33.866  19.120  -7.078  1.00 20.00     0.096 C 
HETATM   12  O12 UNL     1     -33.307  19.039  -4.751  1.00 20.00    -0.293 OA
ENDBRANCH   6  10
TORSDOF 1
ENDMDL
MODEL 6
REMARK VINA RESULT:      -4.7      1.085      2.609
REMARK  1 active torsions:
REMARK  status: ('A' for Active; 'I' for Inactive)
REMARK    1  A    between atoms: C6_6  and  C7_7 
ROOT
HETATM    1  C1  UNL     1     -33.909  17.152  -1.947  1.00 20.00    -0.003 C 
HETATM    2  C2  UNL     1     -34.015  15.767  -2.397  1.00 20.00     0.015 C 
HETATM    3  C3  UNL     1     -33.475  16.212  -4.728  1.00 20.00     0.011 C 
HETATM    4  C4  UNL     1     -34.381  18.307  -2.456  1.00 20.00    -0.026 C 
HETATM    5  C5  UNL     1     -34.550  16.851  -5.219  1.00 20.00    -0.021 C 
HETATM    6  C6  UNL     1     -33.755  15.305  -3.636  1.00 20.00     0.009 C 
HETATM    7  C8  UNL     1     -35.262  18.598  -3.656  1.00 20.00     0.035 C 
HETATM    8  C9  UNL     1     -34.684  18.347  -5.077  1.00 20.00     0.007 C 
HETATM    9  C11 UNL     1     -33.429  19.174  -5.354  1.00 20.00     0.014 C 
ENDROOT
BRANCH   6  10
HETATM   10  C7  UNL     1     -33.830  13.861  -3.876  1.00 20.00     0.155 C 
HETATM   11  C10 UNL     1     -35.137  13.293  -4.365  1.00 20.00     0.096 C 
HETATM   12  O12 UNL     1     -32.850  13.143  -3.674  1.00 20.00    -0.293 OA
ENDBRANCH   6  10
TORSDOF 1
ENDMDL
MODEL 7
REMARK VINA RESULT:      -4.5      2.617      3.184
REMARK  1 active torsions:
REMARK  status: ('A' for Active; 'I' for Inactive)
REMARK    1  A    between atoms: C6_6  and  C7_7 
ROOT
HETATM    1  C1  UNL     1     -34.416  16.027  -5.843  1.00 20.00    -0.003 C 
HETATM    2  C2  UNL     1     -35.724  15.404  -5.672  1.00 20.00     0.015 C 
HETATM    3  C3  UNL     1     -36.168  16.335  -3.468  1.00 20.00     0.011 C 
HETATM    4  C4  UNL     1     -33.353  16.139  -5.021  1.00 20.00    -0.026 C 
HETATM    5  C5  UNL     1     -35.332  15.686  -2.641  1.00 20.00    -0.021 C 
HETATM    6  C6  UNL     1     -36.569  15.584  -4.638  1.00 20.00     0.009 C 
HETATM    7  C8  UNL     1     -33.091  15.599  -3.628  1.00 20.00     0.035 C 
HETATM    8  C9  UNL     1     -33.918  16.173  -2.443  1.00 20.00     0.007 C 
HETATM    9  C11 UNL     1     -33.732  17.682  -2.275  1.00 20.00     0.014 C 
ENDROOT
BRANCH   6  10
HETATM   10  C7  UNL     1     -37.886  14.941  -4.686  1.00 20.00     0.155 C 
HETATM   11  C10 UNL     1     -38.766  15.226  -5.875  1.00 20.00     0.096 C 
HETATM   12  O12 UNL     1     -38.253  14.201  -3.774  1.00 20.00    -0.293 OA
ENDBRANCH   6  10
TORSDOF 1
ENDMDL
MODEL 8
REMARK VINA RESULT:      -4.5      2.624      3.962
REMARK  1 active torsions:
REMARK  status: ('A' for Active; 'I' for Inactive)
REMARK    1  A    between atoms: C6_6  and  C7_7 
ROOT
HETATM    1  C1  UNL     1     -35.913  14.599  -6.995  1.00 20.00    -0.003 C 
HETATM    2  C2  UNL     1     -34.783  14.503  -6.076  1.00 20.00     0.015 C 
HETATM    3  C3  UNL     1     -36.113  14.174  -4.065  1.00 20.00     0.011 C 
HETATM    4  C4  UNL     1     -37.074  15.281  -6.933  1.00 20.00    -0.026 C 
HETATM    5  C5  UNL     1     -36.690  15.364  -3.830  1.00 20.00    -0.021 C 
HETATM    6  C6  UNL     1     -34.843  14.241  -4.756  1.00 20.00     0.009 C 
HETATM    7  C8  UNL     1     -37.616  16.263  -5.912  1.00 20.00     0.035 C 
HETATM    8  C9  UNL     1     -37.990  15.732  -4.499  1.00 20.00     0.007 C 
HETATM    9  C11 UNL     1     -39.065  14.646  -4.546  1.00 20.00     0.014 C 
ENDROOT
BRANCH   6  10
HETATM   10  C7  UNL     1     -33.590  14.092  -4.011  1.00 20.00     0.155 C 
HETATM   11  C10 UNL     1     -32.828  15.343  -3.656  1.00 20.00     0.096 C 
HETATM   12  O12 UNL     1     -33.177  12.975  -3.699  1.00 20.00    -0.293 OA
ENDBRANCH   6  10
TORSDOF 1
ENDMDL
MODEL 9
REMARK VINA RESULT:      -4.5      1.559      2.268
REMARK  1 active torsions:
REMARK  status: ('A' for Active; 'I' for Inactive)
REMARK    1  A    between atoms: C6_6  and  C7_7 
ROOT
HETATM    1  C1  UNL     1     -36.637  17.514  -2.786  1.00 20.00    -0.003 C 
HETATM    2  C2  UNL     1     -35.551  16.856  -3.506  1.00 20.00     0.015 C 
HETATM    3  C3  UNL     1     -34.263  16.250  -1.532  1.00 20.00     0.011 C 
HETATM    4  C4  UNL     1     -36.643  18.406  -1.776  1.00 20.00    -0.026 C 
HETATM    5  C5  UNL     1     -33.762  17.409  -1.073  1.00 20.00    -0.021 C 
HETATM    6  C6  UNL     1     -34.500  16.214  -2.959  1.00 20.00     0.009 C 
HETATM    7  C8  UNL     1     -35.517  19.119  -1.051  1.00 20.00     0.035 C 
HETATM    8  C9  UNL     1     -34.572  18.280  -0.145  1.00 20.00     0.007 C 
HETATM    9  C11 UNL     1     -35.320  17.567   0.982  1.00 20.00     0.014 C 
ENDROOT
BRANCH   6  10
HETATM   10  C7  UNL     1     -33.554  15.532  -3.847  1.00 20.00     0.155 C 
HETATM   11  C10 UNL     1     -33.529  14.025  -3.828  1.00 20.00     0.096 C 
HETATM   12  O12 UNL     1     -32.803  16.181  -4.575  1.00 20.00    -0.293 OA
ENDBRANCH   6  10
TORSDOF 1
ENDMDL
