MODEL 1
REMARK VINA RESULT:      -4.5      0.000      0.000
REMARK  3 active torsions:
REMARK  status: ('A' for Active; 'I' for Inactive)
REMARK    1  A    between atoms: C1_1  and  C8_8 
REMARK    2  A    between atoms: C8_8  and  C9_9 
REMARK    3  A    between atoms: C9_9  and  C10_10 
ROOT
HETATM    1  C8  UNL     1     -33.683  16.156  -2.617  1.00 20.00     0.055 C 
ENDROOT
BRANCH   1   2
HETATM    2  C1  UNL     1     -34.195  15.233  -3.672  1.00 20.00     0.006 C 
HETATM    3  C2  UNL     1     -33.740  13.808  -3.724  1.00 20.00     0.056 C 
HETATM    4  C3  UNL     1     -34.827  13.243  -4.605  1.00 20.00     0.027 C 
HETATM    5  C4  UNL     1     -35.227  14.437  -5.454  1.00 20.00     0.149 C 
HETATM    6  N11 UNL     1     -35.016  15.623  -4.599  1.00 20.00    -0.298 NA
ENDBRANCH   1   2
BRANCH   1   7
HETATM    7  C9  UNL     1     -34.677  16.277  -1.458  1.00 20.00     0.014 C 
BRANCH   7   8
HETATM    8  C10 UNL     1     -34.613  17.601  -0.651  1.00 20.00    -0.051 C 
HETATM    9  C5  UNL     1     -33.176  18.146  -0.590  1.00 20.00     0.014 C 
HETATM   10  C6  UNL     1     -35.141  17.406   0.780  1.00 20.00     0.014 C 
HETATM   11  C7  UNL     1     -35.500  18.641  -1.362  1.00 20.00     0.014 C 
ENDBRANCH   7   8
ENDBRANCH   1   7
TORSDOF 3
ENDMDL
MODEL 2
REMARK VINA RESULT:      -4.5      0.054      1.308
REMARK  3 active torsions:
REMARK  status: ('A' for Active; 'I' for Inactive)
REMARK    1  A    between atoms: C1_1  and  C8_8 
REMARK    2  A    between atoms: C8_8  and  C9_9 
REMARK    3  A    between atoms: C9_9  and  C10_10 
ROOT
HETATM    1  C8  UNL     1     -33.664  16.162  -2.614  1.00 20.00     0.055 C 
ENDROOT
BRANCH   1   2
HETATM    2  C1  UNL     1     -34.152  15.240  -3.683  1.00 20.00     0.006 C 
HETATM    3  C2  UNL     1     -33.681  13.821  -3.739  1.00 20.00     0.056 C 
HETATM    4  C3  UNL     1     -34.749  13.250  -4.639  1.00 20.00     0.027 C 
HETATM    5  C4  UNL     1     -35.151  14.446  -5.484  1.00 20.00     0.149 C 
HETATM    6  N11 UNL     1     -34.965  15.628  -4.618  1.00 20.00    -0.298 NA
ENDBRANCH   1   2
BRANCH   1   7
HETATM    7  C9  UNL     1     -34.686  16.281  -1.479  1.00 20.00     0.014 C 
BRANCH   7   8
HETATM    8  C10 UNL     1     -34.645  17.607  -0.675  1.00 20.00    -0.051 C 
HETATM    9  C5  UNL     1     -35.140  17.399   0.767  1.00 20.00     0.014 C 
HETATM   10  C6  UNL     1     -35.498  18.694  -1.351  1.00 20.00     0.014 C 
HETATM   11  C7  UNL     1     -33.184  18.094  -0.624  1.00 20.00     0.014 C 
ENDBRANCH   7   8
ENDBRANCH   1   7
TORSDOF 3
ENDMDL
MODEL 3
REMARK VINA RESULT:      -4.5      0.095      1.304
REMARK  3 active torsions:
REMARK  status: ('A' for Active; 'I' for Inactive)
REMARK    1  A    between atoms: C1_1  and  C8_8 
REMARK    2  A    between atoms: C8_8  and  C9_9 
REMARK    3  A    between atoms: C9_9  and  C10_10 
ROOT
HETATM    1  C8  UNL     1     -33.705  16.191  -2.599  1.00 20.00     0.055 C 
ENDROOT
BRANCH   1   2
HETATM    2  C1  UNL     1     -34.251  15.263  -3.634  1.00 20.00     0.006 C 
HETATM    3  C2  UNL     1     -33.868  13.817  -3.638  1.00 20.00     0.056 C 
HETATM    4  C3  UNL     1     -34.971  13.280  -4.517  1.00 20.00     0.027 C 
HETATM    5  C4  UNL     1     -35.300  14.467  -5.405  1.00 20.00     0.149 C 
HETATM    6  N11 UNL     1     -35.040  15.666  -4.583  1.00 20.00    -0.298 NA
ENDBRANCH   1   2
BRANCH   1   7
HETATM    7  C9  UNL     1     -34.664  16.320  -1.413  1.00 20.00     0.014 C 
BRANCH   7   8
HETATM    8  C10 UNL     1     -34.597  17.662  -0.637  1.00 20.00    -0.051 C 
HETATM    9  C5  UNL     1     -35.466  18.738  -1.309  1.00 20.00     0.014 C 
HETATM   10  C6  UNL     1     -33.150  18.173  -0.533  1.00 20.00     0.014 C 
HETATM   11  C7  UNL     1     -35.133  17.421   0.788  1.00 20.00     0.014 C 
ENDBRANCH   7   8
ENDBRANCH   1   7
TORSDOF 3
ENDMDL
MODEL 4
REMARK VINA RESULT:      -4.4      1.822      5.262
REMARK  3 active torsions:
REMARK  status: ('A' for Active; 'I' for Inactive)
REMARK    1  A    between atoms: C1_1  and  C8_8 
REMARK    2  A    between atoms: C8_8  and  C9_9 
REMARK    3  A    between atoms: C9_9  and  C10_10 
ROOT
HETATM    1  C8  UNL     1     -34.760  16.226  -1.524  1.00 20.00     0.055 C 
ENDROOT
BRANCH   1   2
HETATM    2  C1  UNL     1     -34.317  17.261  -0.543  1.00 20.00     0.006 C 
HETATM    3  C2  UNL     1     -35.143  17.567   0.667  1.00 20.00     0.056 C 
HETATM    4  C3  UNL     1     -34.101  18.279   1.494  1.00 20.00     0.027 C 
HETATM    5  C4  UNL     1     -33.195  18.889   0.439  1.00 20.00     0.149 C 
HETATM    6  N11 UNL     1     -33.235  17.960  -0.708  1.00 20.00    -0.298 NA
ENDBRANCH   1   2
BRANCH   1   7
HETATM    7  C9  UNL     1     -33.741  16.068  -2.656  1.00 20.00     0.014 C 
BRANCH   7   8
HETATM    8  C10 UNL     1     -34.150  15.102  -3.799  1.00 20.00    -0.051 C 
HETATM    9  C5  UNL     1     -33.353  13.788  -3.731  1.00 20.00     0.014 C 
HETATM   10  C6  UNL     1     -33.939  15.750  -5.178  1.00 20.00     0.014 C 
HETATM   11  C7  UNL     1     -35.647  14.773  -3.638  1.00 20.00     0.014 C 
ENDBRANCH   7   8
ENDBRANCH   1   7
TORSDOF 3
ENDMDL
MODEL 5
REMARK VINA RESULT:      -4.3      1.444      4.996
REMARK  3 active torsions:
REMARK  status: ('A' for Active; 'I' for Inactive)
REMARK    1  A    between atoms: C1_1  and  C8_8 
REMARK    2  A    between atoms: C8_8  and  C9_9 
REMARK    3  A    between atoms: C9_9  and  C10_10 
ROOT
HETATM    1  C8  UNL     1     -33.194  15.716  -4.043  1.00 20.00     0.055 C 
ENDROOT
BRANCH   1   2
HETATM    2  C1  UNL     1     -33.808  16.517  -2.943  1.00 20.00     0.006 C 
HETATM    3  C2  UNL     1     -34.702  15.867  -1.935  1.00 20.00     0.056 C 
HETATM    4  C3  UNL     1     -34.670  16.931  -0.865  1.00 20.00     0.027 C 
HETATM    5  C4  UNL     1     -34.438  18.202  -1.664  1.00 20.00     0.149 C 
HETATM    6  N11 UNL     1     -33.629  17.799  -2.831  1.00 20.00    -0.298 NA
ENDBRANCH   1   2
BRANCH   1   7
HETATM    7  C9  UNL     1     -33.950  15.917  -5.360  1.00 20.00     0.014 C 
BRANCH   7   8
HETATM    8  C10 UNL     1     -34.933  14.781  -5.751  1.00 20.00    -0.051 C 
HETATM    9  C5  UNL     1     -34.574  13.465  -5.039  1.00 20.00     0.014 C 
HETATM   10  C6  UNL     1     -34.937  14.549  -7.271  1.00 20.00     0.014 C 
HETATM   11  C7  UNL     1     -36.350  15.201  -5.316  1.00 20.00     0.014 C 
ENDBRANCH   7   8
ENDBRANCH   1   7
TORSDOF 3
ENDMDL
MODEL 6
REMARK VINA RESULT:      -4.3      1.471      4.986
REMARK  3 active torsions:
REMARK  status: ('A' for Active; 'I' for Inactive)
REMARK    1  A    between atoms: C1_1  and  C8_8 
REMARK    2  A    between atoms: C8_8  and  C9_9 
REMARK    3  A    between atoms: C9_9  and  C10_10 
ROOT
HETATM    1  C8  UNL     1     -33.207  15.806  -4.146  1.00 20.00     0.055 C 
ENDROOT
BRANCH   1   2
HETATM    2  C1  UNL     1     -33.830  16.547  -3.010  1.00 20.00     0.006 C 
HETATM    3  C2  UNL     1     -34.687  15.833  -2.013  1.00 20.00     0.056 C 
HETATM    4  C3  UNL     1     -34.673  16.859  -0.906  1.00 20.00     0.027 C 
HETATM    5  C4  UNL     1     -34.494  18.165  -1.662  1.00 20.00     0.149 C 
HETATM    6  N11 UNL     1     -33.691  17.829  -2.855  1.00 20.00    -0.298 NA
ENDBRANCH   1   2
BRANCH   1   7
HETATM    7  C9  UNL     1     -34.018  15.988  -5.433  1.00 20.00     0.014 C 
BRANCH   7   8
HETATM    8  C10 UNL     1     -35.005  14.840  -5.774  1.00 20.00    -0.051 C 
HETATM    9  C5  UNL     1     -35.040  14.567  -7.287  1.00 20.00     0.014 C 
HETATM   10  C6  UNL     1     -36.426  15.165  -5.285  1.00 20.00     0.014 C 
HETATM   11  C7  UNL     1     -34.522  13.563  -5.059  1.00 20.00     0.014 C 
ENDBRANCH   7   8
ENDBRANCH   1   7
TORSDOF 3
ENDMDL
MODEL 7
REMARK VINA RESULT:      -4.3      1.598      4.895
REMARK  3 active torsions:
REMARK  status: ('A' for Active; 'I' for Inactive)
REMARK    1  A    between atoms: C1_1  and  C8_8 
REMARK    2  A    between atoms: C8_8  and  C9_9 
REMARK    3  A    between atoms: C9_9  and  C10_10 
ROOT
HETATM    1  C8  UNL     1     -33.560  16.231  -3.175  1.00 20.00     0.055 C 
ENDROOT
BRANCH   1   2
HETATM    2  C1  UNL     1     -33.909  17.111  -2.021  1.00 20.00     0.006 C 
HETATM    3  C2  UNL     1     -34.708  16.581  -0.872  1.00 20.00     0.056 C 
HETATM    4  C3  UNL     1     -34.398  17.649   0.148  1.00 20.00     0.027 C 
HETATM    5  C4  UNL     1     -34.148  18.874  -0.714  1.00 20.00     0.149 C 
HETATM    6  N11 UNL     1     -33.575  18.365  -1.976  1.00 20.00    -0.298 NA
ENDBRANCH   1   2
BRANCH   1   7
HETATM    7  C9  UNL     1     -34.322  14.904  -3.106  1.00 20.00     0.014 C 
BRANCH   7   8
HETATM    8  C10 UNL     1     -35.178  14.554  -4.352  1.00 20.00    -0.051 C 
HETATM    9  C5  UNL     1     -34.958  15.574  -5.483  1.00 20.00     0.014 C 
HETATM   10  C6  UNL     1     -36.675  14.503  -4.002  1.00 20.00     0.014 C 
HETATM   11  C7  UNL     1     -34.746  13.164  -4.857  1.00 20.00     0.014 C 
ENDBRANCH   7   8
ENDBRANCH   1   7
TORSDOF 3
ENDMDL
MODEL 8
REMARK VINA RESULT:      -4.1     12.266     14.979
REMARK  3 active torsions:
REMARK  status: ('A' for Active; 'I' for Inactive)
REMARK    1  A    between atoms: C1_1  and  C8_8 
REMARK    2  A    between atoms: C8_8  and  C9_9 
REMARK    3  A    between atoms: C9_9  and  C10_10 
ROOT
HETATM    1  C8  UNL     1     -41.401   3.758  -2.231  1.00 20.00     0.055 C 
ENDROOT
BRANCH   1   2
HETATM    2  C1  UNL     1     -41.577   5.189  -1.841  1.00 20.00     0.006 C 
HETATM    3  C2  UNL     1     -40.892   5.737  -0.629  1.00 20.00     0.056 C 
HETATM    4  C3  UNL     1     -41.011   7.211  -0.934  1.00 20.00     0.027 C 
HETATM    5  C4  UNL     1     -42.280   7.280  -1.766  1.00 20.00     0.149 C 
HETATM    6  N11 UNL     1     -42.346   6.001  -2.501  1.00 20.00    -0.298 NA
ENDBRANCH   1   2
BRANCH   1   7
HETATM    7  C9  UNL     1     -42.685   3.192  -2.844  1.00 20.00     0.014 C 
BRANCH   7   8
HETATM    8  C10 UNL     1     -42.514   1.904  -3.693  1.00 20.00    -0.051 C 
HETATM    9  C5  UNL     1     -43.250   2.023  -5.038  1.00 20.00     0.014 C 
HETATM   10  C6  UNL     1     -43.034   0.669  -2.939  1.00 20.00     0.014 C 
HETATM   11  C7  UNL     1     -41.012   1.710  -3.974  1.00 20.00     0.014 C 
ENDBRANCH   7   8
ENDBRANCH   1   7
TORSDOF 3
ENDMDL
MODEL 9
REMARK VINA RESULT:      -4.1      1.681      2.785
REMARK  3 active torsions:
REMARK  status: ('A' for Active; 'I' for Inactive)
REMARK    1  A    between atoms: C1_1  and  C8_8 
REMARK    2  A    between atoms: C8_8  and  C9_9 
REMARK    3  A    between atoms: C9_9  and  C10_10 
ROOT
HETATM    1  C8  UNL     1     -35.650  14.255  -4.062  1.00 20.00     0.055 C 
ENDROOT
BRANCH   1   2
HETATM    2  C1  UNL     1     -35.845  14.629  -5.494  1.00 20.00     0.006 C 
HETATM    3  C2  UNL     1     -34.711  14.540  -6.466  1.00 20.00     0.056 C 
HETATM    4  C3  UNL     1     -35.497  14.571  -7.754  1.00 20.00     0.027 C 
HETATM    5  C4  UNL     1     -36.730  15.372  -7.375  1.00 20.00     0.149 C 
HETATM    6  N11 UNL     1     -36.976  15.077  -5.949  1.00 20.00    -0.298 NA
ENDBRANCH   1   2
BRANCH   1   7
HETATM    7  C9  UNL     1     -35.899  15.453  -3.140  1.00 20.00     0.014 C 
BRANCH   7   8
HETATM    8  C10 UNL     1     -34.635  16.242  -2.706  1.00 20.00    -0.051 C 
HETATM    9  C5  UNL     1     -33.349  15.506  -3.121  1.00 20.00     0.014 C 
HETATM   10  C6  UNL     1     -34.618  16.472  -1.186  1.00 20.00     0.014 C 
HETATM   11  C7  UNL     1     -34.660  17.614  -3.408  1.00 20.00     0.014 C 
ENDBRANCH   7   8
ENDBRANCH   1   7
TORSDOF 3
ENDMDL
