MODEL 1
REMARK VINA RESULT:      -5.0      0.000      0.000
REMARK  1 active torsions:
REMARK  status: ('A' for Active; 'I' for Inactive)
REMARK    1  A    between atoms: C1_1  and  C9_9 
ROOT
HETATM    1  C2  UNL     1     -33.681  17.602  -3.579  1.00 20.00     0.010 C 
HETATM    2  C3  UNL     1     -34.708  15.754  -5.098  1.00 20.00     0.025 C 
HETATM    3  C4  UNL     1     -35.072  15.613  -2.633  1.00 20.00     0.025 C 
HETATM    4  C5  UNL     1     -33.453  14.278  -3.732  1.00 20.00     0.026 C 
HETATM    5  C6  UNL     1     -33.451  16.538  -4.682  1.00 20.00    -0.008 C 
HETATM    6  C7  UNL     1     -33.761  16.419  -2.579  1.00 20.00    -0.008 C 
HETATM    7  C8  UNL     1     -32.820  15.648  -3.561  1.00 20.00    -0.005 C 
HETATM    8  C9  UNL     1     -34.882  14.789  -3.917  1.00 20.00     0.049 C 
ENDROOT
BRANCH   8   9
HETATM    9  C1  UNL     1     -35.878  13.675  -4.109  1.00 20.00     0.181 C 
HETATM   10  O10 UNL     1     -37.084  13.990  -3.911  1.00 20.00    -0.647 OA
HETATM   11  O11 UNL     1     -35.374  12.567  -4.444  1.00 20.00    -0.647 OA
ENDBRANCH   8   9
TORSDOF 1
ENDMDL
MODEL 2
REMARK VINA RESULT:      -4.9      1.261      2.123
REMARK  1 active torsions:
REMARK  status: ('A' for Active; 'I' for Inactive)
REMARK    1  A    between atoms: C1_1  and  C9_9 
ROOT
HETATM    1  C2  UNL     1     -34.719  16.310  -1.586  1.00 20.00     0.010 C 
HETATM    2  C3  UNL     1     -36.089  15.040  -3.400  1.00 20.00     0.025 C 
HETATM    3  C4  UNL     1     -33.608  14.773  -3.372  1.00 20.00     0.025 C 
HETATM    4  C5  UNL     1     -34.690  16.203  -4.920  1.00 20.00     0.026 C 
HETATM    5  C6  UNL     1     -35.767  16.386  -2.725  1.00 20.00    -0.008 C 
HETATM    6  C7  UNL     1     -33.651  16.158  -2.700  1.00 20.00    -0.008 C 
HETATM    7  C8  UNL     1     -34.622  16.975  -3.614  1.00 20.00    -0.005 C 
HETATM    8  C9  UNL     1     -34.848  14.824  -4.278  1.00 20.00     0.049 C 
ENDROOT
BRANCH   8   9
HETATM    9  C1  UNL     1     -34.938  13.717  -5.296  1.00 20.00     0.181 C 
HETATM   10  O10 UNL     1     -35.181  14.088  -6.477  1.00 20.00    -0.647 OA
HETATM   11  O11 UNL     1     -34.757  12.556  -4.831  1.00 20.00    -0.647 OA
ENDBRANCH   8   9
TORSDOF 1
ENDMDL
MODEL 3
REMARK VINA RESULT:      -4.9      1.308      2.497
REMARK  1 active torsions:
REMARK  status: ('A' for Active; 'I' for Inactive)
REMARK    1  A    between atoms: C1_1  and  C9_9 
ROOT
HETATM    1  C2  UNL     1     -33.647  17.630  -5.611  1.00 20.00     0.010 C 
HETATM    2  C3  UNL     1     -33.062  15.723  -3.938  1.00 20.00     0.025 C 
HETATM    3  C4  UNL     1     -34.400  15.162  -5.969  1.00 20.00     0.025 C 
HETATM    4  C5  UNL     1     -35.412  15.419  -3.843  1.00 20.00     0.026 C 
HETATM    5  C6  UNL     1     -33.672  17.120  -4.148  1.00 20.00    -0.008 C 
HETATM    6  C7  UNL     1     -34.812  16.643  -5.881  1.00 20.00    -0.008 C 
HETATM    7  C8  UNL     1     -35.192  16.825  -4.375  1.00 20.00    -0.005 C 
HETATM    8  C9  UNL     1     -34.168  14.812  -4.491  1.00 20.00     0.049 C 
ENDROOT
BRANCH   8   9
HETATM    9  C1  UNL     1     -34.023  13.340  -4.203  1.00 20.00     0.181 C 
HETATM   10  O10 UNL     1     -32.899  12.988  -3.747  1.00 20.00    -0.647 OA
HETATM   11  O11 UNL     1     -35.048  12.647  -4.456  1.00 20.00    -0.647 OA
ENDBRANCH   8   9
TORSDOF 1
ENDMDL
MODEL 4
REMARK VINA RESULT:      -4.9      1.538      2.476
REMARK  1 active torsions:
REMARK  status: ('A' for Active; 'I' for Inactive)
REMARK    1  A    between atoms: C1_1  and  C9_9 
ROOT
HETATM    1  C2  UNL     1     -34.788  17.898  -5.035  1.00 20.00     0.010 C 
HETATM    2  C3  UNL     1     -35.712  15.510  -4.559  1.00 20.00     0.025 C 
HETATM    3  C4  UNL     1     -33.243  15.869  -4.500  1.00 20.00     0.025 C 
HETATM    4  C5  UNL     1     -34.314  14.876  -6.365  1.00 20.00     0.026 C 
HETATM    5  C6  UNL     1     -35.680  16.722  -5.508  1.00 20.00    -0.008 C 
HETATM    6  C7  UNL     1     -33.574  17.029  -5.458  1.00 20.00    -0.008 C 
HETATM    7  C8  UNL     1     -34.529  16.373  -6.508  1.00 20.00    -0.005 C 
HETATM    8  C9  UNL     1     -34.350  14.858  -4.837  1.00 20.00     0.049 C 
ENDROOT
BRANCH   8   9
HETATM    9  C1  UNL     1     -34.145  13.478  -4.267  1.00 20.00     0.181 C 
HETATM   10  O10 UNL     1     -33.036  13.291  -3.694  1.00 20.00    -0.647 OA
HETATM   11  O11 UNL     1     -35.113  12.685  -4.439  1.00 20.00    -0.647 OA
ENDBRANCH   8   9
TORSDOF 1
ENDMDL
MODEL 5
REMARK VINA RESULT:      -4.8      1.481      2.726
REMARK  1 active torsions:
REMARK  status: ('A' for Active; 'I' for Inactive)
REMARK    1  A    between atoms: C1_1  and  C9_9 
ROOT
HETATM    1  C2  UNL     1     -33.032  13.875  -3.625  1.00 20.00     0.010 C 
HETATM    2  C3  UNL     1     -34.922  15.450  -2.774  1.00 20.00     0.025 C 
HETATM    3  C4  UNL     1     -35.543  13.507  -4.213  1.00 20.00     0.025 C 
HETATM    4  C5  UNL     1     -35.409  15.707  -5.080  1.00 20.00     0.026 C 
HETATM    5  C6  UNL     1     -33.572  15.322  -3.503  1.00 20.00    -0.008 C 
HETATM    6  C7  UNL     1     -34.100  13.664  -4.729  1.00 20.00    -0.008 C 
HETATM    7  C8  UNL     1     -33.980  15.198  -5.008  1.00 20.00    -0.005 C 
HETATM    8  C9  UNL     1     -35.905  14.955  -3.845  1.00 20.00     0.049 C 
ENDROOT
BRANCH   8   9
HETATM    9  C1  UNL     1     -37.367  15.193  -3.568  1.00 20.00     0.181 C 
HETATM   10  O10 UNL     1     -38.111  14.181  -3.695  1.00 20.00    -0.647 OA
HETATM   11  O11 UNL     1     -37.658  16.379  -3.244  1.00 20.00    -0.647 OA
ENDBRANCH   8   9
TORSDOF 1
ENDMDL
MODEL 6
REMARK VINA RESULT:      -4.8      1.165      2.234
REMARK  1 active torsions:
REMARK  status: ('A' for Active; 'I' for Inactive)
REMARK    1  A    between atoms: C1_1  and  C9_9 
ROOT
HETATM    1  C2  UNL     1     -33.919  17.886  -3.031  1.00 20.00     0.010 C 
HETATM    2  C3  UNL     1     -34.760  15.473  -2.529  1.00 20.00     0.025 C 
HETATM    3  C4  UNL     1     -33.048  15.794  -4.317  1.00 20.00     0.025 C 
HETATM    4  C5  UNL     1     -35.337  15.459  -4.829  1.00 20.00     0.026 C 
HETATM    5  C6  UNL     1     -35.127  16.927  -2.876  1.00 20.00    -0.008 C 
HETATM    6  C7  UNL     1     -33.667  17.202  -4.400  1.00 20.00    -0.008 C 
HETATM    7  C8  UNL     1     -35.205  16.921  -4.438  1.00 20.00    -0.005 C 
HETATM    8  C9  UNL     1     -34.253  14.946  -3.880  1.00 20.00     0.049 C 
ENDROOT
BRANCH   8   9
HETATM    9  C1  UNL     1     -34.051  13.457  -3.979  1.00 20.00     0.181 C 
HETATM   10  O10 UNL     1     -35.075  12.794  -4.307  1.00 20.00    -0.647 OA
HETATM   11  O11 UNL     1     -32.879  13.063  -3.719  1.00 20.00    -0.647 OA
ENDBRANCH   8   9
TORSDOF 1
ENDMDL
MODEL 7
REMARK VINA RESULT:      -4.8      1.313      1.888
REMARK  1 active torsions:
REMARK  status: ('A' for Active; 'I' for Inactive)
REMARK    1  A    between atoms: C1_1  and  C9_9 
ROOT
HETATM    1  C2  UNL     1     -35.523  17.522  -4.986  1.00 20.00     0.010 C 
HETATM    2  C3  UNL     1     -34.373  15.319  -5.764  1.00 20.00     0.025 C 
HETATM    3  C4  UNL     1     -35.375  15.401  -3.480  1.00 20.00     0.025 C 
HETATM    4  C5  UNL     1     -33.042  15.618  -3.825  1.00 20.00     0.026 C 
HETATM    5  C6  UNL     1     -34.258  16.842  -5.568  1.00 20.00    -0.008 C 
HETATM    6  C7  UNL     1     -35.113  16.913  -3.620  1.00 20.00    -0.008 C 
HETATM    7  C8  UNL     1     -33.639  16.979  -4.138  1.00 20.00    -0.005 C 
HETATM    8  C9  UNL     1     -34.237  14.806  -4.323  1.00 20.00     0.049 C 
ENDROOT
BRANCH   8   9
HETATM    9  C1  UNL     1     -34.038  13.321  -4.163  1.00 20.00     0.181 C 
HETATM   10  O10 UNL     1     -32.900  12.972  -3.741  1.00 20.00    -0.647 OA
HETATM   11  O11 UNL     1     -35.039  12.616  -4.472  1.00 20.00    -0.647 OA
ENDBRANCH   8   9
TORSDOF 1
ENDMDL
MODEL 8
REMARK VINA RESULT:      -4.7     11.450     12.903
REMARK  1 active torsions:
REMARK  status: ('A' for Active; 'I' for Inactive)
REMARK    1  A    between atoms: C1_1  and  C9_9 
ROOT
HETATM    1  C2  UNL     1     -40.850   7.120  -0.651  1.00 20.00     0.010 C 
HETATM    2  C3  UNL     1     -40.848   4.583  -1.238  1.00 20.00     0.025 C 
HETATM    3  C4  UNL     1     -42.268   6.123  -2.595  1.00 20.00     0.025 C 
HETATM    4  C5  UNL     1     -43.188   4.753  -0.896  1.00 20.00     0.026 C 
HETATM    5  C6  UNL     1     -41.034   5.663  -0.156  1.00 20.00    -0.008 C 
HETATM    6  C7  UNL     1     -42.245   6.977  -1.314  1.00 20.00    -0.008 C 
HETATM    7  C8  UNL     1     -42.573   5.946  -0.185  1.00 20.00    -0.005 C 
HETATM    8  C9  UNL     1     -42.161   4.700  -2.027  1.00 20.00     0.049 C 
ENDROOT
BRANCH   8   9
HETATM    9  C1  UNL     1     -42.442   3.598  -3.015  1.00 20.00     0.181 C 
HETATM   10  O10 UNL     1     -43.417   3.805  -3.790  1.00 20.00    -0.647 OA
HETATM   11  O11 UNL     1     -41.663   2.607  -2.939  1.00 20.00    -0.647 OA
ENDBRANCH   8   9
TORSDOF 1
ENDMDL
MODEL 9
REMARK VINA RESULT:      -4.6      1.706      2.912
REMARK  1 active torsions:
REMARK  status: ('A' for Active; 'I' for Inactive)
REMARK    1  A    between atoms: C1_1  and  C9_9 
ROOT
HETATM    1  C2  UNL     1     -34.304  17.135  -7.050  1.00 20.00     0.010 C 
HETATM    2  C3  UNL     1     -33.487  15.870  -4.926  1.00 20.00     0.025 C 
HETATM    3  C4  UNL     1     -34.806  14.614  -6.632  1.00 20.00     0.025 C 
HETATM    4  C5  UNL     1     -35.789  15.394  -4.623  1.00 20.00     0.026 C 
HETATM    5  C6  UNL     1     -34.242  17.081  -5.502  1.00 20.00    -0.008 C 
HETATM    6  C7  UNL     1     -35.367  16.011  -6.958  1.00 20.00    -0.008 C 
HETATM    7  C8  UNL     1     -35.728  16.594  -5.553  1.00 20.00    -0.005 C 
HETATM    8  C9  UNL     1     -34.505  14.739  -5.130  1.00 20.00     0.049 C 
ENDROOT
BRANCH   8   9
HETATM    9  C1  UNL     1     -34.202  13.437  -4.433  1.00 20.00     0.181 C 
HETATM   10  O10 UNL     1     -35.039  12.513  -4.631  1.00 20.00    -0.647 OA
HETATM   11  O11 UNL     1     -33.147  13.442  -3.739  1.00 20.00    -0.647 OA
ENDBRANCH   8   9
TORSDOF 1
ENDMDL
