MODEL 1
REMARK VINA RESULT:      -5.0      0.000      0.000
REMARK  4 active torsions:
REMARK  status: ('A' for Active; 'I' for Inactive)
REMARK    1  A    between atoms: C1_1  and  C2_2 
REMARK    2  A    between atoms: C1_1  and  C3_3 
REMARK    3  A    between atoms: C2_2  and  C8_8 
REMARK    4  A    between atoms: C3_3  and  C6_6 
ROOT
HETATM    1  C1  UNL     1     -33.191   6.315   3.472  1.00 20.00     0.125 C 
HETATM    2 CL11 UNL     1     -33.907   5.297   2.265  1.00 20.00    -0.076 Cl
ENDROOT
BRANCH   1   3
HETATM    3  C2  UNL     1     -32.199   7.206   3.219  1.00 20.00     0.174 C 
HETATM    4  O9  UNL     1     -31.260   7.623   3.959  1.00 20.00    -0.291 OA
BRANCH   3   5
HETATM    5  C8  UNL     1     -32.082   7.844   1.825  1.00 20.00     0.080 C 
HETATM    6  C7  UNL     1     -32.458   9.325   1.818  1.00 20.00     0.013 C 
ENDBRANCH   3   5
ENDBRANCH   1   3
BRANCH   1   7
HETATM    7  C3  UNL     1     -33.785   6.207   4.843  1.00 20.00     0.178 C 
HETATM    8  O10 UNL     1     -33.387   6.862   5.798  1.00 20.00    -0.291 OA
BRANCH   7   9
HETATM    9  C6  UNL     1     -34.932   5.267   5.016  1.00 20.00     0.061 A 
HETATM   10  C4  UNL     1     -34.640   3.840   5.343  1.00 20.00     0.013 A 
HETATM   11  C5  UNL     1     -35.223   4.746   6.384  1.00 20.00     0.013 A 
ENDBRANCH   7   9
ENDBRANCH   1   7
TORSDOF 4
ENDMDL
MODEL 2
REMARK VINA RESULT:      -4.9     11.488     12.106
REMARK  4 active torsions:
REMARK  status: ('A' for Active; 'I' for Inactive)
REMARK    1  A    between atoms: C1_1  and  C2_2 
REMARK    2  A    between atoms: C1_1  and  C3_3 
REMARK    3  A    between atoms: C2_2  and  C8_8 
REMARK    4  A    between atoms: C3_3  and  C6_6 
ROOT
HETATM    1  C1  UNL     1     -34.003  14.590  -3.856  1.00 20.00     0.125 C 
HETATM    2 CL11 UNL     1     -32.288  14.660  -3.612  1.00 20.00    -0.076 Cl
ENDROOT
BRANCH   1   3
HETATM    3  C2  UNL     1     -34.608  13.761  -4.745  1.00 20.00     0.174 C 
HETATM    4  O9  UNL     1     -34.924  12.539  -4.646  1.00 20.00    -0.291 OA
BRANCH   3   5
HETATM    5  C8  UNL     1     -35.059  14.304  -6.111  1.00 20.00     0.080 C 
HETATM    6  C7  UNL     1     -34.184  15.453  -6.609  1.00 20.00     0.013 C 
ENDBRANCH   3   5
ENDBRANCH   1   3
BRANCH   1   7
HETATM    7  C3  UNL     1     -34.820  15.470  -2.960  1.00 20.00     0.178 C 
HETATM    8  O10 UNL     1     -36.044  15.446  -2.933  1.00 20.00    -0.291 OA
BRANCH   7   9
HETATM    9  C6  UNL     1     -34.077  16.390  -2.049  1.00 20.00     0.061 A 
HETATM   10  C4  UNL     1     -34.659  17.735  -1.765  1.00 20.00     0.013 A 
HETATM   11  C5  UNL     1     -34.655  16.677  -0.703  1.00 20.00     0.013 A 
ENDBRANCH   7   9
ENDBRANCH   1   7
TORSDOF 4
ENDMDL
MODEL 3
REMARK VINA RESULT:      -4.9     11.396     12.363
REMARK  4 active torsions:
REMARK  status: ('A' for Active; 'I' for Inactive)
REMARK    1  A    between atoms: C1_1  and  C2_2 
REMARK    2  A    between atoms: C1_1  and  C3_3 
REMARK    3  A    between atoms: C2_2  and  C8_8 
REMARK    4  A    between atoms: C3_3  and  C6_6 
ROOT
HETATM    1  C1  UNL     1     -33.950  14.652  -3.620  1.00 20.00     0.125 C 
HETATM    2 CL11 UNL     1     -32.218  14.583  -3.561  1.00 20.00    -0.076 Cl
ENDROOT
BRANCH   1   3
HETATM    3  C2  UNL     1     -34.697  15.513  -2.884  1.00 20.00     0.174 C 
HETATM    4  O9  UNL     1     -35.954  15.606  -2.754  1.00 20.00    -0.291 OA
BRANCH   3   5
HETATM    5  C8  UNL     1     -34.006  16.561  -1.996  1.00 20.00     0.080 C 
HETATM    6  C7  UNL     1     -34.675  16.715  -0.632  1.00 20.00     0.013 C 
ENDBRANCH   3   5
ENDBRANCH   1   3
BRANCH   1   7
HETATM    7  C3  UNL     1     -34.600  13.731  -4.606  1.00 20.00     0.178 C 
HETATM    8  O10 UNL     1     -35.097  12.657  -4.290  1.00 20.00    -0.291 OA
BRANCH   7   9
HETATM    9  C6  UNL     1     -34.652  14.182  -6.028  1.00 20.00     0.061 A 
HETATM   10  C4  UNL     1     -35.690  15.181  -6.420  1.00 20.00     0.013 A 
HETATM   11  C5  UNL     1     -34.248  15.584  -6.343  1.00 20.00     0.013 A 
ENDBRANCH   7   9
ENDBRANCH   1   7
TORSDOF 4
ENDMDL
MODEL 4
REMARK VINA RESULT:      -4.8     11.548     12.298
REMARK  4 active torsions:
REMARK  status: ('A' for Active; 'I' for Inactive)
REMARK    1  A    between atoms: C1_1  and  C2_2 
REMARK    2  A    between atoms: C1_1  and  C3_3 
REMARK    3  A    between atoms: C2_2  and  C8_8 
REMARK    4  A    between atoms: C3_3  and  C6_6 
ROOT
HETATM    1  C1  UNL     1     -36.228  14.757  -3.936  1.00 20.00     0.125 C 
HETATM    2 CL11 UNL     1     -37.951  14.570  -3.992  1.00 20.00    -0.076 Cl
ENDROOT
BRANCH   1   3
HETATM    3  C2  UNL     1     -35.355  13.905  -4.532  1.00 20.00     0.174 C 
HETATM    4  O9  UNL     1     -35.073  12.699  -4.267  1.00 20.00    -0.291 OA
BRANCH   3   5
HETATM    5  C8  UNL     1     -34.557  14.366  -5.762  1.00 20.00     0.080 C 
HETATM    6  C7  UNL     1     -35.405  14.427  -7.030  1.00 20.00     0.013 C 
ENDBRANCH   3   5
ENDBRANCH   1   3
BRANCH   1   7
HETATM    7  C3  UNL     1     -35.733  15.982  -3.229  1.00 20.00     0.178 C 
HETATM    8  O10 UNL     1     -36.201  17.098  -3.419  1.00 20.00    -0.291 OA
BRANCH   7   9
HETATM    9  C6  UNL     1     -34.636  15.797  -2.234  1.00 20.00     0.061 A 
HETATM   10  C4  UNL     1     -33.709  16.938  -1.977  1.00 20.00     0.013 A 
HETATM   11  C5  UNL     1     -34.717  16.539  -0.942  1.00 20.00     0.013 A 
ENDBRANCH   7   9
ENDBRANCH   1   7
TORSDOF 4
ENDMDL
MODEL 5
REMARK VINA RESULT:      -4.8      0.524      4.632
REMARK  4 active torsions:
REMARK  status: ('A' for Active; 'I' for Inactive)
REMARK    1  A    between atoms: C1_1  and  C2_2 
REMARK    2  A    between atoms: C1_1  and  C3_3 
REMARK    3  A    between atoms: C2_2  and  C8_8 
REMARK    4  A    between atoms: C3_3  and  C6_6 
ROOT
HETATM    1  C1  UNL     1     -33.402   6.230   3.417  1.00 20.00     0.125 C 
HETATM    2 CL11 UNL     1     -33.749   5.095   2.153  1.00 20.00    -0.076 Cl
ENDROOT
BRANCH   1   3
HETATM    3  C2  UNL     1     -33.901   6.136   4.676  1.00 20.00     0.174 C 
HETATM    4  O9  UNL     1     -33.555   6.724   5.743  1.00 20.00    -0.291 OA
BRANCH   3   5
HETATM    5  C8  UNL     1     -35.107   5.225   4.954  1.00 20.00     0.080 C 
HETATM    6  C7  UNL     1     -34.783   4.096   5.930  1.00 20.00     0.013 C 
ENDBRANCH   3   5
ENDBRANCH   1   3
BRANCH   1   7
HETATM    7  C3  UNL     1     -32.439   7.321   3.060  1.00 20.00     0.178 C 
HETATM    8  O10 UNL     1     -31.415   7.544   3.694  1.00 20.00    -0.291 OA
BRANCH   7   9
HETATM    9  C6  UNL     1     -32.756   8.140   1.853  1.00 20.00     0.061 A 
HETATM   10  C4  UNL     1     -32.432   9.597   1.876  1.00 20.00     0.013 A 
HETATM   11  C5  UNL     1     -31.624   8.660   1.030  1.00 20.00     0.013 A 
ENDBRANCH   7   9
ENDBRANCH   1   7
TORSDOF 4
ENDMDL
MODEL 6
REMARK VINA RESULT:      -4.7      1.921      2.075
REMARK  4 active torsions:
REMARK  status: ('A' for Active; 'I' for Inactive)
REMARK    1  A    between atoms: C1_1  and  C2_2 
REMARK    2  A    between atoms: C1_1  and  C3_3 
REMARK    3  A    between atoms: C2_2  and  C8_8 
REMARK    4  A    between atoms: C3_3  and  C6_6 
ROOT
HETATM    1  C1  UNL     1     -33.672   6.261   4.442  1.00 20.00     0.125 C 
HETATM    2 CL11 UNL     1     -33.640   7.004   6.008  1.00 20.00    -0.076 Cl
ENDROOT
BRANCH   1   3
HETATM    3  C2  UNL     1     -32.639   6.305   3.563  1.00 20.00     0.174 C 
HETATM    4  O9  UNL     1     -32.187   5.417   2.781  1.00 20.00    -0.291 OA
BRANCH   3   5
HETATM    5  C8  UNL     1     -31.845   7.608   3.380  1.00 20.00     0.080 C 
HETATM    6  C7  UNL     1     -32.063   8.247   2.010  1.00 20.00     0.013 C 
ENDBRANCH   3   5
ENDBRANCH   1   3
BRANCH   1   7
HETATM    7  C3  UNL     1     -34.912   5.484   4.121  1.00 20.00     0.178 C 
HETATM    8  O10 UNL     1     -35.679   5.792   3.218  1.00 20.00    -0.291 OA
BRANCH   7   9
HETATM    9  C6  UNL     1     -35.184   4.267   4.941  1.00 20.00     0.061 A 
HETATM   10  C4  UNL     1     -34.087   3.723   5.794  1.00 20.00     0.013 A 
HETATM   11  C5  UNL     1     -35.259   4.412   6.425  1.00 20.00     0.013 A 
ENDBRANCH   7   9
ENDBRANCH   1   7
TORSDOF 4
ENDMDL
MODEL 7
REMARK VINA RESULT:      -4.6     11.547     12.925
REMARK  4 active torsions:
REMARK  status: ('A' for Active; 'I' for Inactive)
REMARK    1  A    between atoms: C1_1  and  C2_2 
REMARK    2  A    between atoms: C1_1  and  C3_3 
REMARK    3  A    between atoms: C2_2  and  C8_8 
REMARK    4  A    between atoms: C3_3  and  C6_6 
ROOT
HETATM    1  C1  UNL     1     -35.866  14.744  -3.605  1.00 20.00     0.125 C 
HETATM    2 CL11 UNL     1     -34.800  15.587  -2.528  1.00 20.00    -0.076 Cl
ENDROOT
BRANCH   1   3
HETATM    3  C2  UNL     1     -37.198  14.991  -3.698  1.00 20.00     0.174 C 
HETATM    4  O9  UNL     1     -38.181  14.194  -3.734  1.00 20.00    -0.291 OA
BRANCH   3   5
HETATM    5  C8  UNL     1     -37.706  16.441  -3.732  1.00 20.00     0.080 C 
HETATM    6  C7  UNL     1     -38.074  16.906  -5.140  1.00 20.00     0.013 C 
ENDBRANCH   3   5
ENDBRANCH   1   3
BRANCH   1   7
HETATM    7  C3  UNL     1     -35.214  13.741  -4.506  1.00 20.00     0.178 C 
HETATM    8  O10 UNL     1     -35.286  12.532  -4.325  1.00 20.00    -0.291 OA
BRANCH   7   9
HETATM    9  C6  UNL     1     -34.471  14.270  -5.688  1.00 20.00     0.061 A 
HETATM   10  C4  UNL     1     -35.237  14.578  -6.931  1.00 20.00     0.013 A 
HETATM   11  C5  UNL     1     -34.691  15.691  -6.088  1.00 20.00     0.013 A 
ENDBRANCH   7   9
ENDBRANCH   1   7
TORSDOF 4
ENDMDL
MODEL 8
REMARK VINA RESULT:      -4.6     11.766     12.257
REMARK  4 active torsions:
REMARK  status: ('A' for Active; 'I' for Inactive)
REMARK    1  A    between atoms: C1_1  and  C2_2 
REMARK    2  A    between atoms: C1_1  and  C3_3 
REMARK    3  A    between atoms: C2_2  and  C8_8 
REMARK    4  A    between atoms: C3_3  and  C6_6 
ROOT
HETATM    1  C1  UNL     1     -34.168  14.870  -4.919  1.00 20.00     0.125 C 
HETATM    2 CL11 UNL     1     -34.047  15.494  -6.532  1.00 20.00    -0.076 Cl
ENDROOT
BRANCH   1   3
HETATM    3  C2  UNL     1     -33.338  15.227  -3.906  1.00 20.00     0.174 C 
HETATM    4  O9  UNL     1     -32.248  14.712  -3.518  1.00 20.00    -0.291 OA
BRANCH   3   5
HETATM    5  C8  UNL     1     -33.659  16.464  -3.053  1.00 20.00     0.080 C 
HETATM    6  C7  UNL     1     -34.479  16.129  -1.808  1.00 20.00     0.013 C 
ENDBRANCH   3   5
ENDBRANCH   1   3
BRANCH   1   7
HETATM    7  C3  UNL     1     -35.313  13.937  -4.671  1.00 20.00     0.178 C 
HETATM    8  O10 UNL     1     -35.166  12.786  -4.281  1.00 20.00    -0.291 OA
BRANCH   7   9
HETATM    9  C6  UNL     1     -36.689  14.474  -4.894  1.00 20.00     0.061 A 
HETATM   10  C4  UNL     1     -37.501  14.865  -3.705  1.00 20.00     0.013 A 
HETATM   11  C5  UNL     1     -36.942  15.918  -4.614  1.00 20.00     0.013 A 
ENDBRANCH   7   9
ENDBRANCH   1   7
TORSDOF 4
ENDMDL
MODEL 9
REMARK VINA RESULT:      -4.5     11.318     12.534
REMARK  4 active torsions:
REMARK  status: ('A' for Active; 'I' for Inactive)
REMARK    1  A    between atoms: C1_1  and  C2_2 
REMARK    2  A    between atoms: C1_1  and  C3_3 
REMARK    3  A    between atoms: C2_2  and  C8_8 
REMARK    4  A    between atoms: C3_3  and  C6_6 
ROOT
HETATM    1  C1  UNL     1     -36.000  14.716  -4.886  1.00 20.00     0.125 C 
HETATM    2 CL11 UNL     1     -35.445  15.467  -6.346  1.00 20.00    -0.076 Cl
ENDROOT
BRANCH   1   3
HETATM    3  C2  UNL     1     -37.225  14.933  -4.342  1.00 20.00     0.174 C 
HETATM    4  O9  UNL     1     -37.998  14.147  -3.721  1.00 20.00    -0.291 OA
BRANCH   3   5
HETATM    5  C8  UNL     1     -37.850  16.336  -4.402  1.00 20.00     0.080 C 
HETATM    6  C7  UNL     1     -37.548  17.172  -3.160  1.00 20.00     0.013 C 
ENDBRANCH   3   5
ENDBRANCH   1   3
BRANCH   1   7
HETATM    7  C3  UNL     1     -35.056  13.732  -4.265  1.00 20.00     0.178 C 
HETATM    8  O10 UNL     1     -35.031  12.546  -4.570  1.00 20.00    -0.291 OA
BRANCH   7   9
HETATM    9  C6  UNL     1     -34.095  14.257  -3.251  1.00 20.00     0.061 A 
HETATM   10  C4  UNL     1     -32.986  15.143  -3.712  1.00 20.00     0.013 A 
HETATM   11  C5  UNL     1     -34.128  15.714  -2.928  1.00 20.00     0.013 A 
ENDBRANCH   7   9
ENDBRANCH   1   7
TORSDOF 4
ENDMDL
