MODEL 1
REMARK VINA RESULT:      -4.5      0.000      0.000
REMARK  2 active torsions:
REMARK  status: ('A' for Active; 'I' for Inactive)
REMARK    1  A    between atoms: C3_3  and  C5_5 
REMARK    2  A    between atoms: C3_3  and  O11_11 
ROOT
HETATM    1  C1  UNL     1     -34.409  16.669  -0.951  1.00 20.00     0.012 C 
HETATM    2  C2  UNL     1     -34.844  16.086  -1.907  1.00 20.00    -0.111 C 
HETATM    3  C4  UNL     1     -35.363  15.389  -3.048  1.00 20.00     0.087 A 
HETATM    4  C5  UNL     1     -34.954  15.794  -4.447  1.00 20.00     0.111 A 
HETATM    5  C6  UNL     1     -34.469  14.475  -3.870  1.00 20.00    -0.019 A 
HETATM    6  C7  UNL     1     -35.093  13.214  -4.417  1.00 20.00     0.017 C 
HETATM    7  C8  UNL     1     -33.014  14.308  -3.504  1.00 20.00     0.017 C 
ENDROOT
BRANCH   4   8
HETATM    8  C3  UNL     1     -34.024  16.908  -4.680  1.00 20.00     0.264 C 
HETATM    9  O10 UNL     1     -32.894  16.774  -5.132  1.00 20.00    -0.265 OA
BRANCH   8  10
HETATM   10  O11 UNL     1     -34.617  18.081  -4.319  1.00 20.00    -0.326 OA
HETATM   11  C9  UNL     1     -33.725  19.120  -3.904  1.00 20.00     0.213 C 
ENDBRANCH   8  10
ENDBRANCH   4   8
TORSDOF 2
ENDMDL
MODEL 2
REMARK VINA RESULT:      -4.4      2.597      4.014
REMARK  2 active torsions:
REMARK  status: ('A' for Active; 'I' for Inactive)
REMARK    1  A    between atoms: C3_3  and  C5_5 
REMARK    2  A    between atoms: C3_3  and  O11_11 
ROOT
HETATM    1  C1  UNL     1     -34.374  15.006  -7.120  1.00 20.00     0.012 C 
HETATM    2  C2  UNL     1     -34.563  15.475  -6.030  1.00 20.00    -0.111 C 
HETATM    3  C4  UNL     1     -34.788  16.035  -4.729  1.00 20.00     0.087 A 
HETATM    4  C5  UNL     1     -35.633  15.300  -3.712  1.00 20.00     0.111 A 
HETATM    5  C6  UNL     1     -34.135  15.426  -3.500  1.00 20.00    -0.019 A 
HETATM    6  C7  UNL     1     -33.669  16.378  -2.425  1.00 20.00     0.017 C 
HETATM    7  C8  UNL     1     -33.254  14.206  -3.634  1.00 20.00     0.017 C 
ENDROOT
BRANCH   4   8
HETATM    8  C3  UNL     1     -36.249  14.002  -4.023  1.00 20.00     0.264 C 
HETATM    9  O10 UNL     1     -35.621  13.011  -4.372  1.00 20.00    -0.265 OA
BRANCH   8  10
HETATM   10  O11 UNL     1     -37.600  14.087  -3.860  1.00 20.00    -0.326 OA
HETATM   11  C9  UNL     1     -38.226  15.211  -4.487  1.00 20.00     0.213 C 
ENDBRANCH   8  10
ENDBRANCH   4   8
TORSDOF 2
ENDMDL
MODEL 3
REMARK VINA RESULT:      -4.3      0.793      1.549
REMARK  2 active torsions:
REMARK  status: ('A' for Active; 'I' for Inactive)
REMARK    1  A    between atoms: C3_3  and  C5_5 
REMARK    2  A    between atoms: C3_3  and  O11_11 
ROOT
HETATM    1  C1  UNL     1     -34.321  16.862  -0.814  1.00 20.00     0.012 C 
HETATM    2  C2  UNL     1     -34.759  16.221  -1.730  1.00 20.00    -0.111 C 
HETATM    3  C4  UNL     1     -35.281  15.456  -2.825  1.00 20.00     0.087 A 
HETATM    4  C5  UNL     1     -35.089  15.925  -4.251  1.00 20.00     0.111 A 
HETATM    5  C6  UNL     1     -34.348  14.696  -3.753  1.00 20.00    -0.019 A 
HETATM    6  C7  UNL     1     -34.822  13.354  -4.257  1.00 20.00     0.017 C 
HETATM    7  C8  UNL     1     -32.853  14.757  -3.544  1.00 20.00     0.017 C 
ENDROOT
BRANCH   4   8
HETATM    8  C3  UNL     1     -34.373  17.171  -4.557  1.00 20.00     0.264 C 
HETATM    9  O10 UNL     1     -34.452  18.190  -3.883  1.00 20.00    -0.265 OA
BRANCH   8  10
HETATM   10  O11 UNL     1     -33.628  17.004  -5.687  1.00 20.00    -0.326 OA
HETATM   11  C9  UNL     1     -34.353  16.581  -6.845  1.00 20.00     0.213 C 
ENDBRANCH   8  10
ENDBRANCH   4   8
TORSDOF 2
ENDMDL
MODEL 4
REMARK VINA RESULT:      -4.3      0.835      2.754
REMARK  2 active torsions:
REMARK  status: ('A' for Active; 'I' for Inactive)
REMARK    1  A    between atoms: C3_3  and  C5_5 
REMARK    2  A    between atoms: C3_3  and  O11_11 
ROOT
HETATM    1  C1  UNL     1     -34.860  13.264  -4.664  1.00 20.00     0.012 C 
HETATM    2  C2  UNL     1     -34.430  14.053  -3.867  1.00 20.00    -0.111 C 
HETATM    3  C4  UNL     1     -33.918  14.995  -2.915  1.00 20.00     0.087 A 
HETATM    4  C5  UNL     1     -33.584  16.409  -3.337  1.00 20.00     0.111 A 
HETATM    5  C6  UNL     1     -34.776  16.152  -2.432  1.00 20.00    -0.019 A 
HETATM    6  C7  UNL     1     -34.639  16.552  -0.983  1.00 20.00     0.017 C 
HETATM    7  C8  UNL     1     -36.176  16.335  -2.968  1.00 20.00     0.017 C 
ENDROOT
BRANCH   4   8
HETATM    8  C3  UNL     1     -33.767  16.857  -4.725  1.00 20.00     0.264 C 
HETATM    9  O10 UNL     1     -33.436  16.202  -5.705  1.00 20.00    -0.265 OA
BRANCH   8  10
HETATM   10  O11 UNL     1     -34.350  18.089  -4.734  1.00 20.00    -0.326 OA
HETATM   11  C9  UNL     1     -33.522  19.166  -4.284  1.00 20.00     0.213 C 
ENDBRANCH   8  10
ENDBRANCH   4   8
TORSDOF 2
ENDMDL
MODEL 5
REMARK VINA RESULT:      -4.2      1.662      3.148
REMARK  2 active torsions:
REMARK  status: ('A' for Active; 'I' for Inactive)
REMARK    1  A    between atoms: C3_3  and  C5_5 
REMARK    2  A    between atoms: C3_3  and  O11_11 
ROOT
HETATM    1  C1  UNL     1     -33.627  18.128  -5.607  1.00 20.00     0.012 C 
HETATM    2  C2  UNL     1     -33.465  17.060  -5.082  1.00 20.00    -0.111 C 
HETATM    3  C4  UNL     1     -33.272  15.784  -4.454  1.00 20.00     0.087 A 
HETATM    4  C5  UNL     1     -33.491  15.619  -2.967  1.00 20.00     0.111 A 
HETATM    5  C6  UNL     1     -34.460  14.983  -3.948  1.00 20.00    -0.019 A 
HETATM    6  C7  UNL     1     -34.395  13.483  -4.106  1.00 20.00     0.017 C 
HETATM    7  C8  UNL     1     -35.860  15.533  -4.081  1.00 20.00     0.017 C 
ENDROOT
BRANCH   4   8
HETATM    8  C3  UNL     1     -33.899  16.750  -2.122  1.00 20.00     0.264 C 
HETATM    9  O10 UNL     1     -33.544  17.907  -2.309  1.00 20.00    -0.265 OA
BRANCH   8  10
HETATM   10  O11 UNL     1     -34.717  16.305  -1.126  1.00 20.00    -0.326 OA
HETATM   11  C9  UNL     1     -34.834  17.172   0.006  1.00 20.00     0.213 C 
ENDBRANCH   8  10
ENDBRANCH   4   8
TORSDOF 2
ENDMDL
MODEL 6
REMARK VINA RESULT:      -4.1      1.484      3.639
REMARK  2 active torsions:
REMARK  status: ('A' for Active; 'I' for Inactive)
REMARK    1  A    between atoms: C3_3  and  C5_5 
REMARK    2  A    between atoms: C3_3  and  O11_11 
ROOT
HETATM    1  C1  UNL     1     -36.492  16.743  -5.069  1.00 20.00     0.012 C 
HETATM    2  C2  UNL     1     -36.081  16.405  -3.992  1.00 20.00    -0.111 C 
HETATM    3  C4  UNL     1     -35.590  16.002  -2.706  1.00 20.00     0.087 A 
HETATM    4  C5  UNL     1     -34.232  15.351  -2.571  1.00 20.00     0.111 A 
HETATM    5  C6  UNL     1     -34.452  16.757  -2.040  1.00 20.00    -0.019 A 
HETATM    6  C7  UNL     1     -34.521  16.923  -0.541  1.00 20.00     0.017 C 
HETATM    7  C8  UNL     1     -33.808  17.930  -2.739  1.00 20.00     0.017 C 
ENDROOT
BRANCH   4   8
HETATM    8  C3  UNL     1     -33.380  15.107  -3.744  1.00 20.00     0.264 C 
HETATM    9  O10 UNL     1     -32.809  15.990  -4.371  1.00 20.00    -0.265 OA
BRANCH   8  10
HETATM   10  O11 UNL     1     -33.335  13.770  -4.006  1.00 20.00    -0.326 OA
HETATM   11  C9  UNL     1     -34.402  13.265  -4.815  1.00 20.00     0.213 C 
ENDBRANCH   8  10
ENDBRANCH   4   8
TORSDOF 2
ENDMDL
MODEL 7
REMARK VINA RESULT:      -4.1      1.291      3.310
REMARK  2 active torsions:
REMARK  status: ('A' for Active; 'I' for Inactive)
REMARK    1  A    between atoms: C3_3  and  C5_5 
REMARK    2  A    between atoms: C3_3  and  O11_11 
ROOT
HETATM    1  C1  UNL     1     -34.140  13.241  -4.409  1.00 20.00     0.012 C 
HETATM    2  C2  UNL     1     -33.748  14.256  -3.901  1.00 20.00    -0.111 C 
HETATM    3  C4  UNL     1     -33.280  15.469  -3.294  1.00 20.00     0.087 A 
HETATM    4  C5  UNL     1     -33.614  16.812  -3.905  1.00 20.00     0.111 A 
HETATM    5  C6  UNL     1     -34.246  16.404  -2.586  1.00 20.00    -0.019 A 
HETATM    6  C7  UNL     1     -33.746  17.094  -1.340  1.00 20.00     0.017 C 
HETATM    7  C8  UNL     1     -35.719  16.075  -2.532  1.00 20.00     0.017 C 
ENDROOT
BRANCH   4   8
HETATM    8  C3  UNL     1     -34.416  16.917  -5.132  1.00 20.00     0.264 C 
HETATM    9  O10 UNL     1     -35.533  17.416  -5.179  1.00 20.00    -0.265 OA
BRANCH   8  10
HETATM   10  O11 UNL     1     -33.725  16.380  -6.178  1.00 20.00    -0.326 OA
HETATM   11  C9  UNL     1     -34.524  15.768  -7.194  1.00 20.00     0.213 C 
ENDBRANCH   8  10
ENDBRANCH   4   8
TORSDOF 2
ENDMDL
MODEL 8
REMARK VINA RESULT:      -4.1      2.013      3.567
REMARK  2 active torsions:
REMARK  status: ('A' for Active; 'I' for Inactive)
REMARK    1  A    between atoms: C3_3  and  C5_5 
REMARK    2  A    between atoms: C3_3  and  O11_11 
ROOT
HETATM    1  C1  UNL     1     -34.707  16.708  -0.562  1.00 20.00     0.012 C 
HETATM    2  C2  UNL     1     -34.257  16.547  -1.663  1.00 20.00    -0.111 C 
HETATM    3  C4  UNL     1     -33.719  16.356  -2.979  1.00 20.00     0.087 A 
HETATM    4  C5  UNL     1     -34.449  15.501  -3.991  1.00 20.00     0.111 A 
HETATM    5  C6  UNL     1     -34.374  17.005  -4.186  1.00 20.00    -0.019 A 
HETATM    6  C7  UNL     1     -33.460  17.514  -5.274  1.00 20.00     0.017 C 
HETATM    7  C8  UNL     1     -35.617  17.846  -4.014  1.00 20.00     0.017 C 
ENDROOT
BRANCH   4   8
HETATM    8  C3  UNL     1     -35.720  14.841  -3.660  1.00 20.00     0.264 C 
HETATM    9  O10 UNL     1     -36.650  15.393  -3.086  1.00 20.00    -0.265 OA
BRANCH   8  10
HETATM   10  O11 UNL     1     -35.688  13.547  -4.091  1.00 20.00    -0.326 OA
HETATM   11  C9  UNL     1     -34.525  13.176  -4.837  1.00 20.00     0.213 C 
ENDBRANCH   8  10
ENDBRANCH   4   8
TORSDOF 2
ENDMDL
MODEL 9
REMARK VINA RESULT:      -4.0      1.557      2.127
REMARK  2 active torsions:
REMARK  status: ('A' for Active; 'I' for Inactive)
REMARK    1  A    between atoms: C3_3  and  C5_5 
REMARK    2  A    between atoms: C3_3  and  O11_11 
ROOT
HETATM    1  C1  UNL     1     -33.653  17.603  -0.943  1.00 20.00     0.012 C 
HETATM    2  C2  UNL     1     -34.217  16.710  -1.514  1.00 20.00    -0.111 C 
HETATM    3  C4  UNL     1     -34.892  15.643  -2.196  1.00 20.00     0.087 A 
HETATM    4  C5  UNL     1     -35.655  15.910  -3.474  1.00 20.00     0.111 A 
HETATM    5  C6  UNL     1     -34.363  15.113  -3.518  1.00 20.00    -0.019 A 
HETATM    6  C7  UNL     1     -34.478  13.627  -3.758  1.00 20.00     0.017 C 
HETATM    7  C8  UNL     1     -33.129  15.721  -4.141  1.00 20.00     0.017 C 
ENDROOT
BRANCH   4   8
HETATM    8  C3  UNL     1     -35.734  17.259  -4.051  1.00 20.00     0.264 C 
HETATM    9  O10 UNL     1     -35.898  18.278  -3.392  1.00 20.00    -0.265 OA
BRANCH   8  10
HETATM   10  O11 UNL     1     -35.597  17.186  -5.406  1.00 20.00    -0.326 OA
HETATM   11  C9  UNL     1     -36.611  16.441  -6.087  1.00 20.00     0.213 C 
ENDBRANCH   8  10
ENDBRANCH   4   8
TORSDOF 2
ENDMDL
