MODEL 1
REMARK VINA RESULT:      -4.8      0.000      0.000
REMARK  3 active torsions:
REMARK  status: ('A' for Active; 'I' for Inactive)
REMARK    1  A    between atoms: C1_1  and  C5_5 
REMARK    2  A    between atoms: C6_6  and  C8_8 
REMARK    3  A    between atoms: C8_8  and  C9_9 
ROOT
HETATM    1  C2  UNL     1     -33.232  14.805  -3.412  1.00 20.00     0.030 C 
HETATM    2  C3  UNL     1     -35.319  15.036  -3.080  1.00 20.00     0.030 C 
HETATM    3  C4  UNL     1     -34.331  16.249  -4.521  1.00 20.00     0.030 C 
HETATM    4  C5  UNL     1     -34.471  14.718  -4.336  1.00 20.00     0.050 C 
HETATM    5  C6  UNL     1     -34.106  16.047  -2.966  1.00 20.00    -0.037 C 
ENDROOT
BRANCH   4   6
HETATM    6  C1  UNL     1     -34.744  13.735  -5.351  1.00 20.00     0.181 C 
HETATM    7  O10 UNL     1     -34.709  12.534  -4.962  1.00 20.00    -0.647 OA
HETATM    8  O11 UNL     1     -34.981  14.209  -6.498  1.00 20.00    -0.647 OA
ENDBRANCH   4   6
BRANCH   5   9
HETATM    9  C8  UNL     1     -33.828  17.060  -1.926  1.00 20.00     0.009 C 
BRANCH   9  10
HETATM   10  C9  UNL     1     -34.609  16.809  -0.619  1.00 20.00    -0.004 C 
HETATM   11  C7  UNL     1     -34.329  17.855   0.449  1.00 20.00     0.005 C 
ENDBRANCH   9  10
ENDBRANCH   5   9
TORSDOF 3
ENDMDL
MODEL 2
REMARK VINA RESULT:      -4.4     11.104     11.974
REMARK  3 active torsions:
REMARK  status: ('A' for Active; 'I' for Inactive)
REMARK    1  A    between atoms: C1_1  and  C5_5 
REMARK    2  A    between atoms: C6_6  and  C8_8 
REMARK    3  A    between atoms: C8_8  and  C9_9 
ROOT
HETATM    1  C2  UNL     1     -32.985   6.837   4.866  1.00 20.00     0.030 C 
HETATM    2  C3  UNL     1     -34.419   6.679   3.305  1.00 20.00     0.030 C 
HETATM    3  C4  UNL     1     -32.855   5.247   3.460  1.00 20.00     0.030 C 
HETATM    4  C5  UNL     1     -33.965   5.719   4.431  1.00 20.00     0.050 C 
HETATM    5  C6  UNL     1     -32.843   6.822   3.289  1.00 20.00    -0.037 C 
ENDROOT
BRANCH   4   6
HETATM    6  C1  UNL     1     -34.796   4.902   5.274  1.00 20.00     0.181 C 
HETATM    7  O10 UNL     1     -35.216   3.835   4.746  1.00 20.00    -0.647 OA
HETATM    8  O11 UNL     1     -34.994   5.365   6.433  1.00 20.00    -0.647 OA
ENDBRANCH   4   6
BRANCH   5   9
HETATM    9  C8  UNL     1     -31.988   7.658   2.421  1.00 20.00     0.009 C 
BRANCH   9  10
HETATM   10  C9  UNL     1     -32.620   9.028   2.095  1.00 20.00    -0.004 C 
HETATM   11  C7  UNL     1     -32.286   9.516   0.693  1.00 20.00     0.005 C 
ENDBRANCH   9  10
ENDBRANCH   5   9
TORSDOF 3
ENDMDL
MODEL 3
REMARK VINA RESULT:      -4.3      1.818      3.094
REMARK  3 active torsions:
REMARK  status: ('A' for Active; 'I' for Inactive)
REMARK    1  A    between atoms: C1_1  and  C5_5 
REMARK    2  A    between atoms: C6_6  and  C8_8 
REMARK    3  A    between atoms: C8_8  and  C9_9 
ROOT
HETATM    1  C2  UNL     1     -35.201  15.720  -4.596  1.00 20.00     0.030 C 
HETATM    2  C3  UNL     1     -33.103  15.895  -4.297  1.00 20.00     0.030 C 
HETATM    3  C4  UNL     1     -34.402  15.693  -2.625  1.00 20.00     0.030 C 
HETATM    4  C5  UNL     1     -34.150  14.831  -3.886  1.00 20.00     0.050 C 
HETATM    5  C6  UNL     1     -34.326  16.764  -3.789  1.00 20.00    -0.037 C 
ENDROOT
BRANCH   4   6
HETATM    6  C1  UNL     1     -34.017  13.400  -3.956  1.00 20.00     0.181 C 
HETATM    7  O10 UNL     1     -32.868  12.951  -3.688  1.00 20.00    -0.647 OA
HETATM    8  O11 UNL     1     -35.073  12.785  -4.278  1.00 20.00    -0.647 OA
ENDBRANCH   4   6
BRANCH   5   9
HETATM    9  C8  UNL     1     -34.461  18.234  -3.713  1.00 20.00     0.009 C 
BRANCH   9  10
HETATM   10  C9  UNL     1     -33.515  18.975  -4.682  1.00 20.00    -0.004 C 
HETATM   11  C7  UNL     1     -34.023  18.982  -6.116  1.00 20.00     0.005 C 
ENDBRANCH   9  10
ENDBRANCH   5   9
TORSDOF 3
ENDMDL
MODEL 4
REMARK VINA RESULT:      -4.2      1.790      2.125
REMARK  3 active torsions:
REMARK  status: ('A' for Active; 'I' for Inactive)
REMARK    1  A    between atoms: C1_1  and  C5_5 
REMARK    2  A    between atoms: C6_6  and  C8_8 
REMARK    3  A    between atoms: C8_8  and  C9_9 
ROOT
HETATM    1  C2  UNL     1     -33.265  15.968  -4.246  1.00 20.00     0.030 C 
HETATM    2  C3  UNL     1     -34.476  15.641  -2.530  1.00 20.00     0.030 C 
HETATM    3  C4  UNL     1     -35.362  15.693  -4.462  1.00 20.00     0.030 C 
HETATM    4  C5  UNL     1     -34.237  14.836  -3.830  1.00 20.00     0.050 C 
HETATM    5  C6  UNL     1     -34.507  16.753  -3.655  1.00 20.00    -0.037 C 
ENDROOT
BRANCH   4   6
HETATM    6  C1  UNL     1     -34.040  13.417  -3.959  1.00 20.00     0.181 C 
HETATM    7  O10 UNL     1     -32.870  13.010  -3.713  1.00 20.00    -0.647 OA
HETATM    8  O11 UNL     1     -35.069  12.768  -4.302  1.00 20.00    -0.647 OA
ENDBRANCH   4   6
BRANCH   5   9
HETATM    9  C8  UNL     1     -34.713  18.211  -3.524  1.00 20.00     0.009 C 
BRANCH   9  10
HETATM   10  C9  UNL     1     -35.590  18.587  -2.312  1.00 20.00    -0.004 C 
HETATM   11  C7  UNL     1     -37.079  18.447  -2.591  1.00 20.00     0.005 C 
ENDBRANCH   9  10
ENDBRANCH   5   9
TORSDOF 3
ENDMDL
MODEL 5
REMARK VINA RESULT:      -4.1      1.378      1.874
REMARK  3 active torsions:
REMARK  status: ('A' for Active; 'I' for Inactive)
REMARK    1  A    between atoms: C1_1  and  C5_5 
REMARK    2  A    between atoms: C6_6  and  C8_8 
REMARK    3  A    between atoms: C8_8  and  C9_9 
ROOT
HETATM    1  C2  UNL     1     -35.513  16.222  -4.189  1.00 20.00     0.030 C 
HETATM    2  C3  UNL     1     -33.535  16.490  -4.923  1.00 20.00     0.030 C 
HETATM    3  C4  UNL     1     -34.099  14.641  -4.037  1.00 20.00     0.030 C 
HETATM    4  C5  UNL     1     -34.652  15.462  -5.228  1.00 20.00     0.050 C 
HETATM    5  C6  UNL     1     -34.096  16.127  -3.488  1.00 20.00    -0.037 C 
ENDROOT
BRANCH   4   6
HETATM    6  C1  UNL     1     -35.061  14.968  -6.516  1.00 20.00     0.181 C 
HETATM    7  O10 UNL     1     -34.140  14.875  -7.375  1.00 20.00    -0.647 OA
HETATM    8  O11 UNL     1     -36.290  14.695  -6.614  1.00 20.00    -0.647 OA
ENDBRANCH   4   6
BRANCH   5   9
HETATM    9  C8  UNL     1     -33.674  16.630  -2.163  1.00 20.00     0.009 C 
BRANCH   9  10
HETATM   10  C9  UNL     1     -34.764  16.465  -1.083  1.00 20.00    -0.004 C 
HETATM   11  C7  UNL     1     -34.589  17.423   0.086  1.00 20.00     0.005 C 
ENDBRANCH   9  10
ENDBRANCH   5   9
TORSDOF 3
ENDMDL
MODEL 6
REMARK VINA RESULT:      -4.1      2.801      4.932
REMARK  3 active torsions:
REMARK  status: ('A' for Active; 'I' for Inactive)
REMARK    1  A    between atoms: C1_1  and  C5_5 
REMARK    2  A    between atoms: C6_6  and  C8_8 
REMARK    3  A    between atoms: C8_8  and  C9_9 
ROOT
HETATM    1  C2  UNL     1     -34.577  16.605  -4.363  1.00 20.00     0.030 C 
HETATM    2  C3  UNL     1     -35.229  14.979  -3.157  1.00 20.00     0.030 C 
HETATM    3  C4  UNL     1     -33.160  15.224  -3.583  1.00 20.00     0.030 C 
HETATM    4  C5  UNL     1     -34.227  16.137  -2.929  1.00 20.00     0.050 C 
HETATM    5  C6  UNL     1     -34.424  15.036  -4.519  1.00 20.00    -0.037 C 
ENDROOT
BRANCH   4   6
HETATM    6  C1  UNL     1     -34.080  16.949  -1.750  1.00 20.00     0.181 C 
HETATM    7  O10 UNL     1     -33.420  18.014  -1.908  1.00 20.00    -0.647 OA
HETATM    8  O11 UNL     1     -34.632  16.484  -0.714  1.00 20.00    -0.647 OA
ENDBRANCH   4   6
BRANCH   5   9
HETATM    9  C8  UNL     1     -34.572  14.200  -5.729  1.00 20.00     0.009 C 
BRANCH   9  10
HETATM   10  C9  UNL     1     -34.351  14.989  -7.036  1.00 20.00    -0.004 C 
HETATM   11  C7  UNL     1     -35.593  15.045  -7.912  1.00 20.00     0.005 C 
ENDBRANCH   9  10
ENDBRANCH   5   9
TORSDOF 3
ENDMDL
MODEL 7
REMARK VINA RESULT:      -4.1     12.306     14.155
REMARK  3 active torsions:
REMARK  status: ('A' for Active; 'I' for Inactive)
REMARK    1  A    between atoms: C1_1  and  C5_5 
REMARK    2  A    between atoms: C6_6  and  C8_8 
REMARK    3  A    between atoms: C8_8  and  C9_9 
ROOT
HETATM    1  C2  UNL     1     -40.738   4.123  -1.586  1.00 20.00     0.030 C 
HETATM    2  C3  UNL     1     -42.258   5.197  -2.613  1.00 20.00     0.030 C 
HETATM    3  C4  UNL     1     -42.670   4.321  -0.721  1.00 20.00     0.030 C 
HETATM    4  C5  UNL     1     -41.616   5.343  -1.212  1.00 20.00     0.050 C 
HETATM    5  C6  UNL     1     -42.178   3.704  -2.094  1.00 20.00    -0.037 C 
ENDROOT
BRANCH   4   6
HETATM    6  C1  UNL     1     -41.203   6.557  -0.560  1.00 20.00     0.181 C 
HETATM    7  O10 UNL     1     -41.733   7.614  -1.002  1.00 20.00    -0.647 OA
HETATM    8  O11 UNL     1     -40.362   6.399   0.370  1.00 20.00    -0.647 OA
ENDBRANCH   4   6
BRANCH   5   9
HETATM    9  C8  UNL     1     -42.607   2.457  -2.762  1.00 20.00     0.009 C 
BRANCH   9  10
HETATM   10  C9  UNL     1     -41.547   1.904  -3.738  1.00 20.00    -0.004 C 
HETATM   11  C7  UNL     1     -41.693   0.411  -3.988  1.00 20.00     0.005 C 
ENDBRANCH   9  10
ENDBRANCH   5   9
TORSDOF 3
ENDMDL
MODEL 8
REMARK VINA RESULT:      -4.1     11.437     12.191
REMARK  3 active torsions:
REMARK  status: ('A' for Active; 'I' for Inactive)
REMARK    1  A    between atoms: C1_1  and  C5_5 
REMARK    2  A    between atoms: C6_6  and  C8_8 
REMARK    3  A    between atoms: C8_8  and  C9_9 
ROOT
HETATM    1  C2  UNL     1     -34.363   7.124   3.066  1.00 20.00     0.030 C 
HETATM    2  C3  UNL     1     -33.224   6.472   4.739  1.00 20.00     0.030 C 
HETATM    3  C4  UNL     1     -33.070   5.446   2.883  1.00 20.00     0.030 C 
HETATM    4  C5  UNL     1     -32.847   6.919   3.305  1.00 20.00     0.050 C 
HETATM    5  C6  UNL     1     -34.300   5.742   3.836  1.00 20.00    -0.037 C 
ENDROOT
BRANCH   4   6
HETATM    6  C1  UNL     1     -31.769   7.788   2.913  1.00 20.00     0.181 C 
HETATM    7  O10 UNL     1     -30.890   7.989   3.797  1.00 20.00    -0.647 OA
HETATM    8  O11 UNL     1     -31.850   8.234   1.734  1.00 20.00    -0.647 OA
ENDBRANCH   4   6
BRANCH   5   9
HETATM    9  C8  UNL     1     -35.405   4.846   4.237  1.00 20.00     0.009 C 
BRANCH   9  10
HETATM   10  C9  UNL     1     -35.025   3.908   5.402  1.00 20.00    -0.004 C 
HETATM   11  C7  UNL     1     -35.072   4.597   6.757  1.00 20.00     0.005 C 
ENDBRANCH   9  10
ENDBRANCH   5   9
TORSDOF 3
ENDMDL
MODEL 9
REMARK VINA RESULT:      -4.0      2.013      2.925
REMARK  3 active torsions:
REMARK  status: ('A' for Active; 'I' for Inactive)
REMARK    1  A    between atoms: C1_1  and  C5_5 
REMARK    2  A    between atoms: C6_6  and  C8_8 
REMARK    3  A    between atoms: C8_8  and  C9_9 
ROOT
HETATM    1  C2  UNL     1     -34.712  16.030  -4.545  1.00 20.00     0.030 C 
HETATM    2  C3  UNL     1     -34.342  15.724  -2.474  1.00 20.00     0.030 C 
HETATM    3  C4  UNL     1     -36.224  15.192  -3.308  1.00 20.00     0.030 C 
HETATM    4  C5  UNL     1     -34.765  14.783  -3.628  1.00 20.00     0.050 C 
HETATM    5  C6  UNL     1     -35.439  16.566  -3.245  1.00 20.00    -0.037 C 
ENDROOT
BRANCH   4   6
HETATM    6  C1  UNL     1     -34.268  13.463  -3.910  1.00 20.00     0.181 C 
HETATM    7  O10 UNL     1     -35.116  12.657  -4.384  1.00 20.00    -0.647 OA
HETATM    8  O11 UNL     1     -33.045  13.288  -3.642  1.00 20.00    -0.647 OA
ENDBRANCH   4   6
BRANCH   5   9
HETATM    9  C8  UNL     1     -35.953  17.921  -2.954  1.00 20.00     0.009 C 
BRANCH   9  10
HETATM   10  C9  UNL     1     -37.073  18.359  -3.921  1.00 20.00    -0.004 C 
HETATM   11  C7  UNL     1     -36.571  19.257  -5.041  1.00 20.00     0.005 C 
ENDBRANCH   9  10
ENDBRANCH   5   9
TORSDOF 3
ENDMDL
