MODEL 1
REMARK VINA RESULT:      -4.7      0.000      0.000
REMARK  1 active torsions:
REMARK  status: ('A' for Active; 'I' for Inactive)
REMARK    1  A    between atoms: C2_2  and  C3_3 
ROOT
HETATM    1  C1  UNL     1     -33.120   7.124   5.357  1.00 20.00    -0.015 C 
HETATM    2  C2  UNL     1     -33.216   6.339   4.281  1.00 20.00    -0.012 C 
HETATM    3  C4  UNL     1     -33.941   6.587   6.484  1.00 20.00     0.032 C 
HETATM    4  C5  UNL     1     -34.114   5.157   4.492  1.00 20.00     0.022 C 
HETATM    5  C6  UNL     1     -34.197   5.136   6.039  1.00 20.00    -0.007 C 
HETATM    6  C8  UNL     1     -35.446   5.335   3.769  1.00 20.00     0.015 C 
HETATM    7  C9  UNL     1     -35.465   4.551   6.641  1.00 20.00     0.011 C 
ENDROOT
BRANCH   2   8
HETATM    8  C3  UNL     1     -32.508   6.613   3.042  1.00 20.00     0.151 C 
HETATM    9  C7  UNL     1     -32.257   8.055   2.658  1.00 20.00     0.096 C 
HETATM   10  O10 UNL     1     -32.123   5.691   2.308  1.00 20.00    -0.293 OA
ENDBRANCH   2   8
TORSDOF 1
ENDMDL
MODEL 2
REMARK VINA RESULT:      -4.6     11.957     12.464
REMARK  1 active torsions:
REMARK  status: ('A' for Active; 'I' for Inactive)
REMARK    1  A    between atoms: C2_2  and  C3_3 
ROOT
HETATM    1  C1  UNL     1     -33.395  15.406  -3.667  1.00 20.00    -0.015 C 
HETATM    2  C2  UNL     1     -34.608  14.858  -3.780  1.00 20.00    -0.012 C 
HETATM    3  C4  UNL     1     -33.373  16.435  -2.585  1.00 20.00     0.032 C 
HETATM    4  C5  UNL     1     -35.601  15.423  -2.810  1.00 20.00     0.022 C 
HETATM    5  C6  UNL     1     -34.651  16.104  -1.794  1.00 20.00    -0.007 C 
HETATM    6  C8  UNL     1     -36.590  16.355  -3.506  1.00 20.00     0.015 C 
HETATM    7  C9  UNL     1     -35.208  17.306  -1.046  1.00 20.00     0.011 C 
ENDROOT
BRANCH   2   8
HETATM    8  C3  UNL     1     -34.913  13.816  -4.745  1.00 20.00     0.151 C 
HETATM    9  C7  UNL     1     -35.062  14.202  -6.201  1.00 20.00     0.096 C 
HETATM   10  O10 UNL     1     -35.058  12.637  -4.390  1.00 20.00    -0.293 OA
ENDBRANCH   2   8
TORSDOF 1
ENDMDL
MODEL 3
REMARK VINA RESULT:      -4.4     11.557     14.270
REMARK  1 active torsions:
REMARK  status: ('A' for Active; 'I' for Inactive)
REMARK    1  A    between atoms: C2_2  and  C3_3 
ROOT
HETATM    1  C1  UNL     1     -35.141  14.150  -6.862  1.00 20.00    -0.015 C 
HETATM    2  C2  UNL     1     -34.610  14.519  -5.693  1.00 20.00    -0.012 C 
HETATM    3  C4  UNL     1     -35.257  15.317  -7.787  1.00 20.00     0.032 C 
HETATM    4  C5  UNL     1     -34.287  15.981  -5.629  1.00 20.00     0.022 C 
HETATM    5  C6  UNL     1     -34.317  16.346  -7.134  1.00 20.00    -0.007 C 
HETATM    6  C8  UNL     1     -35.287  16.734  -4.755  1.00 20.00     0.015 C 
HETATM    7  C9  UNL     1     -34.686  17.781  -7.476  1.00 20.00     0.011 C 
ENDROOT
BRANCH   2   8
HETATM    8  C3  UNL     1     -34.369  13.583  -4.608  1.00 20.00     0.151 C 
HETATM    9  C7  UNL     1     -33.197  13.836  -3.684  1.00 20.00     0.096 C 
HETATM   10  O10 UNL     1     -35.098  12.594  -4.442  1.00 20.00    -0.293 OA
ENDBRANCH   2   8
TORSDOF 1
ENDMDL
MODEL 4
REMARK VINA RESULT:      -4.4     11.891     12.634
REMARK  1 active torsions:
REMARK  status: ('A' for Active; 'I' for Inactive)
REMARK    1  A    between atoms: C2_2  and  C3_3 
ROOT
HETATM    1  C1  UNL     1     -35.988  15.847  -2.792  1.00 20.00    -0.015 C 
HETATM    2  C2  UNL     1     -34.701  16.071  -2.510  1.00 20.00    -0.012 C 
HETATM    3  C4  UNL     1     -36.135  14.705  -3.744  1.00 20.00     0.032 C 
HETATM    4  C5  UNL     1     -33.772  15.134  -3.221  1.00 20.00     0.022 C 
HETATM    5  C6  UNL     1     -34.760  14.020  -3.646  1.00 20.00    -0.007 C 
HETATM    6  C8  UNL     1     -33.046  15.834  -4.368  1.00 20.00     0.015 C 
HETATM    7  C9  UNL     1     -34.402  13.238  -4.900  1.00 20.00     0.011 C 
ENDROOT
BRANCH   2   8
HETATM    8  C3  UNL     1     -34.265  17.115  -1.599  1.00 20.00     0.151 C 
HETATM    9  C7  UNL     1     -34.720  17.050  -0.157  1.00 20.00     0.096 C 
HETATM   10  O10 UNL     1     -33.544  18.044  -1.989  1.00 20.00    -0.293 OA
ENDBRANCH   2   8
TORSDOF 1
ENDMDL
MODEL 5
REMARK VINA RESULT:      -4.2      9.794     11.336
REMARK  1 active torsions:
REMARK  status: ('A' for Active; 'I' for Inactive)
REMARK    1  A    between atoms: C2_2  and  C3_3 
ROOT
HETATM    1  C1  UNL     1     -43.075   5.072  -3.069  1.00 20.00    -0.015 C 
HETATM    2  C2  UNL     1     -42.325   4.181  -2.415  1.00 20.00    -0.012 C 
HETATM    3  C4  UNL     1     -42.773   6.462  -2.613  1.00 20.00     0.032 C 
HETATM    4  C5  UNL     1     -41.405   4.810  -1.412  1.00 20.00     0.022 C 
HETATM    5  C6  UNL     1     -41.425   6.283  -1.892  1.00 20.00    -0.007 C 
HETATM    6  C8  UNL     1     -41.898   4.582   0.015  1.00 20.00     0.015 C 
HETATM    7  C9  UNL     1     -41.180   7.345  -0.831  1.00 20.00     0.011 C 
ENDROOT
BRANCH   2   8
HETATM    8  C3  UNL     1     -42.399   2.752  -2.668  1.00 20.00     0.151 C 
HETATM    9  C7  UNL     1     -41.382   2.131  -3.600  1.00 20.00     0.096 C 
HETATM   10  O10 UNL     1     -43.278   2.055  -2.141  1.00 20.00    -0.293 OA
ENDBRANCH   2   8
TORSDOF 1
ENDMDL
MODEL 6
REMARK VINA RESULT:      -4.2     11.951     13.355
REMARK  1 active torsions:
REMARK  status: ('A' for Active; 'I' for Inactive)
REMARK    1  A    between atoms: C2_2  and  C3_3 
ROOT
HETATM    1  C1  UNL     1     -34.343  14.465  -3.296  1.00 20.00    -0.015 C 
HETATM    2  C2  UNL     1     -34.388  15.775  -3.552  1.00 20.00    -0.012 C 
HETATM    3  C4  UNL     1     -34.614  13.669  -4.531  1.00 20.00     0.032 C 
HETATM    4  C5  UNL     1     -34.700  16.083  -4.986  1.00 20.00     0.022 C 
HETATM    5  C6  UNL     1     -34.403  14.712  -5.643  1.00 20.00    -0.007 C 
HETATM    6  C8  UNL     1     -36.132  16.588  -5.148  1.00 20.00     0.015 C 
HETATM    7  C9  UNL     1     -35.179  14.386  -6.910  1.00 20.00     0.011 C 
ENDROOT
BRANCH   2   8
HETATM    8  C3  UNL     1     -34.148  16.785  -2.536  1.00 20.00     0.151 C 
HETATM    9  C7  UNL     1     -34.589  16.498  -1.117  1.00 20.00     0.096 C 
HETATM   10  O10 UNL     1     -33.603  17.861  -2.820  1.00 20.00    -0.293 OA
ENDBRANCH   2   8
TORSDOF 1
ENDMDL
MODEL 7
REMARK VINA RESULT:      -4.2     11.721     12.822
REMARK  1 active torsions:
REMARK  status: ('A' for Active; 'I' for Inactive)
REMARK    1  A    between atoms: C2_2  and  C3_3 
ROOT
HETATM    1  C1  UNL     1     -35.916  15.823  -2.701  1.00 20.00    -0.015 C 
HETATM    2  C2  UNL     1     -36.162  15.144  -3.825  1.00 20.00    -0.012 C 
HETATM    3  C4  UNL     1     -34.450  15.882  -2.423  1.00 20.00     0.032 C 
HETATM    4  C5  UNL     1     -34.918  14.629  -4.485  1.00 20.00     0.022 C 
HETATM    5  C6  UNL     1     -33.844  15.498  -3.785  1.00 20.00    -0.007 C 
HETATM    6  C8  UNL     1     -34.769  13.122  -4.291  1.00 20.00     0.015 C 
HETATM    7  C9  UNL     1     -32.456  14.888  -3.660  1.00 20.00     0.011 C 
ENDROOT
BRANCH   2   8
HETATM    8  C3  UNL     1     -37.503  14.943  -4.345  1.00 20.00     0.151 C 
HETATM    9  C7  UNL     1     -37.895  15.648  -5.625  1.00 20.00     0.096 C 
HETATM   10  O10 UNL     1     -38.316  14.216  -3.753  1.00 20.00    -0.293 OA
ENDBRANCH   2   8
TORSDOF 1
ENDMDL
MODEL 8
REMARK VINA RESULT:      -4.1     11.726     13.244
REMARK  1 active torsions:
REMARK  status: ('A' for Active; 'I' for Inactive)
REMARK    1  A    between atoms: C2_2  and  C3_3 
ROOT
HETATM    1  C1  UNL     1     -34.508  15.950  -5.235  1.00 20.00    -0.015 C 
HETATM    2  C2  UNL     1     -34.036  15.284  -4.178  1.00 20.00    -0.012 C 
HETATM    3  C4  UNL     1     -34.529  17.420  -4.974  1.00 20.00     0.032 C 
HETATM    4  C5  UNL     1     -33.669  16.181  -3.034  1.00 20.00     0.022 C 
HETATM    5  C6  UNL     1     -33.596  17.549  -3.757  1.00 20.00    -0.007 C 
HETATM    6  C8  UNL     1     -34.694  16.092  -1.906  1.00 20.00     0.015 C 
HETATM    7  C9  UNL     1     -33.897  18.778  -2.913  1.00 20.00     0.011 C 
ENDROOT
BRANCH   2   8
HETATM    8  C3  UNL     1     -33.891  13.839  -4.158  1.00 20.00     0.151 C 
HETATM    9  C7  UNL     1     -34.917  13.001  -4.890  1.00 20.00     0.096 C 
HETATM   10  O10 UNL     1     -32.955  13.298  -3.551  1.00 20.00    -0.293 OA
ENDBRANCH   2   8
TORSDOF 1
ENDMDL
MODEL 9
REMARK VINA RESULT:      -4.1      9.472     11.071
REMARK  1 active torsions:
REMARK  status: ('A' for Active; 'I' for Inactive)
REMARK    1  A    between atoms: C2_2  and  C3_3 
ROOT
HETATM    1  C1  UNL     1     -40.851   4.535  -1.174  1.00 20.00    -0.015 C 
HETATM    2  C2  UNL     1     -42.007   4.316  -1.807  1.00 20.00    -0.012 C 
HETATM    3  C4  UNL     1     -40.772   5.941  -0.678  1.00 20.00     0.032 C 
HETATM    4  C5  UNL     1     -42.891   5.526  -1.852  1.00 20.00     0.022 C 
HETATM    5  C6  UNL     1     -42.241   6.394  -0.746  1.00 20.00    -0.007 C 
HETATM    6  C8  UNL     1     -42.909   6.150  -3.245  1.00 20.00     0.015 C 
HETATM    7  C9  UNL     1     -42.386   7.901  -0.895  1.00 20.00     0.011 C 
ENDROOT
BRANCH   2   8
HETATM    8  C3  UNL     1     -42.359   3.028  -2.380  1.00 20.00     0.151 C 
HETATM    9  C7  UNL     1     -41.410   2.399  -3.377  1.00 20.00     0.096 C 
HETATM   10  O10 UNL     1     -43.414   2.457  -2.069  1.00 20.00    -0.293 OA
ENDBRANCH   2   8
TORSDOF 1
ENDMDL
