MODEL 1
REMARK VINA RESULT:      -5.1      0.000      0.000
REMARK  3 active torsions:
REMARK  status: ('A' for Active; 'I' for Inactive)
REMARK    1  A    between atoms: C1_1  and  C2_2 
REMARK    2  A    between atoms: C4_4  and  C9_9 
REMARK    3  A    between atoms: C5_5  and  C9_9 
ROOT
HETATM    1  C2  UNL     1     -32.212   7.299   3.055  1.00 20.00    -0.004 C 
HETATM    2  C4  UNL     1     -33.157   6.373   3.278  1.00 20.00    -0.015 C 
ENDROOT
BRANCH   2   3
HETATM    3  C9  UNL     1     -33.520   5.871   4.650  1.00 20.00     0.073 C 
HETATM    4  C8  UNL     1     -33.614   7.015   5.654  1.00 20.00     0.022 C 
BRANCH   3   5
HETATM    5  C5  UNL     1     -34.858   5.135   4.579  1.00 20.00     0.130 C 
HETATM    6  C7  UNL     1     -35.080   4.044   5.595  1.00 20.00     0.091 C 
HETATM    7  O10 UNL     1     -35.707   5.379   3.722  1.00 20.00    -0.298 OA
ENDBRANCH   3   5
ENDBRANCH   2   3
BRANCH   1   8
HETATM    8  C1  UNL     1     -31.869   7.775   1.734  1.00 20.00    -0.005 C 
HETATM    9  C3  UNL     1     -32.137   9.019   1.311  1.00 20.00    -0.031 C 
HETATM   10  C6  UNL     1     -32.814  10.052   2.151  1.00 20.00     0.036 C 
ENDBRANCH   1   8
TORSDOF 3
ENDMDL
MODEL 2
REMARK VINA RESULT:      -5.1      1.495      1.822
REMARK  3 active torsions:
REMARK  status: ('A' for Active; 'I' for Inactive)
REMARK    1  A    between atoms: C1_1  and  C2_2 
REMARK    2  A    between atoms: C4_4  and  C9_9 
REMARK    3  A    between atoms: C5_5  and  C9_9 
ROOT
HETATM    1  C2  UNL     1     -33.012   7.407   2.889  1.00 20.00    -0.004 C 
HETATM    2  C4  UNL     1     -33.238   6.359   3.695  1.00 20.00    -0.015 C 
ENDROOT
BRANCH   2   3
HETATM    3  C9  UNL     1     -34.516   6.165   4.467  1.00 20.00     0.073 C 
HETATM    4  C8  UNL     1     -35.296   4.959   3.957  1.00 20.00     0.022 C 
BRANCH   3   5
HETATM    5  C5  UNL     1     -34.186   5.977   5.947  1.00 20.00     0.130 C 
HETATM    6  C7  UNL     1     -34.587   4.661   6.564  1.00 20.00     0.091 C 
HETATM    7  O10 UNL     1     -33.656   6.856   6.628  1.00 20.00    -0.298 OA
ENDBRANCH   3   5
ENDBRANCH   2   3
BRANCH   1   8
HETATM    8  C1  UNL     1     -31.782   7.586   2.151  1.00 20.00    -0.005 C 
HETATM    9  C3  UNL     1     -31.549   8.642   1.359  1.00 20.00    -0.031 C 
HETATM   10  C6  UNL     1     -32.527   9.752   1.150  1.00 20.00     0.036 C 
ENDBRANCH   1   8
TORSDOF 3
ENDMDL
MODEL 3
REMARK VINA RESULT:      -4.8     10.323     11.252
REMARK  3 active torsions:
REMARK  status: ('A' for Active; 'I' for Inactive)
REMARK    1  A    between atoms: C1_1  and  C2_2 
REMARK    2  A    between atoms: C4_4  and  C9_9 
REMARK    3  A    between atoms: C5_5  and  C9_9 
ROOT
HETATM    1  C2  UNL     1     -34.668  16.300  -1.564  1.00 20.00    -0.004 C 
HETATM    2  C4  UNL     1     -34.566  15.866  -2.830  1.00 20.00    -0.015 C 
ENDROOT
BRANCH   2   3
HETATM    3  C9  UNL     1     -35.451  14.799  -3.417  1.00 20.00     0.073 C 
HETATM    4  C8  UNL     1     -36.271  15.337  -4.584  1.00 20.00     0.022 C 
BRANCH   3   5
HETATM    5  C5  UNL     1     -34.586  13.631  -3.889  1.00 20.00     0.130 C 
HETATM    6  C7  UNL     1     -33.099  13.771  -3.687  1.00 20.00     0.091 C 
HETATM    7  O10 UNL     1     -35.055  12.636  -4.442  1.00 20.00    -0.298 OA
ENDBRANCH   3   5
ENDBRANCH   2   3
BRANCH   1   8
HETATM    8  C1  UNL     1     -33.814  17.325  -1.008  1.00 20.00    -0.005 C 
HETATM    9  C3  UNL     1     -34.050  17.915   0.172  1.00 20.00    -0.031 C 
HETATM   10  C6  UNL     1     -35.215  17.583   1.046  1.00 20.00     0.036 C 
ENDBRANCH   1   8
TORSDOF 3
ENDMDL
MODEL 4
REMARK VINA RESULT:      -4.8      1.301      1.886
REMARK  3 active torsions:
REMARK  status: ('A' for Active; 'I' for Inactive)
REMARK    1  A    between atoms: C1_1  and  C2_2 
REMARK    2  A    between atoms: C4_4  and  C9_9 
REMARK    3  A    between atoms: C5_5  and  C9_9 
ROOT
HETATM    1  C2  UNL     1     -32.665   6.685   3.181  1.00 20.00    -0.004 C 
HETATM    2  C4  UNL     1     -33.776   6.680   3.934  1.00 20.00    -0.015 C 
ENDROOT
BRANCH   2   3
HETATM    3  C9  UNL     1     -34.863   5.646   3.805  1.00 20.00     0.073 C 
HETATM    4  C8  UNL     1     -34.652   4.769   2.576  1.00 20.00     0.022 C 
BRANCH   3   5
HETATM    5  C5  UNL     1     -34.882   4.778   5.062  1.00 20.00     0.130 C 
HETATM    6  C7  UNL     1     -34.536   5.464   6.359  1.00 20.00     0.091 C 
HETATM    7  O10 UNL     1     -35.128   3.572   5.034  1.00 20.00    -0.298 OA
ENDBRANCH   3   5
ENDBRANCH   2   3
BRANCH   1   8
HETATM    8  C1  UNL     1     -31.626   7.681   3.311  1.00 20.00    -0.005 C 
HETATM    9  C3  UNL     1     -31.415   8.644   2.402  1.00 20.00    -0.031 C 
HETATM   10  C6  UNL     1     -32.225   8.799   1.156  1.00 20.00     0.036 C 
ENDBRANCH   1   8
TORSDOF 3
ENDMDL
MODEL 5
REMARK VINA RESULT:      -4.7     10.711     11.292
REMARK  3 active torsions:
REMARK  status: ('A' for Active; 'I' for Inactive)
REMARK    1  A    between atoms: C1_1  and  C2_2 
REMARK    2  A    between atoms: C4_4  and  C9_9 
REMARK    3  A    between atoms: C5_5  and  C9_9 
ROOT
HETATM    1  C2  UNL     1     -34.091  16.621  -1.589  1.00 20.00    -0.004 C 
HETATM    2  C4  UNL     1     -34.828  15.766  -2.313  1.00 20.00    -0.015 C 
ENDROOT
BRANCH   2   3
HETATM    3  C9  UNL     1     -34.369  15.172  -3.619  1.00 20.00     0.073 C 
HETATM    4  C8  UNL     1     -32.938  14.654  -3.521  1.00 20.00     0.022 C 
BRANCH   3   5
HETATM    5  C5  UNL     1     -35.305  14.029  -4.008  1.00 20.00     0.130 C 
HETATM    6  C7  UNL     1     -36.774  14.359  -4.087  1.00 20.00     0.091 C 
HETATM    7  O10 UNL     1     -34.907  12.882  -4.214  1.00 20.00    -0.298 OA
ENDBRANCH   3   5
ENDBRANCH   2   3
BRANCH   1   8
HETATM    8  C1  UNL     1     -34.539  17.186  -0.337  1.00 20.00    -0.005 C 
HETATM    9  C3  UNL     1     -33.848  18.118   0.336  1.00 20.00    -0.031 C 
HETATM   10  C6  UNL     1     -32.543  18.677  -0.128  1.00 20.00     0.036 C 
ENDBRANCH   1   8
TORSDOF 3
ENDMDL
MODEL 6
REMARK VINA RESULT:      -4.7      2.039      5.037
REMARK  3 active torsions:
REMARK  status: ('A' for Active; 'I' for Inactive)
REMARK    1  A    between atoms: C1_1  and  C2_2 
REMARK    2  A    between atoms: C4_4  and  C9_9 
REMARK    3  A    between atoms: C5_5  and  C9_9 
ROOT
HETATM    1  C2  UNL     1     -34.010   6.403   3.896  1.00 20.00    -0.004 C 
HETATM    2  C4  UNL     1     -33.032   6.732   3.039  1.00 20.00    -0.015 C 
ENDROOT
BRANCH   2   3
HETATM    3  C9  UNL     1     -32.197   7.979   3.170  1.00 20.00     0.073 C 
HETATM    4  C8  UNL     1     -30.823   7.669   3.752  1.00 20.00     0.022 C 
BRANCH   3   5
HETATM    5  C5  UNL     1     -32.040   8.626   1.794  1.00 20.00     0.130 C 
HETATM    6  C7  UNL     1     -32.657   9.990   1.618  1.00 20.00     0.091 C 
HETATM    7  O10 UNL     1     -31.478   8.064   0.854  1.00 20.00    -0.298 OA
ENDBRANCH   3   5
ENDBRANCH   2   3
BRANCH   1   8
HETATM    8  C1  UNL     1     -34.807   5.205   3.764  1.00 20.00    -0.005 C 
HETATM    9  C3  UNL     1     -35.180   4.454   4.810  1.00 20.00    -0.031 C 
HETATM   10  C6  UNL     1     -34.820   4.767   6.225  1.00 20.00     0.036 C 
ENDBRANCH   1   8
TORSDOF 3
ENDMDL
MODEL 7
REMARK VINA RESULT:      -4.4     11.025     12.110
REMARK  3 active torsions:
REMARK  status: ('A' for Active; 'I' for Inactive)
REMARK    1  A    between atoms: C1_1  and  C2_2 
REMARK    2  A    between atoms: C4_4  and  C9_9 
REMARK    3  A    between atoms: C5_5  and  C9_9 
ROOT
HETATM    1  C2  UNL     1     -34.030  16.290  -1.813  1.00 20.00    -0.004 C 
HETATM    2  C4  UNL     1     -34.585  15.477  -2.725  1.00 20.00    -0.015 C 
ENDROOT
BRANCH   2   3
HETATM    3  C9  UNL     1     -33.801  14.784  -3.807  1.00 20.00     0.073 C 
HETATM    4  C8  UNL     1     -34.473  13.484  -4.234  1.00 20.00     0.022 C 
BRANCH   3   5
HETATM    5  C5  UNL     1     -33.671  15.717  -5.010  1.00 20.00     0.130 C 
HETATM    6  C7  UNL     1     -34.476  15.355  -6.232  1.00 20.00     0.091 C 
HETATM    7  O10 UNL     1     -32.925  16.696  -5.016  1.00 20.00    -0.298 OA
ENDBRANCH   3   5
ENDBRANCH   2   3
BRANCH   1   8
HETATM    8  C1  UNL     1     -34.790  16.951  -0.777  1.00 20.00    -0.005 C 
HETATM    9  C3  UNL     1     -34.289  17.932  -0.013  1.00 20.00    -0.031 C 
HETATM   10  C6  UNL     1     -32.895  18.454  -0.143  1.00 20.00     0.036 C 
ENDBRANCH   1   8
TORSDOF 3
ENDMDL
MODEL 8
REMARK VINA RESULT:      -4.1     10.460     11.843
REMARK  3 active torsions:
REMARK  status: ('A' for Active; 'I' for Inactive)
REMARK    1  A    between atoms: C1_1  and  C2_2 
REMARK    2  A    between atoms: C4_4  and  C9_9 
REMARK    3  A    between atoms: C5_5  and  C9_9 
ROOT
HETATM    1  C2  UNL     1     -34.661  15.078  -3.240  1.00 20.00    -0.004 C 
HETATM    2  C4  UNL     1     -33.683  15.903  -2.837  1.00 20.00    -0.015 C 
ENDROOT
BRANCH   2   3
HETATM    3  C9  UNL     1     -33.919  17.331  -2.421  1.00 20.00     0.073 C 
HETATM    4  C8  UNL     1     -35.220  17.871  -3.002  1.00 20.00     0.022 C 
BRANCH   3   5
HETATM    5  C5  UNL     1     -33.963  17.410  -0.896  1.00 20.00     0.130 C 
HETATM    6  C7  UNL     1     -32.968  18.334  -0.241  1.00 20.00     0.091 C 
HETATM    7  O10 UNL     1     -34.736  16.734  -0.216  1.00 20.00    -0.298 OA
ENDBRANCH   3   5
ENDBRANCH   2   3
BRANCH   1   8
HETATM    8  C1  UNL     1     -34.427  13.708  -3.637  1.00 20.00    -0.005 C 
HETATM    9  C3  UNL     1     -34.575  13.275  -4.897  1.00 20.00    -0.031 C 
HETATM   10  C6  UNL     1     -34.995  14.151  -6.031  1.00 20.00     0.036 C 
ENDBRANCH   1   8
TORSDOF 3
ENDMDL
MODEL 9
REMARK VINA RESULT:      -4.1      1.901      5.118
REMARK  3 active torsions:
REMARK  status: ('A' for Active; 'I' for Inactive)
REMARK    1  A    between atoms: C1_1  and  C2_2 
REMARK    2  A    between atoms: C4_4  and  C9_9 
REMARK    3  A    between atoms: C5_5  and  C9_9 
ROOT
HETATM    1  C2  UNL     1     -33.415   6.278   4.637  1.00 20.00    -0.004 C 
HETATM    2  C4  UNL     1     -32.623   7.249   4.157  1.00 20.00    -0.015 C 
ENDROOT
BRANCH   2   3
HETATM    3  C9  UNL     1     -31.910   7.162   2.834  1.00 20.00     0.073 C 
HETATM    4  C8  UNL     1     -32.353   5.936   2.044  1.00 20.00     0.022 C 
BRANCH   3   5
HETATM    5  C5  UNL     1     -32.194   8.428   2.025  1.00 20.00     0.130 C 
HETATM    6  C7  UNL     1     -31.640   8.469   0.624  1.00 20.00     0.091 C 
HETATM    7  O10 UNL     1     -32.807   9.390   2.488  1.00 20.00    -0.298 OA
ENDBRANCH   3   5
ENDBRANCH   2   3
BRANCH   1   8
HETATM    8  C1  UNL     1     -34.096   6.370   5.908  1.00 20.00    -0.005 C 
HETATM    9  C3  UNL     1     -34.798   5.358   6.438  1.00 20.00    -0.031 C 
HETATM   10  C6  UNL     1     -34.956   4.026   5.782  1.00 20.00     0.036 C 
ENDBRANCH   1   8
TORSDOF 3
ENDMDL
