MODEL 1
REMARK VINA RESULT:      -4.8      0.000      0.000
REMARK  0 active torsions:
REMARK  status: ('A' for Active; 'I' for Inactive)
ROOT
HETATM    1  C1  UNL     1     -34.871  17.163  -0.050  1.00 20.00     0.015 C 
HETATM    2  C2  UNL     1     -35.005  13.233  -4.498  1.00 20.00     0.015 C 
HETATM    3  C3  UNL     1     -34.567  16.584  -1.056  1.00 20.00    -0.082 C 
HETATM    4  C4  UNL     1     -35.187  14.243  -3.876  1.00 20.00    -0.082 C 
HETATM    5  C5  UNL     1     -34.195  15.876  -2.290  1.00 20.00     0.243 C 
HETATM    6  C6  UNL     1     -35.409  15.482  -3.115  1.00 20.00     0.243 C 
HETATM    7  C7  UNL     1     -34.357  17.258  -4.112  1.00 20.00     0.160 C 
HETATM    8  C8  UNL     1     -34.593  18.742  -3.854  1.00 20.00     0.078 C 
HETATM    9  C9  UNL     1     -33.765  17.040  -5.499  1.00 20.00     0.078 C 
HETATM   10  O10 UNL     1     -33.440  16.745  -3.137  1.00 20.00    -0.335 OA
HETATM   11  O11 UNL     1     -35.612  16.573  -4.017  1.00 20.00    -0.335 OA
ENDROOT
TORSDOF 0
ENDMDL
MODEL 2
REMARK VINA RESULT:      -4.8      0.138      3.391
REMARK  0 active torsions:
REMARK  status: ('A' for Active; 'I' for Inactive)
ROOT
HETATM    1  C1  UNL     1     -34.890  13.211  -4.504  1.00 20.00     0.015 C 
HETATM    2  C2  UNL     1     -34.853  17.163  -0.074  1.00 20.00     0.015 C 
HETATM    3  C3  UNL     1     -35.118  14.209  -3.878  1.00 20.00    -0.082 C 
HETATM    4  C4  UNL     1     -34.551  16.602  -1.091  1.00 20.00    -0.082 C 
HETATM    5  C5  UNL     1     -35.397  15.432  -3.110  1.00 20.00     0.243 C 
HETATM    6  C6  UNL     1     -34.181  15.915  -2.338  1.00 20.00     0.243 C 
HETATM    7  C7  UNL     1     -34.518  17.275  -4.153  1.00 20.00     0.160 C 
HETATM    8  C8  UNL     1     -33.970  17.093  -5.564  1.00 20.00     0.078 C 
HETATM    9  C9  UNL     1     -34.849  18.738  -3.888  1.00 20.00     0.078 C 
HETATM   10  O10 UNL     1     -35.716  16.501  -4.005  1.00 20.00    -0.335 OA
HETATM   11  O11 UNL     1     -33.527  16.834  -3.218  1.00 20.00    -0.335 OA
ENDROOT
TORSDOF 0
ENDMDL
MODEL 3
REMARK VINA RESULT:      -4.7      1.308      3.242
REMARK  0 active torsions:
REMARK  status: ('A' for Active; 'I' for Inactive)
ROOT
HETATM    1  C1  UNL     1     -34.600  16.618  -0.843  1.00 20.00     0.015 C 
HETATM    2  C2  UNL     1     -33.761  18.656  -6.355  1.00 20.00     0.015 C 
HETATM    3  C3  UNL     1     -34.716  16.746  -2.030  1.00 20.00    -0.082 C 
HETATM    4  C4  UNL     1     -33.654  17.974  -5.374  1.00 20.00    -0.082 C 
HETATM    5  C5  UNL     1     -34.859  16.903  -3.485  1.00 20.00     0.243 C 
HETATM    6  C6  UNL     1     -33.523  17.137  -4.171  1.00 20.00     0.243 C 
HETATM    7  C7  UNL     1     -34.222  14.993  -4.583  1.00 20.00     0.160 C 
HETATM    8  C8  UNL     1     -33.954  13.751  -3.741  1.00 20.00     0.078 C 
HETATM    9  C9  UNL     1     -34.514  14.611  -6.029  1.00 20.00     0.078 C 
HETATM   10  O10 UNL     1     -35.358  15.690  -4.055  1.00 20.00    -0.335 OA
HETATM   11  O11 UNL     1     -33.063  15.834  -4.539  1.00 20.00    -0.335 OA
ENDROOT
TORSDOF 0
ENDMDL
MODEL 4
REMARK VINA RESULT:      -4.7      1.309      3.714
REMARK  0 active torsions:
REMARK  status: ('A' for Active; 'I' for Inactive)
ROOT
HETATM    1  C1  UNL     1     -33.739  18.669  -6.332  1.00 20.00     0.015 C 
HETATM    2  C2  UNL     1     -34.614  16.594  -0.839  1.00 20.00     0.015 C 
HETATM    3  C3  UNL     1     -33.640  17.978  -5.355  1.00 20.00    -0.082 C 
HETATM    4  C4  UNL     1     -34.724  16.732  -2.026  1.00 20.00    -0.082 C 
HETATM    5  C5  UNL     1     -33.519  17.132  -4.159  1.00 20.00     0.243 C 
HETATM    6  C6  UNL     1     -34.859  16.901  -3.480  1.00 20.00     0.243 C 
HETATM    7  C7  UNL     1     -34.231  14.996  -4.589  1.00 20.00     0.160 C 
HETATM    8  C8  UNL     1     -34.520  14.626  -6.040  1.00 20.00     0.078 C 
HETATM    9  C9  UNL     1     -33.975  13.745  -3.757  1.00 20.00     0.078 C 
HETATM   10  O10 UNL     1     -33.066  15.829  -4.534  1.00 20.00    -0.335 OA
HETATM   11  O11 UNL     1     -35.363  15.695  -4.061  1.00 20.00    -0.335 OA
ENDROOT
TORSDOF 0
ENDMDL
MODEL 5
REMARK VINA RESULT:      -4.5      1.688      3.493
REMARK  0 active torsions:
REMARK  status: ('A' for Active; 'I' for Inactive)
ROOT
HETATM    1  C1  UNL     1     -38.403  14.674  -4.128  1.00 20.00     0.015 C 
HETATM    2  C2  UNL     1     -33.994  17.116  -0.990  1.00 20.00     0.015 C 
HETATM    3  C3  UNL     1     -37.455  15.357  -3.852  1.00 20.00    -0.082 C 
HETATM    4  C4  UNL     1     -34.579  16.373  -1.729  1.00 20.00    -0.082 C 
HETATM    5  C5  UNL     1     -36.295  16.194  -3.514  1.00 20.00     0.243 C 
HETATM    6  C6  UNL     1     -35.295  15.462  -2.635  1.00 20.00     0.243 C 
HETATM    7  C7  UNL     1     -34.467  15.608  -4.767  1.00 20.00     0.160 C 
HETATM    8  C8  UNL     1     -34.683  14.630  -5.917  1.00 20.00     0.078 C 
HETATM    9  C9  UNL     1     -33.187  16.408  -4.975  1.00 20.00     0.078 C 
HETATM   10  O10 UNL     1     -35.571  16.519  -4.704  1.00 20.00    -0.335 OA
HETATM   11  O11 UNL     1     -34.370  14.864  -3.547  1.00 20.00    -0.335 OA
ENDROOT
TORSDOF 0
ENDMDL
MODEL 6
REMARK VINA RESULT:      -4.5      1.712      2.171
REMARK  0 active torsions:
REMARK  status: ('A' for Active; 'I' for Inactive)
ROOT
HETATM    1  C1  UNL     1     -34.037  17.015  -1.040  1.00 20.00     0.015 C 
HETATM    2  C2  UNL     1     -38.467  14.635  -4.195  1.00 20.00     0.015 C 
HETATM    3  C3  UNL     1     -34.628  16.281  -1.783  1.00 20.00    -0.082 C 
HETATM    4  C4  UNL     1     -37.512  15.307  -3.915  1.00 20.00    -0.082 C 
HETATM    5  C5  UNL     1     -35.353  15.382  -2.693  1.00 20.00     0.243 C 
HETATM    6  C6  UNL     1     -36.342  16.129  -3.571  1.00 20.00     0.243 C 
HETATM    7  C7  UNL     1     -34.520  15.526  -4.824  1.00 20.00     0.160 C 
HETATM    8  C8  UNL     1     -33.230  16.313  -5.027  1.00 20.00     0.078 C 
HETATM    9  C9  UNL     1     -34.745  14.555  -5.977  1.00 20.00     0.078 C 
HETATM   10  O10 UNL     1     -34.433  14.776  -3.605  1.00 20.00    -0.335 OA
HETATM   11  O11 UNL     1     -35.613  16.449  -4.759  1.00 20.00    -0.335 OA
ENDROOT
TORSDOF 0
ENDMDL
MODEL 7
REMARK VINA RESULT:      -4.4      1.726      3.932
REMARK  0 active torsions:
REMARK  status: ('A' for Active; 'I' for Inactive)
ROOT
HETATM    1  C1  UNL     1     -36.695  16.821  -6.485  1.00 20.00     0.015 C 
HETATM    2  C2  UNL     1     -34.500  16.646  -0.971  1.00 20.00     0.015 C 
HETATM    3  C3  UNL     1     -35.919  16.671  -5.581  1.00 20.00    -0.082 C 
HETATM    4  C4  UNL     1     -35.003  16.285  -1.999  1.00 20.00    -0.082 C 
HETATM    5  C5  UNL     1     -34.969  16.488  -4.474  1.00 20.00     0.243 C 
HETATM    6  C6  UNL     1     -35.618  15.844  -3.260  1.00 20.00     0.243 C 
HETATM    7  C7  UNL     1     -34.295  14.302  -4.323  1.00 20.00     0.160 C 
HETATM    8  C8  UNL     1     -34.691  13.361  -5.455  1.00 20.00     0.078 C 
HETATM    9  C9  UNL     1     -33.100  13.749  -3.556  1.00 20.00     0.078 C 
HETATM   10  O10 UNL     1     -33.938  15.579  -4.868  1.00 20.00    -0.335 OA
HETATM   11  O11 UNL     1     -35.409  14.439  -3.433  1.00 20.00    -0.335 OA
ENDROOT
TORSDOF 0
ENDMDL
MODEL 8
REMARK VINA RESULT:      -4.4      2.831      3.634
REMARK  0 active torsions:
REMARK  status: ('A' for Active; 'I' for Inactive)
ROOT
HETATM    1  C1  UNL     1     -38.736  14.757  -3.823  1.00 20.00     0.015 C 
HETATM    2  C2  UNL     1     -32.890  13.780  -3.472  1.00 20.00     0.015 C 
HETATM    3  C3  UNL     1     -37.554  14.908  -3.966  1.00 20.00    -0.082 C 
HETATM    4  C4  UNL     1     -34.013  13.781  -3.897  1.00 20.00    -0.082 C 
HETATM    5  C5  UNL     1     -36.106  15.094  -4.142  1.00 20.00     0.243 C 
HETATM    6  C6  UNL     1     -35.388  13.783  -4.418  1.00 20.00     0.243 C 
HETATM    7  C7  UNL     1     -35.528  14.995  -6.358  1.00 20.00     0.160 C 
HETATM    8  C8  UNL     1     -36.657  14.982  -7.382  1.00 20.00     0.078 C 
HETATM    9  C9  UNL     1     -34.225  15.454  -7.001  1.00 20.00     0.078 C 
HETATM   10  O10 UNL     1     -35.859  15.899  -5.297  1.00 20.00    -0.335 OA
HETATM   11  O11 UNL     1     -35.363  13.668  -5.843  1.00 20.00    -0.335 OA
ENDROOT
TORSDOF 0
ENDMDL
MODEL 9
REMARK VINA RESULT:      -4.3      2.103      3.323
REMARK  0 active torsions:
REMARK  status: ('A' for Active; 'I' for Inactive)
ROOT
HETATM    1  C1  UNL     1     -38.642  15.133  -3.407  1.00 20.00     0.015 C 
HETATM    2  C2  UNL     1     -34.353  14.992  -7.509  1.00 20.00     0.015 C 
HETATM    3  C3  UNL     1     -37.603  14.872  -3.947  1.00 20.00    -0.082 C 
HETATM    4  C4  UNL     1     -34.986  15.329  -6.547  1.00 20.00    -0.082 C 
HETATM    5  C5  UNL     1     -36.329  14.553  -4.608  1.00 20.00     0.243 C 
HETATM    6  C6  UNL     1     -35.762  15.741  -5.367  1.00 20.00     0.243 C 
HETATM    7  C7  UNL     1     -34.557  15.425  -3.443  1.00 20.00     0.160 C 
HETATM    8  C8  UNL     1     -34.839  16.010  -2.063  1.00 20.00     0.078 C 
HETATM    9  C9  UNL     1     -33.084  15.062  -3.583  1.00 20.00     0.078 C 
HETATM   10  O10 UNL     1     -35.340  14.238  -3.624  1.00 20.00    -0.335 OA
HETATM   11  O11 UNL     1     -34.903  16.401  -4.432  1.00 20.00    -0.335 OA
ENDROOT
TORSDOF 0
ENDMDL
