MODEL 1
REMARK VINA RESULT:      -4.8      0.000      0.000
REMARK  2 active torsions:
REMARK  status: ('A' for Active; 'I' for Inactive)
REMARK    1  A    between atoms: C1_1  and  C7_7 
REMARK    2  A    between atoms: C4_4  and  C7_7 
ROOT
HETATM    1  C6  UNL     1     -33.825   6.625   6.408  1.00 20.00     0.018 C 
HETATM    2  C7  UNL     1     -34.085   6.393   4.921  1.00 20.00     0.055 C 
ENDROOT
BRANCH   2   3
HETATM    3  C1  UNL     1     -35.059   5.238   4.710  1.00 20.00     0.127 C 
HETATM    4  C5  UNL     1     -34.908   4.044   5.618  1.00 20.00     0.091 C 
HETATM    5  O8  UNL     1     -35.916   5.251   3.826  1.00 20.00    -0.298 OA
ENDBRANCH   2   3
BRANCH   2   6
HETATM    6  C4  UNL     1     -32.781   6.116   4.182  1.00 20.00    -0.004 A 
HETATM    7  C2  UNL     1     -32.762   6.044   2.680  1.00 20.00     0.006 A 
HETATM    8  C3  UNL     1     -32.118   7.205   3.386  1.00 20.00     0.006 A 
ENDBRANCH   2   6
TORSDOF 2
ENDMDL
MODEL 2
REMARK VINA RESULT:      -4.7      1.745      3.674
REMARK  2 active torsions:
REMARK  status: ('A' for Active; 'I' for Inactive)
REMARK    1  A    between atoms: C1_1  and  C7_7 
REMARK    2  A    between atoms: C4_4  and  C7_7 
ROOT
HETATM    1  C6  UNL     1     -34.945   5.484   3.311  1.00 20.00     0.018 C 
HETATM    2  C7  UNL     1     -33.920   6.394   3.984  1.00 20.00     0.055 C 
ENDROOT
BRANCH   2   3
HETATM    3  C1  UNL     1     -32.636   6.473   3.163  1.00 20.00     0.127 C 
HETATM    4  C5  UNL     1     -32.298   7.810   2.553  1.00 20.00     0.091 C 
HETATM    5  O8  UNL     1     -31.913   5.495   2.973  1.00 20.00    -0.298 OA
ENDBRANCH   2   3
BRANCH   2   6
HETATM    6  C4  UNL     1     -33.607   5.907   5.393  1.00 20.00    -0.004 A 
HETATM    7  C2  UNL     1     -34.062   6.699   6.587  1.00 20.00     0.006 A 
HETATM    8  C3  UNL     1     -34.706   5.377   6.271  1.00 20.00     0.006 A 
ENDBRANCH   2   6
TORSDOF 2
ENDMDL
MODEL 3
REMARK VINA RESULT:      -4.6      1.353      1.901
REMARK  2 active torsions:
REMARK  status: ('A' for Active; 'I' for Inactive)
REMARK    1  A    between atoms: C1_1  and  C7_7 
REMARK    2  A    between atoms: C4_4  and  C7_7 
ROOT
HETATM    1  C6  UNL     1     -35.744   5.898   3.365  1.00 20.00     0.018 C 
HETATM    2  C7  UNL     1     -34.461   5.300   3.939  1.00 20.00     0.055 C 
ENDROOT
BRANCH   2   3
HETATM    3  C1  UNL     1     -34.706   4.703   5.322  1.00 20.00     0.127 C 
HETATM    4  C5  UNL     1     -34.486   5.611   6.505  1.00 20.00     0.091 C 
HETATM    5  O8  UNL     1     -35.042   3.530   5.484  1.00 20.00    -0.298 OA
ENDBRANCH   2   3
BRANCH   2   6
HETATM    6  C4  UNL     1     -33.361   6.351   4.014  1.00 20.00    -0.004 A 
HETATM    7  C2  UNL     1     -32.053   6.131   3.304  1.00 20.00     0.006 A 
HETATM    8  C3  UNL     1     -33.016   7.172   2.802  1.00 20.00     0.006 A 
ENDBRANCH   2   6
TORSDOF 2
ENDMDL
MODEL 4
REMARK VINA RESULT:      -4.4      1.447      3.500
REMARK  2 active torsions:
REMARK  status: ('A' for Active; 'I' for Inactive)
REMARK    1  A    between atoms: C1_1  and  C7_7 
REMARK    2  A    between atoms: C4_4  and  C7_7 
ROOT
HETATM    1  C6  UNL     1     -35.722   5.694   3.576  1.00 20.00     0.018 C 
HETATM    2  C7  UNL     1     -34.392   6.136   4.185  1.00 20.00     0.055 C 
ENDROOT
BRANCH   2   3
HETATM    3  C1  UNL     1     -33.272   6.084   3.150  1.00 20.00     0.127 C 
HETATM    4  C5  UNL     1     -32.093   6.995   3.376  1.00 20.00     0.091 C 
HETATM    5  O8  UNL     1     -33.325   5.358   2.157  1.00 20.00    -0.298 OA
ENDBRANCH   2   3
BRANCH   2   6
HETATM    6  C4  UNL     1     -34.033   5.268   5.385  1.00 20.00    -0.004 A 
HETATM    7  C2  UNL     1     -34.887   5.293   6.622  1.00 20.00     0.006 A 
HETATM    8  C3  UNL     1     -34.881   4.077   5.738  1.00 20.00     0.006 A 
ENDBRANCH   2   6
TORSDOF 2
ENDMDL
MODEL 5
REMARK VINA RESULT:      -4.3      1.779      3.519
REMARK  2 active torsions:
REMARK  status: ('A' for Active; 'I' for Inactive)
REMARK    1  A    between atoms: C1_1  and  C7_7 
REMARK    2  A    between atoms: C4_4  and  C7_7 
ROOT
HETATM    1  C6  UNL     1     -35.330   5.685   3.232  1.00 20.00     0.018 C 
HETATM    2  C7  UNL     1     -34.244   6.330   4.090  1.00 20.00     0.055 C 
ENDROOT
BRANCH   2   3
HETATM    3  C1  UNL     1     -32.991   6.613   3.266  1.00 20.00     0.127 C 
HETATM    4  C5  UNL     1     -32.052   5.457   3.034  1.00 20.00     0.091 C 
HETATM    5  O8  UNL     1     -32.730   7.733   2.826  1.00 20.00    -0.298 OA
ENDBRANCH   2   3
BRANCH   2   6
HETATM    6  C4  UNL     1     -33.895   5.442   5.278  1.00 20.00    -0.004 A 
HETATM    7  C2  UNL     1     -34.692   5.530   6.551  1.00 20.00     0.006 A 
HETATM    8  C3  UNL     1     -34.809   4.314   5.673  1.00 20.00     0.006 A 
ENDBRANCH   2   6
TORSDOF 2
ENDMDL
MODEL 6
REMARK VINA RESULT:      -4.2      1.081      3.260
REMARK  2 active torsions:
REMARK  status: ('A' for Active; 'I' for Inactive)
REMARK    1  A    between atoms: C1_1  and  C7_7 
REMARK    2  A    between atoms: C4_4  and  C7_7 
ROOT
HETATM    1  C6  UNL     1     -33.399   7.139   5.922  1.00 20.00     0.018 C 
HETATM    2  C7  UNL     1     -33.480   5.879   5.062  1.00 20.00     0.055 C 
ENDROOT
BRANCH   2   3
HETATM    3  C1  UNL     1     -33.186   6.195   3.599  1.00 20.00     0.127 C 
HETATM    4  C5  UNL     1     -32.084   7.186   3.324  1.00 20.00     0.091 C 
HETATM    5  O8  UNL     1     -33.827   5.694   2.674  1.00 20.00    -0.298 OA
ENDBRANCH   2   3
BRANCH   2   6
HETATM    6  C4  UNL     1     -34.851   5.227   5.188  1.00 20.00    -0.004 A 
HETATM    7  C2  UNL     1     -34.981   3.729   5.188  1.00 20.00     0.006 A 
HETATM    8  C3  UNL     1     -35.232   4.505   6.451  1.00 20.00     0.006 A 
ENDBRANCH   2   6
TORSDOF 2
ENDMDL
MODEL 7
REMARK VINA RESULT:      -4.1     11.605     12.377
REMARK  2 active torsions:
REMARK  status: ('A' for Active; 'I' for Inactive)
REMARK    1  A    between atoms: C1_1  and  C7_7 
REMARK    2  A    between atoms: C4_4  and  C7_7 
ROOT
HETATM    1  C6  UNL     1     -32.535  14.793  -3.597  1.00 20.00     0.018 C 
HETATM    2  C7  UNL     1     -33.977  14.382  -3.303  1.00 20.00     0.055 C 
ENDROOT
BRANCH   2   3
HETATM    3  C1  UNL     1     -34.608  13.698  -4.512  1.00 20.00     0.127 C 
HETATM    4  C5  UNL     1     -34.644  14.483  -5.798  1.00 20.00     0.091 C 
HETATM    5  O8  UNL     1     -35.094  12.568  -4.451  1.00 20.00    -0.298 OA
ENDBRANCH   2   3
BRANCH   2   6
HETATM    6  C4  UNL     1     -34.810  15.590  -2.895  1.00 20.00    -0.004 A 
HETATM    7  C2  UNL     1     -34.607  16.233  -1.551  1.00 20.00     0.006 A 
HETATM    8  C3  UNL     1     -34.176  16.950  -2.801  1.00 20.00     0.006 A 
ENDBRANCH   2   6
TORSDOF 2
ENDMDL
MODEL 8
REMARK VINA RESULT:      -3.8     11.867     12.579
REMARK  2 active torsions:
REMARK  status: ('A' for Active; 'I' for Inactive)
REMARK    1  A    between atoms: C1_1  and  C7_7 
REMARK    2  A    between atoms: C4_4  and  C7_7 
ROOT
HETATM    1  C6  UNL     1     -37.002  14.753  -3.713  1.00 20.00     0.018 C 
HETATM    2  C7  UNL     1     -35.549  14.957  -4.139  1.00 20.00     0.055 C 
ENDROOT
BRANCH   2   3
HETATM    3  C1  UNL     1     -35.094  13.846  -5.081  1.00 20.00     0.127 C 
HETATM    4  C5  UNL     1     -34.976  14.198  -6.543  1.00 20.00     0.091 C 
HETATM    5  O8  UNL     1     -34.857  12.704  -4.688  1.00 20.00    -0.298 OA
ENDBRANCH   2   3
BRANCH   2   6
HETATM    6  C4  UNL     1     -34.633  15.016  -2.923  1.00 20.00    -0.004 A 
HETATM    7  C2  UNL     1     -33.591  16.094  -2.810  1.00 20.00     0.006 A 
HETATM    8  C3  UNL     1     -34.794  16.113  -1.907  1.00 20.00     0.006 A 
ENDBRANCH   2   6
TORSDOF 2
ENDMDL
MODEL 9
REMARK VINA RESULT:      -3.8     11.765     12.426
REMARK  2 active torsions:
REMARK  status: ('A' for Active; 'I' for Inactive)
REMARK    1  A    between atoms: C1_1  and  C7_7 
REMARK    2  A    between atoms: C4_4  and  C7_7 
ROOT
HETATM    1  C6  UNL     1     -36.812  16.694  -3.068  1.00 20.00     0.018 C 
HETATM    2  C7  UNL     1     -35.670  15.773  -3.492  1.00 20.00     0.055 C 
ENDROOT
BRANCH   2   3
HETATM    3  C1  UNL     1     -36.192  14.389  -3.864  1.00 20.00     0.127 C 
HETATM    4  C5  UNL     1     -35.171  13.370  -4.301  1.00 20.00     0.091 C 
HETATM    5  O8  UNL     1     -37.391  14.108  -3.841  1.00 20.00    -0.298 OA
ENDBRANCH   2   3
BRANCH   2   6
HETATM    6  C4  UNL     1     -34.631  15.656  -2.384  1.00 20.00    -0.004 A 
HETATM    7  C2  UNL     1     -33.657  16.775  -2.136  1.00 20.00     0.006 A 
HETATM    8  C3  UNL     1     -34.751  16.497  -1.142  1.00 20.00     0.006 A 
ENDBRANCH   2   6
TORSDOF 2
ENDMDL
