MODEL 1
REMARK VINA RESULT:      -4.7      0.000      0.000
REMARK  2 active torsions:
REMARK  status: ('A' for Active; 'I' for Inactive)
REMARK    1  A    between atoms: C2_2  and  C8_8 
REMARK    2  A    between atoms: C8_8  and  N9_9 
ROOT
HETATM    1  C1  UNL     1     -32.187   7.958   2.058  1.00 20.00    -0.109 C 
HETATM    2  C2  UNL     1     -32.475   7.134   2.882  1.00 20.00    -0.077 C 
HETATM    3  C7  UNL     1     -31.836   8.964   1.056  1.00 20.00     0.112 C 
ENDROOT
BRANCH   2   4
HETATM    4  C8  UNL     1     -32.832   6.129   3.888  1.00 20.00     0.365 C 
BRANCH   4   5
HETATM    5  N9  UNL     1     -34.153   6.399   4.450  1.00 20.00     0.103 N 
HETATM    6  C3  UNL     1     -35.175   5.475   3.936  1.00 20.00     0.299 C 
HETATM    7  C5  UNL     1     -35.091   4.085   4.561  1.00 20.00     0.198 C 
HETATM    8  O10 UNL     1     -35.156   4.174   5.984  1.00 20.00    -0.388 OA
HETATM    9  C6  UNL     1     -34.087   4.969   6.498  1.00 20.00     0.198 C 
HETATM   10  C4  UNL     1     -34.147   6.380   5.918  1.00 20.00     0.299 C 
ENDBRANCH   4   5
ENDBRANCH   2   4
TORSDOF 2
ENDMDL
MODEL 2
REMARK VINA RESULT:      -4.3     11.610     12.632
REMARK  2 active torsions:
REMARK  status: ('A' for Active; 'I' for Inactive)
REMARK    1  A    between atoms: C2_2  and  C8_8 
REMARK    2  A    between atoms: C8_8  and  N9_9 
ROOT
HETATM    1  C1  UNL     1     -34.376  17.140  -0.599  1.00 20.00    -0.109 C 
HETATM    2  C2  UNL     1     -34.624  16.388  -1.501  1.00 20.00    -0.077 C 
HETATM    3  C7  UNL     1     -34.071  18.055   0.501  1.00 20.00     0.112 C 
ENDROOT
BRANCH   2   4
HETATM    4  C8  UNL     1     -34.932  15.467  -2.598  1.00 20.00     0.365 C 
BRANCH   4   5
HETATM    5  N9  UNL     1     -33.726  15.121  -3.345  1.00 20.00     0.103 N 
HETATM    6  C3  UNL     1     -33.752  13.735  -3.836  1.00 20.00     0.299 C 
HETATM    7  C5  UNL     1     -34.666  13.547  -5.043  1.00 20.00     0.198 C 
HETATM    8  O10 UNL     1     -34.301  14.448  -6.089  1.00 20.00    -0.388 OA
HETATM    9  C6  UNL     1     -34.397  15.805  -5.654  1.00 20.00     0.198 C 
HETATM   10  C4  UNL     1     -33.477  16.046  -4.459  1.00 20.00     0.299 C 
ENDBRANCH   4   5
ENDBRANCH   2   4
TORSDOF 2
ENDMDL
MODEL 3
REMARK VINA RESULT:      -4.2     12.004     12.731
REMARK  2 active torsions:
REMARK  status: ('A' for Active; 'I' for Inactive)
REMARK    1  A    between atoms: C2_2  and  C8_8 
REMARK    2  A    between atoms: C8_8  and  N9_9 
ROOT
HETATM    1  C1  UNL     1     -34.713  16.787  -0.626  1.00 20.00    -0.109 C 
HETATM    2  C2  UNL     1     -34.454  16.266  -1.676  1.00 20.00    -0.077 C 
HETATM    3  C7  UNL     1     -35.028  17.422   0.653  1.00 20.00     0.112 C 
ENDROOT
BRANCH   2   4
HETATM    4  C8  UNL     1     -34.136  15.624  -2.955  1.00 20.00     0.365 C 
BRANCH   4   5
HETATM    5  N9  UNL     1     -35.333  15.479  -3.779  1.00 20.00     0.103 N 
HETATM    6  C3  UNL     1     -35.206  16.172  -5.070  1.00 20.00     0.299 C 
HETATM    7  C5  UNL     1     -34.319  15.425  -6.063  1.00 20.00     0.198 C 
HETATM    8  O10 UNL     1     -34.792  14.091  -6.247  1.00 20.00    -0.388 OA
HETATM    9  C6  UNL     1     -34.796  13.373  -5.013  1.00 20.00     0.198 C 
HETATM   10  C4  UNL     1     -35.693  14.072  -3.994  1.00 20.00     0.299 C 
ENDBRANCH   4   5
ENDBRANCH   2   4
TORSDOF 2
ENDMDL
MODEL 4
REMARK VINA RESULT:      -4.2     11.982     12.616
REMARK  2 active torsions:
REMARK  status: ('A' for Active; 'I' for Inactive)
REMARK    1  A    between atoms: C2_2  and  C8_8 
REMARK    2  A    between atoms: C8_8  and  N9_9 
ROOT
HETATM    1  C1  UNL     1     -34.554  16.559  -1.077  1.00 20.00    -0.109 C 
HETATM    2  C2  UNL     1     -34.317  15.964  -2.094  1.00 20.00    -0.077 C 
HETATM    3  C7  UNL     1     -34.842  17.280   0.161  1.00 20.00     0.112 C 
ENDROOT
BRANCH   2   4
HETATM    4  C8  UNL     1     -34.034  15.237  -3.334  1.00 20.00     0.365 C 
BRANCH   4   5
HETATM    5  N9  UNL     1     -35.092  14.274  -3.629  1.00 20.00     0.103 N 
HETATM    6  C3  UNL     1     -36.404  14.919  -3.782  1.00 20.00     0.299 C 
HETATM    7  C5  UNL     1     -36.561  15.641  -5.118  1.00 20.00     0.198 C 
HETATM    8  O10 UNL     1     -36.306  14.746  -6.200  1.00 20.00    -0.388 OA
HETATM    9  C6  UNL     1     -34.983  14.213  -6.125  1.00 20.00     0.198 C 
HETATM   10  C4  UNL     1     -34.788  13.458  -4.812  1.00 20.00     0.299 C 
ENDBRANCH   4   5
ENDBRANCH   2   4
TORSDOF 2
ENDMDL
MODEL 5
REMARK VINA RESULT:      -3.9     12.282     13.130
REMARK  2 active torsions:
REMARK  status: ('A' for Active; 'I' for Inactive)
REMARK    1  A    between atoms: C2_2  and  C8_8 
REMARK    2  A    between atoms: C8_8  and  N9_9 
ROOT
HETATM    1  C1  UNL     1     -34.682  16.676  -0.856  1.00 20.00    -0.109 C 
HETATM    2  C2  UNL     1     -34.465  16.111  -1.893  1.00 20.00    -0.077 C 
HETATM    3  C7  UNL     1     -34.949  17.363   0.407  1.00 20.00     0.112 C 
ENDROOT
BRANCH   2   4
HETATM    4  C8  UNL     1     -34.202  15.427  -3.162  1.00 20.00     0.365 C 
BRANCH   4   5
HETATM    5  N9  UNL     1     -34.622  16.247  -4.295  1.00 20.00     0.103 N 
HETATM    6  C3  UNL     1     -34.016  15.802  -5.559  1.00 20.00     0.299 C 
HETATM    7  C5  UNL     1     -34.662  14.536  -6.117  1.00 20.00     0.198 C 
HETATM    8  O10 UNL     1     -36.070  14.720  -6.266  1.00 20.00    -0.388 OA
HETATM    9  C6  UNL     1     -36.682  15.029  -5.014  1.00 20.00     0.198 C 
HETATM   10  C4  UNL     1     -36.083  16.306  -4.429  1.00 20.00     0.299 C 
ENDBRANCH   4   5
ENDBRANCH   2   4
TORSDOF 2
ENDMDL
MODEL 6
REMARK VINA RESULT:      -3.8     12.570     13.838
REMARK  2 active torsions:
REMARK  status: ('A' for Active; 'I' for Inactive)
REMARK    1  A    between atoms: C2_2  and  C8_8 
REMARK    2  A    between atoms: C8_8  and  N9_9 
ROOT
HETATM    1  C1  UNL     1     -34.824  17.074  -0.085  1.00 20.00    -0.109 C 
HETATM    2  C2  UNL     1     -34.506  16.622  -1.151  1.00 20.00    -0.077 C 
HETATM    3  C7  UNL     1     -35.214  17.624   1.213  1.00 20.00     0.112 C 
ENDROOT
BRANCH   2   4
HETATM    4  C8  UNL     1     -34.116  16.077  -2.454  1.00 20.00     0.365 C 
BRANCH   4   5
HETATM    5  N9  UNL     1     -34.977  16.592  -3.515  1.00 20.00     0.103 N 
HETATM    6  C3  UNL     1     -34.899  18.055  -3.634  1.00 20.00     0.299 C 
HETATM    7  C5  UNL     1     -33.618  18.531  -4.315  1.00 20.00     0.198 C 
HETATM    8  O10 UNL     1     -33.473  17.910  -5.592  1.00 20.00    -0.388 OA
HETATM    9  C6  UNL     1     -33.421  16.489  -5.468  1.00 20.00     0.198 C 
HETATM   10  C4  UNL     1     -34.697  15.964  -4.813  1.00 20.00     0.299 C 
ENDBRANCH   4   5
ENDBRANCH   2   4
TORSDOF 2
ENDMDL
MODEL 7
REMARK VINA RESULT:      -3.5     11.175     13.352
REMARK  2 active torsions:
REMARK  status: ('A' for Active; 'I' for Inactive)
REMARK    1  A    between atoms: C2_2  and  C8_8 
REMARK    2  A    between atoms: C8_8  and  N9_9 
ROOT
HETATM    1  C1  UNL     1     -33.931  18.218  -6.573  1.00 20.00    -0.109 C 
HETATM    2  C2  UNL     1     -33.716  17.361  -5.760  1.00 20.00    -0.077 C 
HETATM    3  C7  UNL     1     -34.192  19.261  -7.565  1.00 20.00     0.112 C 
ENDROOT
BRANCH   2   4
HETATM    4  C8  UNL     1     -33.451  16.320  -4.763  1.00 20.00     0.365 C 
BRANCH   4   5
HETATM    5  N9  UNL     1     -34.698  15.758  -4.251  1.00 20.00     0.103 N 
HETATM    6  C3  UNL     1     -35.483  15.094  -5.302  1.00 20.00     0.299 C 
HETATM    7  C5  UNL     1     -34.921  13.730  -5.695  1.00 20.00     0.198 C 
HETATM    8  O10 UNL     1     -34.800  12.892  -4.546  1.00 20.00    -0.388 OA
HETATM    9  C6  UNL     1     -33.935  13.477  -3.572  1.00 20.00     0.198 C 
HETATM   10  C4  UNL     1     -34.473  14.836  -3.130  1.00 20.00     0.299 C 
ENDBRANCH   4   5
ENDBRANCH   2   4
TORSDOF 2
ENDMDL
MODEL 8
REMARK VINA RESULT:      -3.5     12.001     13.233
REMARK  2 active torsions:
REMARK  status: ('A' for Active; 'I' for Inactive)
REMARK    1  A    between atoms: C2_2  and  C8_8 
REMARK    2  A    between atoms: C8_8  and  N9_9 
ROOT
HETATM    1  C1  UNL     1     -38.546  14.715  -4.146  1.00 20.00    -0.109 C 
HETATM    2  C2  UNL     1     -37.391  14.841  -3.844  1.00 20.00    -0.077 C 
HETATM    3  C7  UNL     1     -39.953  14.560  -4.515  1.00 20.00     0.112 C 
ENDROOT
BRANCH   2   4
HETATM    4  C8  UNL     1     -35.980  14.998  -3.481  1.00 20.00     0.365 C 
BRANCH   4   5
HETATM    5  N9  UNL     1     -35.108  14.558  -4.567  1.00 20.00     0.103 N 
HETATM    6  C3  UNL     1     -34.897  15.609  -5.572  1.00 20.00     0.299 C 
HETATM    7  C5  UNL     1     -33.927  16.693  -5.109  1.00 20.00     0.198 C 
HETATM    8  O10 UNL     1     -32.684  16.112  -4.714  1.00 20.00    -0.388 OA
HETATM    9  C6  UNL     1     -32.869  15.181  -3.647  1.00 20.00     0.198 C 
HETATM   10  C4  UNL     1     -33.815  14.062  -4.076  1.00 20.00     0.299 C 
ENDBRANCH   4   5
ENDBRANCH   2   4
TORSDOF 2
ENDMDL
MODEL 9
REMARK VINA RESULT:      -3.4      9.652     11.067
REMARK  2 active torsions:
REMARK  status: ('A' for Active; 'I' for Inactive)
REMARK    1  A    between atoms: C2_2  and  C8_8 
REMARK    2  A    between atoms: C8_8  and  N9_9 
ROOT
HETATM    1  C1  UNL     1     -41.964   1.732  -3.559  1.00 20.00    -0.109 C 
HETATM    2  C2  UNL     1     -42.352   2.794  -3.155  1.00 20.00    -0.077 C 
HETATM    3  C7  UNL     1     -41.490   0.439  -4.052  1.00 20.00     0.112 C 
ENDROOT
BRANCH   2   4
HETATM    4  C8  UNL     1     -42.830   4.091  -2.667  1.00 20.00     0.365 C 
BRANCH   4   5
HETATM    5  N9  UNL     1     -41.712   4.968  -2.331  1.00 20.00     0.103 N 
HETATM    6  C3  UNL     1     -42.139   6.359  -2.123  1.00 20.00     0.299 C 
HETATM    7  C5  UNL     1     -42.833   6.576  -0.781  1.00 20.00     0.198 C 
HETATM    8  O10 UNL     1     -41.995   6.137   0.289  1.00 20.00    -0.388 OA
HETATM    9  C6  UNL     1     -41.681   4.750   0.158  1.00 20.00     0.198 C 
HETATM   10  C4  UNL     1     -40.961   4.490  -1.163  1.00 20.00     0.299 C 
ENDBRANCH   4   5
ENDBRANCH   2   4
TORSDOF 2
ENDMDL
