MODEL 1
REMARK VINA RESULT:      -4.5      0.000      0.000
REMARK  3 active torsions:
REMARK  status: ('A' for Active; 'I' for Inactive)
REMARK    1  A    between atoms: C2_2  and  C6_6 
REMARK    2  A    between atoms: C3_3  and  C5_5 
REMARK    3  A    between atoms: C3_3  and  O10_10 
ROOT
HETATM    1  C4  UNL     1     -36.005  16.306  -3.687  1.00 20.00     0.033 A 
HETATM    2  C5  UNL     1     -35.783  14.858  -3.344  1.00 20.00     0.101 A 
HETATM    3  C6  UNL     1     -34.725  15.892  -2.996  1.00 20.00     0.023 A 
HETATM    4  C7  UNL     1     -34.559  16.261  -1.546  1.00 20.00     0.023 C 
ENDROOT
BRANCH   2   5
HETATM    5  C3  UNL     1     -35.575  13.887  -4.428  1.00 20.00     0.263 C 
HETATM    6  O9  UNL     1     -35.048  12.793  -4.276  1.00 20.00    -0.265 OA
BRANCH   5   7
HETATM    7  O10 UNL     1     -36.055  14.399  -5.596  1.00 20.00    -0.326 OA
HETATM    8  C8  UNL     1     -35.196  14.251  -6.731  1.00 20.00     0.213 C 
ENDBRANCH   5   7
ENDBRANCH   2   5
BRANCH   3   9
HETATM    9  C2  UNL     1     -33.497  15.940  -3.798  1.00 20.00     0.093 C 
HETATM   10  C1  UNL     1     -33.258  16.782  -4.811  1.00 20.00     0.052 C 
HETATM   11  F11 UNL     1     -32.520  15.056  -3.485  1.00 20.00    -0.211 F 
ENDBRANCH   3   9
TORSDOF 3
ENDMDL
MODEL 2
REMARK VINA RESULT:      -4.3      1.345      2.234
REMARK  3 active torsions:
REMARK  status: ('A' for Active; 'I' for Inactive)
REMARK    1  A    between atoms: C2_2  and  C6_6 
REMARK    2  A    between atoms: C3_3  and  C5_5 
REMARK    3  A    between atoms: C3_3  and  O10_10 
ROOT
HETATM    1  C4  UNL     1     -34.171  15.109  -5.853  1.00 20.00     0.033 A 
HETATM    2  C5  UNL     1     -35.492  14.985  -5.145  1.00 20.00     0.101 A 
HETATM    3  C6  UNL     1     -34.471  16.007  -4.674  1.00 20.00     0.023 A 
HETATM    4  C7  UNL     1     -34.756  17.459  -4.953  1.00 20.00     0.023 C 
ENDROOT
BRANCH   2   5
HETATM    5  C3  UNL     1     -35.777  13.774  -4.363  1.00 20.00     0.263 C 
HETATM    6  O9  UNL     1     -35.064  12.779  -4.356  1.00 20.00    -0.265 OA
BRANCH   5   7
HETATM    7  O10 UNL     1     -36.938  13.942  -3.669  1.00 20.00    -0.326 OA
HETATM    8  C8  UNL     1     -37.888  14.832  -4.265  1.00 20.00     0.213 C 
ENDBRANCH   5   7
ENDBRANCH   2   5
BRANCH   3   9
HETATM    9  C2  UNL     1     -33.728  15.742  -3.436  1.00 20.00     0.093 C 
HETATM   10  C1  UNL     1     -33.983  16.288  -2.241  1.00 20.00     0.052 C 
HETATM   11  F11 UNL     1     -32.696  14.868  -3.511  1.00 20.00    -0.211 F 
ENDBRANCH   3   9
TORSDOF 3
ENDMDL
MODEL 3
REMARK VINA RESULT:      -4.1      1.832      2.742
REMARK  3 active torsions:
REMARK  status: ('A' for Active; 'I' for Inactive)
REMARK    1  A    between atoms: C2_2  and  C6_6 
REMARK    2  A    between atoms: C3_3  and  C5_5 
REMARK    3  A    between atoms: C3_3  and  O10_10 
ROOT
HETATM    1  C4  UNL     1     -33.529  16.969  -4.408  1.00 20.00     0.033 A 
HETATM    2  C5  UNL     1     -34.112  15.587  -4.292  1.00 20.00     0.101 A 
HETATM    3  C6  UNL     1     -34.649  16.713  -3.425  1.00 20.00     0.023 A 
HETATM    4  C7  UNL     1     -36.012  17.261  -3.757  1.00 20.00     0.023 C 
ENDROOT
BRANCH   2   5
HETATM    5  C3  UNL     1     -33.294  14.507  -3.722  1.00 20.00     0.263 C 
HETATM    6  O9  UNL     1     -32.091  14.595  -3.516  1.00 20.00    -0.265 OA
BRANCH   5   7
HETATM    7  O10 UNL     1     -34.081  13.423  -3.473  1.00 20.00    -0.326 OA
HETATM    8  C8  UNL     1     -35.188  13.248  -4.362  1.00 20.00     0.213 C 
ENDBRANCH   5   7
ENDBRANCH   2   5
BRANCH   3   9
HETATM    9  C2  UNL     1     -34.295  16.735  -2.001  1.00 20.00     0.093 C 
HETATM   10  C1  UNL     1     -33.477  17.616  -1.414  1.00 20.00     0.052 C 
HETATM   11  F11 UNL     1     -34.847  15.782  -1.213  1.00 20.00    -0.211 F 
ENDBRANCH   3   9
TORSDOF 3
ENDMDL
MODEL 4
REMARK VINA RESULT:      -4.0      2.305      3.512
REMARK  3 active torsions:
REMARK  status: ('A' for Active; 'I' for Inactive)
REMARK    1  A    between atoms: C2_2  and  C6_6 
REMARK    2  A    between atoms: C3_3  and  C5_5 
REMARK    3  A    between atoms: C3_3  and  O10_10 
ROOT
HETATM    1  C4  UNL     1     -34.799  13.350  -4.193  1.00 20.00     0.033 A 
HETATM    2  C5  UNL     1     -34.672  14.535  -3.275  1.00 20.00     0.101 A 
HETATM    3  C6  UNL     1     -35.581  14.610  -4.490  1.00 20.00     0.023 A 
HETATM    4  C7  UNL     1     -37.068  14.585  -4.253  1.00 20.00     0.023 C 
ENDROOT
BRANCH   2   5
HETATM    5  C3  UNL     1     -33.401  15.272  -3.225  1.00 20.00     0.263 C 
HETATM    6  O9  UNL     1     -32.342  14.842  -3.663  1.00 20.00    -0.265 OA
BRANCH   5   7
HETATM    7  O10 UNL     1     -33.598  16.479  -2.623  1.00 20.00    -0.326 OA
HETATM    8  C8  UNL     1     -34.451  16.462  -1.474  1.00 20.00     0.213 C 
ENDBRANCH   5   7
ENDBRANCH   2   5
BRANCH   3   9
HETATM    9  C2  UNL     1     -35.145  15.399  -5.648  1.00 20.00     0.093 C 
HETATM   10  C1  UNL     1     -34.611  14.907  -6.772  1.00 20.00     0.052 C 
HETATM   11  F11 UNL     1     -35.299  16.743  -5.573  1.00 20.00    -0.211 F 
ENDBRANCH   3   9
TORSDOF 3
ENDMDL
MODEL 5
REMARK VINA RESULT:      -4.0      1.525      1.571
REMARK  3 active torsions:
REMARK  status: ('A' for Active; 'I' for Inactive)
REMARK    1  A    between atoms: C2_2  and  C6_6 
REMARK    2  A    between atoms: C3_3  and  C5_5 
REMARK    3  A    between atoms: C3_3  and  O10_10 
ROOT
HETATM    1  C4  UNL     1     -35.440  17.249  -3.487  1.00 20.00     0.033 A 
HETATM    2  C5  UNL     1     -36.385  16.158  -3.067  1.00 20.00     0.101 A 
HETATM    3  C6  UNL     1     -34.934  16.118  -2.622  1.00 20.00     0.023 A 
HETATM    4  C7  UNL     1     -34.637  16.419  -1.177  1.00 20.00     0.023 C 
ENDROOT
BRANCH   2   5
HETATM    5  C3  UNL     1     -36.901  15.225  -4.078  1.00 20.00     0.263 C 
HETATM    6  O9  UNL     1     -37.369  14.123  -3.820  1.00 20.00    -0.265 OA
BRANCH   5   7
HETATM    7  O10 UNL     1     -36.772  15.778  -5.317  1.00 20.00    -0.326 OA
HETATM    8  C8  UNL     1     -36.189  14.931  -6.312  1.00 20.00     0.213 C 
ENDBRANCH   5   7
ENDBRANCH   2   5
BRANCH   3   9
HETATM    9  C2  UNL     1     -34.028  15.154  -3.259  1.00 20.00     0.093 C 
HETATM   10  C1  UNL     1     -33.015  15.458  -4.078  1.00 20.00     0.052 C 
HETATM   11  F11 UNL     1     -34.236  13.842  -2.992  1.00 20.00    -0.211 F 
ENDBRANCH   3   9
TORSDOF 3
ENDMDL
MODEL 6
REMARK VINA RESULT:      -4.0      2.083      2.719
REMARK  3 active torsions:
REMARK  status: ('A' for Active; 'I' for Inactive)
REMARK    1  A    between atoms: C2_2  and  C6_6 
REMARK    2  A    between atoms: C3_3  and  C5_5 
REMARK    3  A    between atoms: C3_3  and  O10_10 
ROOT
HETATM    1  C4  UNL     1     -34.391  16.012  -3.592  1.00 20.00     0.033 A 
HETATM    2  C5  UNL     1     -35.399  14.961  -3.215  1.00 20.00     0.101 A 
HETATM    3  C6  UNL     1     -34.268  14.620  -4.170  1.00 20.00     0.023 A 
HETATM    4  C7  UNL     1     -33.159  13.742  -3.654  1.00 20.00     0.023 C 
ENDROOT
BRANCH   2   5
HETATM    5  C3  UNL     1     -36.784  15.092  -3.687  1.00 20.00     0.263 C 
HETATM    6  O9  UNL     1     -37.568  14.156  -3.781  1.00 20.00    -0.265 OA
BRANCH   5   7
HETATM    7  O10 UNL     1     -37.040  16.395  -3.994  1.00 20.00    -0.326 OA
HETATM    8  C8  UNL     1     -37.704  16.614  -5.243  1.00 20.00     0.213 C 
ENDBRANCH   5   7
ENDBRANCH   2   5
BRANCH   3   9
HETATM    9  C2  UNL     1     -34.573  14.468  -5.597  1.00 20.00     0.093 C 
HETATM   10  C1  UNL     1     -34.325  15.374  -6.549  1.00 20.00     0.052 C 
HETATM   11  F11 UNL     1     -35.156  13.308  -5.984  1.00 20.00    -0.211 F 
ENDBRANCH   3   9
TORSDOF 3
ENDMDL
MODEL 7
REMARK VINA RESULT:      -3.9      2.145      3.831
REMARK  3 active torsions:
REMARK  status: ('A' for Active; 'I' for Inactive)
REMARK    1  A    between atoms: C2_2  and  C6_6 
REMARK    2  A    between atoms: C3_3  and  C5_5 
REMARK    3  A    between atoms: C3_3  and  O10_10 
ROOT
HETATM    1  C4  UNL     1     -35.025  16.593  -5.482  1.00 20.00     0.033 A 
HETATM    2  C5  UNL     1     -33.687  15.934  -5.289  1.00 20.00     0.101 A 
HETATM    3  C6  UNL     1     -34.869  15.121  -5.789  1.00 20.00     0.023 A 
HETATM    4  C7  UNL     1     -34.867  14.703  -7.236  1.00 20.00     0.023 C 
ENDROOT
BRANCH   2   5
HETATM    5  C3  UNL     1     -33.162  15.760  -3.928  1.00 20.00     0.263 C 
HETATM    6  O9  UNL     1     -32.413  14.852  -3.593  1.00 20.00    -0.265 OA
BRANCH   5   7
HETATM    7  O10 UNL     1     -33.639  16.753  -3.125  1.00 20.00    -0.326 OA
HETATM    8  C8  UNL     1     -34.267  16.318  -1.915  1.00 20.00     0.213 C 
ENDBRANCH   5   7
ENDBRANCH   2   5
BRANCH   3   9
HETATM    9  C2  UNL     1     -35.518  14.181  -4.868  1.00 20.00     0.093 C 
HETATM   10  C1  UNL     1     -36.623  14.426  -4.154  1.00 20.00     0.052 C 
HETATM   11  F11 UNL     1     -34.950  12.960  -4.729  1.00 20.00    -0.211 F 
ENDBRANCH   3   9
TORSDOF 3
ENDMDL
MODEL 8
REMARK VINA RESULT:      -3.9     11.938     12.849
REMARK  3 active torsions:
REMARK  status: ('A' for Active; 'I' for Inactive)
REMARK    1  A    between atoms: C2_2  and  C6_6 
REMARK    2  A    between atoms: C3_3  and  C5_5 
REMARK    3  A    between atoms: C3_3  and  O10_10 
ROOT
HETATM    1  C4  UNL     1     -35.332   6.180   3.873  1.00 20.00     0.033 A 
HETATM    2  C5  UNL     1     -34.087   5.460   3.432  1.00 20.00     0.101 A 
HETATM    3  C6  UNL     1     -34.713   5.138   4.778  1.00 20.00     0.023 A 
HETATM    4  C7  UNL     1     -35.426   3.820   4.920  1.00 20.00     0.023 C 
ENDROOT
BRANCH   2   5
HETATM    5  C3  UNL     1     -32.823   6.203   3.335  1.00 20.00     0.263 C 
HETATM    6  O9  UNL     1     -31.719   5.705   3.513  1.00 20.00    -0.265 OA
BRANCH   5   7
HETATM    7  O10 UNL     1     -33.083   7.505   3.024  1.00 20.00    -0.326 OA
HETATM    8  C8  UNL     1     -32.122   8.137   2.173  1.00 20.00     0.213 C 
ENDBRANCH   5   7
ENDBRANCH   2   5
BRANCH   3   9
HETATM    9  C2  UNL     1     -34.056   5.628   5.996  1.00 20.00     0.093 C 
HETATM   10  C1  UNL     1     -33.928   6.912   6.350  1.00 20.00     0.052 C 
HETATM   11  F11 UNL     1     -33.536   4.700   6.833  1.00 20.00    -0.211 F 
ENDBRANCH   3   9
TORSDOF 3
ENDMDL
MODEL 9
REMARK VINA RESULT:      -3.9      1.205      2.222
REMARK  3 active torsions:
REMARK  status: ('A' for Active; 'I' for Inactive)
REMARK    1  A    between atoms: C2_2  and  C6_6 
REMARK    2  A    between atoms: C3_3  and  C5_5 
REMARK    3  A    between atoms: C3_3  and  O10_10 
ROOT
HETATM    1  C4  UNL     1     -32.903  15.045  -3.687  1.00 20.00     0.033 A 
HETATM    2  C5  UNL     1     -33.862  14.895  -4.836  1.00 20.00     0.101 A 
HETATM    3  C6  UNL     1     -33.970  16.093  -3.908  1.00 20.00     0.023 A 
HETATM    4  C7  UNL     1     -33.537  17.432  -4.444  1.00 20.00     0.023 C 
ENDROOT
BRANCH   2   5
HETATM    5  C3  UNL     1     -34.856  13.813  -4.805  1.00 20.00     0.263 C 
HETATM    6  O9  UNL     1     -34.782  12.834  -4.074  1.00 20.00    -0.265 OA
BRANCH   5   7
HETATM    7  O10 UNL     1     -35.845  14.077  -5.705  1.00 20.00    -0.326 OA
HETATM    8  C8  UNL     1     -35.402  14.444  -7.016  1.00 20.00     0.213 C 
ENDBRANCH   5   7
ENDBRANCH   2   5
BRANCH   3   9
HETATM    9  C2  UNL     1     -35.068  16.134  -2.935  1.00 20.00     0.093 C 
HETATM   10  C1  UNL     1     -36.253  16.725  -3.121  1.00 20.00     0.052 C 
HETATM   11  F11 UNL     1     -34.863  15.518  -1.747  1.00 20.00    -0.211 F 
ENDBRANCH   3   9
TORSDOF 3
ENDMDL
