MODEL 1
REMARK VINA RESULT:      -4.8      0.000      0.000
REMARK  1 active torsions:
REMARK  status: ('A' for Active; 'I' for Inactive)
REMARK    1  A    between atoms: C3_3  and  C9_9 
ROOT
HETATM    1  C1  UNL     1     -34.815  16.873  -6.016  1.00 20.00    -0.030 C 
HETATM    2  C2  UNL     1     -33.732  17.149  -5.260  1.00 20.00    -0.029 C 
HETATM    3  C4  UNL     1     -35.467  15.507  -6.094  1.00 20.00     0.032 C 
HETATM    4  C5  UNL     1     -33.049  16.143  -4.350  1.00 20.00     0.044 C 
HETATM    5  C6  UNL     1     -34.762  13.143  -4.829  1.00 20.00     0.007 C 
HETATM    6  C7  UNL     1     -33.592  13.514  -3.859  1.00 20.00     0.018 C 
HETATM    7  C8  UNL     1     -34.494  14.517  -5.484  1.00 20.00     0.005 C 
HETATM    8  C9  UNL     1     -34.035  15.005  -4.065  1.00 20.00     0.027 C 
ENDROOT
BRANCH   8   9
HETATM    9  C3  UNL     1     -35.120  15.456  -3.017  1.00 20.00     0.132 C 
HETATM   10  C10 UNL     1     -34.625  16.215  -1.816  1.00 20.00     0.091 C 
HETATM   11  O11 UNL     1     -36.313  15.202  -3.173  1.00 20.00    -0.298 OA
ENDBRANCH   8   9
TORSDOF 1
ENDMDL
MODEL 2
REMARK VINA RESULT:      -4.6      1.381      2.699
REMARK  1 active torsions:
REMARK  status: ('A' for Active; 'I' for Inactive)
REMARK    1  A    between atoms: C3_3  and  C9_9 
ROOT
HETATM    1  C1  UNL     1     -35.219  16.090  -2.360  1.00 20.00    -0.030 C 
HETATM    2  C2  UNL     1     -33.930  16.300  -2.696  1.00 20.00    -0.029 C 
HETATM    3  C4  UNL     1     -36.275  15.590  -3.325  1.00 20.00     0.032 C 
HETATM    4  C5  UNL     1     -33.352  16.022  -4.073  1.00 20.00     0.044 C 
HETATM    5  C6  UNL     1     -36.046  14.955  -6.014  1.00 20.00     0.007 C 
HETATM    6  C7  UNL     1     -34.524  15.079  -6.351  1.00 20.00     0.018 C 
HETATM    7  C8  UNL     1     -35.699  15.727  -4.721  1.00 20.00     0.005 C 
HETATM    8  C9  UNL     1     -34.287  15.049  -4.799  1.00 20.00     0.027 C 
ENDROOT
BRANCH   8   9
HETATM    9  C3  UNL     1     -34.104  13.584  -4.251  1.00 20.00     0.132 C 
HETATM   10  C10 UNL     1     -32.840  13.302  -3.486  1.00 20.00     0.091 C 
HETATM   11  O11 UNL     1     -34.953  12.715  -4.437  1.00 20.00    -0.298 OA
ENDBRANCH   8   9
TORSDOF 1
ENDMDL
MODEL 3
REMARK VINA RESULT:      -4.6      1.474      2.969
REMARK  1 active torsions:
REMARK  status: ('A' for Active; 'I' for Inactive)
REMARK    1  A    between atoms: C3_3  and  C9_9 
ROOT
HETATM    1  C1  UNL     1     -33.138  15.285  -3.773  1.00 20.00    -0.030 C 
HETATM    2  C2  UNL     1     -33.700  14.061  -3.698  1.00 20.00    -0.029 C 
HETATM    3  C4  UNL     1     -33.297  16.218  -4.958  1.00 20.00     0.032 C 
HETATM    4  C5  UNL     1     -34.604  13.471  -4.766  1.00 20.00     0.044 C 
HETATM    5  C6  UNL     1     -34.692  15.840  -7.324  1.00 20.00     0.007 C 
HETATM    6  C7  UNL     1     -35.440  14.476  -7.161  1.00 20.00     0.018 C 
HETATM    7  C8  UNL     1     -33.864  15.394  -6.097  1.00 20.00     0.005 C 
HETATM    8  C9  UNL     1     -35.144  14.618  -5.627  1.00 20.00     0.027 C 
ENDROOT
BRANCH   8   9
HETATM    9  C3  UNL     1     -36.283  15.397  -4.867  1.00 20.00     0.132 C 
HETATM   10  C10 UNL     1     -37.220  14.574  -4.028  1.00 20.00     0.091 C 
HETATM   11  O11 UNL     1     -36.397  16.619  -4.955  1.00 20.00    -0.298 OA
ENDBRANCH   8   9
TORSDOF 1
ENDMDL
MODEL 4
REMARK VINA RESULT:      -4.6      1.647      3.149
REMARK  1 active torsions:
REMARK  status: ('A' for Active; 'I' for Inactive)
REMARK    1  A    between atoms: C3_3  and  C9_9 
ROOT
HETATM    1  C1  UNL     1     -35.446  16.839  -2.608  1.00 20.00    -0.030 C 
HETATM    2  C2  UNL     1     -36.352  16.665  -3.593  1.00 20.00    -0.029 C 
HETATM    3  C4  UNL     1     -34.253  15.931  -2.386  1.00 20.00     0.032 C 
HETATM    4  C5  UNL     1     -36.274  15.566  -4.638  1.00 20.00     0.044 C 
HETATM    5  C6  UNL     1     -33.475  13.668  -3.785  1.00 20.00     0.007 C 
HETATM    6  C7  UNL     1     -34.459  13.560  -4.997  1.00 20.00     0.018 C 
HETATM    7  C8  UNL     1     -34.491  14.678  -3.206  1.00 20.00     0.005 C 
HETATM    8  C9  UNL     1     -34.831  15.054  -4.691  1.00 20.00     0.027 C 
ENDROOT
BRANCH   8   9
HETATM    9  C3  UNL     1     -33.906  16.070  -5.461  1.00 20.00     0.132 C 
HETATM   10  C10 UNL     1     -34.426  16.598  -6.770  1.00 20.00     0.091 C 
HETATM   11  O11 UNL     1     -32.815  16.416  -5.012  1.00 20.00    -0.298 OA
ENDBRANCH   8   9
TORSDOF 1
ENDMDL
MODEL 5
REMARK VINA RESULT:      -4.6      1.583      2.730
REMARK  1 active torsions:
REMARK  status: ('A' for Active; 'I' for Inactive)
REMARK    1  A    between atoms: C3_3  and  C9_9 
ROOT
HETATM    1  C1  UNL     1     -36.708  15.525  -3.375  1.00 20.00    -0.030 C 
HETATM    2  C2  UNL     1     -35.525  16.149  -3.196  1.00 20.00    -0.029 C 
HETATM    3  C4  UNL     1     -37.101  14.807  -4.651  1.00 20.00     0.032 C 
HETATM    4  C5  UNL     1     -34.411  16.177  -4.228  1.00 20.00     0.044 C 
HETATM    5  C6  UNL     1     -35.680  14.500  -7.012  1.00 20.00     0.007 C 
HETATM    6  C7  UNL     1     -34.267  15.113  -6.738  1.00 20.00     0.018 C 
HETATM    7  C8  UNL     1     -36.113  15.231  -5.720  1.00 20.00     0.005 C 
HETATM    8  C9  UNL     1     -34.642  15.028  -5.216  1.00 20.00     0.027 C 
ENDROOT
BRANCH   8   9
HETATM    9  C3  UNL     1     -34.229  13.650  -4.575  1.00 20.00     0.132 C 
HETATM   10  C10 UNL     1     -33.055  13.666  -3.635  1.00 20.00     0.091 C 
HETATM   11  O11 UNL     1     -34.839  12.612  -4.828  1.00 20.00    -0.298 OA
ENDBRANCH   8   9
TORSDOF 1
ENDMDL
MODEL 6
REMARK VINA RESULT:      -4.4     11.577     13.317
REMARK  1 active torsions:
REMARK  status: ('A' for Active; 'I' for Inactive)
REMARK    1  A    between atoms: C3_3  and  C9_9 
ROOT
HETATM    1  C1  UNL     1     -41.712   7.288  -2.313  1.00 20.00    -0.030 C 
HETATM    2  C2  UNL     1     -42.620   6.633  -3.065  1.00 20.00    -0.029 C 
HETATM    3  C4  UNL     1     -41.391   6.935  -0.874  1.00 20.00     0.032 C 
HETATM    4  C5  UNL     1     -43.411   5.426  -2.588  1.00 20.00     0.044 C 
HETATM    5  C6  UNL     1     -42.466   4.951   0.737  1.00 20.00     0.007 C 
HETATM    6  C7  UNL     1     -43.417   4.123  -0.190  1.00 20.00     0.018 C 
HETATM    7  C8  UNL     1     -42.490   6.010  -0.390  1.00 20.00     0.005 C 
HETATM    8  C9  UNL     1     -42.678   4.815  -1.389  1.00 20.00     0.027 C 
ENDROOT
BRANCH   8   9
HETATM    9  C3  UNL     1     -41.416   4.000  -1.863  1.00 20.00     0.132 C 
HETATM   10  C10 UNL     1     -41.644   2.958  -2.923  1.00 20.00     0.091 C 
HETATM   11  O11 UNL     1     -40.299   4.209  -1.391  1.00 20.00    -0.298 OA
ENDBRANCH   8   9
TORSDOF 1
ENDMDL
MODEL 7
REMARK VINA RESULT:      -4.4      1.523      3.254
REMARK  1 active torsions:
REMARK  status: ('A' for Active; 'I' for Inactive)
REMARK    1  A    between atoms: C3_3  and  C9_9 
ROOT
HETATM    1  C1  UNL     1     -35.485  13.807  -4.281  1.00 20.00    -0.030 C 
HETATM    2  C2  UNL     1     -34.141  13.760  -4.393  1.00 20.00    -0.029 C 
HETATM    3  C4  UNL     1     -36.227  14.792  -3.399  1.00 20.00     0.032 C 
HETATM    4  C5  UNL     1     -33.193  14.715  -3.687  1.00 20.00     0.044 C 
HETATM    5  C6  UNL     1     -35.226  16.769  -1.733  1.00 20.00     0.007 C 
HETATM    6  C7  UNL     1     -33.680  16.784  -1.977  1.00 20.00     0.018 C 
HETATM    7  C8  UNL     1     -35.204  15.406  -2.464  1.00 20.00     0.005 C 
HETATM    8  C9  UNL     1     -33.984  15.962  -3.279  1.00 20.00     0.027 C 
ENDROOT
BRANCH   8   9
HETATM    9  C3  UNL     1     -34.245  16.890  -4.524  1.00 20.00     0.132 C 
HETATM   10  C10 UNL     1     -33.258  16.798  -5.655  1.00 20.00     0.091 C 
HETATM   11  O11 UNL     1     -35.211  17.650  -4.570  1.00 20.00    -0.298 OA
ENDBRANCH   8   9
TORSDOF 1
ENDMDL
MODEL 8
REMARK VINA RESULT:      -4.4      1.103      3.203
REMARK  1 active torsions:
REMARK  status: ('A' for Active; 'I' for Inactive)
REMARK    1  A    between atoms: C3_3  and  C9_9 
ROOT
HETATM    1  C1  UNL     1     -33.410  13.652  -3.812  1.00 20.00    -0.030 C 
HETATM    2  C2  UNL     1     -34.364  13.286  -4.692  1.00 20.00    -0.029 C 
HETATM    3  C4  UNL     1     -32.952  15.082  -3.605  1.00 20.00     0.032 C 
HETATM    4  C5  UNL     1     -35.140  14.260  -5.562  1.00 20.00     0.044 C 
HETATM    5  C6  UNL     1     -33.795  17.403  -4.867  1.00 20.00     0.007 C 
HETATM    6  C7  UNL     1     -34.988  16.976  -5.785  1.00 20.00     0.018 C 
HETATM    7  C8  UNL     1     -33.486  15.891  -4.771  1.00 20.00     0.005 C 
HETATM    8  C9  UNL     1     -35.029  15.655  -4.938  1.00 20.00     0.027 C 
ENDROOT
BRANCH   8   9
HETATM    9  C3  UNL     1     -35.969  15.781  -3.680  1.00 20.00     0.132 C 
HETATM   10  C10 UNL     1     -37.282  15.052  -3.743  1.00 20.00     0.091 C 
HETATM   11  O11 UNL     1     -35.643  16.441  -2.695  1.00 20.00    -0.298 OA
ENDBRANCH   8   9
TORSDOF 1
ENDMDL
MODEL 9
REMARK VINA RESULT:      -4.3      1.521      3.092
REMARK  1 active torsions:
REMARK  status: ('A' for Active; 'I' for Inactive)
REMARK    1  A    between atoms: C3_3  and  C9_9 
ROOT
HETATM    1  C1  UNL     1     -34.464  17.074  -5.832  1.00 20.00    -0.030 C 
HETATM    2  C2  UNL     1     -35.560  16.322  -5.603  1.00 20.00    -0.029 C 
HETATM    3  C4  UNL     1     -33.518  17.542  -4.744  1.00 20.00     0.032 C 
HETATM    4  C5  UNL     1     -35.969  15.804  -4.235  1.00 20.00     0.044 C 
HETATM    5  C6  UNL     1     -33.624  17.111  -2.007  1.00 20.00     0.007 C 
HETATM    6  C7  UNL     1     -34.822  16.131  -1.780  1.00 20.00     0.018 C 
HETATM    7  C8  UNL     1     -34.219  17.318  -3.419  1.00 20.00     0.005 C 
HETATM    8  C9  UNL     1     -34.740  15.841  -3.320  1.00 20.00     0.027 C 
ENDROOT
BRANCH   8   9
HETATM    9  C3  UNL     1     -33.760  14.654  -3.653  1.00 20.00     0.132 C 
HETATM   10  C10 UNL     1     -34.392  13.350  -4.057  1.00 20.00     0.091 C 
HETATM   11  O11 UNL     1     -32.539  14.787  -3.588  1.00 20.00    -0.298 OA
ENDBRANCH   8   9
TORSDOF 1
ENDMDL
