MODEL 1
REMARK VINA RESULT:      -4.5      0.000      0.000
REMARK  2 active torsions:
REMARK  status: ('A' for Active; 'I' for Inactive)
REMARK    1  A    between atoms: C3_3  and  C6_6 
REMARK    2  A    between atoms: C3_3  and  O10_10 
ROOT
HETATM    1  C1  UNL     1     -35.219   4.411   5.058  1.00 20.00    -0.002 C 
HETATM    2  C2  UNL     1     -35.182   5.029   6.244  1.00 20.00     0.130 C 
HETATM    3  C4  UNL     1     -34.430   4.906   3.888  1.00 20.00     0.046 C 
HETATM    4  C5  UNL     1     -33.395   6.421   5.594  1.00 20.00     0.189 C 
HETATM    5  C6  UNL     1     -33.899   6.315   4.156  1.00 20.00     0.113 C 
HETATM    6  O9  UNL     1     -34.414   6.120   6.557  1.00 20.00    -0.362 OA
ENDROOT
BRANCH   5   7
HETATM    7  C3  UNL     1     -32.796   6.653   3.202  1.00 20.00     0.265 C 
HETATM    8  O8  UNL     1     -31.951   5.854   2.822  1.00 20.00    -0.265 OA
BRANCH   7   9
HETATM    9  O10 UNL     1     -32.890   7.964   2.842  1.00 20.00    -0.326 OA
HETATM   10  C7  UNL     1     -32.000   8.383   1.803  1.00 20.00     0.213 C 
ENDBRANCH   7   9
ENDBRANCH   5   7
TORSDOF 2
ENDMDL
MODEL 2
REMARK VINA RESULT:      -4.4      1.373      1.869
REMARK  2 active torsions:
REMARK  status: ('A' for Active; 'I' for Inactive)
REMARK    1  A    between atoms: C3_3  and  C6_6 
REMARK    2  A    between atoms: C3_3  and  O10_10 
ROOT
HETATM    1  C1  UNL     1     -34.570   5.668   6.029  1.00 20.00    -0.002 C 
HETATM    2  C2  UNL     1     -35.218   4.848   5.193  1.00 20.00     0.130 C 
HETATM    3  C4  UNL     1     -33.437   6.527   5.567  1.00 20.00     0.046 C 
HETATM    4  C5  UNL     1     -34.157   5.753   3.295  1.00 20.00     0.189 C 
HETATM    5  C6  UNL     1     -32.959   6.086   4.182  1.00 20.00     0.113 C 
HETATM    6  O9  UNL     1     -34.983   4.721   3.849  1.00 20.00    -0.362 OA
ENDROOT
BRANCH   5   7
HETATM    7  C3  UNL     1     -32.132   7.157   3.544  1.00 20.00     0.265 C 
HETATM    8  O8  UNL     1     -31.233   7.758   4.115  1.00 20.00    -0.265 OA
BRANCH   7   9
HETATM    9  O10 UNL     1     -32.540   7.344   2.257  1.00 20.00    -0.326 OA
HETATM   10  C7  UNL     1     -32.081   8.547   1.634  1.00 20.00     0.213 C 
ENDBRANCH   7   9
ENDBRANCH   5   7
TORSDOF 2
ENDMDL
MODEL 3
REMARK VINA RESULT:      -4.1     11.559     12.341
REMARK  2 active torsions:
REMARK  status: ('A' for Active; 'I' for Inactive)
REMARK    1  A    between atoms: C3_3  and  C6_6 
REMARK    2  A    between atoms: C3_3  and  O10_10 
ROOT
HETATM    1  C1  UNL     1     -33.626  16.462  -2.403  1.00 20.00    -0.002 C 
HETATM    2  C2  UNL     1     -34.844  16.753  -1.930  1.00 20.00     0.130 C 
HETATM    3  C4  UNL     1     -33.413  15.381  -3.414  1.00 20.00     0.046 C 
HETATM    4  C5  UNL     1     -35.917  15.380  -3.516  1.00 20.00     0.189 C 
HETATM    5  C6  UNL     1     -34.662  14.508  -3.538  1.00 20.00     0.113 C 
HETATM    6  O9  UNL     1     -36.019  16.167  -2.321  1.00 20.00    -0.362 OA
ENDROOT
BRANCH   5   7
HETATM    7  C3  UNL     1     -34.621  13.704  -4.799  1.00 20.00     0.265 C 
HETATM    8  O8  UNL     1     -34.831  12.500  -4.850  1.00 20.00    -0.265 OA
BRANCH   7   9
HETATM    9  O10 UNL     1     -34.315  14.517  -5.849  1.00 20.00    -0.326 OA
HETATM   10  C7  UNL     1     -35.152  14.377  -7.001  1.00 20.00     0.213 C 
ENDBRANCH   7   9
ENDBRANCH   5   7
TORSDOF 2
ENDMDL
MODEL 4
REMARK VINA RESULT:      -4.1     11.364     12.223
REMARK  2 active torsions:
REMARK  status: ('A' for Active; 'I' for Inactive)
REMARK    1  A    between atoms: C3_3  and  C6_6 
REMARK    2  A    between atoms: C3_3  and  O10_10 
ROOT
HETATM    1  C1  UNL     1     -35.964  14.147  -4.171  1.00 20.00    -0.002 C 
HETATM    2  C2  UNL     1     -34.984  13.263  -4.394  1.00 20.00     0.130 C 
HETATM    3  C4  UNL     1     -35.703  15.457  -3.497  1.00 20.00     0.046 C 
HETATM    4  C5  UNL     1     -33.303  14.793  -3.774  1.00 20.00     0.189 C 
HETATM    5  C6  UNL     1     -34.319  15.460  -2.848  1.00 20.00     0.113 C 
HETATM    6  O9  UNL     1     -33.658  13.442  -4.098  1.00 20.00    -0.362 OA
ENDROOT
BRANCH   5   7
HETATM    7  C3  UNL     1     -33.885  16.858  -2.537  1.00 20.00     0.265 C 
HETATM    8  O8  UNL     1     -33.778  17.743  -3.375  1.00 20.00    -0.265 OA
BRANCH   7   9
HETATM    9  O10 UNL     1     -33.636  16.973  -1.202  1.00 20.00    -0.326 OA
HETATM   10  C7  UNL     1     -34.793  17.021  -0.361  1.00 20.00     0.213 C 
ENDBRANCH   7   9
ENDBRANCH   5   7
TORSDOF 2
ENDMDL
MODEL 5
REMARK VINA RESULT:      -4.0     11.555     13.178
REMARK  2 active torsions:
REMARK  status: ('A' for Active; 'I' for Inactive)
REMARK    1  A    between atoms: C3_3  and  C6_6 
REMARK    2  A    between atoms: C3_3  and  O10_10 
ROOT
HETATM    1  C1  UNL     1     -33.582  16.816  -3.733  1.00 20.00    -0.002 C 
HETATM    2  C2  UNL     1     -33.366  17.095  -5.024  1.00 20.00     0.130 C 
HETATM    3  C4  UNL     1     -34.444  15.669  -3.309  1.00 20.00     0.046 C 
HETATM    4  C5  UNL     1     -34.374  15.092  -5.747  1.00 20.00     0.189 C 
HETATM    5  C6  UNL     1     -35.250  15.137  -4.496  1.00 20.00     0.113 C 
HETATM    6  O9  UNL     1     -33.839  16.377  -6.091  1.00 20.00    -0.362 OA
ENDROOT
BRANCH   5   7
HETATM    7  C3  UNL     1     -35.787  13.772  -4.198  1.00 20.00     0.265 C 
HETATM    8  O8  UNL     1     -35.146  12.740  -4.337  1.00 20.00    -0.265 OA
BRANCH   7   9
HETATM    9  O10 UNL     1     -37.074  13.873  -3.762  1.00 20.00    -0.326 OA
HETATM   10  C7  UNL     1     -37.868  14.872  -4.411  1.00 20.00     0.213 C 
ENDBRANCH   7   9
ENDBRANCH   5   7
TORSDOF 2
ENDMDL
MODEL 6
REMARK VINA RESULT:      -4.0     11.365     12.302
REMARK  2 active torsions:
REMARK  status: ('A' for Active; 'I' for Inactive)
REMARK    1  A    between atoms: C3_3  and  C6_6 
REMARK    2  A    between atoms: C3_3  and  O10_10 
ROOT
HETATM    1  C1  UNL     1     -35.933  14.028  -4.239  1.00 20.00    -0.002 C 
HETATM    2  C2  UNL     1     -34.941  13.170  -4.503  1.00 20.00     0.130 C 
HETATM    3  C4  UNL     1     -35.701  15.281  -3.456  1.00 20.00     0.046 C 
HETATM    4  C5  UNL     1     -33.289  14.654  -3.715  1.00 20.00     0.189 C 
HETATM    5  C6  UNL     1     -34.335  15.240  -2.769  1.00 20.00     0.113 C 
HETATM    6  O9  UNL     1     -33.625  13.331  -4.157  1.00 20.00    -0.362 OA
ENDROOT
BRANCH   5   7
HETATM    7  C3  UNL     1     -33.922  16.611  -2.335  1.00 20.00     0.265 C 
HETATM    8  O8  UNL     1     -33.832  16.960  -1.166  1.00 20.00    -0.265 OA
BRANCH   7   9
HETATM    9  O10 UNL     1     -33.672  17.381  -3.431  1.00 20.00    -0.326 OA
HETATM   10  C7  UNL     1     -33.763  18.794  -3.225  1.00 20.00     0.213 C 
ENDBRANCH   7   9
ENDBRANCH   5   7
TORSDOF 2
ENDMDL
MODEL 7
REMARK VINA RESULT:      -4.0     11.625     12.703
REMARK  2 active torsions:
REMARK  status: ('A' for Active; 'I' for Inactive)
REMARK    1  A    between atoms: C3_3  and  C6_6 
REMARK    2  A    between atoms: C3_3  and  O10_10 
ROOT
HETATM    1  C1  UNL     1     -33.625  13.665  -3.948  1.00 20.00    -0.002 C 
HETATM    2  C2  UNL     1     -33.049  14.830  -3.630  1.00 20.00     0.130 C 
HETATM    3  C4  UNL     1     -35.105  13.544  -4.132  1.00 20.00     0.046 C 
HETATM    4  C5  UNL     1     -35.037  16.045  -3.978  1.00 20.00     0.189 C 
HETATM    5  C6  UNL     1     -35.816  14.787  -3.594  1.00 20.00     0.113 C 
HETATM    6  O9  UNL     1     -33.691  16.031  -3.483  1.00 20.00    -0.362 OA
ENDROOT
BRANCH   5   7
HETATM    7  C3  UNL     1     -37.212  14.868  -4.127  1.00 20.00     0.265 C 
HETATM    8  O8  UNL     1     -38.141  14.187  -3.715  1.00 20.00    -0.265 OA
BRANCH   7   9
HETATM    9  O10 UNL     1     -37.269  15.800  -5.120  1.00 20.00    -0.326 OA
HETATM   10  C7  UNL     1     -37.896  15.370  -6.332  1.00 20.00     0.213 C 
ENDBRANCH   7   9
ENDBRANCH   5   7
TORSDOF 2
ENDMDL
MODEL 8
REMARK VINA RESULT:      -3.9     11.432     12.156
REMARK  2 active torsions:
REMARK  status: ('A' for Active; 'I' for Inactive)
REMARK    1  A    between atoms: C3_3  and  C6_6 
REMARK    2  A    between atoms: C3_3  and  O10_10 
ROOT
HETATM    1  C1  UNL     1     -33.832  13.563  -4.149  1.00 20.00    -0.002 C 
HETATM    2  C2  UNL     1     -35.119  13.395  -4.476  1.00 20.00     0.130 C 
HETATM    3  C4  UNL     1     -33.368  14.747  -3.362  1.00 20.00     0.046 C 
HETATM    4  C5  UNL     1     -35.824  15.161  -3.083  1.00 20.00     0.189 C 
HETATM    5  C6  UNL     1     -34.461  15.815  -3.305  1.00 20.00     0.113 C 
HETATM    6  O9  UNL     1     -36.154  14.216  -4.110  1.00 20.00    -0.362 OA
ENDROOT
BRANCH   5   7
HETATM    7  C3  UNL     1     -34.182  16.797  -2.211  1.00 20.00     0.265 C 
HETATM    8  O8  UNL     1     -33.666  17.892  -2.390  1.00 20.00    -0.265 OA
BRANCH   7   9
HETATM    9  O10 UNL     1     -34.584  16.278  -1.017  1.00 20.00    -0.326 OA
HETATM   10  C7  UNL     1     -34.849  17.235   0.014  1.00 20.00     0.213 C 
ENDBRANCH   7   9
ENDBRANCH   5   7
TORSDOF 2
ENDMDL
MODEL 9
REMARK VINA RESULT:      -3.9     10.244     11.084
REMARK  2 active torsions:
REMARK  status: ('A' for Active; 'I' for Inactive)
REMARK    1  A    between atoms: C3_3  and  C6_6 
REMARK    2  A    between atoms: C3_3  and  O10_10 
ROOT
HETATM    1  C1  UNL     1     -40.765   6.043  -0.440  1.00 20.00    -0.002 C 
HETATM    2  C2  UNL     1     -41.251   7.224  -0.838  1.00 20.00     0.130 C 
HETATM    3  C4  UNL     1     -41.146   4.766  -1.120  1.00 20.00     0.046 C 
HETATM    4  C5  UNL     1     -42.203   6.308  -2.789  1.00 20.00     0.189 C 
HETATM    5  C6  UNL     1     -42.349   4.986  -2.038  1.00 20.00     0.113 C 
HETATM    6  O9  UNL     1     -42.084   7.432  -1.906  1.00 20.00    -0.362 OA
ENDROOT
BRANCH   5   7
HETATM    7  C3  UNL     1     -42.483   3.857  -3.012  1.00 20.00     0.265 C 
HETATM    8  O8  UNL     1     -43.417   3.733  -3.791  1.00 20.00    -0.265 OA
BRANCH   7   9
HETATM    9  O10 UNL     1     -41.418   3.016  -2.884  1.00 20.00    -0.326 OA
HETATM   10  C7  UNL     1     -41.384   1.922  -3.807  1.00 20.00     0.213 C 
ENDBRANCH   7   9
ENDBRANCH   5   7
TORSDOF 2
ENDMDL
