MODEL 1
REMARK VINA RESULT:      -5.2      0.000      0.000
REMARK  2 active torsions:
REMARK  status: ('A' for Active; 'I' for Inactive)
REMARK    1  A    between atoms: C2_2  and  C8_8 
REMARK    2  A    between atoms: C3_3  and  C7_7 
ROOT
HETATM    1  C1  UNL     1     -33.663   6.210   4.072  1.00 20.00    -0.062 A 
HETATM    2  C2  UNL     1     -33.772   6.021   5.369  1.00 20.00    -0.076 C 
HETATM    3  C4  UNL     1     -33.697   5.610   2.798  1.00 20.00     0.055 A 
HETATM    4  C7  UNL     1     -33.442   7.146   3.036  1.00 20.00     0.120 A 
HETATM    5  C9  UNL     1     -33.628   7.143   6.375  1.00 20.00     0.044 C 
ENDROOT
BRANCH   2   6
HETATM    6  C8  UNL     1     -34.052   4.663   5.978  1.00 20.00     0.014 A 
HETATM    7  C5  UNL     1     -35.354   4.484   6.650  1.00 20.00     0.010 A 
HETATM    8  C6  UNL     1     -35.086   3.836   5.326  1.00 20.00     0.010 A 
ENDBRANCH   2   6
BRANCH   4   9
HETATM    9  C3  UNL     1     -32.080   7.617   2.918  1.00 20.00     0.181 C 
HETATM   10  O10 UNL     1     -31.355   7.433   3.934  1.00 20.00    -0.647 OA
HETATM   11  O11 UNL     1     -31.799   8.150   1.808  1.00 20.00    -0.647 OA
ENDBRANCH   4   9
TORSDOF 2
ENDMDL
MODEL 2
REMARK VINA RESULT:      -4.9      2.142      4.563
REMARK  2 active torsions:
REMARK  status: ('A' for Active; 'I' for Inactive)
REMARK    1  A    between atoms: C2_2  and  C8_8 
REMARK    2  A    between atoms: C3_3  and  C7_7 
ROOT
HETATM    1  C1  UNL     1     -33.457   6.330   3.561  1.00 20.00    -0.062 A 
HETATM    2  C2  UNL     1     -32.617   7.254   3.148  1.00 20.00    -0.076 C 
HETATM    3  C4  UNL     1     -34.661   5.647   3.302  1.00 20.00     0.055 A 
HETATM    4  C7  UNL     1     -33.745   5.362   4.551  1.00 20.00     0.120 A 
HETATM    5  C9  UNL     1     -31.353   7.608   3.902  1.00 20.00     0.044 C 
ENDROOT
BRANCH   2   6
HETATM    6  C8  UNL     1     -32.836   8.052   1.880  1.00 20.00     0.014 A 
HETATM    7  C5  UNL     1     -32.503   9.489   1.925  1.00 20.00     0.010 A 
HETATM    8  C6  UNL     1     -31.632   8.530   1.172  1.00 20.00     0.010 A 
ENDBRANCH   2   6
BRANCH   4   9
HETATM    9  C3  UNL     1     -34.175   5.898   5.823  1.00 20.00     0.181 C 
HETATM   10  O10 UNL     1     -33.540   6.913   6.223  1.00 20.00    -0.647 OA
HETATM   11  O11 UNL     1     -35.130   5.275   6.363  1.00 20.00    -0.647 OA
ENDBRANCH   4   9
TORSDOF 2
ENDMDL
MODEL 3
REMARK VINA RESULT:      -4.9      2.673      4.632
REMARK  2 active torsions:
REMARK  status: ('A' for Active; 'I' for Inactive)
REMARK    1  A    between atoms: C2_2  and  C8_8 
REMARK    2  A    between atoms: C3_3  and  C7_7 
ROOT
HETATM    1  C1  UNL     1     -33.769   6.108   4.550  1.00 20.00    -0.062 A 
HETATM    2  C2  UNL     1     -33.311   6.031   3.319  1.00 20.00    -0.076 C 
HETATM    3  C4  UNL     1     -33.556   6.622   5.844  1.00 20.00     0.055 A 
HETATM    4  C7  UNL     1     -34.798   5.740   5.446  1.00 20.00     0.120 A 
HETATM    5  C9  UNL     1     -34.025   5.263   2.227  1.00 20.00     0.044 C 
ENDROOT
BRANCH   2   6
HETATM    6  C8  UNL     1     -32.027   6.701   2.879  1.00 20.00     0.014 A 
HETATM    7  C5  UNL     1     -32.145   8.033   2.253  1.00 20.00     0.010 A 
HETATM    8  C6  UNL     1     -31.597   7.891   3.640  1.00 20.00     0.010 A 
ENDBRANCH   2   6
BRANCH   4   9
HETATM    9  C3  UNL     1     -34.784   4.353   5.857  1.00 20.00     0.181 C 
HETATM   10  O10 UNL     1     -34.293   4.135   6.999  1.00 20.00    -0.647 OA
HETATM   11  O11 UNL     1     -35.266   3.547   5.014  1.00 20.00    -0.647 OA
ENDBRANCH   4   9
TORSDOF 2
ENDMDL
MODEL 4
REMARK VINA RESULT:      -4.9      1.291      2.219
REMARK  2 active torsions:
REMARK  status: ('A' for Active; 'I' for Inactive)
REMARK    1  A    between atoms: C2_2  and  C8_8 
REMARK    2  A    between atoms: C3_3  and  C7_7 
ROOT
HETATM    1  C1  UNL     1     -32.552   6.851   3.606  1.00 20.00    -0.062 A 
HETATM    2  C2  UNL     1     -33.653   6.160   3.807  1.00 20.00    -0.076 C 
HETATM    3  C4  UNL     1     -31.530   7.617   4.199  1.00 20.00     0.055 A 
HETATM    4  C7  UNL     1     -31.609   7.308   2.657  1.00 20.00     0.120 A 
HETATM    5  C9  UNL     1     -34.411   5.482   2.686  1.00 20.00     0.044 C 
ENDROOT
BRANCH   2   6
HETATM    6  C8  UNL     1     -34.267   5.979   5.179  1.00 20.00     0.014 A 
HETATM    7  C5  UNL     1     -35.213   4.859   5.349  1.00 20.00     0.010 A 
HETATM    8  C6  UNL     1     -33.843   4.794   5.952  1.00 20.00     0.010 A 
ENDBRANCH   2   6
BRANCH   4   9
HETATM    9  C3  UNL     1     -32.077   8.369   1.792  1.00 20.00     0.181 C 
HETATM   10  O10 UNL     1     -33.003   9.082   2.267  1.00 20.00    -0.647 OA
HETATM   11  O11 UNL     1     -31.493   8.437   0.676  1.00 20.00    -0.647 OA
ENDBRANCH   4   9
TORSDOF 2
ENDMDL
MODEL 5
REMARK VINA RESULT:      -4.8     11.499     12.882
REMARK  2 active torsions:
REMARK  status: ('A' for Active; 'I' for Inactive)
REMARK    1  A    between atoms: C2_2  and  C8_8 
REMARK    2  A    between atoms: C3_3  and  C7_7 
ROOT
HETATM    1  C1  UNL     1     -33.669  15.917  -3.093  1.00 20.00    -0.062 A 
HETATM    2  C2  UNL     1     -33.994  16.836  -2.210  1.00 20.00    -0.076 C 
HETATM    3  C4  UNL     1     -33.092  15.659  -4.352  1.00 20.00     0.055 A 
HETATM    4  C7  UNL     1     -33.663  14.538  -3.405  1.00 20.00     0.120 A 
HETATM    5  C9  UNL     1     -34.664  16.506  -0.894  1.00 20.00     0.044 C 
ENDROOT
BRANCH   2   6
HETATM    6  C8  UNL     1     -33.727  18.310  -2.428  1.00 20.00     0.014 A 
HETATM    7  C5  UNL     1     -34.580  19.263  -1.689  1.00 20.00     0.010 A 
HETATM    8  C6  UNL     1     -33.148  19.061  -1.296  1.00 20.00     0.010 A 
ENDBRANCH   2   6
BRANCH   4   9
HETATM    9  C3  UNL     1     -34.954  13.981  -3.743  1.00 20.00     0.181 C 
HETATM   10  O10 UNL     1     -34.928  12.820  -4.236  1.00 20.00    -0.647 OA
HETATM   11  O11 UNL     1     -35.936  14.735  -3.497  1.00 20.00    -0.647 OA
ENDBRANCH   4   9
TORSDOF 2
ENDMDL
MODEL 6
REMARK VINA RESULT:      -4.7     11.983     12.795
REMARK  2 active torsions:
REMARK  status: ('A' for Active; 'I' for Inactive)
REMARK    1  A    between atoms: C2_2  and  C8_8 
REMARK    2  A    between atoms: C3_3  and  C7_7 
ROOT
HETATM    1  C1  UNL     1     -34.308  16.309  -2.048  1.00 20.00    -0.062 A 
HETATM    2  C2  UNL     1     -34.166  15.450  -3.034  1.00 20.00    -0.076 C 
HETATM    3  C4  UNL     1     -35.197  16.877  -1.115  1.00 20.00     0.055 A 
HETATM    4  C7  UNL     1     -33.674  17.263  -1.221  1.00 20.00     0.120 A 
HETATM    5  C9  UNL     1     -32.847  15.229  -3.743  1.00 20.00     0.044 C 
ENDROOT
BRANCH   2   6
HETATM    6  C8  UNL     1     -35.308  14.604  -3.554  1.00 20.00     0.014 A 
HETATM    7  C5  UNL     1     -35.466  14.515  -5.020  1.00 20.00     0.010 A 
HETATM    8  C6  UNL     1     -34.953  13.344  -4.238  1.00 20.00     0.010 A 
ENDBRANCH   2   6
BRANCH   4   9
HETATM    9  C3  UNL     1     -33.352  18.516  -1.868  1.00 20.00     0.181 C 
HETATM   10  O10 UNL     1     -33.894  18.696  -2.993  1.00 20.00    -0.647 OA
HETATM   11  O11 UNL     1     -32.570  19.262  -1.216  1.00 20.00    -0.647 OA
ENDBRANCH   4   9
TORSDOF 2
ENDMDL
MODEL 7
REMARK VINA RESULT:      -4.6     11.983     12.927
REMARK  2 active torsions:
REMARK  status: ('A' for Active; 'I' for Inactive)
REMARK    1  A    between atoms: C2_2  and  C8_8 
REMARK    2  A    between atoms: C3_3  and  C7_7 
ROOT
HETATM    1  C1  UNL     1     -34.050  16.340  -2.244  1.00 20.00    -0.062 A 
HETATM    2  C2  UNL     1     -33.867  15.551  -3.280  1.00 20.00    -0.076 C 
HETATM    3  C4  UNL     1     -34.636  16.477  -0.971  1.00 20.00     0.055 A 
HETATM    4  C7  UNL     1     -33.786  17.604  -1.669  1.00 20.00     0.120 A 
HETATM    5  C9  UNL     1     -33.070  15.969  -4.497  1.00 20.00     0.044 C 
ENDROOT
BRANCH   2   6
HETATM    6  C8  UNL     1     -34.437  14.150  -3.353  1.00 20.00     0.014 A 
HETATM    7  C5  UNL     1     -35.622  13.952  -4.211  1.00 20.00     0.010 A 
HETATM    8  C6  UNL     1     -34.283  13.429  -4.633  1.00 20.00     0.010 A 
ENDBRANCH   2   6
BRANCH   4   9
HETATM    9  C3  UNL     1     -34.508  18.708  -2.260  1.00 20.00     0.181 C 
HETATM   10  O10 UNL     1     -35.364  19.255  -1.510  1.00 20.00    -0.647 OA
HETATM   11  O11 UNL     1     -34.184  18.977  -3.450  1.00 20.00    -0.647 OA
ENDBRANCH   4   9
TORSDOF 2
ENDMDL
MODEL 8
REMARK VINA RESULT:      -4.6     11.836     12.657
REMARK  2 active torsions:
REMARK  status: ('A' for Active; 'I' for Inactive)
REMARK    1  A    between atoms: C2_2  and  C8_8 
REMARK    2  A    between atoms: C3_3  and  C7_7 
ROOT
HETATM    1  C1  UNL     1     -34.585  14.766  -3.518  1.00 20.00    -0.062 A 
HETATM    2  C2  UNL     1     -34.944  15.781  -2.763  1.00 20.00    -0.076 C 
HETATM    3  C4  UNL     1     -33.621  13.765  -3.747  1.00 20.00     0.055 A 
HETATM    4  C7  UNL     1     -34.912  13.954  -4.628  1.00 20.00     0.120 A 
HETATM    5  C9  UNL     1     -36.211  16.574  -3.005  1.00 20.00     0.044 C 
ENDROOT
BRANCH   2   6
HETATM    6  C8  UNL     1     -34.124  16.253  -1.581  1.00 20.00     0.014 A 
HETATM    7  C5  UNL     1     -33.935  17.709  -1.433  1.00 20.00     0.010 A 
HETATM    8  C6  UNL     1     -34.845  16.964  -0.506  1.00 20.00     0.010 A 
ENDBRANCH   2   6
BRANCH   4   9
HETATM    9  C3  UNL     1     -34.747  14.586  -5.918  1.00 20.00     0.181 C 
HETATM   10  O10 UNL     1     -34.064  15.647  -5.915  1.00 20.00    -0.647 OA
HETATM   11  O11 UNL     1     -35.311  13.988  -6.876  1.00 20.00    -0.647 OA
ENDBRANCH   4   9
TORSDOF 2
ENDMDL
MODEL 9
REMARK VINA RESULT:      -4.6     11.479     12.496
REMARK  2 active torsions:
REMARK  status: ('A' for Active; 'I' for Inactive)
REMARK    1  A    between atoms: C2_2  and  C8_8 
REMARK    2  A    between atoms: C3_3  and  C7_7 
ROOT
HETATM    1  C1  UNL     1     -35.390  15.523  -3.639  1.00 20.00    -0.062 A 
HETATM    2  C2  UNL     1     -34.559  16.463  -3.244  1.00 20.00    -0.076 C 
HETATM    3  C4  UNL     1     -36.611  14.866  -3.393  1.00 20.00     0.055 A 
HETATM    4  C7  UNL     1     -35.653  14.513  -4.592  1.00 20.00     0.120 A 
HETATM    5  C9  UNL     1     -33.260  16.762  -3.962  1.00 20.00     0.044 C 
ENDROOT
BRANCH   2   6
HETATM    6  C8  UNL     1     -34.823  17.333  -2.034  1.00 20.00     0.014 A 
HETATM    7  C5  UNL     1     -34.718  16.690  -0.709  1.00 20.00     0.010 A 
HETATM    8  C6  UNL     1     -33.667  17.651  -1.172  1.00 20.00     0.010 A 
ENDBRANCH   2   6
BRANCH   4   9
HETATM    9  C3  UNL     1     -34.842  13.323  -4.462  1.00 20.00     0.181 C 
HETATM   10  O10 UNL     1     -34.164  13.246  -3.400  1.00 20.00    -0.647 OA
HETATM   11  O11 UNL     1     -34.922  12.520  -5.432  1.00 20.00    -0.647 OA
ENDBRANCH   4   9
TORSDOF 2
ENDMDL
