MODEL 1
REMARK VINA RESULT:      -5.3      0.000      0.000
REMARK  1 active torsions:
REMARK  status: ('A' for Active; 'I' for Inactive)
REMARK    1  A    between atoms: C3_3  and  C8_8 
ROOT
HETATM    1  C1  UNL     1     -34.540  14.601  -5.505  1.00 20.00    -0.079 C 
HETATM    2  C2  UNL     1     -35.145  14.300  -6.657  1.00 20.00    -0.028 C 
HETATM    3  C4  UNL     1     -33.600  15.756  -5.272  1.00 20.00     0.039 C 
HETATM    4  C5  UNL     1     -33.180  13.993  -3.720  1.00 20.00     0.014 C 
HETATM    5  C6  UNL     1     -34.467  15.829  -2.901  1.00 20.00     0.019 C 
HETATM    6  C7  UNL     1     -34.619  13.814  -4.212  1.00 20.00     0.027 C 
HETATM    7  C8  UNL     1     -35.394  14.626  -3.158  1.00 20.00     0.081 C 
HETATM    8  C9  UNL     1     -33.241  15.523  -3.791  1.00 20.00    -0.009 C 
HETATM    9  C10 UNL     1     -34.978  15.080  -7.918  1.00 20.00     0.036 C 
ENDROOT
BRANCH   7  10
HETATM   10  C3  UNL     1     -36.769  15.025  -3.596  1.00 20.00     0.223 C 
HETATM   11  O11 UNL     1     -37.658  14.196  -3.767  1.00 20.00    -0.279 OA
HETATM   12 CL12 UNL     1     -36.914  16.743  -3.815  1.00 20.00    -0.043 Cl
ENDBRANCH   7  10
TORSDOF 1
ENDMDL
MODEL 2
REMARK VINA RESULT:      -5.1      2.157      3.987
REMARK  1 active torsions:
REMARK  status: ('A' for Active; 'I' for Inactive)
REMARK    1  A    between atoms: C3_3  and  C8_8 
ROOT
HETATM    1  C1  UNL     1     -34.064  15.858  -2.697  1.00 20.00    -0.079 C 
HETATM    2  C2  UNL     1     -33.846  16.792  -1.767  1.00 20.00    -0.028 C 
HETATM    3  C4  UNL     1     -35.254  14.934  -2.763  1.00 20.00     0.039 C 
HETATM    4  C5  UNL     1     -33.369  13.973  -3.866  1.00 20.00     0.014 C 
HETATM    5  C6  UNL     1     -35.006  14.989  -5.276  1.00 20.00     0.019 C 
HETATM    6  C7  UNL     1     -33.139  15.487  -3.838  1.00 20.00     0.027 C 
HETATM    7  C8  UNL     1     -33.773  15.907  -5.176  1.00 20.00     0.081 C 
HETATM    8  C9  UNL     1     -34.888  14.106  -4.011  1.00 20.00    -0.009 C 
HETATM    9  C10 UNL     1     -34.768  17.069  -0.627  1.00 20.00     0.036 C 
ENDROOT
BRANCH   7  10
HETATM   10  C3  UNL     1     -34.115  17.363  -5.251  1.00 20.00     0.223 C 
HETATM   11  O11 UNL     1     -33.247  18.231  -5.243  1.00 20.00    -0.279 OA
HETATM   12 CL12 UNL     1     -35.830  17.628  -5.344  1.00 20.00    -0.043 Cl
ENDBRANCH   7  10
TORSDOF 1
ENDMDL
MODEL 3
REMARK VINA RESULT:      -4.9      2.153      3.817
REMARK  1 active torsions:
REMARK  status: ('A' for Active; 'I' for Inactive)
REMARK    1  A    between atoms: C3_3  and  C8_8 
ROOT
HETATM    1  C1  UNL     1     -34.878  16.404  -3.285  1.00 20.00    -0.079 C 
HETATM    2  C2  UNL     1     -35.218  16.178  -2.013  1.00 20.00    -0.028 C 
HETATM    3  C4  UNL     1     -33.710  17.233  -3.757  1.00 20.00     0.039 C 
HETATM    4  C5  UNL     1     -35.422  17.155  -5.417  1.00 20.00     0.014 C 
HETATM    5  C6  UNL     1     -33.569  15.687  -5.748  1.00 20.00     0.019 C 
HETATM    6  C7  UNL     1     -35.625  15.932  -4.517  1.00 20.00     0.027 C 
HETATM    7  C8  UNL     1     -34.784  14.877  -5.259  1.00 20.00     0.081 C 
HETATM    8  C9  UNL     1     -33.896  17.125  -5.283  1.00 20.00    -0.009 C 
HETATM    9  C10 UNL     1     -34.476  16.723  -0.840  1.00 20.00     0.036 C 
ENDROOT
BRANCH   7  10
HETATM   10  C3  UNL     1     -34.407  13.702  -4.411  1.00 20.00     0.223 C 
HETATM   11  O11 UNL     1     -35.156  12.739  -4.273  1.00 20.00    -0.279 OA
HETATM   12 CL12 UNL     1     -32.837  13.892  -3.691  1.00 20.00    -0.043 Cl
ENDBRANCH   7  10
TORSDOF 1
ENDMDL
MODEL 4
REMARK VINA RESULT:      -4.8      2.124      2.705
REMARK  1 active torsions:
REMARK  status: ('A' for Active; 'I' for Inactive)
REMARK    1  A    between atoms: C3_3  and  C8_8 
ROOT
HETATM    1  C1  UNL     1     -34.310  16.173  -5.441  1.00 20.00    -0.079 C 
HETATM    2  C2  UNL     1     -34.064  15.730  -6.677  1.00 20.00    -0.028 C 
HETATM    3  C4  UNL     1     -35.598  16.794  -4.962  1.00 20.00     0.039 C 
HETATM    4  C5  UNL     1     -33.755  17.527  -3.634  1.00 20.00     0.014 C 
HETATM    5  C6  UNL     1     -35.100  15.791  -2.699  1.00 20.00     0.019 C 
HETATM    6  C7  UNL     1     -33.333  16.205  -4.283  1.00 20.00     0.027 C 
HETATM    7  C8  UNL     1     -33.774  15.195  -3.207  1.00 20.00     0.081 C 
HETATM    8  C9  UNL     1     -35.223  17.108  -3.500  1.00 20.00    -0.009 C 
HETATM    9  C10 UNL     1     -35.049  15.783  -7.796  1.00 20.00     0.036 C 
ENDROOT
BRANCH   7  10
HETATM   10  C3  UNL     1     -33.914  13.794  -3.717  1.00 20.00     0.223 C 
HETATM   11  O11 UNL     1     -32.946  13.049  -3.830  1.00 20.00    -0.279 OA
HETATM   12 CL12 UNL     1     -35.562  13.401  -4.103  1.00 20.00    -0.043 Cl
ENDBRANCH   7  10
TORSDOF 1
ENDMDL
MODEL 5
REMARK VINA RESULT:      -4.8      2.628      4.416
REMARK  1 active torsions:
REMARK  status: ('A' for Active; 'I' for Inactive)
REMARK    1  A    between atoms: C3_3  and  C8_8 
ROOT
HETATM    1  C1  UNL     1     -35.322  16.159  -2.375  1.00 20.00    -0.079 C 
HETATM    2  C2  UNL     1     -34.596  16.313  -1.265  1.00 20.00    -0.028 C 
HETATM    3  C4  UNL     1     -36.311  17.153  -2.933  1.00 20.00     0.039 C 
HETATM    4  C5  UNL     1     -36.843  14.937  -3.640  1.00 20.00     0.014 C 
HETATM    5  C6  UNL     1     -35.693  16.300  -5.228  1.00 20.00     0.019 C 
HETATM    6  C7  UNL     1     -35.356  14.937  -3.270  1.00 20.00     0.027 C 
HETATM    7  C8  UNL     1     -34.714  15.272  -4.629  1.00 20.00     0.081 C 
HETATM    8  C9  UNL     1     -36.814  16.376  -4.165  1.00 20.00    -0.009 C 
HETATM    9  C10 UNL     1     -34.652  17.519  -0.388  1.00 20.00     0.036 C 
ENDROOT
BRANCH   7  10
HETATM   10  C3  UNL     1     -33.312  15.787  -4.523  1.00 20.00     0.223 C 
HETATM   11  O11 UNL     1     -32.970  16.841  -5.050  1.00 20.00    -0.279 OA
HETATM   12 CL12 UNL     1     -32.296  14.728  -3.593  1.00 20.00    -0.043 Cl
ENDBRANCH   7  10
TORSDOF 1
ENDMDL
MODEL 6
REMARK VINA RESULT:      -4.7      2.116      3.109
REMARK  1 active torsions:
REMARK  status: ('A' for Active; 'I' for Inactive)
REMARK    1  A    between atoms: C3_3  and  C8_8 
ROOT
HETATM    1  C1  UNL     1     -35.923  14.954  -3.974  1.00 20.00    -0.079 C 
HETATM    2  C2  UNL     1     -37.124  15.099  -3.409  1.00 20.00    -0.028 C 
HETATM    3  C4  UNL     1     -35.593  15.185  -5.428  1.00 20.00     0.039 C 
HETATM    4  C5  UNL     1     -34.055  13.650  -4.441  1.00 20.00     0.014 C 
HETATM    5  C6  UNL     1     -33.293  15.901  -4.669  1.00 20.00     0.019 C 
HETATM    6  C7  UNL     1     -34.658  14.469  -3.295  1.00 20.00     0.027 C 
HETATM    7  C8  UNL     1     -33.647  15.625  -3.195  1.00 20.00     0.081 C 
HETATM    8  C9  UNL     1     -34.095  14.820  -5.430  1.00 20.00    -0.009 C 
HETATM    9  C10 UNL     1     -38.350  15.522  -4.146  1.00 20.00     0.036 C 
ENDROOT
BRANCH   7  10
HETATM   10  C3  UNL     1     -34.178  16.830  -2.481  1.00 20.00     0.223 C 
HETATM   11  O11 UNL     1     -34.242  17.927  -3.027  1.00 20.00    -0.279 OA
HETATM   12 CL12 UNL     1     -34.664  16.464  -0.854  1.00 20.00    -0.043 Cl
ENDBRANCH   7  10
TORSDOF 1
ENDMDL
MODEL 7
REMARK VINA RESULT:      -4.6      1.327      3.219
REMARK  1 active torsions:
REMARK  status: ('A' for Active; 'I' for Inactive)
REMARK    1  A    between atoms: C3_3  and  C8_8 
ROOT
HETATM    1  C1  UNL     1     -34.843  15.999  -3.239  1.00 20.00    -0.079 C 
HETATM    2  C2  UNL     1     -35.113  16.820  -2.220  1.00 20.00    -0.028 C 
HETATM    3  C4  UNL     1     -34.040  14.725  -3.162  1.00 20.00     0.039 C 
HETATM    4  C5  UNL     1     -33.977  15.638  -5.366  1.00 20.00     0.014 C 
HETATM    5  C6  UNL     1     -35.500  13.834  -5.020  1.00 20.00     0.019 C 
HETATM    6  C7  UNL     1     -35.229  16.204  -4.690  1.00 20.00     0.027 C 
HETATM    7  C8  UNL     1     -36.283  15.158  -5.098  1.00 20.00     0.081 C 
HETATM    8  C9  UNL     1     -34.073  14.292  -4.641  1.00 20.00    -0.009 C 
HETATM    9  C10 UNL     1     -34.651  16.596  -0.819  1.00 20.00     0.036 C 
ENDROOT
BRANCH   7  10
HETATM   10  C3  UNL     1     -37.509  15.171  -4.238  1.00 20.00     0.223 C 
HETATM   11  O11 UNL     1     -37.905  14.160  -3.665  1.00 20.00    -0.279 OA
HETATM   12 CL12 UNL     1     -38.248  16.742  -4.176  1.00 20.00    -0.043 Cl
ENDBRANCH   7  10
TORSDOF 1
ENDMDL
MODEL 8
REMARK VINA RESULT:      -4.6      2.022      3.244
REMARK  1 active torsions:
REMARK  status: ('A' for Active; 'I' for Inactive)
REMARK    1  A    between atoms: C3_3  and  C8_8 
ROOT
HETATM    1  C1  UNL     1     -35.826  16.089  -3.949  1.00 20.00    -0.079 C 
HETATM    2  C2  UNL     1     -37.098  16.148  -4.352  1.00 20.00    -0.028 C 
HETATM    3  C4  UNL     1     -35.354  15.918  -2.527  1.00 20.00     0.039 C 
HETATM    4  C5  UNL     1     -33.695  17.014  -3.847  1.00 20.00     0.014 C 
HETATM    5  C6  UNL     1     -33.360  14.682  -3.464  1.00 20.00     0.019 C 
HETATM    6  C7  UNL     1     -34.595  16.244  -4.819  1.00 20.00     0.027 C 
HETATM    7  C8  UNL     1     -33.851  14.900  -4.908  1.00 20.00     0.081 C 
HETATM    8  C9  UNL     1     -33.827  15.965  -2.738  1.00 20.00    -0.009 C 
HETATM    9  C10 UNL     1     -38.271  16.051  -3.436  1.00 20.00     0.036 C 
ENDROOT
BRANCH   7  10
HETATM   10  C3  UNL     1     -34.697  13.775  -5.419  1.00 20.00     0.223 C 
HETATM   11  O11 UNL     1     -34.843  12.736  -4.783  1.00 20.00    -0.279 OA
HETATM   12 CL12 UNL     1     -35.404  14.139  -6.965  1.00 20.00    -0.043 Cl
ENDBRANCH   7  10
TORSDOF 1
ENDMDL
MODEL 9
REMARK VINA RESULT:      -4.5      2.254      3.949
REMARK  1 active torsions:
REMARK  status: ('A' for Active; 'I' for Inactive)
REMARK    1  A    between atoms: C3_3  and  C8_8 
ROOT
HETATM    1  C1  UNL     1     -35.741  16.078  -2.999  1.00 20.00    -0.079 C 
HETATM    2  C2  UNL     1     -34.814  15.915  -2.051  1.00 20.00    -0.028 C 
HETATM    3  C4  UNL     1     -35.907  17.294  -3.876  1.00 20.00     0.039 C 
HETATM    4  C5  UNL     1     -37.970  16.114  -3.658  1.00 20.00     0.014 C 
HETATM    5  C6  UNL     1     -36.750  15.734  -5.674  1.00 20.00     0.019 C 
HETATM    6  C7  UNL     1     -36.854  15.111  -3.349  1.00 20.00     0.027 C 
HETATM    7  C8  UNL     1     -36.601  14.514  -4.745  1.00 20.00     0.081 C 
HETATM    8  C9  UNL     1     -37.139  16.870  -4.700  1.00 20.00    -0.009 C 
HETATM    9  C10 UNL     1     -33.779  16.932  -1.709  1.00 20.00     0.036 C 
ENDROOT
BRANCH   7  10
HETATM   10  C3  UNL     1     -35.274  13.832  -4.877  1.00 20.00     0.223 C 
HETATM   11  O11 UNL     1     -35.020  12.793  -4.275  1.00 20.00    -0.279 OA
HETATM   12 CL12 UNL     1     -34.205  14.682  -5.951  1.00 20.00    -0.043 Cl
ENDBRANCH   7  10
TORSDOF 1
ENDMDL
