MODEL 1
REMARK VINA RESULT:      -5.1      0.000      0.000
REMARK  0 active torsions:
REMARK  status: ('A' for Active; 'I' for Inactive)
ROOT
HETATM    1  C1  UNL     1     -34.681  16.393  -1.290  1.00 20.00     0.015 C 
HETATM    2  C2  UNL     1     -34.412  15.859  -2.331  1.00 20.00    -0.076 C 
HETATM    3  C3  UNL     1     -34.762  13.831  -3.669  1.00 20.00     0.057 C 
HETATM    4  C4  UNL     1     -34.886  13.550  -5.155  1.00 20.00     0.044 C 
HETATM    5  C5  UNL     1     -34.083  15.203  -3.612  1.00 20.00     0.218 C 
HETATM    6  C6  UNL     1     -35.094  14.935  -5.796  1.00 20.00     0.154 C 
HETATM    7  C7  UNL     1     -32.556  15.067  -3.735  1.00 20.00     0.064 C 
HETATM    8  C8  UNL     1     -34.298  15.022  -7.110  1.00 20.00     0.049 C 
HETATM    9  C9  UNL     1     -36.586  15.152  -6.103  1.00 20.00     0.049 C 
HETATM   10  C10 UNL     1     -34.111  17.147  -5.168  1.00 20.00     0.313 C 
HETATM   11  N11 UNL     1     -34.724  15.901  -4.739  1.00 20.00     0.114 N 
ENDROOT
TORSDOF 0
ENDMDL
MODEL 2
REMARK VINA RESULT:      -4.6      1.384      2.446
REMARK  0 active torsions:
REMARK  status: ('A' for Active; 'I' for Inactive)
ROOT
HETATM    1  C1  UNL     1     -34.633  16.681  -0.659  1.00 20.00     0.015 C 
HETATM    2  C2  UNL     1     -34.744  16.603  -1.852  1.00 20.00    -0.076 C 
HETATM    3  C3  UNL     1     -33.489  16.417  -3.953  1.00 20.00     0.057 C 
HETATM    4  C4  UNL     1     -33.741  15.724  -5.280  1.00 20.00     0.044 C 
HETATM    5  C5  UNL     1     -34.881  16.506  -3.319  1.00 20.00     0.218 C 
HETATM    6  C6  UNL     1     -34.913  14.765  -5.001  1.00 20.00     0.154 C 
HETATM    7  C7  UNL     1     -35.645  17.736  -3.840  1.00 20.00     0.064 C 
HETATM    8  C8  UNL     1     -35.880  14.767  -6.198  1.00 20.00     0.049 C 
HETATM    9  C9  UNL     1     -34.384  13.335  -4.792  1.00 20.00     0.049 C 
HETATM   10  C10 UNL     1     -36.904  15.069  -3.519  1.00 20.00     0.313 C 
HETATM   11  N11 UNL     1     -35.471  15.215  -3.707  1.00 20.00     0.114 N 
ENDROOT
TORSDOF 0
ENDMDL
MODEL 3
REMARK VINA RESULT:      -4.4      1.411      3.817
REMARK  0 active torsions:
REMARK  status: ('A' for Active; 'I' for Inactive)
ROOT
HETATM    1  C1  UNL     1     -35.550  14.394  -7.575  1.00 20.00     0.015 C 
HETATM    2  C2  UNL     1     -35.117  14.621  -6.479  1.00 20.00    -0.076 C 
HETATM    3  C3  UNL     1     -33.470  15.947  -5.232  1.00 20.00     0.057 C 
HETATM    4  C4  UNL     1     -33.447  16.586  -3.855  1.00 20.00     0.044 C 
HETATM    5  C5  UNL     1     -34.585  14.901  -5.130  1.00 20.00     0.218 C 
HETATM    6  C6  UNL     1     -34.913  16.548  -3.385  1.00 20.00     0.154 C 
HETATM    7  C7  UNL     1     -34.060  13.595  -4.510  1.00 20.00     0.064 C 
HETATM    8  C8  UNL     1     -34.968  16.191  -1.890  1.00 20.00     0.049 C 
HETATM    9  C9  UNL     1     -35.566  17.925  -3.592  1.00 20.00     0.049 C 
HETATM   10  C10 UNL     1     -36.665  14.804  -3.764  1.00 20.00     0.313 C 
HETATM   11  N11 UNL     1     -35.583  15.607  -4.309  1.00 20.00     0.114 N 
ENDROOT
TORSDOF 0
ENDMDL
MODEL 4
REMARK VINA RESULT:      -4.4      0.735      3.797
REMARK  0 active torsions:
REMARK  status: ('A' for Active; 'I' for Inactive)
ROOT
HETATM    1  C1  UNL     1     -37.841  15.560  -6.380  1.00 20.00     0.015 C 
HETATM    2  C2  UNL     1     -36.673  15.542  -6.105  1.00 20.00    -0.076 C 
HETATM    3  C3  UNL     1     -34.758  16.950  -5.491  1.00 20.00     0.057 C 
HETATM    4  C4  UNL     1     -33.547  16.760  -4.596  1.00 20.00     0.044 C 
HETATM    5  C5  UNL     1     -35.236  15.521  -5.766  1.00 20.00     0.218 C 
HETATM    6  C6  UNL     1     -33.871  15.504  -3.766  1.00 20.00     0.154 C 
HETATM    7  C7  UNL     1     -34.450  14.891  -6.928  1.00 20.00     0.064 C 
HETATM    8  C8  UNL     1     -32.605  14.642  -3.617  1.00 20.00     0.049 C 
HETATM    9  C9  UNL     1     -34.362  15.912  -2.366  1.00 20.00     0.049 C 
HETATM   10  C10 UNL     1     -35.090  13.424  -4.430  1.00 20.00     0.313 C 
HETATM   11  N11 UNL     1     -35.015  14.875  -4.461  1.00 20.00     0.114 N 
ENDROOT
TORSDOF 0
ENDMDL
MODEL 5
REMARK VINA RESULT:      -4.4      0.989      3.767
REMARK  0 active torsions:
REMARK  status: ('A' for Active; 'I' for Inactive)
ROOT
HETATM    1  C1  UNL     1     -36.218  14.850  -7.835  1.00 20.00     0.015 C 
HETATM    2  C2  UNL     1     -36.060  14.794  -6.646  1.00 20.00    -0.076 C 
HETATM    3  C3  UNL     1     -35.103  13.443  -4.834  1.00 20.00     0.057 C 
HETATM    4  C4  UNL     1     -34.440  13.767  -3.507  1.00 20.00     0.044 C 
HETATM    5  C5  UNL     1     -35.863  14.726  -5.184  1.00 20.00     0.218 C 
HETATM    6  C6  UNL     1     -34.128  15.272  -3.586  1.00 20.00     0.154 C 
HETATM    7  C7  UNL     1     -37.233  14.763  -4.486  1.00 20.00     0.064 C 
HETATM    8  C8  UNL     1     -34.413  15.932  -2.226  1.00 20.00     0.049 C 
HETATM    9  C9  UNL     1     -32.645  15.483  -3.940  1.00 20.00     0.049 C 
HETATM   10  C10 UNL     1     -35.438  17.120  -4.645  1.00 20.00     0.313 C 
HETATM   11  N11 UNL     1     -34.922  15.765  -4.733  1.00 20.00     0.114 N 
ENDROOT
TORSDOF 0
ENDMDL
MODEL 6
REMARK VINA RESULT:      -4.3      1.643      2.598
REMARK  0 active torsions:
REMARK  status: ('A' for Active; 'I' for Inactive)
ROOT
HETATM    1  C1  UNL     1     -38.772  14.762  -3.898  1.00 20.00     0.015 C 
HETATM    2  C2  UNL     1     -37.584  14.933  -3.902  1.00 20.00    -0.076 C 
HETATM    3  C3  UNL     1     -35.416  13.797  -4.093  1.00 20.00     0.057 C 
HETATM    4  C4  UNL     1     -34.072  14.173  -4.689  1.00 20.00     0.044 C 
HETATM    5  C5  UNL     1     -36.123  15.144  -3.908  1.00 20.00     0.218 C 
HETATM    6  C6  UNL     1     -34.362  15.418  -5.548  1.00 20.00     0.154 C 
HETATM    7  C7  UNL     1     -35.700  15.810  -2.587  1.00 20.00     0.064 C 
HETATM    8  C8  UNL     1     -33.216  16.433  -5.392  1.00 20.00     0.049 C 
HETATM    9  C9  UNL     1     -34.475  15.019  -7.030  1.00 20.00     0.049 C 
HETATM   10  C10 UNL     1     -35.954  17.303  -5.138  1.00 20.00     0.313 C 
HETATM   11  N11 UNL     1     -35.703  15.872  -5.117  1.00 20.00     0.114 N 
ENDROOT
TORSDOF 0
ENDMDL
MODEL 7
REMARK VINA RESULT:      -4.3      1.415      2.622
REMARK  0 active torsions:
REMARK  status: ('A' for Active; 'I' for Inactive)
ROOT
HETATM    1  C1  UNL     1     -34.660  16.704  -0.668  1.00 20.00     0.015 C 
HETATM    2  C2  UNL     1     -34.905  16.487  -1.824  1.00 20.00    -0.076 C 
HETATM    3  C3  UNL     1     -36.135  17.318  -3.779  1.00 20.00     0.057 C 
HETATM    4  C4  UNL     1     -35.874  17.315  -5.275  1.00 20.00     0.044 C 
HETATM    5  C5  UNL     1     -35.206  16.223  -3.245  1.00 20.00     0.218 C 
HETATM    6  C6  UNL     1     -34.387  16.938  -5.409  1.00 20.00     0.154 C 
HETATM    7  C7  UNL     1     -35.857  14.836  -3.376  1.00 20.00     0.064 C 
HETATM    8  C8  UNL     1     -34.201  15.979  -6.598  1.00 20.00     0.049 C 
HETATM    9  C9  UNL     1     -33.545  18.202  -5.653  1.00 20.00     0.049 C 
HETATM   10  C10 UNL     1     -33.013  15.354  -4.045  1.00 20.00     0.313 C 
HETATM   11  N11 UNL     1     -34.007  16.414  -4.078  1.00 20.00     0.114 N 
ENDROOT
TORSDOF 0
ENDMDL
MODEL 8
REMARK VINA RESULT:      -4.2      1.259      3.682
REMARK  0 active torsions:
REMARK  status: ('A' for Active; 'I' for Inactive)
ROOT
HETATM    1  C1  UNL     1     -36.166  18.253  -6.848  1.00 20.00     0.015 C 
HETATM    2  C2  UNL     1     -35.496  17.360  -6.407  1.00 20.00    -0.076 C 
HETATM    3  C3  UNL     1     -33.397  16.842  -5.243  1.00 20.00     0.057 C 
HETATM    4  C4  UNL     1     -32.980  15.794  -4.228  1.00 20.00     0.044 C 
HETATM    5  C5  UNL     1     -34.673  16.262  -5.863  1.00 20.00     0.218 C 
HETATM    6  C6  UNL     1     -34.304  15.195  -3.721  1.00 20.00     0.154 C 
HETATM    7  C7  UNL     1     -34.335  15.273  -6.992  1.00 20.00     0.064 C 
HETATM    8  C8  UNL     1     -34.153  13.673  -3.552  1.00 20.00     0.049 C 
HETATM    9  C9  UNL     1     -34.673  15.811  -2.360  1.00 20.00     0.049 C 
HETATM   10  C10 UNL     1     -36.430  14.747  -4.959  1.00 20.00     0.313 C 
HETATM   11  N11 UNL     1     -35.323  15.649  -4.693  1.00 20.00     0.114 N 
ENDROOT
TORSDOF 0
ENDMDL
MODEL 9
REMARK VINA RESULT:      -4.2      1.450      2.520
REMARK  0 active torsions:
REMARK  status: ('A' for Active; 'I' for Inactive)
ROOT
HETATM    1  C1  UNL     1     -33.550  19.017  -3.392  1.00 20.00     0.015 C 
HETATM    2  C2  UNL     1     -34.068  17.934  -3.402  1.00 20.00    -0.076 C 
HETATM    3  C3  UNL     1     -36.048  16.689  -4.149  1.00 20.00     0.057 C 
HETATM    4  C4  UNL     1     -36.287  15.271  -4.634  1.00 20.00     0.044 C 
HETATM    5  C5  UNL     1     -34.705  16.602  -3.416  1.00 20.00     0.218 C 
HETATM    6  C6  UNL     1     -34.879  14.718  -4.927  1.00 20.00     0.154 C 
HETATM    7  C7  UNL     1     -34.898  16.117  -1.969  1.00 20.00     0.064 C 
HETATM    8  C8  UNL     1     -34.791  13.255  -4.463  1.00 20.00     0.049 C 
HETATM    9  C9  UNL     1     -34.596  14.779  -6.439  1.00 20.00     0.049 C 
HETATM   10  C10 UNL     1     -32.723  15.126  -3.727  1.00 20.00     0.313 C 
HETATM   11  N11 UNL     1     -33.954  15.671  -4.274  1.00 20.00     0.114 N 
ENDROOT
TORSDOF 0
ENDMDL
