MODEL 1
REMARK VINA RESULT:      -3.9      0.000      0.000
REMARK  2 active torsions:
REMARK  status: ('A' for Active; 'I' for Inactive)
REMARK    1  A    between atoms: C1_1  and  C5_5 
REMARK    2  A    between atoms: C5_5  and  O8_8 
ROOT
HETATM    1  C2  UNL     1     -34.778  14.826  -7.481  1.00 20.00     0.007 C 
HETATM    2  C3  UNL     1     -35.953  14.678  -6.500  1.00 20.00     0.047 C 
HETATM    3  C4  UNL     1     -34.038  15.619  -6.394  1.00 20.00     0.047 C 
HETATM    4  C5  UNL     1     -34.951  14.933  -5.330  1.00 20.00     0.136 C 
ENDROOT
BRANCH   4   5
HETATM    5  C1  UNL     1     -34.371  13.661  -4.657  1.00 20.00     0.253 C 
HETATM    6  O7  UNL     1     -34.865  12.552  -4.836  1.00 20.00    -0.276 OA
HETATM    7 CL9  UNL     1     -32.988  14.019  -3.665  1.00 20.00    -0.041 Cl
ENDBRANCH   4   5
BRANCH   4   8
HETATM    8  O8  UNL     1     -35.462  15.839  -4.326  1.00 20.00    -0.376 OA
HETATM    9  C6  UNL     1     -36.262  15.145  -3.392  1.00 20.00     0.203 C 
ENDBRANCH   4   8
TORSDOF 2
ENDMDL
MODEL 2
REMARK VINA RESULT:      -3.8      2.099      3.043
REMARK  2 active torsions:
REMARK  status: ('A' for Active; 'I' for Inactive)
REMARK    1  A    between atoms: C1_1  and  C5_5 
REMARK    2  A    between atoms: C5_5  and  O8_8 
ROOT
HETATM    1  C2  UNL     1     -33.819  15.996  -2.847  1.00 20.00     0.007 C 
HETATM    2  C3  UNL     1     -33.114  14.961  -3.739  1.00 20.00     0.047 C 
HETATM    3  C4  UNL     1     -34.722  16.335  -4.044  1.00 20.00     0.047 C 
HETATM    4  C5  UNL     1     -34.390  14.930  -4.639  1.00 20.00     0.136 C 
ENDROOT
BRANCH   4   5
HETATM    5  C1  UNL     1     -35.407  13.802  -4.320  1.00 20.00     0.253 C 
HETATM    6  O7  UNL     1     -35.082  12.618  -4.331  1.00 20.00    -0.276 OA
HETATM    7 CL9  UNL     1     -36.989  14.428  -3.963  1.00 20.00    -0.041 Cl
ENDBRANCH   4   5
BRANCH   4   8
HETATM    8  O8  UNL     1     -34.095  14.950  -6.054  1.00 20.00    -0.376 OA
HETATM    9  C6  UNL     1     -35.217  14.526  -6.800  1.00 20.00     0.203 C 
ENDBRANCH   4   8
TORSDOF 2
ENDMDL
MODEL 3
REMARK VINA RESULT:      -3.8      1.904      2.587
REMARK  2 active torsions:
REMARK  status: ('A' for Active; 'I' for Inactive)
REMARK    1  A    between atoms: C1_1  and  C5_5 
REMARK    2  A    between atoms: C5_5  and  O8_8 
ROOT
HETATM    1  C2  UNL     1     -32.840  15.253  -3.657  1.00 20.00     0.007 C 
HETATM    2  C3  UNL     1     -33.597  15.958  -4.795  1.00 20.00     0.047 C 
HETATM    3  C4  UNL     1     -34.203  14.862  -3.064  1.00 20.00     0.047 C 
HETATM    4  C5  UNL     1     -34.827  15.048  -4.483  1.00 20.00     0.136 C 
ENDROOT
BRANCH   4   5
HETATM    5  C1  UNL     1     -34.945  13.764  -5.346  1.00 20.00     0.253 C 
HETATM    6  O7  UNL     1     -34.794  12.646  -4.864  1.00 20.00    -0.276 OA
HETATM    7 CL9  UNL     1     -35.306  14.124  -7.008  1.00 20.00    -0.041 Cl
ENDBRANCH   4   5
BRANCH   4   8
HETATM    8  O8  UNL     1     -36.083  15.764  -4.479  1.00 20.00    -0.376 OA
HETATM    9  C6  UNL     1     -37.141  14.905  -4.105  1.00 20.00     0.203 C 
ENDBRANCH   4   8
TORSDOF 2
ENDMDL
MODEL 4
REMARK VINA RESULT:      -3.8      2.070      2.968
REMARK  2 active torsions:
REMARK  status: ('A' for Active; 'I' for Inactive)
REMARK    1  A    between atoms: C1_1  and  C5_5 
REMARK    2  A    between atoms: C5_5  and  O8_8 
ROOT
HETATM    1  C2  UNL     1     -34.593  13.158  -4.784  1.00 20.00     0.007 C 
HETATM    2  C3  UNL     1     -34.596  14.508  -5.519  1.00 20.00     0.047 C 
HETATM    3  C4  UNL     1     -33.553  13.745  -3.817  1.00 20.00     0.047 C 
HETATM    4  C5  UNL     1     -34.050  15.170  -4.214  1.00 20.00     0.136 C 
ENDROOT
BRANCH   4   5
HETATM    5  C1  UNL     1     -35.122  15.798  -3.283  1.00 20.00     0.253 C 
HETATM    6  O7  UNL     1     -36.268  16.010  -3.669  1.00 20.00    -0.276 OA
HETATM    7 CL9  UNL     1     -34.493  16.138  -1.698  1.00 20.00    -0.041 Cl
ENDBRANCH   4   5
BRANCH   4   8
HETATM    8  O8  UNL     1     -32.983  16.115  -4.454  1.00 20.00    -0.376 OA
HETATM    9  C6  UNL     1     -33.507  17.361  -4.865  1.00 20.00     0.203 C 
ENDBRANCH   4   8
TORSDOF 2
ENDMDL
MODEL 5
REMARK VINA RESULT:      -3.8      1.372      2.970
REMARK  2 active torsions:
REMARK  status: ('A' for Active; 'I' for Inactive)
REMARK    1  A    between atoms: C1_1  and  C5_5 
REMARK    2  A    between atoms: C5_5  and  O8_8 
ROOT
HETATM    1  C2  UNL     1     -34.642  16.047  -2.051  1.00 20.00     0.007 C 
HETATM    2  C3  UNL     1     -33.856  16.178  -3.367  1.00 20.00     0.047 C 
HETATM    3  C4  UNL     1     -35.841  15.556  -2.878  1.00 20.00     0.047 C 
HETATM    4  C5  UNL     1     -34.843  15.152  -4.008  1.00 20.00     0.136 C 
ENDROOT
BRANCH   4   5
HETATM    5  C1  UNL     1     -34.372  13.673  -3.999  1.00 20.00     0.253 C 
HETATM    6  O7  UNL     1     -35.128  12.753  -4.293  1.00 20.00    -0.276 OA
HETATM    7 CL9  UNL     1     -32.702  13.523  -3.539  1.00 20.00    -0.041 Cl
ENDBRANCH   4   5
BRANCH   4   8
HETATM    8  O8  UNL     1     -35.279  15.528  -5.334  1.00 20.00    -0.376 OA
HETATM    9  C6  UNL     1     -34.337  15.113  -6.302  1.00 20.00     0.203 C 
ENDBRANCH   4   8
TORSDOF 2
ENDMDL
MODEL 6
REMARK VINA RESULT:      -3.6      2.649      3.269
REMARK  2 active torsions:
REMARK  status: ('A' for Active; 'I' for Inactive)
REMARK    1  A    between atoms: C1_1  and  C5_5 
REMARK    2  A    between atoms: C5_5  and  O8_8 
ROOT
HETATM    1  C2  UNL     1     -34.566  13.239  -4.685  1.00 20.00     0.007 C 
HETATM    2  C3  UNL     1     -33.598  13.826  -3.644  1.00 20.00     0.047 C 
HETATM    3  C4  UNL     1     -35.630  14.221  -4.172  1.00 20.00     0.047 C 
HETATM    4  C5  UNL     1     -34.478  15.115  -3.616  1.00 20.00     0.136 C 
ENDROOT
BRANCH   4   5
HETATM    5  C1  UNL     1     -34.006  16.267  -4.543  1.00 20.00     0.253 C 
HETATM    6  O7  UNL     1     -32.836  16.372  -4.899  1.00 20.00    -0.276 OA
HETATM    7 CL9  UNL     1     -35.311  17.330  -4.981  1.00 20.00    -0.041 Cl
ENDBRANCH   4   5
BRANCH   4   8
HETATM    8  O8  UNL     1     -34.719  15.616  -2.282  1.00 20.00    -0.376 OA
HETATM    9  C6  UNL     1     -33.829  16.671  -1.981  1.00 20.00     0.203 C 
ENDBRANCH   4   8
TORSDOF 2
ENDMDL
MODEL 7
REMARK VINA RESULT:      -3.6      2.314      3.266
REMARK  2 active torsions:
REMARK  status: ('A' for Active; 'I' for Inactive)
REMARK    1  A    between atoms: C1_1  and  C5_5 
REMARK    2  A    between atoms: C5_5  and  O8_8 
ROOT
HETATM    1  C2  UNL     1     -33.667  14.020  -3.825  1.00 20.00     0.007 C 
HETATM    2  C3  UNL     1     -34.789  14.760  -3.077  1.00 20.00     0.047 C 
HETATM    3  C4  UNL     1     -34.756  13.264  -4.601  1.00 20.00     0.047 C 
HETATM    4  C5  UNL     1     -35.744  14.425  -4.266  1.00 20.00     0.136 C 
ENDROOT
BRANCH   4   5
HETATM    5  C1  UNL     1     -35.882  15.532  -5.345  1.00 20.00     0.253 C 
HETATM    6  O7  UNL     1     -35.597  16.702  -5.111  1.00 20.00    -0.276 OA
HETATM    7 CL9  UNL     1     -36.468  14.901  -6.856  1.00 20.00    -0.041 Cl
ENDBRANCH   4   5
BRANCH   4   8
HETATM    8  O8  UNL     1     -37.051  13.976  -3.842  1.00 20.00    -0.376 OA
HETATM    9  C6  UNL     1     -37.941  15.069  -3.742  1.00 20.00     0.203 C 
ENDBRANCH   4   8
TORSDOF 2
ENDMDL
MODEL 8
REMARK VINA RESULT:      -3.5      1.933      2.620
REMARK  2 active torsions:
REMARK  status: ('A' for Active; 'I' for Inactive)
REMARK    1  A    between atoms: C1_1  and  C5_5 
REMARK    2  A    between atoms: C5_5  and  O8_8 
ROOT
HETATM    1  C2  UNL     1     -34.488  13.198  -4.994  1.00 20.00     0.007 C 
HETATM    2  C3  UNL     1     -35.244  13.915  -3.863  1.00 20.00     0.047 C 
HETATM    3  C4  UNL     1     -34.710  14.446  -5.862  1.00 20.00     0.047 C 
HETATM    4  C5  UNL     1     -34.901  15.273  -4.552  1.00 20.00     0.136 C 
ENDROOT
BRANCH   4   5
HETATM    5  C1  UNL     1     -33.636  15.995  -4.015  1.00 20.00     0.253 C 
HETATM    6  O7  UNL     1     -32.682  16.252  -4.742  1.00 20.00    -0.276 OA
HETATM    7 CL9  UNL     1     -33.764  16.366  -2.321  1.00 20.00    -0.041 Cl
ENDBRANCH   4   5
BRANCH   4   8
HETATM    8  O8  UNL     1     -36.017  16.191  -4.597  1.00 20.00    -0.376 OA
HETATM    9  C6  UNL     1     -35.613  17.435  -5.131  1.00 20.00     0.203 C 
ENDBRANCH   4   8
TORSDOF 2
ENDMDL
MODEL 9
REMARK VINA RESULT:      -3.4      2.399      3.630
REMARK  2 active torsions:
REMARK  status: ('A' for Active; 'I' for Inactive)
REMARK    1  A    between atoms: C1_1  and  C5_5 
REMARK    2  A    between atoms: C5_5  and  O8_8 
ROOT
HETATM    1  C2  UNL     1     -33.853  17.010  -2.616  1.00 20.00     0.007 C 
HETATM    2  C3  UNL     1     -34.704  15.867  -2.040  1.00 20.00     0.047 C 
HETATM    3  C4  UNL     1     -33.417  16.052  -3.735  1.00 20.00     0.047 C 
HETATM    4  C5  UNL     1     -34.700  15.208  -3.456  1.00 20.00     0.136 C 
ENDROOT
BRANCH   4   5
HETATM    5  C1  UNL     1     -35.930  15.529  -4.347  1.00 20.00     0.253 C 
HETATM    6  O7  UNL     1     -35.832  16.215  -5.360  1.00 20.00    -0.276 OA
HETATM    7 CL9  UNL     1     -37.388  14.810  -3.731  1.00 20.00    -0.041 Cl
ENDBRANCH   4   5
BRANCH   4   8
HETATM    8  O8  UNL     1     -34.466  13.782  -3.424  1.00 20.00    -0.376 OA
HETATM    9  C6  UNL     1     -34.517  13.243  -4.729  1.00 20.00     0.203 C 
ENDBRANCH   4   8
TORSDOF 2
ENDMDL
