MODEL 1
REMARK VINA RESULT:      -5.1      0.000      0.000
REMARK  1 active torsions:
REMARK  status: ('A' for Active; 'I' for Inactive)
REMARK    1  A    between atoms: C3_3  and  C9_9 
ROOT
HETATM    1  C1  UNL     1     -34.734  16.660  -1.969  1.00 20.00    -0.067 A 
HETATM    2  C2  UNL     1     -34.653  16.640  -0.656  1.00 20.00     0.016 C 
HETATM    3  C4  UNL     1     -34.313  13.271  -4.577  1.00 20.00     0.000 C 
HETATM    4  C5  UNL     1     -33.258  13.868  -3.644  1.00 20.00     0.001 C 
HETATM    5  C6  UNL     1     -35.562  14.143  -4.721  1.00 20.00     0.001 C 
HETATM    6  C7  UNL     1     -33.309  15.393  -3.626  1.00 20.00     0.015 C 
HETATM    7  C8  UNL     1     -35.834  14.963  -3.463  1.00 20.00     0.015 C 
HETATM    8  C9  UNL     1     -34.948  17.452  -3.114  1.00 20.00     0.096 A 
HETATM    9  C10 UNL     1     -34.667  15.883  -3.156  1.00 20.00    -0.003 A 
ENDROOT
BRANCH   8  10
HETATM   10  C3  UNL     1     -33.883  18.404  -3.438  1.00 20.00     0.132 C 
HETATM   11  C11 UNL     1     -33.645  18.681  -4.898  1.00 20.00     0.091 C 
HETATM   12  O12 UNL     1     -33.217  18.950  -2.560  1.00 20.00    -0.298 OA
ENDBRANCH   8  10
TORSDOF 1
ENDMDL
MODEL 2
REMARK VINA RESULT:      -4.8      2.135      4.328
REMARK  1 active torsions:
REMARK  status: ('A' for Active; 'I' for Inactive)
REMARK    1  A    between atoms: C3_3  and  C9_9 
ROOT
HETATM    1  C1  UNL     1     -33.408  15.083  -3.653  1.00 20.00    -0.067 A 
HETATM    2  C2  UNL     1     -32.266  14.439  -3.542  1.00 20.00     0.016 C 
HETATM    3  C4  UNL     1     -34.710  18.358  -1.196  1.00 20.00     0.000 C 
HETATM    4  C5  UNL     1     -34.427  16.919  -0.761  1.00 20.00     0.001 C 
HETATM    5  C6  UNL     1     -34.726  18.543  -2.715  1.00 20.00     0.001 C 
HETATM    6  C7  UNL     1     -34.908  15.905  -1.796  1.00 20.00     0.015 C 
HETATM    7  C8  UNL     1     -33.802  17.555  -3.420  1.00 20.00     0.015 C 
HETATM    8  C9  UNL     1     -34.617  15.201  -4.366  1.00 20.00     0.096 A 
HETATM    9  C10 UNL     1     -34.218  16.125  -3.129  1.00 20.00    -0.003 A 
ENDROOT
BRANCH   8  10
HETATM   10  C3  UNL     1     -35.569  14.101  -4.191  1.00 20.00     0.132 C 
HETATM   11  C11 UNL     1     -37.024  14.474  -4.098  1.00 20.00     0.091 C 
HETATM   12  O12 UNL     1     -35.197  12.931  -4.123  1.00 20.00    -0.298 OA
ENDBRANCH   8  10
TORSDOF 1
ENDMDL
MODEL 3
REMARK VINA RESULT:      -4.8      1.011      2.750
REMARK  1 active torsions:
REMARK  status: ('A' for Active; 'I' for Inactive)
REMARK    1  A    between atoms: C3_3  and  C9_9 
ROOT
HETATM    1  C1  UNL     1     -33.846  17.424  -3.641  1.00 20.00    -0.067 A 
HETATM    2  C2  UNL     1     -33.748  18.361  -4.561  1.00 20.00     0.016 C 
HETATM    3  C4  UNL     1     -35.034  13.349  -4.303  1.00 20.00     0.000 C 
HETATM    4  C5  UNL     1     -35.870  14.612  -4.518  1.00 20.00     0.001 C 
HETATM    5  C6  UNL     1     -33.718  13.608  -3.566  1.00 20.00     0.001 C 
HETATM    6  C7  UNL     1     -35.629  15.648  -3.424  1.00 20.00     0.015 C 
HETATM    7  C8  UNL     1     -33.178  15.008  -3.837  1.00 20.00     0.015 C 
HETATM    8  C9  UNL     1     -33.694  17.108  -2.277  1.00 20.00     0.096 A 
HETATM    9  C10 UNL     1     -34.170  16.066  -3.387  1.00 20.00    -0.003 A 
ENDROOT
BRANCH   8  10
HETATM   10  C3  UNL     1     -34.668  17.718  -1.369  1.00 20.00     0.132 C 
HETATM   11  C11 UNL     1     -34.828  17.076  -0.018  1.00 20.00     0.091 C 
HETATM   12  O12 UNL     1     -35.322  18.706  -1.696  1.00 20.00    -0.298 OA
ENDBRANCH   8  10
TORSDOF 1
ENDMDL
MODEL 4
REMARK VINA RESULT:      -4.8      1.948      4.171
REMARK  1 active torsions:
REMARK  status: ('A' for Active; 'I' for Inactive)
REMARK    1  A    between atoms: C3_3  and  C9_9 
ROOT
HETATM    1  C1  UNL     1     -35.820  15.222  -3.380  1.00 20.00    -0.067 A 
HETATM    2  C2  UNL     1     -37.011  15.310  -3.933  1.00 20.00     0.016 C 
HETATM    3  C4  UNL     1     -33.444  18.511  -1.967  1.00 20.00     0.000 C 
HETATM    4  C5  UNL     1     -33.888  18.229  -3.404  1.00 20.00     0.001 C 
HETATM    5  C6  UNL     1     -33.717  17.352  -1.007  1.00 20.00     0.001 C 
HETATM    6  C7  UNL     1     -33.834  16.741  -3.736  1.00 20.00     0.015 C 
HETATM    7  C8  UNL     1     -34.936  16.537  -1.428  1.00 20.00     0.015 C 
HETATM    8  C9  UNL     1     -34.790  14.360  -2.958  1.00 20.00     0.096 A 
HETATM    9  C10 UNL     1     -34.739  15.947  -2.812  1.00 20.00    -0.003 A 
ENDROOT
BRANCH   8  10
HETATM   10  C3  UNL     1     -34.042  13.691  -4.026  1.00 20.00     0.132 C 
HETATM   11  C11 UNL     1     -34.716  13.598  -5.368  1.00 20.00     0.091 C 
HETATM   12  O12 UNL     1     -32.919  13.229  -3.834  1.00 20.00    -0.298 OA
ENDBRANCH   8  10
TORSDOF 1
ENDMDL
MODEL 5
REMARK VINA RESULT:      -4.7      2.308      4.234
REMARK  1 active torsions:
REMARK  status: ('A' for Active; 'I' for Inactive)
REMARK    1  A    between atoms: C3_3  and  C9_9 
ROOT
HETATM    1  C1  UNL     1     -34.797  14.739  -3.912  1.00 20.00    -0.067 A 
HETATM    2  C2  UNL     1     -34.236  13.548  -3.886  1.00 20.00     0.016 C 
HETATM    3  C4  UNL     1     -33.689  18.105  -1.483  1.00 20.00     0.000 C 
HETATM    4  C5  UNL     1     -34.248  16.760  -1.015  1.00 20.00     0.001 C 
HETATM    5  C6  UNL     1     -33.756  18.299  -2.999  1.00 20.00     0.001 C 
HETATM    6  C7  UNL     1     -35.334  16.238  -1.952  1.00 20.00     0.015 C 
HETATM    7  C8  UNL     1     -33.657  16.974  -3.749  1.00 20.00     0.015 C 
HETATM    8  C9  UNL     1     -35.781  15.552  -4.505  1.00 20.00     0.096 A 
HETATM    9  C10 UNL     1     -34.791  16.045  -3.356  1.00 20.00    -0.003 A 
ENDROOT
BRANCH   8  10
HETATM   10  C3  UNL     1     -37.169  15.207  -4.188  1.00 20.00     0.132 C 
HETATM   11  C11 UNL     1     -38.196  16.290  -4.379  1.00 20.00     0.091 C 
HETATM   12  O12 UNL     1     -37.478  14.087  -3.786  1.00 20.00    -0.298 OA
ENDBRANCH   8  10
TORSDOF 1
ENDMDL
MODEL 6
REMARK VINA RESULT:      -4.5      2.250      4.350
REMARK  1 active torsions:
REMARK  status: ('A' for Active; 'I' for Inactive)
REMARK    1  A    between atoms: C3_3  and  C9_9 
ROOT
HETATM    1  C1  UNL     1     -34.439  16.230  -4.296  1.00 20.00    -0.067 A 
HETATM    2  C2  UNL     1     -33.275  16.195  -4.910  1.00 20.00     0.016 C 
HETATM    3  C4  UNL     1     -35.247  18.119  -0.523  1.00 20.00     0.000 C 
HETATM    4  C5  UNL     1     -34.310  16.940  -0.796  1.00 20.00     0.001 C 
HETATM    5  C6  UNL     1     -36.130  18.484  -1.717  1.00 20.00     0.001 C 
HETATM    6  C7  UNL     1     -34.892  15.975  -1.825  1.00 20.00     0.015 C 
HETATM    7  C8  UNL     1     -35.454  18.161  -3.047  1.00 20.00     0.015 C 
HETATM    8  C9  UNL     1     -35.796  15.859  -4.346  1.00 20.00     0.096 A 
HETATM    9  C10 UNL     1     -35.140  16.680  -3.147  1.00 20.00    -0.003 A 
ENDROOT
BRANCH   8  10
HETATM   10  C3  UNL     1     -36.071  14.427  -4.200  1.00 20.00     0.132 C 
HETATM   11  C11 UNL     1     -34.967  13.483  -4.593  1.00 20.00     0.091 C 
HETATM   12  O12 UNL     1     -37.150  14.018  -3.776  1.00 20.00    -0.298 OA
ENDBRANCH   8  10
TORSDOF 1
ENDMDL
MODEL 7
REMARK VINA RESULT:      -4.5      2.687      4.384
REMARK  1 active torsions:
REMARK  status: ('A' for Active; 'I' for Inactive)
REMARK    1  A    between atoms: C3_3  and  C9_9 
ROOT
HETATM    1  C1  UNL     1     -36.274  15.129  -4.397  1.00 20.00    -0.067 A 
HETATM    2  C2  UNL     1     -37.547  14.803  -4.318  1.00 20.00     0.016 C 
HETATM    3  C4  UNL     1     -34.474  17.566  -7.442  1.00 20.00     0.000 C 
HETATM    4  C5  UNL     1     -35.158  16.209  -7.616  1.00 20.00     0.001 C 
HETATM    5  C6  UNL     1     -34.240  17.948  -5.979  1.00 20.00     0.001 C 
HETATM    6  C7  UNL     1     -34.835  15.257  -6.468  1.00 20.00     0.015 C 
HETATM    7  C8  UNL     1     -35.298  17.350  -5.057  1.00 20.00     0.015 C 
HETATM    8  C9  UNL     1     -35.002  15.017  -3.803  1.00 20.00     0.096 A 
HETATM    9  C10 UNL     1     -35.292  15.834  -5.141  1.00 20.00    -0.003 A 
ENDROOT
BRANCH   8  10
HETATM   10  C3  UNL     1     -34.384  13.689  -3.866  1.00 20.00     0.132 C 
HETATM   11  C11 UNL     1     -32.918  13.610  -3.541  1.00 20.00     0.091 C 
HETATM   12  O12 UNL     1     -35.034  12.691  -4.170  1.00 20.00    -0.298 OA
ENDBRANCH   8  10
TORSDOF 1
ENDMDL
MODEL 8
REMARK VINA RESULT:      -4.5      2.191      3.370
REMARK  1 active torsions:
REMARK  status: ('A' for Active; 'I' for Inactive)
REMARK    1  A    between atoms: C3_3  and  C9_9 
ROOT
HETATM    1  C1  UNL     1     -33.785  14.772  -3.891  1.00 20.00    -0.067 A 
HETATM    2  C2  UNL     1     -32.544  14.549  -3.516  1.00 20.00     0.016 C 
HETATM    3  C4  UNL     1     -35.094  15.689  -7.879  1.00 20.00     0.000 C 
HETATM    4  C5  UNL     1     -34.168  16.518  -6.986  1.00 20.00     0.001 C 
HETATM    5  C6  UNL     1     -35.771  14.530  -7.145  1.00 20.00     0.001 C 
HETATM    6  C7  UNL     1     -34.619  16.504  -5.528  1.00 20.00     0.015 C 
HETATM    7  C8  UNL     1     -34.912  13.999  -6.001  1.00 20.00     0.015 C 
HETATM    8  C9  UNL     1     -35.131  14.847  -3.484  1.00 20.00     0.096 A 
HETATM    9  C10 UNL     1     -34.638  15.089  -4.981  1.00 20.00    -0.003 A 
ENDROOT
BRANCH   8  10
HETATM   10  C3  UNL     1     -35.475  15.984  -2.626  1.00 20.00     0.132 C 
HETATM   11  C11 UNL     1     -34.503  16.321  -1.528  1.00 20.00     0.091 C 
HETATM   12  O12 UNL     1     -36.506  16.631  -2.796  1.00 20.00    -0.298 OA
ENDBRANCH   8  10
TORSDOF 1
ENDMDL
MODEL 9
REMARK VINA RESULT:      -4.5      1.644      4.028
REMARK  1 active torsions:
REMARK  status: ('A' for Active; 'I' for Inactive)
REMARK    1  A    between atoms: C3_3  and  C9_9 
ROOT
HETATM    1  C1  UNL     1     -35.532  15.541  -3.087  1.00 20.00    -0.067 A 
HETATM    2  C2  UNL     1     -36.730  15.060  -3.339  1.00 20.00     0.016 C 
HETATM    3  C4  UNL     1     -34.653  19.025  -0.732  1.00 20.00     0.000 C 
HETATM    4  C5  UNL     1     -35.435  18.959  -2.045  1.00 20.00     0.001 C 
HETATM    5  C6  UNL     1     -33.945  17.716  -0.377  1.00 20.00     0.001 C 
HETATM    6  C7  UNL     1     -34.820  17.964  -3.025  1.00 20.00     0.015 C 
HETATM    7  C8  UNL     1     -34.688  16.500  -0.921  1.00 20.00     0.015 C 
HETATM    8  C9  UNL     1     -34.146  15.381  -3.279  1.00 20.00     0.096 A 
HETATM    9  C10 UNL     1     -34.797  16.566  -2.434  1.00 20.00    -0.003 A 
ENDROOT
BRANCH   8  10
HETATM   10  C3  UNL     1     -33.658  15.624  -4.639  1.00 20.00     0.132 C 
HETATM   11  C11 UNL     1     -34.445  15.001  -5.760  1.00 20.00     0.091 C 
HETATM   12  O12 UNL     1     -32.657  16.304  -4.853  1.00 20.00    -0.298 OA
ENDBRANCH   8  10
TORSDOF 1
ENDMDL
