MODEL 1
REMARK VINA RESULT:      -4.5      0.000      0.000
REMARK  1 active torsions:
REMARK  status: ('A' for Active; 'I' for Inactive)
REMARK    1  A    between atoms: C2_2  and  C3_3 
ROOT
HETATM    1  C1  UNL     1     -35.846  16.053  -2.787  1.00 20.00    -0.015 C 
HETATM    2  C2  UNL     1     -36.103  15.031  -3.608  1.00 20.00    -0.012 C 
HETATM    3  C4  UNL     1     -34.461  15.959  -2.233  1.00 20.00     0.032 C 
HETATM    4  C5  UNL     1     -34.946  14.087  -3.735  1.00 20.00     0.022 C 
HETATM    5  C6  UNL     1     -33.779  14.945  -3.175  1.00 20.00    -0.007 C 
HETATM    6  C8  UNL     1     -34.723  13.523  -5.133  1.00 20.00     0.015 C 
HETATM    7  C9  UNL     1     -32.953  15.681  -4.237  1.00 20.00     0.011 C 
ENDROOT
BRANCH   2   8
HETATM    8  C3  UNL     1     -37.405  14.864  -4.235  1.00 20.00     0.151 C 
HETATM    9  C7  UNL     1     -37.692  15.623  -5.512  1.00 20.00     0.096 C 
HETATM   10  O10 UNL     1     -38.265  14.125  -3.736  1.00 20.00    -0.293 OA
ENDBRANCH   2   8
TORSDOF 1
ENDMDL
MODEL 2
REMARK VINA RESULT:      -4.5     11.791     12.673
REMARK  1 active torsions:
REMARK  status: ('A' for Active; 'I' for Inactive)
REMARK    1  A    between atoms: C2_2  and  C3_3 
ROOT
HETATM    1  C1  UNL     1     -33.151   6.629   5.596  1.00 20.00    -0.015 C 
HETATM    2  C2  UNL     1     -33.340   6.444   4.286  1.00 20.00    -0.012 C 
HETATM    3  C4  UNL     1     -34.356   6.212   6.375  1.00 20.00     0.032 C 
HETATM    4  C5  UNL     1     -34.692   5.883   3.971  1.00 20.00     0.022 C 
HETATM    5  C6  UNL     1     -35.144   5.356   5.362  1.00 20.00    -0.007 C 
HETATM    6  C8  UNL     1     -34.720   4.853   2.848  1.00 20.00     0.015 C 
HETATM    7  C9  UNL     1     -34.876   3.866   5.604  1.00 20.00     0.011 C 
ENDROOT
BRANCH   2   8
HETATM    8  C3  UNL     1     -32.332   6.824   3.309  1.00 20.00     0.151 C 
HETATM    9  C7  UNL     1     -32.444   8.180   2.648  1.00 20.00     0.096 C 
HETATM   10  O10 UNL     1     -31.406   6.055   3.014  1.00 20.00    -0.293 OA
ENDBRANCH   2   8
TORSDOF 1
ENDMDL
MODEL 3
REMARK VINA RESULT:      -4.5      2.144      3.664
REMARK  1 active torsions:
REMARK  status: ('A' for Active; 'I' for Inactive)
REMARK    1  A    between atoms: C2_2  and  C3_3 
ROOT
HETATM    1  C1  UNL     1     -33.247  14.693  -3.421  1.00 20.00    -0.015 C 
HETATM    2  C2  UNL     1     -34.308  15.405  -3.031  1.00 20.00    -0.012 C 
HETATM    3  C4  UNL     1     -33.668  13.455  -4.143  1.00 20.00     0.032 C 
HETATM    4  C5  UNL     1     -35.606  14.765  -3.419  1.00 20.00     0.022 C 
HETATM    5  C6  UNL     1     -35.143  13.743  -4.493  1.00 20.00    -0.007 C 
HETATM    6  C8  UNL     1     -36.694  15.732  -3.871  1.00 20.00     0.015 C 
HETATM    7  C9  UNL     1     -35.258  14.234  -5.941  1.00 20.00     0.011 C 
ENDROOT
BRANCH   2   8
HETATM    8  C3  UNL     1     -34.165  16.630  -2.260  1.00 20.00     0.151 C 
HETATM    9  C7  UNL     1     -34.646  16.639  -0.825  1.00 20.00     0.096 C 
HETATM   10  O10 UNL     1     -33.668  17.648  -2.762  1.00 20.00    -0.293 OA
ENDBRANCH   2   8
TORSDOF 1
ENDMDL
MODEL 4
REMARK VINA RESULT:      -4.5      2.421      3.167
REMARK  1 active torsions:
REMARK  status: ('A' for Active; 'I' for Inactive)
REMARK    1  A    between atoms: C2_2  and  C3_3 
ROOT
HETATM    1  C1  UNL     1     -34.413  15.636  -2.199  1.00 20.00    -0.015 C 
HETATM    2  C2  UNL     1     -33.928  15.260  -3.386  1.00 20.00    -0.012 C 
HETATM    3  C4  UNL     1     -34.208  17.099  -1.976  1.00 20.00     0.032 C 
HETATM    4  C5  UNL     1     -33.317  16.398  -4.147  1.00 20.00     0.022 C 
HETATM    5  C6  UNL     1     -33.898  17.626  -3.393  1.00 20.00    -0.007 C 
HETATM    6  C8  UNL     1     -33.571  16.381  -5.649  1.00 20.00     0.015 C 
HETATM    7  C9  UNL     1     -35.159  18.230  -4.021  1.00 20.00     0.011 C 
ENDROOT
BRANCH   2   8
HETATM    8  C3  UNL     1     -33.956  13.872  -3.818  1.00 20.00     0.151 C 
HETATM    9  C7  UNL     1     -35.256  13.310  -4.352  1.00 20.00     0.096 C 
HETATM   10  O10 UNL     1     -32.946  13.158  -3.746  1.00 20.00    -0.293 OA
ENDBRANCH   2   8
TORSDOF 1
ENDMDL
MODEL 5
REMARK VINA RESULT:      -4.4      1.600      2.424
REMARK  1 active torsions:
REMARK  status: ('A' for Active; 'I' for Inactive)
REMARK    1  A    between atoms: C2_2  and  C3_3 
ROOT
HETATM    1  C1  UNL     1     -36.134  15.421  -3.837  1.00 20.00    -0.015 C 
HETATM    2  C2  UNL     1     -35.042  14.683  -4.058  1.00 20.00    -0.012 C 
HETATM    3  C4  UNL     1     -35.961  16.286  -2.632  1.00 20.00     0.032 C 
HETATM    4  C5  UNL     1     -33.967  14.926  -3.043  1.00 20.00     0.022 C 
HETATM    5  C6  UNL     1     -34.435  16.262  -2.404  1.00 20.00    -0.007 C 
HETATM    6  C8  UNL     1     -32.547  14.935  -3.596  1.00 20.00     0.015 C 
HETATM    7  C9  UNL     1     -33.791  17.521  -2.997  1.00 20.00     0.011 C 
ENDROOT
BRANCH   2   8
HETATM    8  C3  UNL     1     -34.979  13.717  -5.143  1.00 20.00     0.151 C 
HETATM    9  C7  UNL     1     -35.157  14.214  -6.561  1.00 20.00     0.096 C 
HETATM   10  O10 UNL     1     -34.793  12.513  -4.918  1.00 20.00    -0.293 OA
ENDBRANCH   2   8
TORSDOF 1
ENDMDL
MODEL 6
REMARK VINA RESULT:      -4.3      2.258      3.079
REMARK  1 active torsions:
REMARK  status: ('A' for Active; 'I' for Inactive)
REMARK    1  A    between atoms: C2_2  and  C3_3 
ROOT
HETATM    1  C1  UNL     1     -34.565  13.619  -4.825  1.00 20.00    -0.015 C 
HETATM    2  C2  UNL     1     -34.490  14.712  -5.590  1.00 20.00    -0.012 C 
HETATM    3  C4  UNL     1     -33.596  13.692  -3.691  1.00 20.00     0.032 C 
HETATM    4  C5  UNL     1     -33.464  15.689  -5.102  1.00 20.00     0.022 C 
HETATM    5  C6  UNL     1     -33.219  15.188  -3.652  1.00 20.00    -0.007 C 
HETATM    6  C8  UNL     1     -33.858  17.156  -5.222  1.00 20.00     0.015 C 
HETATM    7  C9  UNL     1     -34.034  15.912  -2.574  1.00 20.00     0.011 C 
ENDROOT
BRANCH   2   8
HETATM    8  C3  UNL     1     -35.296  14.860  -6.792  1.00 20.00     0.151 C 
HETATM    9  C7  UNL     1     -36.774  15.142  -6.638  1.00 20.00     0.096 C 
HETATM   10  O10 UNL     1     -34.790  14.752  -7.918  1.00 20.00    -0.293 OA
ENDBRANCH   2   8
TORSDOF 1
ENDMDL
MODEL 7
REMARK VINA RESULT:      -4.3      2.489      4.053
REMARK  1 active torsions:
REMARK  status: ('A' for Active; 'I' for Inactive)
REMARK    1  A    between atoms: C2_2  and  C3_3 
ROOT
HETATM    1  C1  UNL     1     -33.775  16.313  -5.831  1.00 20.00    -0.015 C 
HETATM    2  C2  UNL     1     -33.822  15.304  -4.956  1.00 20.00    -0.012 C 
HETATM    3  C4  UNL     1     -34.494  15.962  -7.093  1.00 20.00     0.032 C 
HETATM    4  C5  UNL     1     -34.569  14.117  -5.484  1.00 20.00     0.022 C 
HETATM    5  C6  UNL     1     -35.340  14.739  -6.681  1.00 20.00    -0.007 C 
HETATM    6  C8  UNL     1     -35.435  13.391  -4.462  1.00 20.00     0.015 C 
HETATM    7  C9  UNL     1     -36.777  15.170  -6.367  1.00 20.00     0.011 C 
ENDROOT
BRANCH   2   8
HETATM    8  C3  UNL     1     -33.149  15.377  -3.669  1.00 20.00     0.151 C 
HETATM    9  C7  UNL     1     -33.746  16.257  -2.593  1.00 20.00     0.096 C 
HETATM   10  O10 UNL     1     -32.107  14.742  -3.455  1.00 20.00    -0.293 OA
ENDBRANCH   2   8
TORSDOF 1
ENDMDL
MODEL 8
REMARK VINA RESULT:      -4.2     11.004     12.106
REMARK  1 active torsions:
REMARK  status: ('A' for Active; 'I' for Inactive)
REMARK    1  A    between atoms: C2_2  and  C3_3 
ROOT
HETATM    1  C1  UNL     1     -41.237   5.012  -0.446  1.00 20.00    -0.015 C 
HETATM    2  C2  UNL     1     -41.860   4.838  -1.615  1.00 20.00    -0.012 C 
HETATM    3  C4  UNL     1     -40.763   6.420  -0.295  1.00 20.00     0.032 C 
HETATM    4  C5  UNL     1     -41.901   6.089  -2.439  1.00 20.00     0.022 C 
HETATM    5  C6  UNL     1     -41.565   7.173  -1.378  1.00 20.00    -0.007 C 
HETATM    6  C8  UNL     1     -43.198   6.314  -3.207  1.00 20.00     0.015 C 
HETATM    7  C9  UNL     1     -42.784   7.861  -0.752  1.00 20.00     0.011 C 
ENDROOT
BRANCH   2   8
HETATM    8  C3  UNL     1     -42.368   3.538  -2.024  1.00 20.00     0.151 C 
HETATM    9  C7  UNL     1     -41.590   2.753  -3.058  1.00 20.00     0.096 C 
HETATM   10  O10 UNL     1     -43.417   3.082  -1.548  1.00 20.00    -0.293 OA
ENDBRANCH   2   8
TORSDOF 1
ENDMDL
MODEL 9
REMARK VINA RESULT:      -4.1      0.938      2.437
REMARK  1 active torsions:
REMARK  status: ('A' for Active; 'I' for Inactive)
REMARK    1  A    between atoms: C2_2  and  C3_3 
ROOT
HETATM    1  C1  UNL     1     -34.884  14.621  -3.502  1.00 20.00    -0.015 C 
HETATM    2  C2  UNL     1     -35.940  15.420  -3.681  1.00 20.00    -0.012 C 
HETATM    3  C4  UNL     1     -33.727  15.380  -2.939  1.00 20.00     0.032 C 
HETATM    4  C5  UNL     1     -35.667  16.836  -3.276  1.00 20.00     0.022 C 
HETATM    5  C6  UNL     1     -34.383  16.674  -2.415  1.00 20.00    -0.007 C 
HETATM    6  C8  UNL     1     -36.825  17.546  -2.585  1.00 20.00     0.015 C 
HETATM    7  C9  UNL     1     -34.630  16.570  -0.905  1.00 20.00     0.011 C 
ENDROOT
BRANCH   2   8
HETATM    8  C3  UNL     1     -37.177  14.931  -4.269  1.00 20.00     0.151 C 
HETATM    9  C7  UNL     1     -37.513  15.341  -5.686  1.00 20.00     0.096 C 
HETATM   10  O10 UNL     1     -37.946  14.202  -3.626  1.00 20.00    -0.293 OA
ENDBRANCH   2   8
TORSDOF 1
ENDMDL
