MODEL 1
REMARK VINA RESULT:      -3.5      0.000      0.000
REMARK  1 active torsions:
REMARK  status: ('A' for Active; 'I' for Inactive)
REMARK    1  A    between atoms: CA_2  and  C_3 
ROOT
ATOM      1  N   GLY A   1     -35.580  13.576  -4.708  1.00 20.00    -0.249 NA
ATOM      2  CA  GLY A   1     -35.825  14.575  -3.787  1.00 20.00     0.122 A 
HETATM    3  C1  UNK A   1     -34.289  13.329  -4.733  1.00 20.00     0.168 A 
HETATM    4  C2  UNK A   1     -34.720  15.073  -3.128  1.00 20.00     0.104 A 
HETATM    5  S3  UNK A   1     -34.755  16.297  -1.957  1.00 20.00    -0.070 SA
HETATM    6  S4  UNK A   1     -33.312  14.262  -3.675  1.00 20.00    -0.069 SA
ENDROOT
BRANCH   2   7
ATOM      7  C   GLY A   1     -37.191  15.001  -3.601  1.00 20.00     0.292 C 
ATOM      8  O   GLY A   1     -38.165  14.238  -3.685  1.00 20.00    -0.300 OA
ENDBRANCH   2   7
TORSDOF 1
ENDMDL
MODEL 2
REMARK VINA RESULT:      -3.5      2.654      3.246
REMARK  1 active torsions:
REMARK  status: ('A' for Active; 'I' for Inactive)
REMARK    1  A    between atoms: CA_2  and  C_3 
ROOT
ATOM      1  N   GLY A   1     -34.388  15.459  -3.148  1.00 20.00    -0.249 NA
ATOM      2  CA  GLY A   1     -34.717  14.881  -4.358  1.00 20.00     0.122 A 
HETATM    3  C1  UNK A   1     -33.729  16.573  -3.375  1.00 20.00     0.168 A 
HETATM    4  C2  UNK A   1     -34.303  15.562  -5.484  1.00 20.00     0.104 A 
HETATM    5  S3  UNK A   1     -34.581  15.063  -7.080  1.00 20.00    -0.070 SA
HETATM    6  S4  UNK A   1     -33.469  16.986  -5.020  1.00 20.00    -0.069 SA
ENDROOT
BRANCH   2   7
ATOM      7  C   GLY A   1     -35.450  13.639  -4.336  1.00 20.00     0.292 C 
ATOM      8  O   GLY A   1     -34.930  12.531  -4.543  1.00 20.00    -0.300 OA
ENDBRANCH   2   7
TORSDOF 1
ENDMDL
MODEL 3
REMARK VINA RESULT:      -3.4      2.416      2.588
REMARK  1 active torsions:
REMARK  status: ('A' for Active; 'I' for Inactive)
REMARK    1  A    between atoms: CA_2  and  C_3 
ROOT
ATOM      1  N   GLY A   1     -34.429  14.796  -6.021  1.00 20.00    -0.249 NA
ATOM      2  CA  GLY A   1     -34.413  14.867  -4.643  1.00 20.00     0.122 A 
HETATM    3  C1  UNK A   1     -34.052  15.956  -6.511  1.00 20.00     0.168 A 
HETATM    4  C2  UNK A   1     -34.025  16.077  -4.105  1.00 20.00     0.104 A 
HETATM    5  S3  UNK A   1     -33.924  16.418  -2.449  1.00 20.00    -0.070 SA
HETATM    6  S4  UNK A   1     -33.663  17.177  -5.370  1.00 20.00    -0.069 SA
ENDROOT
BRANCH   2   7
ATOM      7  C   GLY A   1     -34.796  13.690  -3.901  1.00 20.00     0.292 C 
ATOM      8  O   GLY A   1     -34.943  12.571  -4.417  1.00 20.00    -0.300 OA
ENDBRANCH   2   7
TORSDOF 1
ENDMDL
MODEL 4
REMARK VINA RESULT:      -3.4      2.226      3.068
REMARK  1 active torsions:
REMARK  status: ('A' for Active; 'I' for Inactive)
REMARK    1  A    between atoms: CA_2  and  C_3 
ROOT
ATOM      1  N   GLY A   1     -37.200  14.118  -3.771  1.00 20.00    -0.249 NA
ATOM      2  CA  GLY A   1     -35.901  14.538  -3.976  1.00 20.00     0.122 A 
HETATM    3  C1  UNK A   1     -37.994  15.166  -3.792  1.00 20.00     0.168 A 
HETATM    4  C2  UNK A   1     -35.726  15.896  -4.150  1.00 20.00     0.104 A 
HETATM    5  S3  UNK A   1     -34.237  16.658  -4.417  1.00 20.00    -0.070 SA
HETATM    6  S4  UNK A   1     -37.245  16.687  -4.056  1.00 20.00    -0.069 SA
ENDROOT
BRANCH   2   7
ATOM      7  C   GLY A   1     -34.862  13.538  -3.990  1.00 20.00     0.292 C 
ATOM      8  O   GLY A   1     -34.829  12.594  -4.795  1.00 20.00    -0.300 OA
ENDBRANCH   2   7
TORSDOF 1
ENDMDL
MODEL 5
REMARK VINA RESULT:      -3.4      2.260      3.030
REMARK  1 active torsions:
REMARK  status: ('A' for Active; 'I' for Inactive)
REMARK    1  A    between atoms: CA_2  and  C_3 
ROOT
ATOM      1  N   GLY A   1     -33.437  15.279  -3.441  1.00 20.00    -0.249 NA
ATOM      2  CA  GLY A   1     -34.643  14.800  -3.911  1.00 20.00     0.122 A 
HETATM    3  C1  UNK A   1     -33.669  16.255  -2.592  1.00 20.00     0.168 A 
HETATM    4  C2  UNK A   1     -35.773  15.417  -3.414  1.00 20.00     0.104 A 
HETATM    5  S3  UNK A   1     -37.365  15.016  -3.832  1.00 20.00    -0.070 SA
HETATM    6  S4  UNK A   1     -35.316  16.648  -2.311  1.00 20.00    -0.069 SA
ENDROOT
BRANCH   2   7
ATOM      7  C   GLY A   1     -34.615  13.717  -4.863  1.00 20.00     0.292 C 
ATOM      8  O   GLY A   1     -34.855  12.536  -4.567  1.00 20.00    -0.300 OA
ENDBRANCH   2   7
TORSDOF 1
ENDMDL
MODEL 6
REMARK VINA RESULT:      -3.2      1.764      2.450
REMARK  1 active torsions:
REMARK  status: ('A' for Active; 'I' for Inactive)
REMARK    1  A    between atoms: CA_2  and  C_3 
ROOT
ATOM      1  N   GLY A   1     -35.399  15.958  -2.443  1.00 20.00    -0.249 NA
ATOM      2  CA  GLY A   1     -35.803  15.374  -3.627  1.00 20.00     0.122 A 
HETATM    3  C1  UNK A   1     -34.086  16.018  -2.425  1.00 20.00     0.168 A 
HETATM    4  C2  UNK A   1     -34.794  14.999  -4.490  1.00 20.00     0.104 A 
HETATM    5  S3  UNK A   1     -35.027  14.265  -5.999  1.00 20.00    -0.070 SA
HETATM    6  S4  UNK A   1     -33.274  15.391  -3.800  1.00 20.00    -0.069 SA
ENDROOT
BRANCH   2   7
ATOM      7  C   GLY A   1     -37.218  15.212  -3.851  1.00 20.00     0.292 C 
ATOM      8  O   GLY A   1     -37.817  14.135  -3.704  1.00 20.00    -0.300 OA
ENDBRANCH   2   7
TORSDOF 1
ENDMDL
MODEL 7
REMARK VINA RESULT:      -3.2      2.889      3.394
REMARK  1 active torsions:
REMARK  status: ('A' for Active; 'I' for Inactive)
REMARK    1  A    between atoms: CA_2  and  C_3 
ROOT
ATOM      1  N   GLY A   1     -33.023  16.142  -4.656  1.00 20.00    -0.249 NA
ATOM      2  CA  GLY A   1     -34.062  15.360  -4.192  1.00 20.00     0.122 A 
HETATM    3  C1  UNK A   1     -33.500  17.313  -5.016  1.00 20.00     0.168 A 
HETATM    4  C2  UNK A   1     -35.311  15.947  -4.207  1.00 20.00     0.104 A 
HETATM    5  S3  UNK A   1     -36.742  15.201  -3.692  1.00 20.00    -0.070 SA
HETATM    6  S4  UNK A   1     -35.189  17.542  -4.823  1.00 20.00    -0.069 SA
ENDROOT
BRANCH   2   7
ATOM      7  C   GLY A   1     -33.755  14.025  -3.742  1.00 20.00     0.292 C 
ATOM      8  O   GLY A   1     -33.956  13.008  -4.423  1.00 20.00    -0.300 OA
ENDBRANCH   2   7
TORSDOF 1
ENDMDL
MODEL 8
REMARK VINA RESULT:      -3.1      2.530      3.410
REMARK  1 active torsions:
REMARK  status: ('A' for Active; 'I' for Inactive)
REMARK    1  A    between atoms: CA_2  and  C_3 
ROOT
ATOM      1  N   GLY A   1     -35.958  15.410  -3.086  1.00 20.00    -0.249 NA
ATOM      2  CA  GLY A   1     -35.225  14.933  -4.154  1.00 20.00     0.122 A 
HETATM    3  C1  UNK A   1     -36.493  16.563  -3.420  1.00 20.00     0.168 A 
HETATM    4  C2  UNK A   1     -35.213  15.729  -5.281  1.00 20.00     0.104 A 
HETATM    5  S3  UNK A   1     -34.391  15.368  -6.718  1.00 20.00    -0.070 SA
HETATM    6  S4  UNK A   1     -36.157  17.133  -5.003  1.00 20.00    -0.069 SA
ENDROOT
BRANCH   2   7
ATOM      7  C   GLY A   1     -34.549  13.669  -3.998  1.00 20.00     0.292 C 
ATOM      8  O   GLY A   1     -35.004  12.592  -4.413  1.00 20.00    -0.300 OA
ENDBRANCH   2   7
TORSDOF 1
ENDMDL
MODEL 9
REMARK VINA RESULT:      -3.1     11.312     11.622
REMARK  1 active torsions:
REMARK  status: ('A' for Active; 'I' for Inactive)
REMARK    1  A    between atoms: CA_2  and  C_3 
ROOT
ATOM      1  N   GLY A   1     -40.835   4.701  -0.814  1.00 20.00    -0.249 NA
ATOM      2  CA  GLY A   1     -41.672   4.885  -1.896  1.00 20.00     0.122 A 
HETATM    3  C1  UNK A   1     -40.601   5.868  -0.255  1.00 20.00     0.168 A 
HETATM    4  C2  UNK A   1     -42.060   6.186  -2.144  1.00 20.00     0.104 A 
HETATM    5  S3  UNK A   1     -43.079   6.673  -3.407  1.00 20.00    -0.070 SA
HETATM    6  S4  UNK A   1     -41.356   7.228  -0.979  1.00 20.00    -0.069 SA
ENDROOT
BRANCH   2   7
ATOM      7  C   GLY A   1     -42.058   3.723  -2.657  1.00 20.00     0.292 C 
ATOM      8  O   GLY A   1     -41.272   2.814  -2.968  1.00 20.00    -0.300 OA
ENDBRANCH   2   7
TORSDOF 1
ENDMDL
