MODEL 1
REMARK VINA RESULT:      -5.2      0.000      0.000
REMARK  1 active torsions:
REMARK  status: ('A' for Active; 'I' for Inactive)
REMARK    1  A    between atoms: C4_4  and  C5_5 
ROOT
HETATM    1  C1  UNL     1     -34.375  13.541  -3.684  1.00 20.00    -0.021 C 
HETATM    2  C2  UNL     1     -33.150  14.070  -3.799  1.00 20.00    -0.025 C 
HETATM    3  C3  UNL     1     -35.601  15.588  -5.738  1.00 20.00    -0.015 C 
HETATM    4  C4  UNL     1     -36.134  15.052  -4.625  1.00 20.00    -0.009 C 
HETATM    5  C6  UNL     1     -34.145  15.838  -6.039  1.00 20.00     0.028 C 
HETATM    6  C7  UNL     1     -33.209  16.341  -4.924  1.00 20.00     0.012 C 
HETATM    7  C8  UNL     1     -34.507  15.718  -2.835  1.00 20.00     0.022 C 
HETATM    8  C9  UNL     1     -35.398  14.604  -3.391  1.00 20.00     0.045 C 
HETATM    9  C10 UNL     1     -33.191  15.558  -3.604  1.00 20.00     0.009 C 
ENDROOT
BRANCH   4  10
HETATM   10  C5  UNL     1     -37.597  14.898  -4.628  1.00 20.00     0.152 C 
HETATM   11  C11 UNL     1     -38.373  15.570  -5.729  1.00 20.00     0.096 C 
HETATM   12  O12 UNL     1     -38.156  14.244  -3.748  1.00 20.00    -0.293 OA
ENDBRANCH   4  10
TORSDOF 1
ENDMDL
MODEL 2
REMARK VINA RESULT:      -5.1      2.158      3.714
REMARK  1 active torsions:
REMARK  status: ('A' for Active; 'I' for Inactive)
REMARK    1  A    between atoms: C4_4  and  C5_5 
ROOT
HETATM    1  C1  UNL     1     -33.424  13.957  -3.634  1.00 20.00    -0.021 C 
HETATM    2  C2  UNL     1     -34.079  13.354  -4.634  1.00 20.00    -0.025 C 
HETATM    3  C3  UNL     1     -35.906  15.756  -2.912  1.00 20.00    -0.015 C 
HETATM    4  C4  UNL     1     -34.591  16.040  -2.879  1.00 20.00    -0.009 C 
HETATM    5  C6  UNL     1     -36.618  14.766  -3.798  1.00 20.00     0.028 C 
HETATM    6  C7  UNL     1     -36.188  14.610  -5.269  1.00 20.00     0.012 C 
HETATM    7  C8  UNL     1     -33.856  15.607  -5.239  1.00 20.00     0.022 C 
HETATM    8  C9  UNL     1     -33.514  15.455  -3.753  1.00 20.00     0.045 C 
HETATM    9  C10 UNL     1     -34.699  14.367  -5.553  1.00 20.00     0.009 C 
ENDROOT
BRANCH   4  10
HETATM   10  C5  UNL     1     -34.177  17.035  -1.879  1.00 20.00     0.152 C 
HETATM   11  C11 UNL     1     -34.638  16.839  -0.459  1.00 20.00     0.096 C 
HETATM   12  O12 UNL     1     -33.481  17.995  -2.207  1.00 20.00    -0.293 OA
ENDBRANCH   4  10
TORSDOF 1
ENDMDL
MODEL 3
REMARK VINA RESULT:      -5.1      2.128      3.901
REMARK  1 active torsions:
REMARK  status: ('A' for Active; 'I' for Inactive)
REMARK    1  A    between atoms: C4_4  and  C5_5 
ROOT
HETATM    1  C1  UNL     1     -33.984  16.267  -5.958  1.00 20.00    -0.021 C 
HETATM    2  C2  UNL     1     -34.261  15.121  -6.592  1.00 20.00    -0.025 C 
HETATM    3  C3  UNL     1     -33.722  14.822  -3.173  1.00 20.00    -0.015 C 
HETATM    4  C4  UNL     1     -34.213  16.037  -3.476  1.00 20.00    -0.009 C 
HETATM    5  C6  UNL     1     -33.681  13.595  -4.048  1.00 20.00     0.028 C 
HETATM    6  C7  UNL     1     -34.873  13.273  -4.969  1.00 20.00     0.012 C 
HETATM    7  C8  UNL     1     -36.038  15.521  -5.119  1.00 20.00     0.022 C 
HETATM    8  C9  UNL     1     -34.877  16.453  -4.762  1.00 20.00     0.045 C 
HETATM    9  C10 UNL     1     -35.372  14.384  -5.902  1.00 20.00     0.009 C 
ENDROOT
BRANCH   4  10
HETATM   10  C5  UNL     1     -34.086  17.058  -2.425  1.00 20.00     0.152 C 
HETATM   11  C11 UNL     1     -34.495  16.683  -1.026  1.00 20.00     0.096 C 
HETATM   12  O12 UNL     1     -33.662  18.181  -2.697  1.00 20.00    -0.293 OA
ENDBRANCH   4  10
TORSDOF 1
ENDMDL
MODEL 4
REMARK VINA RESULT:      -5.0      1.119      1.994
REMARK  1 active torsions:
REMARK  status: ('A' for Active; 'I' for Inactive)
REMARK    1  A    between atoms: C4_4  and  C5_5 
ROOT
HETATM    1  C1  UNL     1     -35.310  16.374  -2.073  1.00 20.00    -0.021 C 
HETATM    2  C2  UNL     1     -33.971  16.339  -2.035  1.00 20.00    -0.025 C 
HETATM    3  C3  UNL     1     -35.455  13.901  -4.016  1.00 20.00    -0.015 C 
HETATM    4  C4  UNL     1     -36.224  15.003  -3.957  1.00 20.00    -0.009 C 
HETATM    5  C6  UNL     1     -34.014  13.754  -3.601  1.00 20.00     0.028 C 
HETATM    6  C7  UNL     1     -33.017  14.893  -3.885  1.00 20.00     0.012 C 
HETATM    7  C8  UNL     1     -34.569  16.868  -4.238  1.00 20.00     0.022 C 
HETATM    8  C9  UNL     1     -35.811  16.374  -3.492  1.00 20.00     0.045 C 
HETATM    9  C10 UNL     1     -33.399  16.306  -3.423  1.00 20.00     0.009 C 
ENDROOT
BRANCH   4  10
HETATM   10  C5  UNL     1     -37.615  14.837  -4.405  1.00 20.00     0.152 C 
HETATM   11  C11 UNL     1     -38.025  15.507  -5.690  1.00 20.00     0.096 C 
HETATM   12  O12 UNL     1     -38.409  14.175  -3.738  1.00 20.00    -0.293 OA
ENDBRANCH   4  10
TORSDOF 1
ENDMDL
MODEL 5
REMARK VINA RESULT:      -4.9      2.423      3.377
REMARK  1 active torsions:
REMARK  status: ('A' for Active; 'I' for Inactive)
REMARK    1  A    between atoms: C4_4  and  C5_5 
ROOT
HETATM    1  C1  UNL     1     -33.999  16.566  -1.613  1.00 20.00    -0.021 C 
HETATM    2  C2  UNL     1     -34.302  17.858  -1.794  1.00 20.00    -0.025 C 
HETATM    3  C3  UNL     1     -33.482  16.118  -4.687  1.00 20.00    -0.015 C 
HETATM    4  C4  UNL     1     -34.022  15.295  -3.770  1.00 20.00    -0.009 C 
HETATM    5  C6  UNL     1     -33.485  17.625  -4.695  1.00 20.00     0.028 C 
HETATM    6  C7  UNL     1     -34.741  18.389  -4.233  1.00 20.00     0.012 C 
HETATM    7  C8  UNL     1     -35.962  16.619  -2.889  1.00 20.00     0.022 C 
HETATM    8  C9  UNL     1     -34.796  15.689  -2.541  1.00 20.00     0.045 C 
HETATM    9  C10 UNL     1     -35.338  18.018  -2.869  1.00 20.00     0.009 C 
ENDROOT
BRANCH   4  10
HETATM   10  C5  UNL     1     -33.831  13.857  -4.010  1.00 20.00     0.152 C 
HETATM   11  C11 UNL     1     -34.839  13.148  -4.875  1.00 20.00     0.096 C 
HETATM   12  O12 UNL     1     -32.877  13.263  -3.510  1.00 20.00    -0.293 OA
ENDBRANCH   4  10
TORSDOF 1
ENDMDL
MODEL 6
REMARK VINA RESULT:      -4.8      2.050      3.316
REMARK  1 active torsions:
REMARK  status: ('A' for Active; 'I' for Inactive)
REMARK    1  A    between atoms: C4_4  and  C5_5 
ROOT
HETATM    1  C1  UNL     1     -35.735  17.381  -4.793  1.00 20.00    -0.021 C 
HETATM    2  C2  UNL     1     -35.324  18.248  -3.859  1.00 20.00    -0.025 C 
HETATM    3  C3  UNL     1     -34.794  14.900  -3.098  1.00 20.00    -0.015 C 
HETATM    4  C4  UNL     1     -34.776  15.097  -4.429  1.00 20.00    -0.009 C 
HETATM    5  C6  UNL     1     -34.719  15.937  -2.007  1.00 20.00     0.028 C 
HETATM    6  C7  UNL     1     -33.785  17.151  -2.170  1.00 20.00     0.012 C 
HETATM    7  C8  UNL     1     -33.405  17.184  -4.677  1.00 20.00     0.022 C 
HETATM    8  C9  UNL     1     -34.640  16.412  -5.150  1.00 20.00     0.045 C 
HETATM    9  C10 UNL     1     -33.903  17.971  -3.461  1.00 20.00     0.009 C 
ENDROOT
BRANCH   4  10
HETATM   10  C5  UNL     1     -34.899  13.888  -5.257  1.00 20.00     0.152 C 
HETATM   11  C11 UNL     1     -35.160  14.066  -6.729  1.00 20.00     0.096 C 
HETATM   12  O12 UNL     1     -34.796  12.772  -4.748  1.00 20.00    -0.293 OA
ENDBRANCH   4  10
TORSDOF 1
ENDMDL
MODEL 7
REMARK VINA RESULT:      -4.8      2.336      3.602
REMARK  1 active torsions:
REMARK  status: ('A' for Active; 'I' for Inactive)
REMARK    1  A    between atoms: C4_4  and  C5_5 
ROOT
HETATM    1  C1  UNL     1     -35.980  14.842  -3.571  1.00 20.00    -0.021 C 
HETATM    2  C2  UNL     1     -35.867  14.355  -4.813  1.00 20.00    -0.025 C 
HETATM    3  C3  UNL     1     -34.196  17.347  -4.245  1.00 20.00    -0.015 C 
HETATM    4  C4  UNL     1     -34.285  16.626  -3.112  1.00 20.00    -0.009 C 
HETATM    5  C6  UNL     1     -34.451  16.888  -5.657  1.00 20.00     0.028 C 
HETATM    6  C7  UNL     1     -33.997  15.484  -6.099  1.00 20.00     0.012 C 
HETATM    7  C8  UNL     1     -33.722  14.302  -3.872  1.00 20.00     0.022 C 
HETATM    8  C9  UNL     1     -34.630  15.166  -2.991  1.00 20.00     0.045 C 
HETATM    9  C10 UNL     1     -34.427  14.293  -5.233  1.00 20.00     0.009 C 
ENDROOT
BRANCH   4  10
HETATM   10  C5  UNL     1     -34.008  17.356  -1.866  1.00 20.00     0.152 C 
HETATM   11  C11 UNL     1     -34.573  16.802  -0.586  1.00 20.00     0.096 C 
HETATM   12  O12 UNL     1     -33.339  18.388  -1.885  1.00 20.00    -0.293 OA
ENDBRANCH   4  10
TORSDOF 1
ENDMDL
MODEL 8
REMARK VINA RESULT:      -4.8      1.876      3.591
REMARK  1 active torsions:
REMARK  status: ('A' for Active; 'I' for Inactive)
REMARK    1  A    between atoms: C4_4  and  C5_5 
ROOT
HETATM    1  C1  UNL     1     -35.644  16.160  -5.239  1.00 20.00    -0.021 C 
HETATM    2  C2  UNL     1     -35.185  15.071  -5.868  1.00 20.00    -0.025 C 
HETATM    3  C3  UNL     1     -33.770  15.681  -2.754  1.00 20.00    -0.015 C 
HETATM    4  C4  UNL     1     -35.024  16.164  -2.813  1.00 20.00    -0.009 C 
HETATM    5  C6  UNL     1     -33.101  14.723  -3.706  1.00 20.00     0.028 C 
HETATM    6  C7  UNL     1     -33.902  13.549  -4.298  1.00 20.00     0.012 C 
HETATM    7  C8  UNL     1     -36.293  14.319  -3.945  1.00 20.00     0.022 C 
HETATM    8  C9  UNL     1     -36.077  15.832  -3.836  1.00 20.00     0.045 C 
HETATM    9  C10 UNL     1     -35.245  13.870  -4.969  1.00 20.00     0.009 C 
ENDROOT
BRANCH   4  10
HETATM   10  C5  UNL     1     -35.392  17.116  -1.755  1.00 20.00     0.152 C 
HETATM   11  C11 UNL     1     -34.733  16.963  -0.410  1.00 20.00     0.096 C 
HETATM   12  O12 UNL     1     -36.220  18.000  -1.973  1.00 20.00    -0.293 OA
ENDBRANCH   4  10
TORSDOF 1
ENDMDL
MODEL 9
REMARK VINA RESULT:      -4.8      0.908      2.022
REMARK  1 active torsions:
REMARK  status: ('A' for Active; 'I' for Inactive)
REMARK    1  A    between atoms: C4_4  and  C5_5 
ROOT
HETATM    1  C1  UNL     1     -34.262  15.802  -5.491  1.00 20.00    -0.021 C 
HETATM    2  C2  UNL     1     -33.214  16.173  -4.745  1.00 20.00    -0.025 C 
HETATM    3  C3  UNL     1     -36.298  16.371  -3.157  1.00 20.00    -0.015 C 
HETATM    4  C4  UNL     1     -36.304  15.409  -4.098  1.00 20.00    -0.009 C 
HETATM    5  C6  UNL     1     -35.107  17.087  -2.574  1.00 20.00     0.028 C 
HETATM    6  C7  UNL     1     -33.811  16.307  -2.286  1.00 20.00     0.012 C 
HETATM    7  C8  UNL     1     -34.105  14.252  -3.744  1.00 20.00     0.022 C 
HETATM    8  C9  UNL     1     -35.108  14.789  -4.769  1.00 20.00     0.045 C 
HETATM    9  C10 UNL     1     -33.221  15.462  -3.423  1.00 20.00     0.009 C 
ENDROOT
BRANCH   4  10
HETATM   10  C5  UNL     1     -37.630  14.915  -4.498  1.00 20.00     0.152 C 
HETATM   11  C11 UNL     1     -38.166  15.346  -5.837  1.00 20.00     0.096 C 
HETATM   12  O12 UNL     1     -38.273  14.180  -3.750  1.00 20.00    -0.293 OA
ENDBRANCH   4  10
TORSDOF 1
ENDMDL
