MODEL 1
REMARK VINA RESULT:      -6.3      0.000      0.000
REMARK  1 active torsions:
REMARK  status: ('A' for Active; 'I' for Inactive)
REMARK    1  A    between atoms: C8_8  and  C9_9 
ROOT
HETATM    1  C1  UNL     1     -32.211   7.298   2.600  1.00 20.00     0.218 C 
HETATM    2  C8  UNL     1     -32.780   6.424   3.377  1.00 20.00     0.044 C 
HETATM    3  O10 UNL     1     -31.696   8.086   1.896  1.00 20.00    -0.284 OA
ENDROOT
BRANCH   2   4
HETATM    4  C9  UNL     1     -34.123   6.599   4.024  1.00 20.00     0.057 C 
HETATM    5  C6  UNL     1     -35.057   5.476   3.653  1.00 20.00    -0.014 C 
HETATM    6  C4  UNL     1     -35.383   4.371   4.338  1.00 20.00    -0.003 C 
HETATM    7  C2  UNL     1     -34.852   3.934   5.603  1.00 20.00    -0.000 C 
HETATM    8  C3  UNL     1     -34.293   4.685   6.560  1.00 20.00    -0.000 C 
HETATM    9  C5  UNL     1     -34.088   6.109   6.555  1.00 20.00    -0.003 C 
HETATM   10  C7  UNL     1     -33.985   6.917   5.491  1.00 20.00    -0.014 C 
ENDBRANCH   2   4
TORSDOF 1
ENDMDL
MODEL 2
REMARK VINA RESULT:      -5.0     11.590     13.005
REMARK  1 active torsions:
REMARK  status: ('A' for Active; 'I' for Inactive)
REMARK    1  A    between atoms: C8_8  and  C9_9 
ROOT
HETATM    1  C1  UNL     1     -34.606  16.406  -1.293  1.00 20.00     0.218 C 
HETATM    2  C8  UNL     1     -34.782  15.769  -2.413  1.00 20.00     0.044 C 
HETATM    3  O10 UNL     1     -34.447  16.982  -0.280  1.00 20.00    -0.284 OA
ENDROOT
BRANCH   2   4
HETATM    4  C9  UNL     1     -33.681  15.193  -3.255  1.00 20.00     0.057 C 
HETATM    5  C6  UNL     1     -34.014  13.794  -3.705  1.00 20.00    -0.014 C 
HETATM    6  C4  UNL     1     -34.507  13.366  -4.876  1.00 20.00    -0.003 C 
HETATM    7  C2  UNL     1     -34.921  14.167  -5.999  1.00 20.00    -0.000 C 
HETATM    8  C3  UNL     1     -34.519  15.403  -6.316  1.00 20.00    -0.000 C 
HETATM    9  C5  UNL     1     -33.575  16.230  -5.612  1.00 20.00    -0.003 C 
HETATM   10  C7  UNL     1     -33.240  16.167  -4.317  1.00 20.00    -0.014 C 
ENDBRANCH   2   4
TORSDOF 1
ENDMDL
MODEL 3
REMARK VINA RESULT:      -4.7     11.760     13.197
REMARK  1 active torsions:
REMARK  status: ('A' for Active; 'I' for Inactive)
REMARK    1  A    between atoms: C8_8  and  C9_9 
ROOT
HETATM    1  C1  UNL     1     -35.609  16.228  -2.737  1.00 20.00     0.218 C 
HETATM    2  C8  UNL     1     -34.398  15.860  -2.438  1.00 20.00     0.044 C 
HETATM    3  O10 UNL     1     -36.704  16.561  -3.007  1.00 20.00    -0.284 OA
ENDROOT
BRANCH   2   4
HETATM    4  C9  UNL     1     -33.418  15.265  -3.406  1.00 20.00     0.057 C 
HETATM    5  C6  UNL     1     -33.768  13.836  -3.727  1.00 20.00    -0.014 C 
HETATM    6  C4  UNL     1     -34.418  13.330  -4.785  1.00 20.00    -0.003 C 
HETATM    7  C2  UNL     1     -35.021  14.056  -5.873  1.00 20.00    -0.000 C 
HETATM    8  C3  UNL     1     -34.712  15.281  -6.312  1.00 20.00    -0.000 C 
HETATM    9  C5  UNL     1     -33.700  16.170  -5.803  1.00 20.00    -0.003 C 
HETATM   10  C7  UNL     1     -33.172  16.188  -4.572  1.00 20.00    -0.014 C 
ENDBRANCH   2   4
TORSDOF 1
ENDMDL
MODEL 4
REMARK VINA RESULT:      -4.7     11.492     13.076
REMARK  1 active torsions:
REMARK  status: ('A' for Active; 'I' for Inactive)
REMARK    1  A    between atoms: C8_8  and  C9_9 
ROOT
HETATM    1  C1  UNL     1     -34.176  13.329  -4.101  1.00 20.00     0.218 C 
HETATM    2  C8  UNL     1     -33.167  14.047  -3.705  1.00 20.00     0.044 C 
HETATM    3  O10 UNL     1     -35.088  12.678  -4.459  1.00 20.00    -0.284 OA
ENDROOT
BRANCH   2   4
HETATM    4  C9  UNL     1     -33.212  15.527  -3.458  1.00 20.00     0.057 C 
HETATM    5  C6  UNL     1     -33.244  16.295  -4.754  1.00 20.00    -0.014 C 
HETATM    6  C4  UNL     1     -34.284  16.837  -5.403  1.00 20.00    -0.003 C 
HETATM    7  C2  UNL     1     -35.678  16.756  -5.049  1.00 20.00    -0.000 C 
HETATM    8  C3  UNL     1     -36.204  16.537  -3.838  1.00 20.00    -0.000 C 
HETATM    9  C5  UNL     1     -35.505  16.331  -2.597  1.00 20.00    -0.003 C 
HETATM   10  C7  UNL     1     -34.255  15.877  -2.429  1.00 20.00    -0.014 C 
ENDBRANCH   2   4
TORSDOF 1
ENDMDL
MODEL 5
REMARK VINA RESULT:      -4.7     11.582     12.462
REMARK  1 active torsions:
REMARK  status: ('A' for Active; 'I' for Inactive)
REMARK    1  A    between atoms: C8_8  and  C9_9 
ROOT
HETATM    1  C1  UNL     1     -34.175  17.269  -0.504  1.00 20.00     0.218 C 
HETATM    2  C8  UNL     1     -34.784  16.414  -1.271  1.00 20.00     0.044 C 
HETATM    3  O10 UNL     1     -33.625  18.042   0.190  1.00 20.00    -0.284 OA
ENDROOT
BRANCH   2   4
HETATM    4  C9  UNL     1     -34.785  16.455  -2.771  1.00 20.00     0.057 C 
HETATM    5  C6  UNL     1     -33.410  16.188  -3.325  1.00 20.00    -0.014 C 
HETATM    6  C4  UNL     1     -32.889  15.054  -3.815  1.00 20.00    -0.003 C 
HETATM    7  C2  UNL     1     -33.509  13.756  -3.871  1.00 20.00    -0.000 C 
HETATM    8  C3  UNL     1     -34.817  13.473  -3.877  1.00 20.00    -0.000 C 
HETATM    9  C5  UNL     1     -35.919  14.397  -3.831  1.00 20.00    -0.003 C 
HETATM   10  C7  UNL     1     -35.921  15.643  -3.340  1.00 20.00    -0.014 C 
ENDBRANCH   2   4
TORSDOF 1
ENDMDL
MODEL 6
REMARK VINA RESULT:      -4.7     11.774     13.046
REMARK  1 active torsions:
REMARK  status: ('A' for Active; 'I' for Inactive)
REMARK    1  A    between atoms: C8_8  and  C9_9 
ROOT
HETATM    1  C1  UNL     1     -33.216  14.373  -3.698  1.00 20.00     0.218 C 
HETATM    2  C8  UNL     1     -33.187  15.673  -3.683  1.00 20.00     0.044 C 
HETATM    3  O10 UNL     1     -33.240  13.197  -3.712  1.00 20.00    -0.284 OA
ENDROOT
BRANCH   2   4
HETATM    4  C9  UNL     1     -34.332  16.551  -3.269  1.00 20.00     0.057 C 
HETATM    5  C6  UNL     1     -34.855  16.161  -1.911  1.00 20.00    -0.014 C 
HETATM    6  C4  UNL     1     -34.606  16.702  -0.710  1.00 20.00    -0.003 C 
HETATM    7  C2  UNL     1     -33.698  17.775  -0.402  1.00 20.00    -0.000 C 
HETATM    8  C3  UNL     1     -33.256  18.736  -1.222  1.00 20.00    -0.000 C 
HETATM    9  C5  UNL     1     -33.585  18.929  -2.610  1.00 20.00    -0.003 C 
HETATM   10  C7  UNL     1     -34.009  18.007  -3.486  1.00 20.00    -0.014 C 
ENDBRANCH   2   4
TORSDOF 1
ENDMDL
MODEL 7
REMARK VINA RESULT:      -4.7     11.733     13.383
REMARK  1 active torsions:
REMARK  status: ('A' for Active; 'I' for Inactive)
REMARK    1  A    between atoms: C8_8  and  C9_9 
ROOT
HETATM    1  C1  UNL     1     -37.506  14.680  -4.408  1.00 20.00     0.218 C 
HETATM    2  C8  UNL     1     -36.783  15.094  -5.406  1.00 20.00     0.044 C 
HETATM    3  O10 UNL     1     -38.161  14.306  -3.505  1.00 20.00    -0.284 OA
ENDROOT
BRANCH   2   4
HETATM    4  C9  UNL     1     -35.468  14.500  -5.817  1.00 20.00     0.057 C 
HETATM    5  C6  UNL     1     -34.528  15.559  -6.333  1.00 20.00    -0.014 C 
HETATM    6  C4  UNL     1     -33.525  16.191  -5.708  1.00 20.00    -0.003 C 
HETATM    7  C2  UNL     1     -33.130  16.062  -4.330  1.00 20.00    -0.000 C 
HETATM    8  C3  UNL     1     -33.342  15.026  -3.510  1.00 20.00    -0.000 C 
HETATM    9  C5  UNL     1     -34.016  13.790  -3.809  1.00 20.00    -0.003 C 
HETATM   10  C7  UNL     1     -34.934  13.569  -4.759  1.00 20.00    -0.014 C 
ENDBRANCH   2   4
TORSDOF 1
ENDMDL
MODEL 8
REMARK VINA RESULT:      -4.6     11.821     12.738
REMARK  1 active torsions:
REMARK  status: ('A' for Active; 'I' for Inactive)
REMARK    1  A    between atoms: C8_8  and  C9_9 
ROOT
HETATM    1  C1  UNL     1     -35.267  14.776  -6.621  1.00 20.00     0.218 C 
HETATM    2  C8  UNL     1     -36.156  14.727  -5.673  1.00 20.00     0.044 C 
HETATM    3  O10 UNL     1     -34.464  14.821  -7.479  1.00 20.00    -0.284 OA
ENDROOT
BRANCH   2   4
HETATM    4  C9  UNL     1     -35.911  14.187  -4.295  1.00 20.00     0.057 C 
HETATM    5  C6  UNL     1     -34.655  13.356  -4.250  1.00 20.00    -0.014 C 
HETATM    6  C4  UNL     1     -33.423  13.688  -3.840  1.00 20.00    -0.003 C 
HETATM    7  C2  UNL     1     -32.965  14.978  -3.394  1.00 20.00    -0.000 C 
HETATM    8  C3  UNL     1     -33.694  15.972  -2.875  1.00 20.00    -0.000 C 
HETATM    9  C5  UNL     1     -35.114  15.992  -2.637  1.00 20.00    -0.003 C 
HETATM   10  C7  UNL     1     -36.056  15.265  -3.252  1.00 20.00    -0.014 C 
ENDBRANCH   2   4
TORSDOF 1
ENDMDL
MODEL 9
REMARK VINA RESULT:      -4.6     12.148     13.165
REMARK  1 active torsions:
REMARK  status: ('A' for Active; 'I' for Inactive)
REMARK    1  A    between atoms: C8_8  and  C9_9 
ROOT
HETATM    1  C1  UNL     1     -34.776  13.521  -5.110  1.00 20.00     0.218 C 
HETATM    2  C8  UNL     1     -34.501  14.543  -5.866  1.00 20.00     0.044 C 
HETATM    3  O10 UNL     1     -35.025  12.596  -4.428  1.00 20.00    -0.284 OA
ENDROOT
BRANCH   2   4
HETATM    4  C9  UNL     1     -34.184  15.921  -5.363  1.00 20.00     0.057 C 
HETATM    5  C6  UNL     1     -35.440  16.727  -5.154  1.00 20.00    -0.014 C 
HETATM    6  C4  UNL     1     -36.123  16.972  -4.027  1.00 20.00    -0.003 C 
HETATM    7  C2  UNL     1     -35.858  16.453  -2.711  1.00 20.00    -0.000 C 
HETATM    8  C3  UNL     1     -34.694  16.007  -2.225  1.00 20.00    -0.000 C 
HETATM    9  C5  UNL     1     -33.425  15.940  -2.900  1.00 20.00    -0.003 C 
HETATM   10  C7  UNL     1     -33.204  15.873  -4.219  1.00 20.00    -0.014 C 
ENDBRANCH   2   4
TORSDOF 1
ENDMDL
