MODEL 1
REMARK VINA RESULT:      -4.6      0.000      0.000
REMARK  2 active torsions:
REMARK  status: ('A' for Active; 'I' for Inactive)
REMARK    1  A    between atoms: C2_2  and  C5_5 
REMARK    2  A    between atoms: C4_4  and  C8_8 
ROOT
HETATM    1  C1  UNL     1     -33.168   5.486   2.498  1.00 20.00    -0.015 C 
HETATM    2  C2  UNL     1     -33.105   6.577   3.268  1.00 20.00    -0.009 C 
HETATM    3  C6  UNL     1     -34.367   4.662   2.834  1.00 20.00     0.028 C 
HETATM    4  C7  UNL     1     -35.209   5.620   3.685  1.00 20.00     0.017 C 
HETATM    5  C8  UNL     1     -34.238   6.678   4.237  1.00 20.00     0.044 C 
ENDROOT
BRANCH   2   6
HETATM    6  C5  UNL     1     -32.044   7.562   3.145  1.00 20.00     0.152 C 
HETATM    7  C9  UNL     1     -32.015   8.439   1.912  1.00 20.00     0.096 C 
HETATM    8  O10 UNL     1     -31.177   7.680   4.022  1.00 20.00    -0.293 OA
ENDBRANCH   2   6
BRANCH   5   9
HETATM    9  C4  UNL     1     -33.821   6.382   5.643  1.00 20.00    -0.027 C 
HETATM   10  C3  UNL     1     -34.458   5.524   6.448  1.00 20.00     0.007 C 
ENDBRANCH   5   9
TORSDOF 2
ENDMDL
MODEL 2
REMARK VINA RESULT:      -4.6      9.259     10.613
REMARK  2 active torsions:
REMARK  status: ('A' for Active; 'I' for Inactive)
REMARK    1  A    between atoms: C2_2  and  C5_5 
REMARK    2  A    between atoms: C4_4  and  C8_8 
ROOT
HETATM    1  C1  UNL     1     -41.777   6.469  -2.144  1.00 20.00    -0.015 C 
HETATM    2  C2  UNL     1     -41.907   5.166  -1.877  1.00 20.00    -0.009 C 
HETATM    3  C6  UNL     1     -41.214   7.202  -0.972  1.00 20.00     0.028 C 
HETATM    4  C7  UNL     1     -40.692   6.068  -0.082  1.00 20.00     0.017 C 
HETATM    5  C8  UNL     1     -41.457   4.801  -0.499  1.00 20.00     0.044 C 
ENDROOT
BRANCH   2   6
HETATM    6  C5  UNL     1     -42.422   4.214  -2.847  1.00 20.00     0.152 C 
HETATM    7  C9  UNL     1     -41.762   2.856  -2.943  1.00 20.00     0.096 C 
HETATM    8  O10 UNL     1     -43.373   4.505  -3.586  1.00 20.00    -0.293 OA
ENDBRANCH   2   6
BRANCH   5   9
HETATM    9  C4  UNL     1     -42.598   4.502   0.420  1.00 20.00    -0.027 C 
HETATM   10  C3  UNL     1     -43.203   5.417   1.185  1.00 20.00     0.007 C 
ENDBRANCH   5   9
TORSDOF 2
ENDMDL
MODEL 3
REMARK VINA RESULT:      -4.5     10.795     12.026
REMARK  2 active torsions:
REMARK  status: ('A' for Active; 'I' for Inactive)
REMARK    1  A    between atoms: C2_2  and  C5_5 
REMARK    2  A    between atoms: C4_4  and  C8_8 
ROOT
HETATM    1  C1  UNL     1     -34.537  16.182  -4.872  1.00 20.00    -0.015 C 
HETATM    2  C2  UNL     1     -34.100  15.447  -3.845  1.00 20.00    -0.009 C 
HETATM    3  C6  UNL     1     -34.527  17.635  -4.531  1.00 20.00     0.028 C 
HETATM    4  C7  UNL     1     -33.673  17.680  -3.259  1.00 20.00     0.017 C 
HETATM    5  C8  UNL     1     -33.721  16.266  -2.654  1.00 20.00     0.044 C 
ENDROOT
BRANCH   2   6
HETATM    6  C5  UNL     1     -33.996  13.998  -3.907  1.00 20.00     0.152 C 
HETATM    7  C9  UNL     1     -35.204  13.209  -4.365  1.00 20.00     0.096 C 
HETATM    8  O10 UNL     1     -32.951  13.417  -3.587  1.00 20.00    -0.293 OA
ENDBRANCH   2   6
BRANCH   5   9
HETATM    9  C4  UNL     1     -34.715  16.162  -1.541  1.00 20.00    -0.027 C 
HETATM   10  C3  UNL     1     -34.698  16.932  -0.449  1.00 20.00     0.007 C 
ENDBRANCH   5   9
TORSDOF 2
ENDMDL
MODEL 4
REMARK VINA RESULT:      -4.5      1.322      3.537
REMARK  2 active torsions:
REMARK  status: ('A' for Active; 'I' for Inactive)
REMARK    1  A    between atoms: C2_2  and  C5_5 
REMARK    2  A    between atoms: C4_4  and  C8_8 
ROOT
HETATM    1  C1  UNL     1     -35.097   5.486   3.673  1.00 20.00    -0.015 C 
HETATM    2  C2  UNL     1     -34.047   5.778   4.448  1.00 20.00    -0.009 C 
HETATM    3  C6  UNL     1     -34.695   5.401   2.238  1.00 20.00     0.028 C 
HETATM    4  C7  UNL     1     -33.165   5.334   2.317  1.00 20.00     0.017 C 
HETATM    5  C8  UNL     1     -32.775   5.932   3.680  1.00 20.00     0.044 C 
ENDROOT
BRANCH   2   6
HETATM    6  C5  UNL     1     -34.151   5.910   5.891  1.00 20.00     0.152 C 
HETATM    7  C9  UNL     1     -34.861   4.820   6.664  1.00 20.00     0.096 C 
HETATM    8  O10 UNL     1     -33.679   6.893   6.480  1.00 20.00    -0.293 OA
ENDBRANCH   2   6
BRANCH   5   9
HETATM    9  C4  UNL     1     -32.339   7.358   3.566  1.00 20.00    -0.027 C 
HETATM   10  C3  UNL     1     -32.049   7.962   2.408  1.00 20.00     0.007 C 
ENDBRANCH   5   9
TORSDOF 2
ENDMDL
MODEL 5
REMARK VINA RESULT:      -4.4     10.760     11.708
REMARK  2 active torsions:
REMARK  status: ('A' for Active; 'I' for Inactive)
REMARK    1  A    between atoms: C2_2  and  C5_5 
REMARK    2  A    between atoms: C4_4  and  C8_8 
ROOT
HETATM    1  C1  UNL     1     -36.870  14.734  -3.859  1.00 20.00    -0.015 C 
HETATM    2  C2  UNL     1     -35.553  14.814  -3.643  1.00 20.00    -0.009 C 
HETATM    3  C6  UNL     1     -37.547  16.018  -3.511  1.00 20.00     0.028 C 
HETATM    4  C7  UNL     1     -36.375  16.999  -3.391  1.00 20.00     0.017 C 
HETATM    5  C8  UNL     1     -35.122  16.147  -3.123  1.00 20.00     0.044 C 
ENDROOT
BRANCH   2   6
HETATM    6  C5  UNL     1     -34.648  13.708  -3.908  1.00 20.00     0.152 C 
HETATM    7  C9  UNL     1     -33.165  13.925  -3.695  1.00 20.00     0.096 C 
HETATM    8  O10 UNL     1     -35.073  12.614  -4.305  1.00 20.00    -0.293 OA
ENDBRANCH   2   6
BRANCH   5   9
HETATM    9  C4  UNL     1     -34.762  16.112  -1.672  1.00 20.00    -0.027 C 
HETATM   10  C3  UNL     1     -34.056  17.064  -1.053  1.00 20.00     0.007 C 
ENDBRANCH   5   9
TORSDOF 2
ENDMDL
MODEL 6
REMARK VINA RESULT:      -4.4     11.015     12.028
REMARK  2 active torsions:
REMARK  status: ('A' for Active; 'I' for Inactive)
REMARK    1  A    between atoms: C2_2  and  C5_5 
REMARK    2  A    between atoms: C4_4  and  C8_8 
ROOT
HETATM    1  C1  UNL     1     -35.853  14.487  -3.657  1.00 20.00    -0.015 C 
HETATM    2  C2  UNL     1     -34.968  15.317  -3.098  1.00 20.00    -0.009 C 
HETATM    3  C6  UNL     1     -35.165  13.447  -4.479  1.00 20.00     0.028 C 
HETATM    4  C7  UNL     1     -33.705  13.572  -4.031  1.00 20.00     0.017 C 
HETATM    5  C8  UNL     1     -33.552  14.982  -3.437  1.00 20.00     0.044 C 
ENDROOT
BRANCH   2   6
HETATM    6  C5  UNL     1     -35.363  16.419  -2.236  1.00 20.00     0.152 C 
HETATM    7  C9  UNL     1     -34.573  16.660  -0.968  1.00 20.00     0.096 C 
HETATM    8  O10 UNL     1     -36.327  17.141  -2.523  1.00 20.00    -0.293 OA
ENDBRANCH   2   6
BRANCH   5   9
HETATM    9  C4  UNL     1     -32.950  15.943  -4.413  1.00 20.00    -0.027 C 
HETATM   10  C3  UNL     1     -33.652  16.616  -5.331  1.00 20.00     0.007 C 
ENDBRANCH   5   9
TORSDOF 2
ENDMDL
MODEL 7
REMARK VINA RESULT:      -4.4      1.338      2.728
REMARK  2 active torsions:
REMARK  status: ('A' for Active; 'I' for Inactive)
REMARK    1  A    between atoms: C2_2  and  C5_5 
REMARK    2  A    between atoms: C4_4  and  C8_8 
ROOT
HETATM    1  C1  UNL     1     -33.295   7.096   5.500  1.00 20.00    -0.015 C 
HETATM    2  C2  UNL     1     -33.317   6.160   4.547  1.00 20.00    -0.009 C 
HETATM    3  C6  UNL     1     -34.144   6.696   6.661  1.00 20.00     0.028 C 
HETATM    4  C7  UNL     1     -34.393   5.206   6.403  1.00 20.00     0.017 C 
HETATM    5  C8  UNL     1     -34.169   4.983   4.898  1.00 20.00     0.044 C 
ENDROOT
BRANCH   2   6
HETATM    6  C5  UNL     1     -32.568   6.286   3.308  1.00 20.00     0.152 C 
HETATM    7  C9  UNL     1     -32.284   7.675   2.778  1.00 20.00     0.096 C 
HETATM    8  O10 UNL     1     -32.175   5.285   2.692  1.00 20.00    -0.293 OA
ENDBRANCH   2   6
BRANCH   5   9
HETATM    9  C4  UNL     1     -35.455   4.953   4.134  1.00 20.00    -0.027 C 
HETATM   10  C3  UNL     1     -35.887   5.953   3.358  1.00 20.00     0.007 C 
ENDBRANCH   5   9
TORSDOF 2
ENDMDL
MODEL 8
REMARK VINA RESULT:      -4.3     11.317     11.994
REMARK  2 active torsions:
REMARK  status: ('A' for Active; 'I' for Inactive)
REMARK    1  A    between atoms: C2_2  and  C5_5 
REMARK    2  A    between atoms: C4_4  and  C8_8 
ROOT
HETATM    1  C1  UNL     1     -33.458  15.434  -3.657  1.00 20.00    -0.015 C 
HETATM    2  C2  UNL     1     -34.640  14.835  -3.827  1.00 20.00    -0.009 C 
HETATM    3  C6  UNL     1     -33.521  16.438  -2.555  1.00 20.00     0.028 C 
HETATM    4  C7  UNL     1     -34.838  16.089  -1.852  1.00 20.00     0.017 C 
HETATM    5  C8  UNL     1     -35.688  15.322  -2.880  1.00 20.00     0.044 C 
ENDROOT
BRANCH   2   6
HETATM    6  C5  UNL     1     -34.859  13.804  -4.828  1.00 20.00     0.152 C 
HETATM    7  C9  UNL     1     -35.042  14.228  -6.270  1.00 20.00     0.096 C 
HETATM    8  O10 UNL     1     -34.903  12.606  -4.515  1.00 20.00    -0.293 OA
ENDBRANCH   2   6
BRANCH   5   9
HETATM    9  C4  UNL     1     -36.702  16.200  -3.542  1.00 20.00    -0.027 C 
HETATM   10  C3  UNL     1     -37.932  15.800  -3.880  1.00 20.00     0.007 C 
ENDBRANCH   5   9
TORSDOF 2
ENDMDL
MODEL 9
REMARK VINA RESULT:      -4.3     11.253     12.109
REMARK  2 active torsions:
REMARK  status: ('A' for Active; 'I' for Inactive)
REMARK    1  A    between atoms: C2_2  and  C5_5 
REMARK    2  A    between atoms: C4_4  and  C8_8 
ROOT
HETATM    1  C1  UNL     1     -35.849  14.727  -5.507  1.00 20.00    -0.015 C 
HETATM    2  C2  UNL     1     -36.131  14.857  -4.208  1.00 20.00    -0.009 C 
HETATM    3  C6  UNL     1     -34.419  14.350  -5.709  1.00 20.00     0.028 C 
HETATM    4  C7  UNL     1     -33.979  13.924  -4.303  1.00 20.00     0.017 C 
HETATM    5  C8  UNL     1     -34.958  14.589  -3.322  1.00 20.00     0.044 C 
ENDROOT
BRANCH   2   6
HETATM    6  C5  UNL     1     -37.457  15.208  -3.725  1.00 20.00     0.152 C 
HETATM    7  C9  UNL     1     -37.783  16.671  -3.519  1.00 20.00     0.096 C 
HETATM    8  O10 UNL     1     -38.301  14.334  -3.481  1.00 20.00    -0.293 OA
ENDBRANCH   2   6
BRANCH   5   9
HETATM    9  C4  UNL     1     -34.394  15.837  -2.719  1.00 20.00    -0.027 C 
HETATM   10  C3  UNL     1     -34.667  16.259  -1.480  1.00 20.00     0.007 C 
ENDBRANCH   5   9
TORSDOF 2
ENDMDL
