MODEL 1
REMARK VINA RESULT:      -3.7      0.000      0.000
REMARK  1 active torsions:
REMARK  status: ('A' for Active; 'I' for Inactive)
REMARK    1  A    between atoms: C3_3  and  C4_4 
ROOT
HETATM    1  C1  UNL     1     -33.254  14.324  -3.414  1.00 20.00     0.142 A 
HETATM    2  C2  UNL     1     -35.480  14.848  -3.626  1.00 20.00     0.087 A 
HETATM    3  C3  UNL     1     -34.277  15.263  -3.097  1.00 20.00     0.052 A 
HETATM    4  N5  UNL     1     -33.606  13.258  -4.129  1.00 20.00    -0.223 NA
HETATM    5  S7  UNL     1     -35.233  13.365  -4.447  1.00 20.00    -0.000 SA
ENDROOT
BRANCH   3   6
HETATM    6  C4  UNL     1     -34.120  16.476  -2.342  1.00 20.00     0.254 C 
HETATM    7  O6  UNL     1     -33.624  17.492  -2.893  1.00 20.00    -0.274 OA
HETATM    8 CL8  UNL     1     -34.612  16.588  -0.634  1.00 20.00    -0.038 Cl
ENDBRANCH   3   6
TORSDOF 1
ENDMDL
MODEL 2
REMARK VINA RESULT:      -3.7      2.714      3.065
REMARK  1 active torsions:
REMARK  status: ('A' for Active; 'I' for Inactive)
REMARK    1  A    between atoms: C3_3  and  C4_4 
ROOT
HETATM    1  C1  UNL     1     -35.250  13.347  -4.252  1.00 20.00     0.142 A 
HETATM    2  C2  UNL     1     -34.657  15.396  -3.400  1.00 20.00     0.087 A 
HETATM    3  C3  UNL     1     -35.721  14.595  -3.755  1.00 20.00     0.052 A 
HETATM    4  N5  UNL     1     -33.932  13.166  -4.292  1.00 20.00    -0.223 NA
HETATM    5  S7  UNL     1     -33.205  14.543  -3.711  1.00 20.00    -0.000 SA
ENDROOT
BRANCH   3   6
HETATM    6  C4  UNL     1     -37.094  15.000  -3.624  1.00 20.00     0.254 C 
HETATM    7  O6  UNL     1     -38.010  14.151  -3.771  1.00 20.00    -0.274 OA
HETATM    8 CL8  UNL     1     -37.545  16.683  -3.256  1.00 20.00    -0.038 Cl
ENDBRANCH   3   6
TORSDOF 1
ENDMDL
MODEL 3
REMARK VINA RESULT:      -3.6      3.720      3.943
REMARK  1 active torsions:
REMARK  status: ('A' for Active; 'I' for Inactive)
REMARK    1  A    between atoms: C3_3  and  C4_4 
ROOT
HETATM    1  C1  UNL     1     -34.043  15.857  -5.761  1.00 20.00     0.142 A 
HETATM    2  C2  UNL     1     -35.258  14.235  -6.841  1.00 20.00     0.087 A 
HETATM    3  C3  UNL     1     -34.525  14.518  -5.709  1.00 20.00     0.052 A 
HETATM    4  N5  UNL     1     -34.361  16.578  -6.834  1.00 20.00    -0.223 NA
HETATM    5  S7  UNL     1     -35.280  15.626  -7.840  1.00 20.00    -0.000 SA
ENDROOT
BRANCH   3   6
HETATM    6  C4  UNL     1     -34.302  13.570  -4.652  1.00 20.00     0.254 C 
HETATM    7  O6  UNL     1     -35.114  12.624  -4.484  1.00 20.00    -0.274 OA
HETATM    8 CL8  UNL     1     -32.899  13.692  -3.562  1.00 20.00    -0.038 Cl
ENDBRANCH   3   6
TORSDOF 1
ENDMDL
MODEL 4
REMARK VINA RESULT:      -3.6      3.599      3.801
REMARK  1 active torsions:
REMARK  status: ('A' for Active; 'I' for Inactive)
REMARK    1  A    between atoms: C3_3  and  C4_4 
ROOT
HETATM    1  C1  UNL     1     -33.423  15.362  -3.608  1.00 20.00     0.142 A 
HETATM    2  C2  UNL     1     -35.684  15.231  -3.228  1.00 20.00     0.087 A 
HETATM    3  C3  UNL     1     -34.649  14.756  -4.004  1.00 20.00     0.052 A 
HETATM    4  N5  UNL     1     -33.472  16.240  -2.608  1.00 20.00    -0.223 NA
HETATM    5  S7  UNL     1     -35.051  16.360  -2.105  1.00 20.00    -0.000 SA
ENDROOT
BRANCH   3   6
HETATM    6  C4  UNL     1     -34.825  13.788  -5.051  1.00 20.00     0.254 C 
HETATM    7  O6  UNL     1     -34.784  12.561  -4.778  1.00 20.00    -0.274 OA
HETATM    8 CL8  UNL     1     -35.104  14.275  -6.742  1.00 20.00    -0.038 Cl
ENDBRANCH   3   6
TORSDOF 1
ENDMDL
MODEL 5
REMARK VINA RESULT:      -3.6      3.780      4.067
REMARK  1 active torsions:
REMARK  status: ('A' for Active; 'I' for Inactive)
REMARK    1  A    between atoms: C3_3  and  C4_4 
ROOT
HETATM    1  C1  UNL     1     -35.271  14.313  -6.934  1.00 20.00     0.142 A 
HETATM    2  C2  UNL     1     -34.144  15.852  -5.654  1.00 20.00     0.087 A 
HETATM    3  C3  UNL     1     -34.565  14.542  -5.718  1.00 20.00     0.052 A 
HETATM    4  N5  UNL     1     -35.402  15.345  -7.765  1.00 20.00    -0.223 NA
HETATM    5  S7  UNL     1     -34.654  16.659  -7.077  1.00 20.00    -0.000 SA
ENDROOT
BRANCH   3   6
HETATM    6  C4  UNL     1     -34.306  13.576  -4.686  1.00 20.00     0.254 C 
HETATM    7  O6  UNL     1     -35.078  12.594  -4.545  1.00 20.00    -0.274 OA
HETATM    8 CL8  UNL     1     -32.912  13.728  -3.588  1.00 20.00    -0.038 Cl
ENDBRANCH   3   6
TORSDOF 1
ENDMDL
MODEL 6
REMARK VINA RESULT:      -3.6      1.106      1.584
REMARK  1 active torsions:
REMARK  status: ('A' for Active; 'I' for Inactive)
REMARK    1  A    between atoms: C3_3  and  C4_4 
ROOT
HETATM    1  C1  UNL     1     -36.148  15.059  -3.388  1.00 20.00     0.142 A 
HETATM    2  C2  UNL     1     -33.955  14.437  -3.676  1.00 20.00     0.087 A 
HETATM    3  C3  UNL     1     -34.789  15.366  -3.092  1.00 20.00     0.052 A 
HETATM    4  N5  UNL     1     -36.379  13.984  -4.138  1.00 20.00    -0.223 NA
HETATM    5  S7  UNL     1     -34.915  13.296  -4.518  1.00 20.00    -0.000 SA
ENDROOT
BRANCH   3   6
HETATM    6  C4  UNL     1     -34.314  16.471  -2.305  1.00 20.00     0.254 C 
HETATM    7  O6  UNL     1     -33.619  17.368  -2.847  1.00 20.00    -0.274 OA
HETATM    8 CL8  UNL     1     -34.683  16.613  -0.569  1.00 20.00    -0.038 Cl
ENDBRANCH   3   6
TORSDOF 1
ENDMDL
MODEL 7
REMARK VINA RESULT:      -3.5     12.224     12.488
REMARK  1 active torsions:
REMARK  status: ('A' for Active; 'I' for Inactive)
REMARK    1  A    between atoms: C3_3  and  C4_4 
ROOT
HETATM    1  C1  UNL     1     -33.799   6.489   5.552  1.00 20.00     0.142 A 
HETATM    2  C2  UNL     1     -34.773   4.586   4.713  1.00 20.00     0.087 A 
HETATM    3  C3  UNL     1     -34.006   5.686   4.394  1.00 20.00     0.052 A 
HETATM    4  N5  UNL     1     -34.348   6.071   6.690  1.00 20.00    -0.223 NA
HETATM    5  S7  UNL     1     -35.155   4.651   6.381  1.00 20.00    -0.000 SA
ENDROOT
BRANCH   3   6
HETATM    6  C4  UNL     1     -33.508   5.948   3.072  1.00 20.00     0.254 C 
HETATM    7  O6  UNL     1     -33.949   5.285   2.099  1.00 20.00    -0.274 OA
HETATM    8 CL8  UNL     1     -32.274   7.194   2.764  1.00 20.00    -0.038 Cl
ENDBRANCH   3   6
TORSDOF 1
ENDMDL
MODEL 8
REMARK VINA RESULT:      -3.5     11.122     11.413
REMARK  1 active torsions:
REMARK  status: ('A' for Active; 'I' for Inactive)
REMARK    1  A    between atoms: C3_3  and  C4_4 
ROOT
HETATM    1  C1  UNL     1     -33.970   5.692   3.018  1.00 20.00     0.142 A 
HETATM    2  C2  UNL     1     -33.479   6.384   5.152  1.00 20.00     0.087 A 
HETATM    3  C3  UNL     1     -33.134   6.516   3.825  1.00 20.00     0.052 A 
HETATM    4  N5  UNL     1     -34.897   4.969   3.642  1.00 20.00    -0.223 NA
HETATM    5  S7  UNL     1     -34.779   5.275   5.272  1.00 20.00    -0.000 SA
ENDROOT
BRANCH   3   6
HETATM    6  C4  UNL     1     -32.077   7.373   3.363  1.00 20.00     0.254 C 
HETATM    7  O6  UNL     1     -31.098   7.613   4.115  1.00 20.00    -0.274 OA
HETATM    8 CL8  UNL     1     -32.109   8.112   1.743  1.00 20.00    -0.038 Cl
ENDBRANCH   3   6
TORSDOF 1
ENDMDL
MODEL 9
REMARK VINA RESULT:      -3.4      3.539      3.770
REMARK  1 active torsions:
REMARK  status: ('A' for Active; 'I' for Inactive)
REMARK    1  A    between atoms: C3_3  and  C4_4 
ROOT
HETATM    1  C1  UNL     1     -33.364  16.323  -4.856  1.00 20.00     0.142 A 
HETATM    2  C2  UNL     1     -34.082  15.952  -2.706  1.00 20.00     0.087 A 
HETATM    3  C3  UNL     1     -33.725  15.342  -3.889  1.00 20.00     0.052 A 
HETATM    4  N5  UNL     1     -33.425  17.599  -4.481  1.00 20.00    -0.223 NA
HETATM    5  S7  UNL     1     -33.939  17.648  -2.901  1.00 20.00    -0.000 SA
ENDROOT
BRANCH   3   6
HETATM    6  C4  UNL     1     -33.731  13.917  -4.078  1.00 20.00     0.254 C 
HETATM    7  O6  UNL     1     -32.870  13.209  -3.496  1.00 20.00    -0.274 OA
HETATM    8 CL8  UNL     1     -34.931  13.113  -5.120  1.00 20.00    -0.038 Cl
ENDBRANCH   3   6
TORSDOF 1
ENDMDL
