MODEL 1
REMARK VINA RESULT:      -4.3      0.000      0.000
REMARK  1 active torsions:
REMARK  status: ('A' for Active; 'I' for Inactive)
REMARK    1  A    between atoms: C3_3  and  C7_7 
ROOT
HETATM    1  C1  UNL     1     -34.785  16.282  -1.512  1.00 20.00    -0.023 C 
HETATM    2  C2  UNL     1     -33.770  17.047  -1.947  1.00 20.00    -0.015 C 
HETATM    3  C4  UNL     1     -35.234  16.809  -3.720  1.00 20.00     0.029 C 
HETATM    4  C5  UNL     1     -35.457  15.663  -2.721  1.00 20.00     0.029 C 
HETATM    5  C6  UNL     1     -33.742  16.995  -3.453  1.00 20.00     0.071 C 
HETATM    6  C7  UNL     1     -34.593  14.491  -3.231  1.00 20.00     0.116 C 
HETATM    7  S9  UNL     1     -33.112  15.337  -3.925  1.00 20.00    -0.148 SA
ENDROOT
BRANCH   6   8
HETATM    8  C3  UNL     1     -35.249  13.716  -4.324  1.00 20.00     0.246 C 
HETATM    9  O8  UNL     1     -34.873  12.605  -4.684  1.00 20.00    -0.306 OA
ENDBRANCH   6   8
TORSDOF 1
ENDMDL
MODEL 2
REMARK VINA RESULT:      -4.1      1.823      2.391
REMARK  1 active torsions:
REMARK  status: ('A' for Active; 'I' for Inactive)
REMARK    1  A    between atoms: C3_3  and  C7_7 
ROOT
HETATM    1  C1  UNL     1     -33.385  13.964  -3.741  1.00 20.00    -0.023 C 
HETATM    2  C2  UNL     1     -32.736  15.136  -3.835  1.00 20.00    -0.015 C 
HETATM    3  C4  UNL     1     -34.627  15.519  -2.561  1.00 20.00     0.029 C 
HETATM    4  C5  UNL     1     -34.834  14.254  -3.409  1.00 20.00     0.029 C 
HETATM    5  C6  UNL     1     -33.712  16.247  -3.542  1.00 20.00     0.071 C 
HETATM    6  C7  UNL     1     -35.558  14.724  -4.687  1.00 20.00     0.116 C 
HETATM    7  S9  UNL     1     -34.826  16.386  -4.994  1.00 20.00    -0.148 SA
ENDROOT
BRANCH   6   8
HETATM    8  C3  UNL     1     -37.030  14.885  -4.499  1.00 20.00     0.246 C 
HETATM    9  O8  UNL     1     -37.703  14.155  -3.778  1.00 20.00    -0.306 OA
ENDBRANCH   6   8
TORSDOF 1
ENDMDL
MODEL 3
REMARK VINA RESULT:      -3.9      1.584      2.234
REMARK  1 active torsions:
REMARK  status: ('A' for Active; 'I' for Inactive)
REMARK    1  A    between atoms: C3_3  and  C7_7 
ROOT
HETATM    1  C1  UNL     1     -33.212  16.608  -5.070  1.00 20.00    -0.023 C 
HETATM    2  C2  UNL     1     -33.747  17.655  -4.422  1.00 20.00    -0.015 C 
HETATM    3  C4  UNL     1     -33.677  15.903  -2.916  1.00 20.00     0.029 C 
HETATM    4  C5  UNL     1     -33.631  15.344  -4.347  1.00 20.00     0.029 C 
HETATM    5  C6  UNL     1     -34.514  17.140  -3.231  1.00 20.00     0.071 C 
HETATM    6  C7  UNL     1     -35.094  15.017  -4.713  1.00 20.00     0.116 C 
HETATM    7  S9  UNL     1     -36.043  16.352  -3.871  1.00 20.00    -0.148 SA
ENDROOT
BRANCH   6   8
HETATM    8  C3  UNL     1     -35.550  13.702  -4.174  1.00 20.00     0.246 C 
HETATM    9  O8  UNL     1     -34.995  12.638  -4.428  1.00 20.00    -0.306 OA
ENDBRANCH   6   8
TORSDOF 1
ENDMDL
MODEL 4
REMARK VINA RESULT:      -3.8      2.459      3.490
REMARK  1 active torsions:
REMARK  status: ('A' for Active; 'I' for Inactive)
REMARK    1  A    between atoms: C3_3  and  C7_7 
ROOT
HETATM    1  C1  UNL     1     -33.707  13.711  -4.159  1.00 20.00    -0.023 C 
HETATM    2  C2  UNL     1     -34.447  14.061  -5.223  1.00 20.00    -0.015 C 
HETATM    3  C4  UNL     1     -33.285  15.949  -4.568  1.00 20.00     0.029 C 
HETATM    4  C5  UNL     1     -33.371  14.970  -3.386  1.00 20.00     0.029 C 
HETATM    5  C6  UNL     1     -34.608  15.559  -5.222  1.00 20.00     0.071 C 
HETATM    6  C7  UNL     1     -34.607  15.406  -2.573  1.00 20.00     0.116 C 
HETATM    7  S9  UNL     1     -35.780  15.977  -3.873  1.00 20.00    -0.148 SA
ENDROOT
BRANCH   6   8
HETATM    8  C3  UNL     1     -34.328  16.549  -1.655  1.00 20.00     0.246 C 
HETATM    9  O8  UNL     1     -34.677  16.573  -0.479  1.00 20.00    -0.306 OA
ENDBRANCH   6   8
TORSDOF 1
ENDMDL
MODEL 5
REMARK VINA RESULT:      -3.8      1.520      1.986
REMARK  1 active torsions:
REMARK  status: ('A' for Active; 'I' for Inactive)
REMARK    1  A    between atoms: C3_3  and  C7_7 
ROOT
HETATM    1  C1  UNL     1     -35.162  17.386  -4.582  1.00 20.00    -0.023 C 
HETATM    2  C2  UNL     1     -33.834  17.585  -4.543  1.00 20.00    -0.015 C 
HETATM    3  C4  UNL     1     -34.207  15.857  -6.033  1.00 20.00     0.029 C 
HETATM    4  C5  UNL     1     -35.411  15.979  -5.085  1.00 20.00     0.029 C 
HETATM    5  C6  UNL     1     -33.149  16.340  -5.044  1.00 20.00     0.071 C 
HETATM    6  C7  UNL     1     -35.143  14.981  -3.940  1.00 20.00     0.116 C 
HETATM    7  S9  UNL     1     -33.315  15.066  -3.732  1.00 20.00    -0.148 SA
ENDROOT
BRANCH   6   8
HETATM    8  C3  UNL     1     -35.512  13.578  -4.290  1.00 20.00     0.246 C 
HETATM    9  O8  UNL     1     -34.688  12.692  -4.490  1.00 20.00    -0.306 OA
ENDBRANCH   6   8
TORSDOF 1
ENDMDL
MODEL 6
REMARK VINA RESULT:      -3.7      2.683      3.726
REMARK  1 active torsions:
REMARK  status: ('A' for Active; 'I' for Inactive)
REMARK    1  A    between atoms: C3_3  and  C7_7 
ROOT
HETATM    1  C1  UNL     1     -35.512  14.372  -7.175  1.00 20.00    -0.023 C 
HETATM    2  C2  UNL     1     -36.572  15.153  -6.914  1.00 20.00    -0.015 C 
HETATM    3  C4  UNL     1     -34.815  15.969  -5.653  1.00 20.00     0.029 C 
HETATM    4  C5  UNL     1     -34.536  14.504  -6.023  1.00 20.00     0.029 C 
HETATM    5  C6  UNL     1     -36.337  15.857  -5.602  1.00 20.00     0.071 C 
HETATM    6  C7  UNL     1     -35.049  13.668  -4.832  1.00 20.00     0.116 C 
HETATM    7  S9  UNL     1     -36.533  14.605  -4.274  1.00 20.00    -0.148 SA
ENDROOT
BRANCH   6   8
HETATM    8  C3  UNL     1     -34.077  13.606  -3.702  1.00 20.00     0.246 C 
HETATM    9  O8  UNL     1     -32.973  13.079  -3.787  1.00 20.00    -0.306 OA
ENDBRANCH   6   8
TORSDOF 1
ENDMDL
MODEL 7
REMARK VINA RESULT:      -3.7      2.189      3.066
REMARK  1 active torsions:
REMARK  status: ('A' for Active; 'I' for Inactive)
REMARK    1  A    between atoms: C3_3  and  C7_7 
ROOT
HETATM    1  C1  UNL     1     -33.610  13.886  -3.909  1.00 20.00    -0.023 C 
HETATM    2  C2  UNL     1     -34.108  14.873  -3.146  1.00 20.00    -0.015 C 
HETATM    3  C4  UNL     1     -35.906  13.871  -4.198  1.00 20.00     0.029 C 
HETATM    4  C5  UNL     1     -34.624  13.572  -4.991  1.00 20.00     0.029 C 
HETATM    5  C6  UNL     1     -35.475  15.235  -3.665  1.00 20.00     0.071 C 
HETATM    6  C7  UNL     1     -34.546  14.660  -6.082  1.00 20.00     0.116 C 
HETATM    7  S9  UNL     1     -35.233  16.146  -5.240  1.00 20.00    -0.148 SA
ENDROOT
BRANCH   6   8
HETATM    8  C3  UNL     1     -35.396  14.356  -7.270  1.00 20.00     0.246 C 
HETATM    9  O8  UNL     1     -36.479  14.893  -7.482  1.00 20.00    -0.306 OA
ENDBRANCH   6   8
TORSDOF 1
ENDMDL
MODEL 8
REMARK VINA RESULT:      -3.7     11.896     12.705
REMARK  1 active torsions:
REMARK  status: ('A' for Active; 'I' for Inactive)
REMARK    1  A    between atoms: C3_3  and  C7_7 
ROOT
HETATM    1  C1  UNL     1     -42.742   5.722   0.471  1.00 20.00    -0.023 C 
HETATM    2  C2  UNL     1     -42.013   4.596   0.419  1.00 20.00    -0.015 C 
HETATM    3  C4  UNL     1     -40.829   6.212  -0.735  1.00 20.00     0.029 C 
HETATM    4  C5  UNL     1     -42.311   6.614  -0.675  1.00 20.00     0.029 C 
HETATM    5  C6  UNL     1     -41.051   4.702  -0.737  1.00 20.00     0.071 C 
HETATM    6  C7  UNL     1     -42.938   6.090  -1.983  1.00 20.00     0.116 C 
HETATM    7  S9  UNL     1     -42.033   4.513  -2.276  1.00 20.00    -0.148 SA
ENDROOT
BRANCH   6   8
HETATM    8  C3  UNL     1     -42.701   6.993  -3.147  1.00 20.00     0.246 C 
HETATM    9  O8  UNL     1     -43.417   7.015  -4.143  1.00 20.00    -0.306 OA
ENDBRANCH   6   8
TORSDOF 1
ENDMDL
MODEL 9
REMARK VINA RESULT:      -3.7      2.133      2.971
REMARK  1 active torsions:
REMARK  status: ('A' for Active; 'I' for Inactive)
REMARK    1  A    between atoms: C3_3  and  C7_7 
ROOT
HETATM    1  C1  UNL     1     -34.687  13.578  -3.937  1.00 20.00    -0.023 C 
HETATM    2  C2  UNL     1     -33.379  13.843  -3.793  1.00 20.00    -0.015 C 
HETATM    3  C4  UNL     1     -34.524  15.521  -2.691  1.00 20.00     0.029 C 
HETATM    4  C5  UNL     1     -35.453  14.868  -3.727  1.00 20.00     0.029 C 
HETATM    5  C6  UNL     1     -33.220  15.303  -3.454  1.00 20.00     0.071 C 
HETATM    6  C7  UNL     1     -35.336  15.736  -4.997  1.00 20.00     0.116 C 
HETATM    7  S9  UNL     1     -33.569  16.255  -4.985  1.00 20.00    -0.148 SA
ENDROOT
BRANCH   6   8
HETATM    8  C3  UNL     1     -36.187  16.960  -4.949  1.00 20.00     0.246 C 
HETATM    9  O8  UNL     1     -37.277  17.004  -4.386  1.00 20.00    -0.306 OA
ENDBRANCH   6   8
TORSDOF 1
ENDMDL
