MODEL 1
REMARK VINA RESULT:      -5.3      0.000      0.000
REMARK  1 active torsions:
REMARK  status: ('A' for Active; 'I' for Inactive)
REMARK    1  A    between atoms: C3_3  and  C7_7 
ROOT
HETATM    1  C1  UNL     1     -34.320   5.355   6.304  1.00 20.00    -0.023 C 
HETATM    2  C2  UNL     1     -33.788   6.366   5.594  1.00 20.00    -0.075 C 
HETATM    3  C4  UNL     1     -35.185   4.284   5.712  1.00 20.00     0.027 C 
HETATM    4  C5  UNL     1     -35.739   4.664   4.341  1.00 20.00     0.005 C 
HETATM    5  C6  UNL     1     -34.640   5.239   3.456  1.00 20.00     0.018 C 
HETATM    6  C7  UNL     1     -33.982   6.472   4.095  1.00 20.00     0.100 C 
HETATM    7  C8  UNL     1     -33.028   7.470   6.279  1.00 20.00     0.044 C 
ENDROOT
BRANCH   6   8
HETATM    8  C3  UNL     1     -32.641   6.672   3.450  1.00 20.00     0.227 C 
HETATM    9  O9  UNL     1     -31.783   5.795   3.459  1.00 20.00    -0.279 OA
HETATM   10 CL10 UNL     1     -32.492   8.245   2.727  1.00 20.00    -0.043 Cl
ENDBRANCH   6   8
TORSDOF 1
ENDMDL
MODEL 2
REMARK VINA RESULT:      -4.6     12.021     12.802
REMARK  1 active torsions:
REMARK  status: ('A' for Active; 'I' for Inactive)
REMARK    1  A    between atoms: C3_3  and  C7_7 
ROOT
HETATM    1  C1  UNL     1     -36.127  16.660  -3.275  1.00 20.00    -0.023 C 
HETATM    2  C2  UNL     1     -36.123  15.348  -3.573  1.00 20.00    -0.075 C 
HETATM    3  C4  UNL     1     -34.927  17.405  -2.776  1.00 20.00     0.027 C 
HETATM    4  C5  UNL     1     -33.833  16.478  -2.251  1.00 20.00     0.005 C 
HETATM    5  C6  UNL     1     -33.584  15.332  -3.223  1.00 20.00     0.018 C 
HETATM    6  C7  UNL     1     -34.861  14.515  -3.478  1.00 20.00     0.100 C 
HETATM    7  C8  UNL     1     -37.397  14.643  -3.956  1.00 20.00     0.044 C 
ENDROOT
BRANCH   6   8
HETATM    8  C3  UNL     1     -34.684  13.761  -4.764  1.00 20.00     0.227 C 
HETATM    9  O9  UNL     1     -34.738  12.535  -4.805  1.00 20.00    -0.279 OA
HETATM   10 CL10 UNL     1     -34.406  14.821  -6.111  1.00 20.00    -0.043 Cl
ENDBRANCH   6   8
TORSDOF 1
ENDMDL
MODEL 3
REMARK VINA RESULT:      -4.6     11.919     13.392
REMARK  1 active torsions:
REMARK  status: ('A' for Active; 'I' for Inactive)
REMARK    1  A    between atoms: C3_3  and  C7_7 
ROOT
HETATM    1  C1  UNL     1     -33.716  16.868  -5.389  1.00 20.00    -0.023 C 
HETATM    2  C2  UNL     1     -34.310  15.662  -5.461  1.00 20.00    -0.075 C 
HETATM    3  C4  UNL     1     -33.684  17.710  -4.150  1.00 20.00     0.027 C 
HETATM    4  C5  UNL     1     -34.719  17.275  -3.115  1.00 20.00     0.005 C 
HETATM    5  C6  UNL     1     -34.693  15.763  -2.929  1.00 20.00     0.018 C 
HETATM    6  C7  UNL     1     -34.958  15.023  -4.250  1.00 20.00     0.100 C 
HETATM    7  C8  UNL     1     -34.404  14.929  -6.772  1.00 20.00     0.044 C 
ENDROOT
BRANCH   6   8
HETATM    8  C3  UNL     1     -34.440  13.621  -4.111  1.00 20.00     0.227 C 
HETATM    9  O9  UNL     1     -35.142  12.647  -4.366  1.00 20.00    -0.279 OA
HETATM   10 CL10 UNL     1     -32.792  13.583  -3.565  1.00 20.00    -0.043 Cl
ENDBRANCH   6   8
TORSDOF 1
ENDMDL
MODEL 4
REMARK VINA RESULT:      -4.5     12.442     13.815
REMARK  1 active torsions:
REMARK  status: ('A' for Active; 'I' for Inactive)
REMARK    1  A    between atoms: C3_3  and  C7_7 
ROOT
HETATM    1  C1  UNL     1     -33.714  16.808  -5.399  1.00 20.00    -0.023 C 
HETATM    2  C2  UNL     1     -33.700  15.557  -4.906  1.00 20.00    -0.075 C 
HETATM    3  C4  UNL     1     -34.401  17.196  -6.673  1.00 20.00     0.027 C 
HETATM    4  C5  UNL     1     -34.724  15.994  -7.557  1.00 20.00     0.005 C 
HETATM    5  C6  UNL     1     -35.358  14.876  -6.738  1.00 20.00     0.018 C 
HETATM    6  C7  UNL     1     -34.443  14.426  -5.588  1.00 20.00     0.100 C 
HETATM    7  C8  UNL     1     -32.889  15.222  -3.683  1.00 20.00     0.044 C 
ENDROOT
BRANCH   6   8
HETATM    8  C3  UNL     1     -35.289  13.721  -4.567  1.00 20.00     0.227 C 
HETATM    9  O9  UNL     1     -35.097  12.546  -4.272  1.00 20.00    -0.279 OA
HETATM   10 CL10 UNL     1     -36.513  14.760  -3.903  1.00 20.00    -0.043 Cl
ENDBRANCH   6   8
TORSDOF 1
ENDMDL
MODEL 5
REMARK VINA RESULT:      -4.5     11.894     12.640
REMARK  1 active torsions:
REMARK  status: ('A' for Active; 'I' for Inactive)
REMARK    1  A    between atoms: C3_3  and  C7_7 
ROOT
HETATM    1  C1  UNL     1     -33.709  16.091  -3.263  1.00 20.00    -0.023 C 
HETATM    2  C2  UNL     1     -35.005  15.811  -3.038  1.00 20.00    -0.075 C 
HETATM    3  C4  UNL     1     -32.721  15.098  -3.795  1.00 20.00     0.027 C 
HETATM    4  C5  UNL     1     -33.209  13.657  -3.670  1.00 20.00     0.005 C 
HETATM    5  C6  UNL     1     -34.649  13.531  -4.151  1.00 20.00     0.018 C 
HETATM    6  C7  UNL     1     -35.593  14.454  -3.366  1.00 20.00     0.100 C 
HETATM    7  C8  UNL     1     -35.909  16.826  -2.391  1.00 20.00     0.044 C 
ENDROOT
BRANCH   6   8
HETATM    8  C3  UNL     1     -36.837  14.653  -4.182  1.00 20.00     0.227 C 
HETATM    9  O9  UNL     1     -37.934  14.265  -3.792  1.00 20.00    -0.279 OA
HETATM   10 CL10 UNL     1     -36.512  15.470  -5.681  1.00 20.00    -0.043 Cl
ENDBRANCH   6   8
TORSDOF 1
ENDMDL
MODEL 6
REMARK VINA RESULT:      -4.4     12.554     13.872
REMARK  1 active torsions:
REMARK  status: ('A' for Active; 'I' for Inactive)
REMARK    1  A    between atoms: C3_3  and  C7_7 
ROOT
HETATM    1  C1  UNL     1     -34.836  14.151  -5.737  1.00 20.00    -0.023 C 
HETATM    2  C2  UNL     1     -34.309  15.368  -5.965  1.00 20.00    -0.075 C 
HETATM    3  C4  UNL     1     -34.563  13.341  -4.506  1.00 20.00     0.027 C 
HETATM    4  C5  UNL     1     -33.334  13.827  -3.742  1.00 20.00     0.005 C 
HETATM    5  C6  UNL     1     -33.360  15.343  -3.585  1.00 20.00     0.018 C 
HETATM    6  C7  UNL     1     -33.423  16.054  -4.946  1.00 20.00     0.100 C 
HETATM    7  C8  UNL     1     -34.536  16.069  -7.278  1.00 20.00     0.044 C 
ENDROOT
BRANCH   6   8
HETATM    8  C3  UNL     1     -33.936  17.447  -4.722  1.00 20.00     0.227 C 
HETATM    9  O9  UNL     1     -33.279  18.434  -5.036  1.00 20.00    -0.279 OA
HETATM   10 CL10 UNL     1     -35.512  17.453  -3.990  1.00 20.00    -0.043 Cl
ENDBRANCH   6   8
TORSDOF 1
ENDMDL
MODEL 7
REMARK VINA RESULT:      -4.3     12.279     12.751
REMARK  1 active torsions:
REMARK  status: ('A' for Active; 'I' for Inactive)
REMARK    1  A    between atoms: C3_3  and  C7_7 
ROOT
HETATM    1  C1  UNL     1     -33.546  14.918  -3.234  1.00 20.00    -0.023 C 
HETATM    2  C2  UNL     1     -34.546  15.620  -2.670  1.00 20.00    -0.075 C 
HETATM    3  C4  UNL     1     -33.755  13.831  -4.245  1.00 20.00     0.027 C 
HETATM    4  C5  UNL     1     -35.193  13.318  -4.268  1.00 20.00     0.005 C 
HETATM    5  C6  UNL     1     -36.180  14.478  -4.280  1.00 20.00     0.018 C 
HETATM    6  C7  UNL     1     -35.992  15.398  -3.063  1.00 20.00     0.100 C 
HETATM    7  C8  UNL     1     -34.264  16.614  -1.576  1.00 20.00     0.044 C 
ENDROOT
BRANCH   6   8
HETATM    8  C3  UNL     1     -36.613  16.727  -3.382  1.00 20.00     0.227 C 
HETATM    9  O9  UNL     1     -37.538  17.183  -2.716  1.00 20.00    -0.279 OA
HETATM   10 CL10 UNL     1     -35.870  17.483  -4.758  1.00 20.00    -0.043 Cl
ENDBRANCH   6   8
TORSDOF 1
ENDMDL
MODEL 8
REMARK VINA RESULT:      -4.2     12.295     13.697
REMARK  1 active torsions:
REMARK  status: ('A' for Active; 'I' for Inactive)
REMARK    1  A    between atoms: C3_3  and  C7_7 
ROOT
HETATM    1  C1  UNL     1     -34.936  14.271  -6.403  1.00 20.00    -0.023 C 
HETATM    2  C2  UNL     1     -34.957  14.574  -5.092  1.00 20.00    -0.075 C 
HETATM    3  C4  UNL     1     -34.451  15.206  -7.468  1.00 20.00     0.027 C 
HETATM    4  C5  UNL     1     -34.374  16.654  -6.990  1.00 20.00     0.005 C 
HETATM    5  C6  UNL     1     -33.693  16.738  -5.629  1.00 20.00     0.018 C 
HETATM    6  C7  UNL     1     -34.427  15.896  -4.574  1.00 20.00     0.100 C 
HETATM    7  C8  UNL     1     -35.568  13.628  -4.094  1.00 20.00     0.044 C 
ENDROOT
BRANCH   6   8
HETATM    8  C3  UNL     1     -33.473  15.623  -3.448  1.00 20.00     0.227 C 
HETATM    9  O9  UNL     1     -32.439  14.984  -3.619  1.00 20.00    -0.279 OA
HETATM   10 CL10 UNL     1     -34.019  16.309  -1.948  1.00 20.00    -0.043 Cl
ENDBRANCH   6   8
TORSDOF 1
ENDMDL
MODEL 9
REMARK VINA RESULT:      -4.2     11.987     13.207
REMARK  1 active torsions:
REMARK  status: ('A' for Active; 'I' for Inactive)
REMARK    1  A    between atoms: C3_3  and  C7_7 
ROOT
HETATM    1  C1  UNL     1     -34.349  15.604  -6.001  1.00 20.00    -0.023 C 
HETATM    2  C2  UNL     1     -34.159  16.096  -4.763  1.00 20.00    -0.075 C 
HETATM    3  C4  UNL     1     -34.830  14.213  -6.281  1.00 20.00     0.027 C 
HETATM    4  C5  UNL     1     -34.691  13.287  -5.074  1.00 20.00     0.005 C 
HETATM    5  C6  UNL     1     -35.214  13.963  -3.813  1.00 20.00     0.018 C 
HETATM    6  C7  UNL     1     -34.478  15.281  -3.526  1.00 20.00     0.100 C 
HETATM    7  C8  UNL     1     -33.561  17.463  -4.563  1.00 20.00     0.044 C 
ENDROOT
BRANCH   6   8
HETATM    8  C3  UNL     1     -35.336  16.107  -2.613  1.00 20.00     0.227 C 
HETATM    9  O9  UNL     1     -36.460  16.474  -2.942  1.00 20.00    -0.279 OA
HETATM   10 CL10 UNL     1     -34.546  16.447  -1.104  1.00 20.00    -0.043 Cl
ENDBRANCH   6   8
TORSDOF 1
ENDMDL
