MODEL 1
REMARK VINA RESULT:      -4.9      0.000      0.000
REMARK  2 active torsions:
REMARK  status: ('A' for Active; 'I' for Inactive)
REMARK    1  A    between atoms: C1_1  and  C5_5 
REMARK    2  A    between atoms: C5_5  and  C6_6 
ROOT
HETATM    1  C2  UNL     1     -34.361   5.316   2.854  1.00 20.00     0.003 C 
HETATM    2  C3  UNL     1     -35.386   5.926   3.825  1.00 20.00     0.026 C 
HETATM    3  C4  UNL     1     -33.280   5.552   3.923  1.00 20.00     0.026 C 
HETATM    4  C5  UNL     1     -34.410   5.606   5.001  1.00 20.00     0.110 C 
ENDROOT
BRANCH   4   5
HETATM    5  C1  UNL     1     -34.259   6.733   6.062  1.00 20.00     0.249 C 
HETATM    6  O7  UNL     1     -33.254   6.884   6.748  1.00 20.00    -0.306 OA
ENDBRANCH   4   5
BRANCH   4   7
HETATM    7  C6  UNL     1     -34.680   4.256   5.669  1.00 20.00     0.401 C 
HETATM    8  F8  UNL     1     -33.554   3.790   6.226  1.00 20.00    -0.170 F 
HETATM    9  F9  UNL     1     -35.613   4.399   6.620  1.00 20.00    -0.170 F 
HETATM   10  F10 UNL     1     -35.115   3.376   4.758  1.00 20.00    -0.170 F 
ENDBRANCH   4   7
TORSDOF 2
ENDMDL
MODEL 2
REMARK VINA RESULT:      -4.4      1.859      2.264
REMARK  2 active torsions:
REMARK  status: ('A' for Active; 'I' for Inactive)
REMARK    1  A    between atoms: C1_1  and  C5_5 
REMARK    2  A    between atoms: C5_5  and  C6_6 
ROOT
HETATM    1  C2  UNL     1     -32.546   7.057   2.705  1.00 20.00     0.003 C 
HETATM    2  C3  UNL     1     -33.717   7.593   3.547  1.00 20.00     0.026 C 
HETATM    3  C4  UNL     1     -32.340   5.968   3.772  1.00 20.00     0.026 C 
HETATM    4  C5  UNL     1     -33.815   6.194   4.234  1.00 20.00     0.110 C 
ENDROOT
BRANCH   4   5
HETATM    5  C1  UNL     1     -34.028   6.227   5.774  1.00 20.00     0.249 C 
HETATM    6  O7  UNL     1     -34.827   5.504   6.361  1.00 20.00    -0.306 OA
ENDBRANCH   4   5
BRANCH   4   7
HETATM    7  C6  UNL     1     -34.816   5.252   3.562  1.00 20.00     0.401 C 
HETATM    8  F8  UNL     1     -34.870   4.093   4.231  1.00 20.00    -0.170 F 
HETATM    9  F9  UNL     1     -36.034   5.812   3.557  1.00 20.00    -0.170 F 
HETATM   10  F10 UNL     1     -34.439   5.012   2.299  1.00 20.00    -0.170 F 
ENDBRANCH   4   7
TORSDOF 2
ENDMDL
MODEL 3
REMARK VINA RESULT:      -4.4     13.318     14.041
REMARK  2 active torsions:
REMARK  status: ('A' for Active; 'I' for Inactive)
REMARK    1  A    between atoms: C1_1  and  C5_5 
REMARK    2  A    between atoms: C5_5  and  C6_6 
ROOT
HETATM    1  C2  UNL     1     -34.878  16.772  -5.783  1.00 20.00     0.003 C 
HETATM    2  C3  UNL     1     -34.009  15.600  -6.272  1.00 20.00     0.026 C 
HETATM    3  C4  UNL     1     -35.630  15.775  -4.884  1.00 20.00     0.026 C 
HETATM    4  C5  UNL     1     -34.400  14.817  -4.978  1.00 20.00     0.110 C 
ENDROOT
BRANCH   4   5
HETATM    5  C1  UNL     1     -34.745  13.316  -5.192  1.00 20.00     0.249 C 
HETATM    6  O7  UNL     1     -35.153  12.583  -4.297  1.00 20.00    -0.306 OA
ENDBRANCH   4   5
BRANCH   4   7
HETATM    7  C6  UNL     1     -33.400  14.993  -3.833  1.00 20.00     0.401 C 
HETATM    8  F8  UNL     1     -34.057  15.198  -2.684  1.00 20.00    -0.170 F 
HETATM    9  F9  UNL     1     -32.646  13.892  -3.716  1.00 20.00    -0.170 F 
HETATM   10  F10 UNL     1     -32.608  16.044  -4.078  1.00 20.00    -0.170 F 
ENDBRANCH   4   7
TORSDOF 2
ENDMDL
MODEL 4
REMARK VINA RESULT:      -4.4      2.120      3.165
REMARK  2 active torsions:
REMARK  status: ('A' for Active; 'I' for Inactive)
REMARK    1  A    between atoms: C1_1  and  C5_5 
REMARK    2  A    between atoms: C5_5  and  C6_6 
ROOT
HETATM    1  C2  UNL     1     -34.721   5.179   6.546  1.00 20.00     0.003 C 
HETATM    2  C3  UNL     1     -33.962   4.370   5.481  1.00 20.00     0.026 C 
HETATM    3  C4  UNL     1     -34.178   6.460   5.891  1.00 20.00     0.026 C 
HETATM    4  C5  UNL     1     -33.939   5.645   4.580  1.00 20.00     0.110 C 
ENDROOT
BRANCH   4   5
HETATM    5  C1  UNL     1     -32.589   5.925   3.862  1.00 20.00     0.249 C 
HETATM    6  O7  UNL     1     -32.364   6.946   3.221  1.00 20.00    -0.306 OA
ENDBRANCH   4   5
BRANCH   4   7
HETATM    7  C6  UNL     1     -35.109   5.717   3.595  1.00 20.00     0.401 C 
HETATM    8  F8  UNL     1     -35.466   6.994   3.407  1.00 20.00    -0.170 F 
HETATM    9  F9  UNL     1     -34.746   5.185   2.420  1.00 20.00    -0.170 F 
HETATM   10  F10 UNL     1     -36.155   5.036   4.080  1.00 20.00    -0.170 F 
ENDBRANCH   4   7
TORSDOF 2
ENDMDL
MODEL 5
REMARK VINA RESULT:      -4.3     13.610     14.252
REMARK  2 active torsions:
REMARK  status: ('A' for Active; 'I' for Inactive)
REMARK    1  A    between atoms: C1_1  and  C5_5 
REMARK    2  A    between atoms: C5_5  and  C6_6 
ROOT
HETATM    1  C2  UNL     1     -33.736  16.186  -2.643  1.00 20.00     0.003 C 
HETATM    2  C3  UNL     1     -34.906  15.287  -3.078  1.00 20.00     0.026 C 
HETATM    3  C4  UNL     1     -32.794  15.260  -3.432  1.00 20.00     0.026 C 
HETATM    4  C5  UNL     1     -34.026  14.775  -4.262  1.00 20.00     0.110 C 
ENDROOT
BRANCH   4   5
HETATM    5  C1  UNL     1     -34.089  13.243  -4.520  1.00 20.00     0.249 C 
HETATM    6  O7  UNL     1     -35.134  12.602  -4.528  1.00 20.00    -0.306 OA
ENDBRANCH   4   5
BRANCH   4   7
HETATM    7  C6  UNL     1     -34.234  15.559  -5.560  1.00 20.00     0.401 C 
HETATM    8  F8  UNL     1     -33.277  16.489  -5.687  1.00 20.00    -0.170 F 
HETATM    9  F9  UNL     1     -34.178  14.726  -6.607  1.00 20.00    -0.170 F 
HETATM   10  F10 UNL     1     -35.430  16.162  -5.541  1.00 20.00    -0.170 F 
ENDBRANCH   4   7
TORSDOF 2
ENDMDL
MODEL 6
REMARK VINA RESULT:      -4.2     12.826     13.477
REMARK  2 active torsions:
REMARK  status: ('A' for Active; 'I' for Inactive)
REMARK    1  A    between atoms: C1_1  and  C5_5 
REMARK    2  A    between atoms: C5_5  and  C6_6 
ROOT
HETATM    1  C2  UNL     1     -33.826  16.976  -2.390  1.00 20.00     0.003 C 
HETATM    2  C3  UNL     1     -34.386  16.877  -3.820  1.00 20.00     0.026 C 
HETATM    3  C4  UNL     1     -34.806  15.863  -1.981  1.00 20.00     0.026 C 
HETATM    4  C5  UNL     1     -34.895  15.440  -3.482  1.00 20.00     0.110 C 
ENDROOT
BRANCH   4   5
HETATM    5  C1  UNL     1     -36.326  15.107  -3.992  1.00 20.00     0.249 C 
HETATM    6  O7  UNL     1     -36.878  14.029  -3.801  1.00 20.00    -0.306 OA
ENDBRANCH   4   5
BRANCH   4   7
HETATM    7  C6  UNL     1     -33.907  14.336  -3.864  1.00 20.00     0.401 C 
HETATM    8  F8  UNL     1     -34.073  14.003  -5.151  1.00 20.00    -0.170 F 
HETATM    9  F9  UNL     1     -32.651  14.767  -3.682  1.00 20.00    -0.170 F 
HETATM   10  F10 UNL     1     -34.114  13.254  -3.102  1.00 20.00    -0.170 F 
ENDBRANCH   4   7
TORSDOF 2
ENDMDL
MODEL 7
REMARK VINA RESULT:      -4.2      2.033      2.815
REMARK  2 active torsions:
REMARK  status: ('A' for Active; 'I' for Inactive)
REMARK    1  A    between atoms: C1_1  and  C5_5 
REMARK    2  A    between atoms: C5_5  and  C6_6 
ROOT
HETATM    1  C2  UNL     1     -32.725   7.006   3.681  1.00 20.00     0.003 C 
HETATM    2  C3  UNL     1     -32.793   5.487   3.916  1.00 20.00     0.026 C 
HETATM    3  C4  UNL     1     -34.241   7.065   3.933  1.00 20.00     0.026 C 
HETATM    4  C5  UNL     1     -34.130   5.704   4.692  1.00 20.00     0.110 C 
ENDROOT
BRANCH   4   5
HETATM    5  C1  UNL     1     -35.254   4.676   4.377  1.00 20.00     0.249 C 
HETATM    6  O7  UNL     1     -35.295   3.550   4.861  1.00 20.00    -0.306 OA
ENDBRANCH   4   5
BRANCH   4   7
HETATM    7  C6  UNL     1     -33.940   5.862   6.203  1.00 20.00     0.401 C 
HETATM    8  F8  UNL     1     -35.130   6.022   6.797  1.00 20.00    -0.170 F 
HETATM    9  F9  UNL     1     -33.344   4.771   6.702  1.00 20.00    -0.170 F 
HETATM   10  F10 UNL     1     -33.177   6.933   6.456  1.00 20.00    -0.170 F 
ENDBRANCH   4   7
TORSDOF 2
ENDMDL
MODEL 8
REMARK VINA RESULT:      -4.2      9.077     10.113
REMARK  2 active torsions:
REMARK  status: ('A' for Active; 'I' for Inactive)
REMARK    1  A    between atoms: C1_1  and  C5_5 
REMARK    2  A    between atoms: C5_5  and  C6_6 
ROOT
HETATM    1  C2  UNL     1     -42.408   7.662  -1.021  1.00 20.00     0.003 C 
HETATM    2  C3  UNL     1     -41.608   6.954  -2.128  1.00 20.00     0.026 C 
HETATM    3  C4  UNL     1     -43.186   6.351  -0.812  1.00 20.00     0.026 C 
HETATM    4  C5  UNL     1     -42.006   5.585  -1.491  1.00 20.00     0.110 C 
ENDROOT
BRANCH   4   5
HETATM    5  C1  UNL     1     -42.427   4.482  -2.502  1.00 20.00     0.249 C 
HETATM    6  O7  UNL     1     -42.833   3.375  -2.164  1.00 20.00    -0.306 OA
ENDBRANCH   4   5
BRANCH   4   7
HETATM    7  C6  UNL     1     -40.972   5.052  -0.496  1.00 20.00     0.401 C 
HETATM    8  F8  UNL     1     -41.591   4.398   0.496  1.00 20.00    -0.170 F 
HETATM    9  F9  UNL     1     -40.133   4.213  -1.119  1.00 20.00    -0.170 F 
HETATM   10  F10 UNL     1     -40.271   6.070   0.021  1.00 20.00    -0.170 F 
ENDBRANCH   4   7
TORSDOF 2
ENDMDL
MODEL 9
REMARK VINA RESULT:      -4.1     13.080     13.749
REMARK  2 active torsions:
REMARK  status: ('A' for Active; 'I' for Inactive)
REMARK    1  A    between atoms: C1_1  and  C5_5 
REMARK    2  A    between atoms: C5_5  and  C6_6 
ROOT
HETATM    1  C2  UNL     1     -34.135  15.390  -6.426  1.00 20.00     0.003 C 
HETATM    2  C3  UNL     1     -35.068  14.257  -5.966  1.00 20.00     0.026 C 
HETATM    3  C4  UNL     1     -34.837  16.313  -5.414  1.00 20.00     0.026 C 
HETATM    4  C5  UNL     1     -35.308  15.042  -4.638  1.00 20.00     0.110 C 
ENDROOT
BRANCH   4   5
HETATM    5  C1  UNL     1     -36.782  15.076  -4.145  1.00 20.00     0.249 C 
HETATM    6  O7  UNL     1     -37.382  14.086  -3.739  1.00 20.00    -0.306 OA
ENDBRANCH   4   5
BRANCH   4   7
HETATM    7  C6  UNL     1     -34.362  14.631  -3.507  1.00 20.00     0.401 C 
HETATM    8  F8  UNL     1     -34.718  15.245  -2.371  1.00 20.00    -0.170 F 
HETATM    9  F9  UNL     1     -34.420  13.305  -3.326  1.00 20.00    -0.170 F 
HETATM   10  F10 UNL     1     -33.105  14.977  -3.817  1.00 20.00    -0.170 F 
ENDBRANCH   4   7
TORSDOF 2
ENDMDL
