MODEL 1
REMARK VINA RESULT:      -4.5      0.000      0.000
REMARK  1 active torsions:
REMARK  status: ('A' for Active; 'I' for Inactive)
REMARK    1  A    between atoms: C3_3  and  C7_7 
ROOT
HETATM    1  C1  UNL     1     -35.554  17.057  -2.148  1.00 20.00    -0.030 C 
HETATM    2  C2  UNL     1     -34.539  16.201  -1.964  1.00 20.00    -0.026 C 
HETATM    3  C4  UNL     1     -36.526  16.959  -3.285  1.00 20.00     0.027 C 
HETATM    4  C5  UNL     1     -36.106  15.956  -4.364  1.00 20.00     0.018 C 
HETATM    5  C6  UNL     1     -34.267  15.023  -2.868  1.00 20.00     0.016 C 
HETATM    6  C7  UNL     1     -35.502  14.697  -3.739  1.00 20.00     0.080 C 
HETATM    7  C8  UNL     1     -32.992  15.305  -3.672  1.00 20.00     0.015 C 
ENDROOT
BRANCH   6   8
HETATM    8  C3  UNL     1     -35.195  13.678  -4.795  1.00 20.00     0.223 C 
HETATM    9  O9  UNL     1     -34.963  12.505  -4.511  1.00 20.00    -0.279 OA
HETATM   10 CL10 UNL     1     -35.215  14.363  -6.391  1.00 20.00    -0.043 Cl
ENDBRANCH   6   8
TORSDOF 1
ENDMDL
MODEL 2
REMARK VINA RESULT:      -4.5      2.914      4.172
REMARK  1 active torsions:
REMARK  status: ('A' for Active; 'I' for Inactive)
REMARK    1  A    between atoms: C3_3  and  C7_7 
ROOT
HETATM    1  C1  UNL     1     -34.925  13.422  -4.328  1.00 20.00    -0.030 C 
HETATM    2  C2  UNL     1     -35.963  14.182  -3.950  1.00 20.00    -0.026 C 
HETATM    3  C4  UNL     1     -33.497  13.750  -4.009  1.00 20.00     0.027 C 
HETATM    4  C5  UNL     1     -33.305  15.159  -3.442  1.00 20.00     0.018 C 
HETATM    5  C6  UNL     1     -35.818  15.447  -3.138  1.00 20.00     0.016 C 
HETATM    6  C7  UNL     1     -34.428  15.517  -2.466  1.00 20.00     0.080 C 
HETATM    7  C8  UNL     1     -36.139  16.647  -4.037  1.00 20.00     0.015 C 
ENDROOT
BRANCH   6   8
HETATM    8  C3  UNL     1     -34.173  16.852  -1.833  1.00 20.00     0.223 C 
HETATM    9  O9  UNL     1     -33.553  17.736  -2.420  1.00 20.00    -0.279 OA
HETATM   10 CL10 UNL     1     -34.844  16.959  -0.235  1.00 20.00    -0.043 Cl
ENDBRANCH   6   8
TORSDOF 1
ENDMDL
MODEL 3
REMARK VINA RESULT:      -4.4      1.920      2.931
REMARK  1 active torsions:
REMARK  status: ('A' for Active; 'I' for Inactive)
REMARK    1  A    between atoms: C3_3  and  C7_7 
ROOT
HETATM    1  C1  UNL     1     -32.980  14.683  -3.418  1.00 20.00    -0.030 C 
HETATM    2  C2  UNL     1     -33.606  13.724  -4.115  1.00 20.00    -0.026 C 
HETATM    3  C4  UNL     1     -33.668  15.905  -2.888  1.00 20.00     0.027 C 
HETATM    4  C5  UNL     1     -35.086  16.095  -3.434  1.00 20.00     0.018 C 
HETATM    5  C6  UNL     1     -35.082  13.750  -4.431  1.00 20.00     0.016 C 
HETATM    6  C7  UNL     1     -35.824  14.757  -3.523  1.00 20.00     0.080 C 
HETATM    7  C8  UNL     1     -35.259  14.013  -5.931  1.00 20.00     0.015 C 
ENDROOT
BRANCH   6   8
HETATM    8  C3  UNL     1     -37.245  14.966  -3.954  1.00 20.00     0.223 C 
HETATM    9  O9  UNL     1     -38.101  14.100  -3.793  1.00 20.00    -0.279 OA
HETATM   10 CL10 UNL     1     -37.488  16.527  -4.675  1.00 20.00    -0.043 Cl
ENDBRANCH   6   8
TORSDOF 1
ENDMDL
MODEL 4
REMARK VINA RESULT:      -4.2      1.837      2.246
REMARK  1 active torsions:
REMARK  status: ('A' for Active; 'I' for Inactive)
REMARK    1  A    between atoms: C3_3  and  C7_7 
ROOT
HETATM    1  C1  UNL     1     -34.071  18.037  -3.214  1.00 20.00    -0.030 C 
HETATM    2  C2  UNL     1     -33.404  17.566  -4.277  1.00 20.00    -0.026 C 
HETATM    3  C4  UNL     1     -34.815  17.165  -2.249  1.00 20.00     0.027 C 
HETATM    4  C5  UNL     1     -34.970  15.718  -2.726  1.00 20.00     0.018 C 
HETATM    5  C6  UNL     1     -33.305  16.098  -4.617  1.00 20.00     0.016 C 
HETATM    6  C7  UNL     1     -33.690  15.223  -3.403  1.00 20.00     0.080 C 
HETATM    7  C8  UNL     1     -34.143  15.827  -5.873  1.00 20.00     0.015 C 
ENDROOT
BRANCH   6   8
HETATM    8  C3  UNL     1     -33.812  13.773  -3.767  1.00 20.00     0.223 C 
HETATM    9  O9  UNL     1     -32.840  13.022  -3.760  1.00 20.00    -0.279 OA
HETATM   10 CL10 UNL     1     -35.442  13.337  -4.180  1.00 20.00    -0.043 Cl
ENDBRANCH   6   8
TORSDOF 1
ENDMDL
MODEL 5
REMARK VINA RESULT:      -4.2      0.798      2.194
REMARK  1 active torsions:
REMARK  status: ('A' for Active; 'I' for Inactive)
REMARK    1  A    between atoms: C3_3  and  C7_7 
ROOT
HETATM    1  C1  UNL     1     -35.278  16.970  -2.445  1.00 20.00    -0.030 C 
HETATM    2  C2  UNL     1     -36.261  16.811  -3.343  1.00 20.00    -0.026 C 
HETATM    3  C4  UNL     1     -34.103  16.046  -2.330  1.00 20.00     0.027 C 
HETATM    4  C5  UNL     1     -34.254  14.759  -3.147  1.00 20.00     0.018 C 
HETATM    5  C6  UNL     1     -36.290  15.694  -4.359  1.00 20.00     0.016 C 
HETATM    6  C7  UNL     1     -34.896  15.044  -4.506  1.00 20.00     0.080 C 
HETATM    7  C8  UNL     1     -37.402  14.710  -3.974  1.00 20.00     0.015 C 
ENDROOT
BRANCH   6   8
HETATM    8  C3  UNL     1     -34.939  13.799  -5.341  1.00 20.00     0.223 C 
HETATM    9  O9  UNL     1     -34.708  12.692  -4.861  1.00 20.00    -0.279 OA
HETATM   10 CL10 UNL     1     -35.341  14.135  -6.997  1.00 20.00    -0.043 Cl
ENDBRANCH   6   8
TORSDOF 1
ENDMDL
MODEL 6
REMARK VINA RESULT:      -4.2      1.915      2.901
REMARK  1 active torsions:
REMARK  status: ('A' for Active; 'I' for Inactive)
REMARK    1  A    between atoms: C3_3  and  C7_7 
ROOT
HETATM    1  C1  UNL     1     -35.128  17.633  -5.665  1.00 20.00    -0.030 C 
HETATM    2  C2  UNL     1     -36.126  16.816  -5.298  1.00 20.00    -0.026 C 
HETATM    3  C4  UNL     1     -33.682  17.240  -5.636  1.00 20.00     0.027 C 
HETATM    4  C5  UNL     1     -33.420  15.921  -4.903  1.00 20.00     0.018 C 
HETATM    5  C6  UNL     1     -35.912  15.396  -4.831  1.00 20.00     0.016 C 
HETATM    6  C7  UNL     1     -34.505  14.891  -5.223  1.00 20.00     0.080 C 
HETATM    7  C8  UNL     1     -36.206  15.324  -3.327  1.00 20.00     0.015 C 
ENDROOT
BRANCH   6   8
HETATM    8  C3  UNL     1     -34.182  13.570  -4.590  1.00 20.00     0.223 C 
HETATM    9  O9  UNL     1     -34.833  12.559  -4.840  1.00 20.00    -0.279 OA
HETATM   10 CL10 UNL     1     -32.828  13.677  -3.508  1.00 20.00    -0.043 Cl
ENDBRANCH   6   8
TORSDOF 1
ENDMDL
MODEL 7
REMARK VINA RESULT:      -4.1      1.877      3.017
REMARK  1 active torsions:
REMARK  status: ('A' for Active; 'I' for Inactive)
REMARK    1  A    between atoms: C3_3  and  C7_7 
ROOT
HETATM    1  C1  UNL     1     -32.816  14.632  -3.736  1.00 20.00    -0.030 C 
HETATM    2  C2  UNL     1     -33.353  15.820  -3.422  1.00 20.00    -0.026 C 
HETATM    3  C4  UNL     1     -33.626  13.435  -4.134  1.00 20.00     0.027 C 
HETATM    4  C5  UNL     1     -35.130  13.607  -3.897  1.00 20.00     0.018 C 
HETATM    5  C6  UNL     1     -34.837  16.099  -3.453  1.00 20.00     0.016 C 
HETATM    6  C7  UNL     1     -35.586  15.020  -4.268  1.00 20.00     0.080 C 
HETATM    7  C8  UNL     1     -35.338  16.253  -2.012  1.00 20.00     0.015 C 
ENDROOT
BRANCH   6   8
HETATM    8  C3  UNL     1     -37.074  15.146  -4.138  1.00 20.00     0.223 C 
HETATM    9  O9  UNL     1     -37.761  14.232  -3.690  1.00 20.00    -0.279 OA
HETATM   10 CL10 UNL     1     -37.651  16.689  -4.687  1.00 20.00    -0.043 Cl
ENDBRANCH   6   8
TORSDOF 1
ENDMDL
MODEL 8
REMARK VINA RESULT:      -4.1      2.429      3.549
REMARK  1 active torsions:
REMARK  status: ('A' for Active; 'I' for Inactive)
REMARK    1  A    between atoms: C3_3  and  C7_7 
ROOT
HETATM    1  C1  UNL     1     -35.920  15.562  -6.916  1.00 20.00    -0.030 C 
HETATM    2  C2  UNL     1     -35.389  14.373  -6.600  1.00 20.00    -0.026 C 
HETATM    3  C4  UNL     1     -35.686  16.813  -6.124  1.00 20.00     0.027 C 
HETATM    4  C5  UNL     1     -35.003  16.565  -4.776  1.00 20.00     0.018 C 
HETATM    5  C6  UNL     1     -34.473  14.157  -5.419  1.00 20.00     0.016 C 
HETATM    6  C7  UNL     1     -33.910  15.500  -4.902  1.00 20.00     0.080 C 
HETATM    7  C8  UNL     1     -35.224  13.343  -4.357  1.00 20.00     0.015 C 
ENDROOT
BRANCH   6   8
HETATM    8  C3  UNL     1     -33.175  15.343  -3.605  1.00 20.00     0.223 C 
HETATM    9  O9  UNL     1     -32.130  14.703  -3.529  1.00 20.00    -0.279 OA
HETATM   10 CL10 UNL     1     -33.977  16.155  -2.295  1.00 20.00    -0.043 Cl
ENDBRANCH   6   8
TORSDOF 1
ENDMDL
MODEL 9
REMARK VINA RESULT:      -4.1      2.769      3.916
REMARK  1 active torsions:
REMARK  status: ('A' for Active; 'I' for Inactive)
REMARK    1  A    between atoms: C3_3  and  C7_7 
ROOT
HETATM    1  C1  UNL     1     -34.792  13.761  -5.747  1.00 20.00    -0.030 C 
HETATM    2  C2  UNL     1     -34.635  15.035  -6.134  1.00 20.00    -0.026 C 
HETATM    3  C4  UNL     1     -35.052  13.351  -4.329  1.00 20.00     0.027 C 
HETATM    4  C5  UNL     1     -34.860  14.486  -3.319  1.00 20.00     0.018 C 
HETATM    5  C6  UNL     1     -34.721  16.210  -5.189  1.00 20.00     0.016 C 
HETATM    6  C7  UNL     1     -35.408  15.806  -3.865  1.00 20.00     0.080 C 
HETATM    7  C8  UNL     1     -33.317  16.800  -5.011  1.00 20.00     0.015 C 
ENDROOT
BRANCH   6   8
HETATM    8  C3  UNL     1     -35.316  16.885  -2.828  1.00 20.00     0.223 C 
HETATM    9  O9  UNL     1     -35.782  18.005  -3.020  1.00 20.00    -0.279 OA
HETATM   10 CL10 UNL     1     -34.495  16.348  -1.395  1.00 20.00    -0.043 Cl
ENDBRANCH   6   8
TORSDOF 1
ENDMDL
