MODEL 1
REMARK VINA RESULT:      -4.7      0.000      0.000
REMARK  1 active torsions:
REMARK  status: ('A' for Active; 'I' for Inactive)
REMARK    1  A    between atoms: C7_7  and  N11_11 
ROOT
HETATM    1  C1  UNL     1     -33.673  15.940  -4.782  1.00 20.00     0.164 C 
HETATM    2  C2  UNL     1     -33.495  13.711  -3.770  1.00 20.00     0.013 C 
HETATM    3  C3  UNL     1     -34.718  15.579  -2.598  1.00 20.00     0.013 C 
HETATM    4  C4  UNL     1     -34.808  13.298  -4.458  1.00 20.00     0.008 C 
HETATM    5  C5  UNL     1     -36.017  15.125  -3.285  1.00 20.00     0.008 C 
HETATM    6  C6  UNL     1     -33.501  15.213  -3.456  1.00 20.00     0.058 C 
HETATM    7  C7  UNL     1     -34.925  15.543  -5.553  1.00 20.00     0.295 C 
HETATM    8  C8  UNL     1     -35.706  14.533  -4.676  1.00 20.00     0.026 C 
HETATM    9  O12 UNL     1     -32.868  16.774  -5.186  1.00 20.00    -0.295 OA
ENDROOT
BRANCH   7  10
HETATM   10  N11 UNL     1     -35.667  16.758  -5.859  1.00 20.00     0.092 N 
HETATM   11  C9  UNL     1     -37.099  16.473  -5.981  1.00 20.00     0.310 C 
HETATM   12  C10 UNL     1     -35.167  17.373  -7.091  1.00 20.00     0.310 C 
ENDBRANCH   7  10
TORSDOF 1
ENDMDL
MODEL 2
REMARK VINA RESULT:      -4.7      2.009      3.044
REMARK  1 active torsions:
REMARK  status: ('A' for Active; 'I' for Inactive)
REMARK    1  A    between atoms: C7_7  and  N11_11 
ROOT
HETATM    1  C1  UNL     1     -36.071  14.474  -4.053  1.00 20.00     0.164 C 
HETATM    2  C2  UNL     1     -33.786  13.597  -3.860  1.00 20.00     0.013 C 
HETATM    3  C3  UNL     1     -34.726  14.301  -6.091  1.00 20.00     0.013 C 
HETATM    4  C4  UNL     1     -33.259  15.026  -3.644  1.00 20.00     0.008 C 
HETATM    5  C5  UNL     1     -34.166  15.713  -5.853  1.00 20.00     0.008 C 
HETATM    6  C6  UNL     1     -35.032  13.612  -4.756  1.00 20.00     0.058 C 
HETATM    7  C7  UNL     1     -35.604  15.892  -3.752  1.00 20.00     0.295 C 
HETATM    8  C8  UNL     1     -34.181  16.046  -4.346  1.00 20.00     0.026 C 
HETATM    9  O12 UNL     1     -37.187  14.054  -3.761  1.00 20.00    -0.295 OA
ENDROOT
BRANCH   7  10
HETATM   10  N11 UNL     1     -36.581  16.815  -4.312  1.00 20.00     0.092 N 
HETATM   11  C9  UNL     1     -35.947  18.087  -4.668  1.00 20.00     0.310 C 
HETATM   12  C10 UNL     1     -37.678  17.042  -3.370  1.00 20.00     0.310 C 
ENDBRANCH   7  10
TORSDOF 1
ENDMDL
MODEL 3
REMARK VINA RESULT:      -4.6      1.872      3.038
REMARK  1 active torsions:
REMARK  status: ('A' for Active; 'I' for Inactive)
REMARK    1  A    between atoms: C7_7  and  N11_11 
ROOT
HETATM    1  C1  UNL     1     -33.566  16.424  -3.802  1.00 20.00     0.164 C 
HETATM    2  C2  UNL     1     -33.596  17.585  -1.639  1.00 20.00     0.013 C 
HETATM    3  C3  UNL     1     -35.244  18.172  -3.456  1.00 20.00     0.013 C 
HETATM    4  C4  UNL     1     -34.586  16.539  -1.096  1.00 20.00     0.008 C 
HETATM    5  C5  UNL     1     -36.218  17.135  -2.873  1.00 20.00     0.008 C 
HETATM    6  C6  UNL     1     -33.794  17.779  -3.149  1.00 20.00     0.058 C 
HETATM    7  C7  UNL     1     -34.471  15.318  -3.276  1.00 20.00     0.295 C 
HETATM    8  C8  UNL     1     -35.435  15.961  -2.247  1.00 20.00     0.026 C 
HETATM    9  O12 UNL     1     -32.724  16.247  -4.678  1.00 20.00    -0.295 OA
ENDROOT
BRANCH   7  10
HETATM   10  N11 UNL     1     -35.144  14.708  -4.415  1.00 20.00     0.092 N 
HETATM   11  C9  UNL     1     -36.522  14.351  -4.072  1.00 20.00     0.310 C 
HETATM   12  C10 UNL     1     -34.413  13.525  -4.874  1.00 20.00     0.310 C 
ENDBRANCH   7  10
TORSDOF 1
ENDMDL
MODEL 4
REMARK VINA RESULT:      -4.6      1.798      2.701
REMARK  1 active torsions:
REMARK  status: ('A' for Active; 'I' for Inactive)
REMARK    1  A    between atoms: C7_7  and  N11_11 
ROOT
HETATM    1  C1  UNL     1     -34.787  14.019  -4.697  1.00 20.00     0.164 C 
HETATM    2  C2  UNL     1     -35.086  15.215  -2.574  1.00 20.00     0.013 C 
HETATM    3  C3  UNL     1     -32.865  15.216  -3.769  1.00 20.00     0.013 C 
HETATM    4  C4  UNL     1     -35.490  16.482  -3.349  1.00 20.00     0.008 C 
HETATM    5  C5  UNL     1     -33.292  16.495  -4.509  1.00 20.00     0.008 C 
HETATM    6  C6  UNL     1     -34.093  14.378  -3.392  1.00 20.00     0.058 C 
HETATM    7  C7  UNL     1     -35.270  15.221  -5.498  1.00 20.00     0.295 C 
HETATM    8  C8  UNL     1     -34.819  16.493  -4.739  1.00 20.00     0.026 C 
HETATM    9  O12 UNL     1     -34.939  12.858  -5.066  1.00 20.00    -0.295 OA
ENDROOT
BRANCH   7  10
HETATM   10  N11 UNL     1     -34.725  15.112  -6.844  1.00 20.00     0.092 N 
HETATM   11  C9  UNL     1     -34.504  16.439  -7.422  1.00 20.00     0.310 C 
HETATM   12  C10 UNL     1     -35.617  14.329  -7.702  1.00 20.00     0.310 C 
ENDBRANCH   7  10
TORSDOF 1
ENDMDL
MODEL 5
REMARK VINA RESULT:      -4.5      1.458      2.326
REMARK  1 active torsions:
REMARK  status: ('A' for Active; 'I' for Inactive)
REMARK    1  A    between atoms: C7_7  and  N11_11 
ROOT
HETATM    1  C1  UNL     1     -34.433  15.009  -5.831  1.00 20.00     0.164 C 
HETATM    2  C2  UNL     1     -35.709  13.738  -4.162  1.00 20.00     0.013 C 
HETATM    3  C3  UNL     1     -33.261  14.242  -3.823  1.00 20.00     0.013 C 
HETATM    4  C4  UNL     1     -36.066  15.050  -3.442  1.00 20.00     0.008 C 
HETATM    5  C5  UNL     1     -33.655  15.534  -3.088  1.00 20.00     0.008 C 
HETATM    6  C6  UNL     1     -34.339  13.855  -4.844  1.00 20.00     0.058 C 
HETATM    7  C7  UNL     1     -34.839  16.336  -5.202  1.00 20.00     0.295 C 
HETATM    8  C8  UNL     1     -34.963  16.104  -3.676  1.00 20.00     0.026 C 
HETATM    9  O12 UNL     1     -34.198  14.874  -7.028  1.00 20.00    -0.295 OA
ENDROOT
BRANCH   7  10
HETATM   10  N11 UNL     1     -33.842  17.331  -5.569  1.00 20.00     0.092 N 
HETATM   11  C9  UNL     1     -33.683  18.323  -4.504  1.00 20.00     0.310 C 
HETATM   12  C10 UNL     1     -34.207  17.990  -6.825  1.00 20.00     0.310 C 
ENDBRANCH   7  10
TORSDOF 1
ENDMDL
MODEL 6
REMARK VINA RESULT:      -4.4      2.056      3.024
REMARK  1 active torsions:
REMARK  status: ('A' for Active; 'I' for Inactive)
REMARK    1  A    between atoms: C7_7  and  N11_11 
ROOT
HETATM    1  C1  UNL     1     -36.619  14.555  -4.161  1.00 20.00     0.164 C 
HETATM    2  C2  UNL     1     -34.360  14.869  -3.252  1.00 20.00     0.013 C 
HETATM    3  C3  UNL     1     -34.767  13.375  -5.242  1.00 20.00     0.013 C 
HETATM    4  C4  UNL     1     -34.147  16.059  -4.203  1.00 20.00     0.008 C 
HETATM    5  C5  UNL     1     -34.524  14.581  -6.165  1.00 20.00     0.008 C 
HETATM    6  C6  UNL     1     -35.306  13.838  -3.883  1.00 20.00     0.058 C 
HETATM    7  C7  UNL     1     -36.483  15.782  -5.053  1.00 20.00     0.295 C 
HETATM    8  C8  UNL     1     -34.997  15.880  -5.479  1.00 20.00     0.026 C 
HETATM    9  O12 UNL     1     -37.691  14.169  -3.703  1.00 20.00    -0.295 OA
ENDROOT
BRANCH   7  10
HETATM   10  N11 UNL     1     -37.408  15.632  -6.167  1.00 20.00     0.092 N 
HETATM   11  C9  UNL     1     -36.919  16.350  -7.346  1.00 20.00     0.310 C 
HETATM   12  C10 UNL     1     -38.743  16.111  -5.800  1.00 20.00     0.310 C 
ENDBRANCH   7  10
TORSDOF 1
ENDMDL
MODEL 7
REMARK VINA RESULT:      -4.4      1.979      3.421
REMARK  1 active torsions:
REMARK  status: ('A' for Active; 'I' for Inactive)
REMARK    1  A    between atoms: C7_7  and  N11_11 
ROOT
HETATM    1  C1  UNL     1     -35.892  15.169  -3.712  1.00 20.00     0.164 C 
HETATM    2  C2  UNL     1     -34.478  13.289  -4.410  1.00 20.00     0.013 C 
HETATM    3  C3  UNL     1     -34.725  15.340  -5.857  1.00 20.00     0.013 C 
HETATM    4  C4  UNL     1     -33.272  13.941  -3.712  1.00 20.00     0.008 C 
HETATM    5  C5  UNL     1     -33.502  15.952  -5.153  1.00 20.00     0.008 C 
HETATM    6  C6  UNL     1     -35.448  14.362  -4.922  1.00 20.00     0.058 C 
HETATM    7  C7  UNL     1     -34.748  15.803  -2.931  1.00 20.00     0.295 C 
HETATM    8  C8  UNL     1     -33.436  15.475  -3.687  1.00 20.00     0.026 C 
HETATM    9  O12 UNL     1     -37.073  15.296  -3.400  1.00 20.00    -0.295 OA
ENDROOT
BRANCH   7  10
HETATM   10  N11 UNL     1     -35.021  17.228  -2.812  1.00 20.00     0.092 N 
HETATM   11  C9  UNL     1     -33.773  17.994  -2.789  1.00 20.00     0.310 C 
HETATM   12  C10 UNL     1     -35.807  17.506  -1.607  1.00 20.00     0.310 C 
ENDBRANCH   7  10
TORSDOF 1
ENDMDL
MODEL 8
REMARK VINA RESULT:      -4.3     12.235     13.460
REMARK  1 active torsions:
REMARK  status: ('A' for Active; 'I' for Inactive)
REMARK    1  A    between atoms: C7_7  and  N11_11 
ROOT
HETATM    1  C1  UNL     1     -42.601   6.102  -2.512  1.00 20.00     0.164 C 
HETATM    2  C2  UNL     1     -41.022   7.111  -0.926  1.00 20.00     0.013 C 
HETATM    3  C3  UNL     1     -43.417   6.664  -0.273  1.00 20.00     0.013 C 
HETATM    4  C4  UNL     1     -40.636   5.708  -0.424  1.00 20.00     0.008 C 
HETATM    5  C5  UNL     1     -42.991   5.278   0.240  1.00 20.00     0.008 C 
HETATM    6  C6  UNL     1     -42.482   7.130  -1.397  1.00 20.00     0.058 C 
HETATM    7  C7  UNL     1     -42.181   4.694  -2.109  1.00 20.00     0.295 C 
HETATM    8  C8  UNL     1     -41.819   4.734  -0.603  1.00 20.00     0.026 C 
HETATM    9  O12 UNL     1     -43.003   6.390  -3.635  1.00 20.00    -0.295 OA
ENDROOT
BRANCH   7  10
HETATM   10  N11 UNL     1     -43.277   3.790  -2.429  1.00 20.00     0.092 N 
HETATM   11  C9  UNL     1     -43.417   2.761  -1.396  1.00 20.00     0.310 C 
HETATM   12  C10 UNL     1     -43.068   3.168  -3.738  1.00 20.00     0.310 C 
ENDBRANCH   7  10
TORSDOF 1
ENDMDL
MODEL 9
REMARK VINA RESULT:      -4.3      1.305      1.670
REMARK  1 active torsions:
REMARK  status: ('A' for Active; 'I' for Inactive)
REMARK    1  A    between atoms: C7_7  and  N11_11 
ROOT
HETATM    1  C1  UNL     1     -34.301  16.077  -5.148  1.00 20.00     0.164 C 
HETATM    2  C2  UNL     1     -32.556  14.888  -3.896  1.00 20.00     0.013 C 
HETATM    3  C3  UNL     1     -34.027  16.601  -2.773  1.00 20.00     0.013 C 
HETATM    4  C4  UNL     1     -33.572  13.792  -3.529  1.00 20.00     0.008 C 
HETATM    5  C5  UNL     1     -35.009  15.477  -2.402  1.00 20.00     0.008 C 
HETATM    6  C6  UNL     1     -33.259  16.243  -4.052  1.00 20.00     0.058 C 
HETATM    7  C7  UNL     1     -35.313  14.970  -4.885  1.00 20.00     0.295 C 
HETATM    8  C8  UNL     1     -34.998  14.380  -3.487  1.00 20.00     0.026 C 
HETATM    9  O12 UNL     1     -34.318  16.781  -6.154  1.00 20.00    -0.295 OA
ENDROOT
BRANCH   7  10
HETATM   10  N11 UNL     1     -36.646  15.544  -4.997  1.00 20.00     0.092 N 
HETATM   11  C9  UNL     1     -37.596  14.819  -4.149  1.00 20.00     0.310 C 
HETATM   12  C10 UNL     1     -37.099  15.532  -6.389  1.00 20.00     0.310 C 
ENDBRANCH   7  10
TORSDOF 1
ENDMDL
