MODEL 1
REMARK VINA RESULT:      -4.4      0.000      0.000
REMARK  1 active torsions:
REMARK  status: ('A' for Active; 'I' for Inactive)
REMARK    1  A    between atoms: C2_2  and  C6_6 
ROOT
HETATM    1  C1  UNL     1     -34.918  13.750  -4.115  1.00 20.00     0.139 C 
HETATM    2  C3  UNL     1     -33.531  13.763  -3.507  1.00 20.00     0.089 C 
HETATM    3  C4  UNL     1     -32.827  15.089  -3.738  1.00 20.00     0.081 C 
HETATM    4  C5  UNL     1     -35.331  16.214  -3.858  1.00 20.00     0.093 C 
HETATM    5  C6  UNL     1     -35.887  14.813  -3.619  1.00 20.00     0.133 C 
HETATM    6  O8  UNL     1     -35.249  12.877  -4.917  1.00 20.00    -0.297 OA
HETATM    7  S10 UNL     1     -33.750  16.469  -2.997  1.00 20.00    -0.168 SA
ENDROOT
BRANCH   5   8
HETATM    8  C2  UNL     1     -37.234  14.714  -4.271  1.00 20.00     0.135 C 
HETATM    9  C7  UNL     1     -37.387  15.384  -5.609  1.00 20.00     0.091 C 
HETATM   10  O9  UNL     1     -38.166  14.113  -3.738  1.00 20.00    -0.298 OA
ENDBRANCH   5   8
TORSDOF 1
ENDMDL
MODEL 2
REMARK VINA RESULT:      -4.2      1.969      2.765
REMARK  1 active torsions:
REMARK  status: ('A' for Active; 'I' for Inactive)
REMARK    1  A    between atoms: C2_2  and  C6_6 
ROOT
HETATM    1  C1  UNL     1     -34.117  15.335  -3.112  1.00 20.00     0.139 C 
HETATM    2  C3  UNL     1     -34.327  16.334  -1.993  1.00 20.00     0.089 C 
HETATM    3  C4  UNL     1     -35.137  17.532  -2.454  1.00 20.00     0.081 C 
HETATM    4  C5  UNL     1     -36.254  15.858  -4.324  1.00 20.00     0.093 C 
HETATM    5  C6  UNL     1     -35.372  14.754  -3.748  1.00 20.00     0.133 C 
HETATM    6  O8  UNL     1     -32.986  14.972  -3.433  1.00 20.00    -0.297 OA
HETATM    7  S10 UNL     1     -36.784  17.036  -3.043  1.00 20.00    -0.168 SA
ENDROOT
BRANCH   5   8
HETATM    8  C2  UNL     1     -35.063  13.770  -4.837  1.00 20.00     0.135 C 
HETATM    9  C7  UNL     1     -34.955  14.320  -6.233  1.00 20.00     0.091 C 
HETATM   10  O9  UNL     1     -34.905  12.574  -4.599  1.00 20.00    -0.298 OA
ENDBRANCH   5   8
TORSDOF 1
ENDMDL
MODEL 3
REMARK VINA RESULT:      -4.0      2.396      3.435
REMARK  1 active torsions:
REMARK  status: ('A' for Active; 'I' for Inactive)
REMARK    1  A    between atoms: C2_2  and  C6_6 
ROOT
HETATM    1  C1  UNL     1     -33.515  16.340  -4.024  1.00 20.00     0.139 C 
HETATM    2  C3  UNL     1     -33.777  17.737  -3.504  1.00 20.00     0.089 C 
HETATM    3  C4  UNL     1     -35.245  18.111  -3.609  1.00 20.00     0.081 C 
HETATM    4  C5  UNL     1     -35.778  15.421  -3.438  1.00 20.00     0.093 C 
HETATM    5  C6  UNL     1     -34.270  15.208  -3.342  1.00 20.00     0.133 C 
HETATM    6  O8  UNL     1     -32.682  16.139  -4.908  1.00 20.00    -0.297 OA
HETATM    7  S10 UNL     1     -36.291  16.978  -2.648  1.00 20.00    -0.168 SA
ENDROOT
BRANCH   5   8
HETATM    8  C2  UNL     1     -33.939  13.864  -3.919  1.00 20.00     0.135 C 
HETATM    9  C7  UNL     1     -34.854  13.347  -4.996  1.00 20.00     0.091 C 
HETATM   10  O9  UNL     1     -32.966  13.218  -3.532  1.00 20.00    -0.298 OA
ENDBRANCH   5   8
TORSDOF 1
ENDMDL
MODEL 4
REMARK VINA RESULT:      -4.0      2.378      3.297
REMARK  1 active torsions:
REMARK  status: ('A' for Active; 'I' for Inactive)
REMARK    1  A    between atoms: C2_2  and  C6_6 
ROOT
HETATM    1  C1  UNL     1     -33.686  16.069  -4.967  1.00 20.00     0.139 C 
HETATM    2  C3  UNL     1     -33.433  17.560  -4.881  1.00 20.00     0.089 C 
HETATM    3  C4  UNL     1     -34.378  18.235  -3.903  1.00 20.00     0.081 C 
HETATM    4  C5  UNL     1     -34.514  15.815  -2.610  1.00 20.00     0.093 C 
HETATM    5  C6  UNL     1     -33.556  15.282  -3.671  1.00 20.00     0.133 C 
HETATM    6  O8  UNL     1     -33.916  15.528  -6.048  1.00 20.00    -0.297 OA
HETATM    7  S10 UNL     1     -34.191  17.563  -2.224  1.00 20.00    -0.168 SA
ENDROOT
BRANCH   5   8
HETATM    8  C2  UNL     1     -33.815  13.817  -3.858  1.00 20.00     0.135 C 
HETATM    9  C7  UNL     1     -35.240  13.411  -4.119  1.00 20.00     0.091 C 
HETATM   10  O9  UNL     1     -32.907  12.989  -3.802  1.00 20.00    -0.298 OA
ENDBRANCH   5   8
TORSDOF 1
ENDMDL
MODEL 5
REMARK VINA RESULT:      -4.0      2.821      3.981
REMARK  1 active torsions:
REMARK  status: ('A' for Active; 'I' for Inactive)
REMARK    1  A    between atoms: C2_2  and  C6_6 
ROOT
HETATM    1  C1  UNL     1     -36.041  15.807  -3.158  1.00 20.00     0.139 C 
HETATM    2  C3  UNL     1     -36.541  14.586  -3.901  1.00 20.00     0.089 C 
HETATM    3  C4  UNL     1     -35.543  14.113  -4.943  1.00 20.00     0.081 C 
HETATM    4  C5  UNL     1     -33.601  15.250  -3.366  1.00 20.00     0.093 C 
HETATM    5  C6  UNL     1     -34.722  15.656  -2.414  1.00 20.00     0.133 C 
HETATM    6  O8  UNL     1     -36.711  16.838  -3.112  1.00 20.00    -0.297 OA
HETATM    7  S10 UNL     1     -33.953  13.664  -4.185  1.00 20.00    -0.168 SA
ENDROOT
BRANCH   5   8
HETATM    8  C2  UNL     1     -34.314  16.912  -1.704  1.00 20.00     0.135 C 
HETATM    9  C7  UNL     1     -34.706  17.028  -0.256  1.00 20.00     0.091 C 
HETATM   10  O9  UNL     1     -33.689  17.803  -2.277  1.00 20.00    -0.298 OA
ENDBRANCH   5   8
TORSDOF 1
ENDMDL
MODEL 6
REMARK VINA RESULT:      -3.9      1.584      3.568
REMARK  1 active torsions:
REMARK  status: ('A' for Active; 'I' for Inactive)
REMARK    1  A    between atoms: C2_2  and  C6_6 
ROOT
HETATM    1  C1  UNL     1     -37.003  14.851  -4.646  1.00 20.00     0.139 C 
HETATM    2  C3  UNL     1     -37.921  15.871  -5.288  1.00 20.00     0.089 C 
HETATM    3  C4  UNL     1     -37.330  17.269  -5.239  1.00 20.00     0.081 C 
HETATM    4  C5  UNL     1     -34.866  16.054  -5.191  1.00 20.00     0.093 C 
HETATM    5  C6  UNL     1     -35.609  14.722  -5.243  1.00 20.00     0.133 C 
HETATM    6  O8  UNL     1     -37.400  14.126  -3.735  1.00 20.00    -0.297 OA
HETATM    7  S10 UNL     1     -35.742  17.352  -6.118  1.00 20.00    -0.168 SA
ENDROOT
BRANCH   5   8
HETATM    8  C2  UNL     1     -34.779  13.684  -4.549  1.00 20.00     0.135 C 
HETATM    9  C7  UNL     1     -33.827  14.175  -3.492  1.00 20.00     0.091 C 
HETATM   10  O9  UNL     1     -34.873  12.490  -4.828  1.00 20.00    -0.298 OA
ENDBRANCH   5   8
TORSDOF 1
ENDMDL
MODEL 7
REMARK VINA RESULT:      -3.9      2.312      3.655
REMARK  1 active torsions:
REMARK  status: ('A' for Active; 'I' for Inactive)
REMARK    1  A    between atoms: C2_2  and  C6_6 
ROOT
HETATM    1  C1  UNL     1     -34.662  14.001  -5.479  1.00 20.00     0.139 C 
HETATM    2  C3  UNL     1     -35.310  14.049  -6.847  1.00 20.00     0.089 C 
HETATM    3  C4  UNL     1     -36.417  15.087  -6.909  1.00 20.00     0.081 C 
HETATM    4  C5  UNL     1     -35.064  16.417  -4.922  1.00 20.00     0.093 C 
HETATM    5  C6  UNL     1     -34.033  15.294  -4.980  1.00 20.00     0.133 C 
HETATM    6  O8  UNL     1     -34.596  12.948  -4.847  1.00 20.00    -0.297 OA
HETATM    7  S10 UNL     1     -35.787  16.755  -6.557  1.00 20.00    -0.168 SA
ENDROOT
BRANCH   5   8
HETATM    8  C2  UNL     1     -33.410  15.146  -3.624  1.00 20.00     0.135 C 
HETATM    9  C7  UNL     1     -34.223  15.622  -2.452  1.00 20.00     0.091 C 
HETATM   10  O9  UNL     1     -32.291  14.657  -3.479  1.00 20.00    -0.298 OA
ENDBRANCH   5   8
TORSDOF 1
ENDMDL
MODEL 8
REMARK VINA RESULT:      -3.8     11.487     12.376
REMARK  1 active torsions:
REMARK  status: ('A' for Active; 'I' for Inactive)
REMARK    1  A    between atoms: C2_2  and  C6_6 
ROOT
HETATM    1  C1  UNL     1     -42.456   5.547  -2.789  1.00 20.00     0.139 C 
HETATM    2  C3  UNL     1     -41.912   6.946  -2.591  1.00 20.00     0.089 C 
HETATM    3  C4  UNL     1     -41.873   7.331  -1.122  1.00 20.00     0.081 C 
HETATM    4  C5  UNL     1     -41.651   4.645  -0.587  1.00 20.00     0.093 C 
HETATM    5  C6  UNL     1     -41.703   4.420  -2.096  1.00 20.00     0.133 C 
HETATM    6  O8  UNL     1     -43.417   5.340  -3.530  1.00 20.00    -0.297 OA
HETATM    7  S10 UNL     1     -40.814   6.205  -0.166  1.00 20.00    -0.168 SA
ENDROOT
BRANCH   5   8
HETATM    8  C2  UNL     1     -42.311   3.075  -2.358  1.00 20.00     0.135 C 
HETATM    9  C7  UNL     1     -41.663   2.237  -3.426  1.00 20.00     0.091 C 
HETATM   10  O9  UNL     1     -43.289   2.675  -1.729  1.00 20.00    -0.298 OA
ENDBRANCH   5   8
TORSDOF 1
ENDMDL
MODEL 9
REMARK VINA RESULT:      -3.8      1.442      2.709
REMARK  1 active torsions:
REMARK  status: ('A' for Active; 'I' for Inactive)
REMARK    1  A    between atoms: C2_2  and  C6_6 
ROOT
HETATM    1  C1  UNL     1     -36.196  15.003  -3.681  1.00 20.00     0.139 C 
HETATM    2  C3  UNL     1     -36.335  16.174  -2.731  1.00 20.00     0.089 C 
HETATM    3  C4  UNL     1     -35.177  16.244  -1.751  1.00 20.00     0.081 C 
HETATM    4  C5  UNL     1     -33.685  14.963  -3.670  1.00 20.00     0.093 C 
HETATM    5  C6  UNL     1     -34.940  14.970  -4.539  1.00 20.00     0.133 C 
HETATM    6  O8  UNL     1     -37.093  14.168  -3.791  1.00 20.00    -0.297 OA
HETATM    7  S10 UNL     1     -33.588  16.440  -2.612  1.00 20.00    -0.168 SA
ENDROOT
BRANCH   5   8
HETATM    8  C2  UNL     1     -34.896  13.781  -5.451  1.00 20.00     0.135 C 
HETATM    9  C7  UNL     1     -35.153  14.039  -6.911  1.00 20.00     0.091 C 
HETATM   10  O9  UNL     1     -34.661  12.650  -5.027  1.00 20.00    -0.298 OA
ENDBRANCH   5   8
TORSDOF 1
ENDMDL
