MODEL 1
REMARK VINA RESULT:      -5.1      0.000      0.000
REMARK  4 active torsions:
REMARK  status: ('A' for Active; 'I' for Inactive)
REMARK    1  A    between atoms: C1_1  and  C7_7 
REMARK    2  A    between atoms: C2_2  and  C9_9 
REMARK    3  A    between atoms: C4_4  and  C9_9 
REMARK    4  A    between atoms: C9_9  and  O10_10 
ROOT
HETATM    1  C1  UNL     1     -33.645   6.005   4.174  1.00 20.00    -0.094 C 
HETATM    2  C2  UNL     1     -32.743   6.612   3.663  1.00 20.00    -0.070 C 
ENDROOT
BRANCH   2   3
HETATM    3  C9  UNL     1     -31.643   7.361   3.041  1.00 20.00     0.219 C 
BRANCH   3   4
HETATM    4  C4  UNL     1     -32.195   8.436   2.155  1.00 20.00     0.007 C 
HETATM    5  C3  UNL     1     -31.792   8.644   0.895  1.00 20.00     0.010 C 
ENDBRANCH   3   4
BRANCH   3   6
HETATM    6  O10 UNL     1     -30.849   7.985   4.048  1.00 20.00    -0.380 OA
HETATM    7  H22 UNL     1     -30.876   8.937   3.870  1.00 20.00     0.211 HD
ENDBRANCH   3   6
ENDBRANCH   2   3
BRANCH   1   8
HETATM    8  C7  UNL     1     -34.726   5.278   4.786  1.00 20.00     0.020 A 
HETATM    9  C5  UNL     1     -34.363   4.067   5.616  1.00 20.00     0.024 A 
HETATM   10  C6  UNL     1     -34.827   5.323   6.294  1.00 20.00     0.024 A 
HETATM   11  C8  UNL     1     -36.002   5.236   3.993  1.00 20.00     0.029 C 
ENDBRANCH   1   8
TORSDOF 4
ENDMDL
MODEL 2
REMARK VINA RESULT:      -4.9      0.433      1.333
REMARK  4 active torsions:
REMARK  status: ('A' for Active; 'I' for Inactive)
REMARK    1  A    between atoms: C1_1  and  C7_7 
REMARK    2  A    between atoms: C2_2  and  C9_9 
REMARK    3  A    between atoms: C4_4  and  C9_9 
REMARK    4  A    between atoms: C9_9  and  O10_10 
ROOT
HETATM    1  C1  UNL     1     -33.528   6.046   4.328  1.00 20.00    -0.094 C 
HETATM    2  C2  UNL     1     -32.704   6.644   3.691  1.00 20.00    -0.070 C 
ENDROOT
BRANCH   2   3
HETATM    3  C9  UNL     1     -31.692   7.378   2.919  1.00 20.00     0.219 C 
BRANCH   3   4
HETATM    4  C4  UNL     1     -32.358   8.389   2.035  1.00 20.00     0.007 C 
HETATM    5  C3  UNL     1     -31.851   8.810   0.871  1.00 20.00     0.010 C 
ENDBRANCH   3   4
BRANCH   3   6
HETATM    6  O10 UNL     1     -30.816   8.074   3.803  1.00 20.00    -0.380 OA
HETATM    7  H22 UNL     1     -30.744   7.531   4.603  1.00 20.00     0.211 HD
ENDBRANCH   3   6
ENDBRANCH   2   3
BRANCH   1   8
HETATM    8  C7  UNL     1     -34.516   5.329   5.092  1.00 20.00     0.020 A 
HETATM    9  C5  UNL     1     -35.780   4.915   4.372  1.00 20.00     0.024 A 
HETATM   10  C6  UNL     1     -34.754   3.881   4.730  1.00 20.00     0.024 A 
HETATM   11  C8  UNL     1     -34.621   5.724   6.538  1.00 20.00     0.029 C 
ENDBRANCH   1   8
TORSDOF 4
ENDMDL
MODEL 3
REMARK VINA RESULT:      -4.5      2.009      5.083
REMARK  4 active torsions:
REMARK  status: ('A' for Active; 'I' for Inactive)
REMARK    1  A    between atoms: C1_1  and  C7_7 
REMARK    2  A    between atoms: C2_2  and  C9_9 
REMARK    3  A    between atoms: C4_4  and  C9_9 
REMARK    4  A    between atoms: C9_9  and  O10_10 
ROOT
HETATM    1  C1  UNL     1     -33.067   6.806   3.259  1.00 20.00    -0.094 C 
HETATM    2  C2  UNL     1     -33.901   5.998   3.567  1.00 20.00    -0.070 C 
ENDROOT
BRANCH   2   3
HETATM    3  C9  UNL     1     -34.924   5.016   3.951  1.00 20.00     0.219 C 
BRANCH   3   4
HETATM    4  C4  UNL     1     -34.808   4.704   5.412  1.00 20.00     0.007 C 
HETATM    5  C3  UNL     1     -34.494   5.610   6.346  1.00 20.00     0.010 C 
ENDBRANCH   3   4
BRANCH   3   6
HETATM    6  O10 UNL     1     -36.224   5.551   3.716  1.00 20.00    -0.380 OA
HETATM    7  H22 UNL     1     -36.856   4.859   3.963  1.00 20.00     0.211 HD
ENDBRANCH   3   6
ENDBRANCH   2   3
BRANCH   1   8
HETATM    8  C7  UNL     1     -32.067   7.773   2.889  1.00 20.00     0.020 A 
HETATM    9  C5  UNL     1     -31.787   7.950   1.413  1.00 20.00     0.024 A 
HETATM   10  C6  UNL     1     -32.536   9.012   2.161  1.00 20.00     0.024 A 
HETATM   11  C8  UNL     1     -30.918   7.908   3.849  1.00 20.00     0.029 C 
ENDBRANCH   1   8
TORSDOF 4
ENDMDL
MODEL 4
REMARK VINA RESULT:      -4.5     10.770     11.903
REMARK  4 active torsions:
REMARK  status: ('A' for Active; 'I' for Inactive)
REMARK    1  A    between atoms: C1_1  and  C7_7 
REMARK    2  A    between atoms: C2_2  and  C9_9 
REMARK    3  A    between atoms: C4_4  and  C9_9 
REMARK    4  A    between atoms: C9_9  and  O10_10 
ROOT
HETATM    1  C1  UNL     1     -34.617  15.786  -2.517  1.00 20.00    -0.094 C 
HETATM    2  C2  UNL     1     -34.480  14.761  -3.128  1.00 20.00    -0.070 C 
ENDROOT
BRANCH   2   3
HETATM    3  C9  UNL     1     -34.318  13.503  -3.869  1.00 20.00     0.219 C 
BRANCH   3   4
HETATM    4  C4  UNL     1     -34.840  13.661  -5.264  1.00 20.00     0.007 C 
HETATM    5  C3  UNL     1     -34.527  14.687  -6.065  1.00 20.00     0.010 C 
ENDBRANCH   3   4
BRANCH   3   6
HETATM    6  O10 UNL     1     -32.936  13.161  -3.951  1.00 20.00    -0.380 OA
HETATM    7  H22 UNL     1     -32.464  13.976  -4.180  1.00 20.00     0.211 HD
ENDBRANCH   3   6
ENDBRANCH   2   3
BRANCH   1   8
HETATM    8  C7  UNL     1     -34.780  17.016  -1.786  1.00 20.00     0.020 A 
HETATM    9  C5  UNL     1     -34.716  16.938  -0.277  1.00 20.00     0.024 A 
HETATM   10  C6  UNL     1     -33.575  17.543  -1.040  1.00 20.00     0.024 A 
HETATM   11  C8  UNL     1     -35.721  18.011  -2.404  1.00 20.00     0.029 C 
ENDBRANCH   1   8
TORSDOF 4
ENDMDL
MODEL 5
REMARK VINA RESULT:      -4.4     11.200     12.353
REMARK  4 active torsions:
REMARK  status: ('A' for Active; 'I' for Inactive)
REMARK    1  A    between atoms: C1_1  and  C7_7 
REMARK    2  A    between atoms: C2_2  and  C9_9 
REMARK    3  A    between atoms: C4_4  and  C9_9 
REMARK    4  A    between atoms: C9_9  and  O10_10 
ROOT
HETATM    1  C1  UNL     1     -33.703  16.845  -1.809  1.00 20.00    -0.094 C 
HETATM    2  C2  UNL     1     -33.489  16.092  -2.720  1.00 20.00    -0.070 C 
ENDROOT
BRANCH   2   3
HETATM    3  C9  UNL     1     -33.230  15.178  -3.840  1.00 20.00     0.219 C 
BRANCH   3   4
HETATM    4  C4  UNL     1     -34.525  14.655  -4.382  1.00 20.00     0.007 C 
HETATM    5  C3  UNL     1     -34.971  13.410  -4.176  1.00 20.00     0.010 C 
ENDBRANCH   3   4
BRANCH   3   6
HETATM    6  O10 UNL     1     -32.561  15.873  -4.890  1.00 20.00    -0.380 OA
HETATM    7  H22 UNL     1     -32.227  15.198  -5.499  1.00 20.00     0.211 HD
ENDBRANCH   3   6
ENDBRANCH   2   3
BRANCH   1   8
HETATM    8  C7  UNL     1     -33.960  17.746  -0.716  1.00 20.00     0.020 A 
HETATM    9  C5  UNL     1     -32.794  18.559  -0.200  1.00 20.00     0.024 A 
HETATM   10  C6  UNL     1     -33.870  19.228  -1.003  1.00 20.00     0.024 A 
HETATM   11  C8  UNL     1     -34.990  17.279   0.274  1.00 20.00     0.029 C 
ENDBRANCH   1   8
TORSDOF 4
ENDMDL
MODEL 6
REMARK VINA RESULT:      -4.4     10.954     12.023
REMARK  4 active torsions:
REMARK  status: ('A' for Active; 'I' for Inactive)
REMARK    1  A    between atoms: C1_1  and  C7_7 
REMARK    2  A    between atoms: C2_2  and  C9_9 
REMARK    3  A    between atoms: C4_4  and  C9_9 
REMARK    4  A    between atoms: C9_9  and  O10_10 
ROOT
HETATM    1  C1  UNL     1     -34.379  15.633  -2.630  1.00 20.00    -0.094 C 
HETATM    2  C2  UNL     1     -34.553  16.233  -1.605  1.00 20.00    -0.070 C 
ENDROOT
BRANCH   2   3
HETATM    3  C9  UNL     1     -34.757  16.965  -0.347  1.00 20.00     0.219 C 
BRANCH   3   4
HETATM    4  C4  UNL     1     -33.691  18.006  -0.185  1.00 20.00     0.007 C 
HETATM    5  C3  UNL     1     -33.298  18.829  -1.164  1.00 20.00     0.010 C 
ENDBRANCH   3   4
BRANCH   3   6
HETATM    6  O10 UNL     1     -36.020  17.626  -0.369  1.00 20.00    -0.380 OA
HETATM    7  H22 UNL     1     -36.047  18.194   0.415  1.00 20.00     0.211 HD
ENDBRANCH   3   6
ENDBRANCH   2   3
BRANCH   1   8
HETATM    8  C7  UNL     1     -34.172  14.913  -3.860  1.00 20.00     0.020 A 
HETATM    9  C5  UNL     1     -33.393  13.619  -3.783  1.00 20.00     0.024 A 
HETATM   10  C6  UNL     1     -34.875  13.583  -4.012  1.00 20.00     0.024 A 
HETATM   11  C8  UNL     1     -34.004  15.769  -5.085  1.00 20.00     0.029 C 
ENDBRANCH   1   8
TORSDOF 4
ENDMDL
MODEL 7
REMARK VINA RESULT:      -4.1     11.160     12.254
REMARK  4 active torsions:
REMARK  status: ('A' for Active; 'I' for Inactive)
REMARK    1  A    between atoms: C1_1  and  C7_7 
REMARK    2  A    between atoms: C2_2  and  C9_9 
REMARK    3  A    between atoms: C4_4  and  C9_9 
REMARK    4  A    between atoms: C9_9  and  O10_10 
ROOT
HETATM    1  C1  UNL     1     -35.489  16.456  -2.452  1.00 20.00    -0.094 C 
HETATM    2  C2  UNL     1     -35.830  15.602  -3.224  1.00 20.00    -0.070 C 
ENDROOT
BRANCH   2   3
HETATM    3  C9  UNL     1     -36.249  14.564  -4.175  1.00 20.00     0.219 C 
BRANCH   3   4
HETATM    4  C4  UNL     1     -35.269  13.431  -4.159  1.00 20.00     0.007 C 
HETATM    5  C3  UNL     1     -33.942  13.592  -4.231  1.00 20.00     0.010 C 
ENDBRANCH   3   4
BRANCH   3   6
HETATM    6  O10 UNL     1     -37.525  14.049  -3.802  1.00 20.00    -0.380 OA
HETATM    7  H22 UNL     1     -37.988  14.765  -3.342  1.00 20.00     0.211 HD
ENDBRANCH   3   6
ENDBRANCH   2   3
BRANCH   1   8
HETATM    8  C7  UNL     1     -35.080  17.479  -1.525  1.00 20.00     0.020 A 
HETATM    9  C5  UNL     1     -34.766  17.046  -0.110  1.00 20.00     0.024 A 
HETATM   10  C6  UNL     1     -33.650  17.438  -1.033  1.00 20.00     0.024 A 
HETATM   11  C8  UNL     1     -35.720  18.823  -1.728  1.00 20.00     0.029 C 
ENDBRANCH   1   8
TORSDOF 4
ENDMDL
MODEL 8
REMARK VINA RESULT:      -4.0      1.944      5.308
REMARK  4 active torsions:
REMARK  status: ('A' for Active; 'I' for Inactive)
REMARK    1  A    between atoms: C1_1  and  C7_7 
REMARK    2  A    between atoms: C2_2  and  C9_9 
REMARK    3  A    between atoms: C4_4  and  C9_9 
REMARK    4  A    between atoms: C9_9  and  O10_10 
ROOT
HETATM    1  C1  UNL     1     -32.789   7.819   2.424  1.00 20.00    -0.094 C 
HETATM    2  C2  UNL     1     -33.117   6.901   3.126  1.00 20.00    -0.070 C 
ENDROOT
BRANCH   2   3
HETATM    3  C9  UNL     1     -33.527   5.783   3.986  1.00 20.00     0.219 C 
BRANCH   3   4
HETATM    4  C4  UNL     1     -33.931   6.298   5.335  1.00 20.00     0.007 C 
HETATM    5  C3  UNL     1     -34.486   5.539   6.287  1.00 20.00     0.010 C 
ENDBRANCH   3   4
BRANCH   3   6
HETATM    6  O10 UNL     1     -34.649   5.116   3.415  1.00 20.00    -0.380 OA
HETATM    7  H22 UNL     1     -34.878   4.393   4.019  1.00 20.00     0.211 HD
ENDBRANCH   3   6
ENDBRANCH   2   3
BRANCH   1   8
HETATM    8  C7  UNL     1     -32.394   8.919   1.583  1.00 20.00     0.020 A 
HETATM    9  C5  UNL     1     -31.191   8.711   0.691  1.00 20.00     0.024 A 
HETATM   10  C6  UNL     1     -32.565   8.746   0.090  1.00 20.00     0.024 A 
HETATM   11  C8  UNL     1     -32.616  10.286   2.167  1.00 20.00     0.029 C 
ENDBRANCH   1   8
TORSDOF 4
ENDMDL
MODEL 9
REMARK VINA RESULT:      -3.9      9.894     11.577
REMARK  4 active torsions:
REMARK  status: ('A' for Active; 'I' for Inactive)
REMARK    1  A    between atoms: C1_1  and  C7_7 
REMARK    2  A    between atoms: C2_2  and  C9_9 
REMARK    3  A    between atoms: C4_4  and  C9_9 
REMARK    4  A    between atoms: C9_9  and  O10_10 
ROOT
HETATM    1  C1  UNL     1     -41.848   2.616  -3.017  1.00 20.00    -0.094 C 
HETATM    2  C2  UNL     1     -41.453   3.479  -2.280  1.00 20.00    -0.070 C 
ENDROOT
BRANCH   2   3
HETATM    3  C9  UNL     1     -40.975   4.529  -1.372  1.00 20.00     0.219 C 
BRANCH   3   4
HETATM    4  C4  UNL     1     -41.607   5.840  -1.730  1.00 20.00     0.007 C 
HETATM    5  C3  UNL     1     -41.218   7.017  -1.225  1.00 20.00     0.010 C 
ENDBRANCH   3   4
BRANCH   3   6
HETATM    6  O10 UNL     1     -41.340   4.215  -0.030  1.00 20.00    -0.380 OA
HETATM    7  H22 UNL     1     -40.524   4.242   0.492  1.00 20.00     0.211 HD
ENDBRANCH   3   6
ENDBRANCH   2   3
BRANCH   1   8
HETATM    8  C7  UNL     1     -42.321   1.583  -3.902  1.00 20.00     0.020 A 
HETATM    9  C5  UNL     1     -41.443   0.364  -4.074  1.00 20.00     0.024 A 
HETATM   10  C6  UNL     1     -42.711   0.262  -3.278  1.00 20.00     0.024 A 
HETATM   11  C8  UNL     1     -43.106   2.064  -5.089  1.00 20.00     0.029 C 
ENDBRANCH   1   8
TORSDOF 4
ENDMDL
