MODEL 1
REMARK VINA RESULT:      -4.9      0.000      0.000
REMARK  2 active torsions:
REMARK  status: ('A' for Active; 'I' for Inactive)
REMARK    1  A    between atoms: C1_1  and  C8_8 
REMARK    2  A    between atoms: C3_3  and  C9_9 
ROOT
HETATM    1  C4  UNL     1     -32.958   6.580   4.928  1.00 20.00     0.009 C 
HETATM    2  C5  UNL     1     -32.980   5.419   2.664  1.00 20.00     0.009 C 
HETATM    3  C6  UNL     1     -34.487   6.541   4.963  1.00 20.00     0.012 C 
HETATM    4  C7  UNL     1     -34.509   5.366   2.708  1.00 20.00     0.012 C 
HETATM    5  C8  UNL     1     -32.378   6.527   3.520  1.00 20.00     0.008 C 
HETATM    6  C9  UNL     1     -35.090   5.426   4.115  1.00 20.00     0.047 C 
ENDROOT
BRANCH   5   7
HETATM    7  C1  UNL     1     -32.590   7.872   2.844  1.00 20.00    -0.026 C 
HETATM    8  C2  UNL     1     -32.008   8.227   1.689  1.00 20.00    -0.035 C 
HETATM    9  C10 UNL     1     -32.216   9.548   1.025  1.00 20.00     0.036 C 
ENDBRANCH   5   7
BRANCH   6  10
HETATM   10  C3  UNL     1     -34.876   4.100   4.827  1.00 20.00     0.235 C 
HETATM   11  O11 UNL     1     -35.064   3.939   6.028  1.00 20.00    -0.306 OA
ENDBRANCH   6  10
TORSDOF 2
ENDMDL
MODEL 2
REMARK VINA RESULT:      -4.8     11.247     12.489
REMARK  2 active torsions:
REMARK  status: ('A' for Active; 'I' for Inactive)
REMARK    1  A    between atoms: C1_1  and  C8_8 
REMARK    2  A    between atoms: C3_3  and  C9_9 
ROOT
HETATM    1  C4  UNL     1     -34.227  13.966  -3.568  1.00 20.00     0.009 C 
HETATM    2  C5  UNL     1     -33.927  16.350  -4.401  1.00 20.00     0.009 C 
HETATM    3  C6  UNL     1     -35.591  13.896  -4.257  1.00 20.00     0.012 C 
HETATM    4  C7  UNL     1     -35.284  16.273  -5.106  1.00 20.00     0.012 C 
HETATM    5  C8  UNL     1     -33.785  15.385  -3.231  1.00 20.00     0.008 C 
HETATM    6  C9  UNL     1     -35.729  14.854  -5.435  1.00 20.00     0.047 C 
ENDROOT
BRANCH   5   7
HETATM    7  C1  UNL     1     -34.593  15.890  -2.046  1.00 20.00    -0.026 C 
HETATM    8  C2  UNL     1     -34.149  16.809  -1.177  1.00 20.00    -0.035 C 
HETATM    9  C10 UNL     1     -34.942  17.305  -0.014  1.00 20.00     0.036 C 
ENDBRANCH   5   7
BRANCH   6  10
HETATM   10  C3  UNL     1     -34.925  14.312  -6.605  1.00 20.00     0.235 C 
HETATM   11  O11 UNL     1     -34.590  14.992  -7.569  1.00 20.00    -0.306 OA
ENDBRANCH   6  10
TORSDOF 2
ENDMDL
MODEL 3
REMARK VINA RESULT:      -4.7     10.902     11.991
REMARK  2 active torsions:
REMARK  status: ('A' for Active; 'I' for Inactive)
REMARK    1  A    between atoms: C1_1  and  C8_8 
REMARK    2  A    between atoms: C3_3  and  C9_9 
ROOT
HETATM    1  C4  UNL     1     -33.303  15.200  -3.467  1.00 20.00     0.009 C 
HETATM    2  C5  UNL     1     -35.599  16.211  -3.892  1.00 20.00     0.009 C 
HETATM    3  C6  UNL     1     -33.919  13.800  -3.468  1.00 20.00     0.012 C 
HETATM    4  C7  UNL     1     -36.212  14.808  -3.910  1.00 20.00     0.012 C 
HETATM    5  C8  UNL     1     -34.294  16.303  -3.112  1.00 20.00     0.008 C 
HETATM    6  C9  UNL     1     -35.220  13.705  -4.257  1.00 20.00     0.047 C 
ENDROOT
BRANCH   5   7
HETATM    7  C1  UNL     1     -34.581  16.251  -1.620  1.00 20.00    -0.026 C 
HETATM    8  C2  UNL     1     -34.701  17.339  -0.845  1.00 20.00    -0.035 C 
HETATM    9  C10 UNL     1     -34.984  17.289   0.620  1.00 20.00     0.036 C 
ENDBRANCH   5   7
BRANCH   6  10
HETATM   10  C3  UNL     1     -34.896  13.742  -5.742  1.00 20.00     0.235 C 
HETATM   11  O11 UNL     1     -35.641  14.229  -6.585  1.00 20.00    -0.306 OA
ENDBRANCH   6  10
TORSDOF 2
ENDMDL
MODEL 4
REMARK VINA RESULT:      -4.7     11.539     12.651
REMARK  2 active torsions:
REMARK  status: ('A' for Active; 'I' for Inactive)
REMARK    1  A    between atoms: C1_1  and  C8_8 
REMARK    2  A    between atoms: C3_3  and  C9_9 
ROOT
HETATM    1  C4  UNL     1     -35.526  15.119  -3.506  1.00 20.00     0.009 C 
HETATM    2  C5  UNL     1     -32.999  15.240  -3.771  1.00 20.00     0.009 C 
HETATM    3  C6  UNL     1     -35.696  16.084  -4.680  1.00 20.00     0.012 C 
HETATM    4  C7  UNL     1     -33.171  16.192  -4.958  1.00 20.00     0.012 C 
HETATM    5  C8  UNL     1     -34.178  15.240  -2.806  1.00 20.00     0.008 C 
HETATM    6  C9  UNL     1     -34.522  16.076  -5.652  1.00 20.00     0.047 C 
ENDROOT
BRANCH   5   7
HETATM    7  C1  UNL     1     -34.162  16.514  -1.974  1.00 20.00    -0.026 C 
HETATM    8  C2  UNL     1     -34.672  16.604  -0.738  1.00 20.00    -0.035 C 
HETATM    9  C10 UNL     1     -34.657  17.854   0.079  1.00 20.00     0.036 C 
ENDBRANCH   5   7
BRANCH   6  10
HETATM   10  C3  UNL     1     -34.578  14.801  -6.478  1.00 20.00     0.235 C 
HETATM   11  O11 UNL     1     -35.606  14.371  -6.989  1.00 20.00    -0.306 OA
ENDBRANCH   6  10
TORSDOF 2
ENDMDL
MODEL 5
REMARK VINA RESULT:      -4.4     11.435     12.791
REMARK  2 active torsions:
REMARK  status: ('A' for Active; 'I' for Inactive)
REMARK    1  A    between atoms: C1_1  and  C8_8 
REMARK    2  A    between atoms: C3_3  and  C9_9 
ROOT
HETATM    1  C4  UNL     1     -35.409  17.145  -3.487  1.00 20.00     0.009 C 
HETATM    2  C5  UNL     1     -34.425  14.824  -3.144  1.00 20.00     0.009 C 
HETATM    3  C6  UNL     1     -34.114  17.594  -4.167  1.00 20.00     0.012 C 
HETATM    4  C7  UNL     1     -33.137  15.269  -3.840  1.00 20.00     0.012 C 
HETATM    5  C8  UNL     1     -35.223  15.970  -2.534  1.00 20.00     0.008 C 
HETATM    6  C9  UNL     1     -33.321  16.449  -4.786  1.00 20.00     0.047 C 
ENDROOT
BRANCH   5   7
HETATM    7  C1  UNL     1     -34.536  16.459  -1.269  1.00 20.00    -0.026 C 
HETATM    8  C2  UNL     1     -35.028  17.425  -0.478  1.00 20.00    -0.035 C 
HETATM    9  C10 UNL     1     -34.353  17.905   0.764  1.00 20.00     0.036 C 
ENDBRANCH   5   7
BRANCH   6  10
HETATM   10  C3  UNL     1     -34.024  15.996  -6.056  1.00 20.00     0.235 C 
HETATM   11  O11 UNL     1     -34.181  14.818  -6.359  1.00 20.00    -0.306 OA
ENDBRANCH   6  10
TORSDOF 2
ENDMDL
MODEL 6
REMARK VINA RESULT:      -4.4     11.278     12.657
REMARK  2 active torsions:
REMARK  status: ('A' for Active; 'I' for Inactive)
REMARK    1  A    between atoms: C1_1  and  C8_8 
REMARK    2  A    between atoms: C3_3  and  C9_9 
ROOT
HETATM    1  C4  UNL     1     -33.805  17.649  -4.123  1.00 20.00     0.009 C 
HETATM    2  C5  UNL     1     -33.305  15.165  -3.897  1.00 20.00     0.009 C 
HETATM    3  C6  UNL     1     -35.123  17.453  -3.373  1.00 20.00     0.012 C 
HETATM    4  C7  UNL     1     -34.617  14.972  -3.131  1.00 20.00     0.012 C 
HETATM    5  C8  UNL     1     -33.298  16.386  -4.808  1.00 20.00     0.008 C 
HETATM    6  C9  UNL     1     -35.127  16.237  -2.453  1.00 20.00     0.047 C 
ENDROOT
BRANCH   5   7
HETATM    7  C1  UNL     1     -34.147  16.114  -6.040  1.00 20.00    -0.026 C 
HETATM    8  C2  UNL     1     -34.392  14.886  -6.521  1.00 20.00    -0.035 C 
HETATM    9  C10 UNL     1     -35.226  14.618  -7.730  1.00 20.00     0.036 C 
ENDBRANCH   5   7
BRANCH   6  10
HETATM   10  C3  UNL     1     -34.285  16.549  -1.226  1.00 20.00     0.235 C 
HETATM   11  O11 UNL     1     -34.760  16.896  -0.150  1.00 20.00    -0.306 OA
ENDBRANCH   6  10
TORSDOF 2
ENDMDL
MODEL 7
REMARK VINA RESULT:      -4.1     11.124     12.310
REMARK  2 active torsions:
REMARK  status: ('A' for Active; 'I' for Inactive)
REMARK    1  A    between atoms: C1_1  and  C8_8 
REMARK    2  A    between atoms: C3_3  and  C9_9 
ROOT
HETATM    1  C4  UNL     1     -34.369  14.568  -3.327  1.00 20.00     0.009 C 
HETATM    2  C5  UNL     1     -36.666  15.650  -3.174  1.00 20.00     0.009 C 
HETATM    3  C6  UNL     1     -33.712  15.930  -3.100  1.00 20.00     0.012 C 
HETATM    4  C7  UNL     1     -36.008  17.010  -2.930  1.00 20.00     0.012 C 
HETATM    5  C8  UNL     1     -35.775  14.657  -3.909  1.00 20.00     0.008 C 
HETATM    6  C9  UNL     1     -34.600  16.920  -2.355  1.00 20.00     0.047 C 
ENDROOT
BRANCH   5   7
HETATM    7  C1  UNL     1     -35.681  15.039  -5.378  1.00 20.00    -0.026 C 
HETATM    8  C2  UNL     1     -34.945  14.371  -6.278  1.00 20.00    -0.035 C 
HETATM    9  C10 UNL     1     -34.852  14.746  -7.720  1.00 20.00     0.036 C 
ENDBRANCH   5   7
BRANCH   6  10
HETATM   10  C3  UNL     1     -34.658  16.520  -0.889  1.00 20.00     0.235 C 
HETATM   11  O11 UNL     1     -34.370  17.278   0.031  1.00 20.00    -0.306 OA
ENDBRANCH   6  10
TORSDOF 2
ENDMDL
MODEL 8
REMARK VINA RESULT:      -4.1     11.155     12.408
REMARK  2 active torsions:
REMARK  status: ('A' for Active; 'I' for Inactive)
REMARK    1  A    between atoms: C1_1  and  C8_8 
REMARK    2  A    between atoms: C3_3  and  C9_9 
ROOT
HETATM    1  C4  UNL     1     -34.377  15.260  -2.664  1.00 20.00     0.009 C 
HETATM    2  C5  UNL     1     -33.332  16.408  -4.680  1.00 20.00     0.009 C 
HETATM    3  C6  UNL     1     -35.641  14.981  -3.478  1.00 20.00     0.012 C 
HETATM    4  C7  UNL     1     -34.591  16.113  -5.499  1.00 20.00     0.012 C 
HETATM    5  C8  UNL     1     -33.570  16.448  -3.176  1.00 20.00     0.008 C 
HETATM    6  C9  UNL     1     -35.401  14.930  -4.983  1.00 20.00     0.047 C 
ENDROOT
BRANCH   5   7
HETATM    7  C1  UNL     1     -34.290  17.735  -2.803  1.00 20.00    -0.026 C 
HETATM    8  C2  UNL     1     -34.838  17.962  -1.601  1.00 20.00    -0.035 C 
HETATM    9  C10 UNL     1     -35.545  19.225  -1.235  1.00 20.00     0.036 C 
ENDBRANCH   5   7
BRANCH   6  10
HETATM   10  C3  UNL     1     -34.697  13.626  -5.322  1.00 20.00     0.235 C 
HETATM   11  O11 UNL     1     -34.880  12.580  -4.710  1.00 20.00    -0.306 OA
ENDBRANCH   6  10
TORSDOF 2
ENDMDL
MODEL 9
REMARK VINA RESULT:      -4.0     10.945     12.570
REMARK  2 active torsions:
REMARK  status: ('A' for Active; 'I' for Inactive)
REMARK    1  A    between atoms: C1_1  and  C8_8 
REMARK    2  A    between atoms: C3_3  and  C9_9 
ROOT
HETATM    1  C4  UNL     1     -33.550  16.570  -4.406  1.00 20.00     0.009 C 
HETATM    2  C5  UNL     1     -36.037  16.036  -4.445  1.00 20.00     0.009 C 
HETATM    3  C6  UNL     1     -33.333  15.483  -3.353  1.00 20.00     0.012 C 
HETATM    4  C7  UNL     1     -35.816  14.936  -3.404  1.00 20.00     0.012 C 
HETATM    5  C8  UNL     1     -34.970  17.123  -4.429  1.00 20.00     0.008 C 
HETATM    6  C9  UNL     1     -34.394  14.388  -3.377  1.00 20.00     0.047 C 
ENDROOT
BRANCH   5   7
HETATM    7  C1  UNL     1     -35.172  18.024  -3.220  1.00 20.00    -0.026 C 
HETATM    8  C2  UNL     1     -36.376  18.379  -2.746  1.00 20.00    -0.035 C 
HETATM    9  C10 UNL     1     -36.574  19.262  -1.560  1.00 20.00     0.036 C 
ENDBRANCH   5   7
BRANCH   6  10
HETATM   10  C3  UNL     1     -34.153  13.498  -4.585  1.00 20.00     0.235 C 
HETATM   11  O11 UNL     1     -34.849  12.525  -4.858  1.00 20.00    -0.306 OA
ENDBRANCH   6  10
TORSDOF 2
ENDMDL
