MODEL 1
REMARK VINA RESULT:      -5.2      0.000      0.000
REMARK  1 active torsions:
REMARK  status: ('A' for Active; 'I' for Inactive)
REMARK    1  A    between atoms: C3_3  and  C7_7 
ROOT
HETATM    1  C1  UNL     1     -34.498  15.479  -2.719  1.00 20.00    -0.070 C 
HETATM    2  C2  UNL     1     -34.714  16.299  -1.685  1.00 20.00     0.015 C 
HETATM    3  C4  UNL     1     -33.449  15.977  -4.891  1.00 20.00     0.009 C 
HETATM    4  C5  UNL     1     -34.389  14.957  -5.558  1.00 20.00     0.006 C 
HETATM    5  C6  UNL     1     -33.210  13.866  -3.815  1.00 20.00     0.014 C 
HETATM    6  C7  UNL     1     -35.448  14.452  -3.278  1.00 20.00     0.119 C 
HETATM    7  C8  UNL     1     -33.206  15.364  -3.503  1.00 20.00     0.015 C 
HETATM    8  C9  UNL     1     -34.607  13.902  -4.450  1.00 20.00     0.004 C 
ENDROOT
BRANCH   6   9
HETATM    9  C3  UNL     1     -36.761  15.051  -3.711  1.00 20.00     0.181 C 
HETATM   10  O10 UNL     1     -36.742  16.295  -3.925  1.00 20.00    -0.647 OA
HETATM   11  O11 UNL     1     -37.714  14.227  -3.805  1.00 20.00    -0.647 OA
ENDBRANCH   6   9
TORSDOF 1
ENDMDL
MODEL 2
REMARK VINA RESULT:      -4.8      2.144      3.304
REMARK  1 active torsions:
REMARK  status: ('A' for Active; 'I' for Inactive)
REMARK    1  A    between atoms: C3_3  and  C7_7 
ROOT
HETATM    1  C1  UNL     1     -36.156  15.095  -4.627  1.00 20.00    -0.070 C 
HETATM    2  C2  UNL     1     -37.134  14.706  -3.802  1.00 20.00     0.015 C 
HETATM    3  C4  UNL     1     -36.021  14.870  -7.075  1.00 20.00     0.009 C 
HETATM    4  C5  UNL     1     -34.497  14.690  -6.957  1.00 20.00     0.006 C 
HETATM    5  C6  UNL     1     -35.095  16.732  -5.914  1.00 20.00     0.014 C 
HETATM    6  C7  UNL     1     -34.672  14.942  -4.411  1.00 20.00     0.119 C 
HETATM    7  C8  UNL     1     -36.341  15.844  -5.931  1.00 20.00     0.015 C 
HETATM    8  C9  UNL     1     -34.135  15.549  -5.725  1.00 20.00     0.004 C 
ENDROOT
BRANCH   6   9
HETATM    9  C3  UNL     1     -34.261  13.508  -4.201  1.00 20.00     0.181 C 
HETATM   10  O10 UNL     1     -35.128  12.646  -4.515  1.00 20.00    -0.647 OA
HETATM   11  O11 UNL     1     -33.096  13.353  -3.737  1.00 20.00    -0.647 OA
ENDBRANCH   6   9
TORSDOF 1
ENDMDL
MODEL 3
REMARK VINA RESULT:      -4.8      1.231      2.796
REMARK  1 active torsions:
REMARK  status: ('A' for Active; 'I' for Inactive)
REMARK    1  A    between atoms: C3_3  and  C7_7 
ROOT
HETATM    1  C1  UNL     1     -34.594  15.357  -5.608  1.00 20.00    -0.070 C 
HETATM    2  C2  UNL     1     -34.544  14.701  -6.772  1.00 20.00     0.015 C 
HETATM    3  C4  UNL     1     -32.920  15.425  -3.802  1.00 20.00     0.009 C 
HETATM    4  C5  UNL     1     -34.061  15.530  -2.774  1.00 20.00     0.006 C 
HETATM    5  C6  UNL     1     -34.295  17.296  -4.337  1.00 20.00     0.014 C 
HETATM    6  C7  UNL     1     -35.775  15.470  -4.679  1.00 20.00     0.119 C 
HETATM    7  C8  UNL     1     -33.478  16.192  -5.011  1.00 20.00     0.015 C 
HETATM    8  C9  UNL     1     -35.156  16.306  -3.539  1.00 20.00     0.004 C 
ENDROOT
BRANCH   6   9
HETATM    9  C3  UNL     1     -36.290  14.128  -4.227  1.00 20.00     0.181 C 
HETATM   10  O10 UNL     1     -35.482  13.167  -4.363  1.00 20.00    -0.647 OA
HETATM   11  O11 UNL     1     -37.467  14.138  -3.769  1.00 20.00    -0.647 OA
ENDBRANCH   6   9
TORSDOF 1
ENDMDL
MODEL 4
REMARK VINA RESULT:      -4.7      1.719      2.500
REMARK  1 active torsions:
REMARK  status: ('A' for Active; 'I' for Inactive)
REMARK    1  A    between atoms: C3_3  and  C7_7 
ROOT
HETATM    1  C1  UNL     1     -35.851  15.524  -3.446  1.00 20.00    -0.070 C 
HETATM    2  C2  UNL     1     -37.179  15.399  -3.546  1.00 20.00     0.015 C 
HETATM    3  C4  UNL     1     -34.386  17.247  -4.418  1.00 20.00     0.009 C 
HETATM    4  C5  UNL     1     -33.278  16.190  -4.577  1.00 20.00     0.006 C 
HETATM    5  C6  UNL     1     -33.944  16.245  -2.303  1.00 20.00     0.014 C 
HETATM    6  C7  UNL     1     -34.826  14.425  -3.548  1.00 20.00     0.119 C 
HETATM    7  C8  UNL     1     -35.102  16.804  -3.134  1.00 20.00     0.015 C 
HETATM    8  C9  UNL     1     -33.525  15.239  -3.385  1.00 20.00     0.004 C 
ENDROOT
BRANCH   6   9
HETATM    9  C3  UNL     1     -34.905  13.675  -4.853  1.00 20.00     0.181 C 
HETATM   10  O10 UNL     1     -35.465  14.297  -5.798  1.00 20.00    -0.647 OA
HETATM   11  O11 UNL     1     -34.397  12.519  -4.832  1.00 20.00    -0.647 OA
ENDBRANCH   6   9
TORSDOF 1
ENDMDL
MODEL 5
REMARK VINA RESULT:      -4.7      1.562      2.112
REMARK  1 active torsions:
REMARK  status: ('A' for Active; 'I' for Inactive)
REMARK    1  A    between atoms: C3_3  and  C7_7 
ROOT
HETATM    1  C1  UNL     1     -34.486  15.995  -3.288  1.00 20.00    -0.070 C 
HETATM    2  C2  UNL     1     -34.705  16.019  -1.969  1.00 20.00     0.015 C 
HETATM    3  C4  UNL     1     -35.621  17.266  -5.065  1.00 20.00     0.009 C 
HETATM    4  C5  UNL     1     -35.434  16.069  -6.015  1.00 20.00     0.006 C 
HETATM    5  C6  UNL     1     -33.309  16.704  -5.179  1.00 20.00     0.014 C 
HETATM    6  C7  UNL     1     -34.244  14.780  -4.146  1.00 20.00     0.119 C 
HETATM    7  C8  UNL     1     -34.361  17.208  -4.188  1.00 20.00     0.015 C 
HETATM    8  C9  UNL     1     -34.107  15.441  -5.534  1.00 20.00     0.004 C 
ENDROOT
BRANCH   6   9
HETATM    9  C3  UNL     1     -35.368  13.779  -4.066  1.00 20.00     0.181 C 
HETATM   10  O10 UNL     1     -36.464  14.233  -3.634  1.00 20.00    -0.647 OA
HETATM   11  O11 UNL     1     -35.067  12.613  -4.445  1.00 20.00    -0.647 OA
ENDBRANCH   6   9
TORSDOF 1
ENDMDL
MODEL 6
REMARK VINA RESULT:      -4.7      1.652      3.449
REMARK  1 active torsions:
REMARK  status: ('A' for Active; 'I' for Inactive)
REMARK    1  A    between atoms: C3_3  and  C7_7 
ROOT
HETATM    1  C1  UNL     1     -34.270  14.883  -5.741  1.00 20.00    -0.070 C 
HETATM    2  C2  UNL     1     -34.519  14.905  -7.054  1.00 20.00     0.015 C 
HETATM    3  C4  UNL     1     -35.780  14.277  -3.893  1.00 20.00     0.009 C 
HETATM    4  C5  UNL     1     -35.078  15.317  -3.002  1.00 20.00     0.006 C 
HETATM    5  C6  UNL     1     -33.445  13.814  -3.833  1.00 20.00     0.014 C 
HETATM    6  C7  UNL     1     -33.513  15.913  -4.943  1.00 20.00     0.119 C 
HETATM    7  C8  UNL     1     -34.640  13.765  -4.787  1.00 20.00     0.015 C 
HETATM    8  C9  UNL     1     -33.625  15.308  -3.528  1.00 20.00     0.004 C 
ENDROOT
BRANCH   6   9
HETATM    9  C3  UNL     1     -34.112  17.291  -5.056  1.00 20.00     0.181 C 
HETATM   10  O10 UNL     1     -35.286  17.332  -5.518  1.00 20.00    -0.647 OA
HETATM   11  O11 UNL     1     -33.360  18.229  -4.670  1.00 20.00    -0.647 OA
ENDBRANCH   6   9
TORSDOF 1
ENDMDL
MODEL 7
REMARK VINA RESULT:      -4.6     11.120     12.346
REMARK  1 active torsions:
REMARK  status: ('A' for Active; 'I' for Inactive)
REMARK    1  A    between atoms: C3_3  and  C7_7 
ROOT
HETATM    1  C1  UNL     1     -41.523   4.728  -1.637  1.00 20.00    -0.070 C 
HETATM    2  C2  UNL     1     -41.402   3.605  -2.353  1.00 20.00     0.015 C 
HETATM    3  C4  UNL     1     -42.961   5.169   0.312  1.00 20.00     0.009 C 
HETATM    4  C5  UNL     1     -43.115   6.628  -0.154  1.00 20.00     0.006 C 
HETATM    5  C6  UNL     1     -40.805   6.152   0.072  1.00 20.00     0.014 C 
HETATM    6  C7  UNL     1     -41.602   6.137  -2.165  1.00 20.00     0.119 C 
HETATM    7  C8  UNL     1     -41.530   4.819  -0.124  1.00 20.00     0.015 C 
HETATM    8  C9  UNL     1     -41.765   6.922  -0.846  1.00 20.00     0.004 C 
ENDROOT
BRANCH   6   9
HETATM    9  C3  UNL     1     -42.747   6.334  -3.125  1.00 20.00     0.181 C 
HETATM   10  O10 UNL     1     -43.415   5.295  -3.389  1.00 20.00    -0.647 OA
HETATM   11  O11 UNL     1     -42.892   7.518  -3.542  1.00 20.00    -0.647 OA
ENDBRANCH   6   9
TORSDOF 1
ENDMDL
MODEL 8
REMARK VINA RESULT:      -4.6      1.924      3.046
REMARK  1 active torsions:
REMARK  status: ('A' for Active; 'I' for Inactive)
REMARK    1  A    between atoms: C3_3  and  C7_7 
ROOT
HETATM    1  C1  UNL     1     -34.049  15.806  -5.554  1.00 20.00    -0.070 C 
HETATM    2  C2  UNL     1     -33.219  16.369  -4.670  1.00 20.00     0.015 C 
HETATM    3  C4  UNL     1     -36.217  16.631  -6.380  1.00 20.00     0.009 C 
HETATM    4  C5  UNL     1     -36.709  15.176  -6.487  1.00 20.00     0.006 C 
HETATM    5  C6  UNL     1     -34.718  15.391  -7.755  1.00 20.00     0.014 C 
HETATM    6  C7  UNL     1     -34.435  14.351  -5.638  1.00 20.00     0.119 C 
HETATM    7  C8  UNL     1     -34.722  16.512  -6.714  1.00 20.00     0.015 C 
HETATM    8  C9  UNL     1     -35.421  14.392  -6.825  1.00 20.00     0.004 C 
ENDROOT
BRANCH   6   9
HETATM    9  C3  UNL     1     -35.053  13.840  -4.362  1.00 20.00     0.181 C 
HETATM   10  O10 UNL     1     -35.420  14.730  -3.546  1.00 20.00    -0.647 OA
HETATM   11  O11 UNL     1     -35.125  12.582  -4.275  1.00 20.00    -0.647 OA
ENDBRANCH   6   9
TORSDOF 1
ENDMDL
MODEL 9
REMARK VINA RESULT:      -4.6      1.842      2.761
REMARK  1 active torsions:
REMARK  status: ('A' for Active; 'I' for Inactive)
REMARK    1  A    between atoms: C3_3  and  C7_7 
ROOT
HETATM    1  C1  UNL     1     -34.106  16.015  -4.727  1.00 20.00    -0.070 C 
HETATM    2  C2  UNL     1     -33.331  16.924  -5.328  1.00 20.00     0.015 C 
HETATM    3  C4  UNL     1     -33.476  13.829  -3.787  1.00 20.00     0.009 C 
HETATM    4  C5  UNL     1     -34.852  13.275  -4.198  1.00 20.00     0.006 C 
HETATM    5  C6  UNL     1     -35.186  15.182  -2.830  1.00 20.00     0.014 C 
HETATM    6  C7  UNL     1     -35.480  15.570  -5.154  1.00 20.00     0.119 C 
HETATM    7  C8  UNL     1     -33.785  15.292  -3.435  1.00 20.00     0.015 C 
HETATM    8  C9  UNL     1     -35.778  14.507  -4.075  1.00 20.00     0.004 C 
ENDROOT
BRANCH   6   9
HETATM    9  C3  UNL     1     -35.503  15.022  -6.558  1.00 20.00     0.181 C 
HETATM   10  O10 UNL     1     -34.371  14.787  -7.064  1.00 20.00    -0.647 OA
HETATM   11  O11 UNL     1     -36.657  14.867  -7.048  1.00 20.00    -0.647 OA
ENDBRANCH   6   9
TORSDOF 1
ENDMDL
