MODEL 1
REMARK VINA RESULT:      -4.6      0.000      0.000
REMARK  3 active torsions:
REMARK  status: ('A' for Active; 'I' for Inactive)
REMARK    1  A    between atoms: C8_8  and  C9_9 
REMARK    2  A    between atoms: C9_9  and  C10_10 
REMARK    3  A    between atoms: C10_10  and  O11_11 
ROOT
HETATM    1  C1  UNL     1     -34.123  18.999   2.661  1.00 20.00     0.017 C 
HETATM    2  C2  UNL     1     -34.088  18.563   1.544  1.00 20.00    -0.083 C 
HETATM    3  C3  UNL     1     -34.776  16.956  -0.084  1.00 20.00    -0.010 C 
HETATM    4  C4  UNL     1     -34.048  18.045   0.216  1.00 20.00    -0.009 C 
HETATM    5  C5  UNL     1     -34.800  16.320  -1.445  1.00 20.00     0.033 C 
HETATM    6  C6  UNL     1     -33.204  18.749  -0.817  1.00 20.00     0.048 C 
HETATM    7  C7  UNL     1     -33.526  18.335  -2.256  1.00 20.00     0.010 C 
HETATM    8  C8  UNL     1     -33.676  16.814  -2.369  1.00 20.00    -0.009 C 
ENDROOT
BRANCH   8   9
HETATM    9  C9  UNL     1     -33.935  16.390  -3.813  1.00 20.00     0.031 C 
BRANCH   9  10
HETATM   10  C10 UNL     1     -33.589  14.930  -4.036  1.00 20.00     0.164 C 
BRANCH  10  11
HETATM   11  O11 UNL     1     -32.197  14.756  -3.813  1.00 20.00    -0.401 OA
HETATM   12  H25 UNL     1     -32.083  13.874  -3.424  1.00 20.00     0.209 HD
ENDBRANCH  10  11
ENDBRANCH   9  10
ENDBRANCH   8   9
TORSDOF 3
ENDMDL
MODEL 2
REMARK VINA RESULT:      -4.5      1.604      1.995
REMARK  3 active torsions:
REMARK  status: ('A' for Active; 'I' for Inactive)
REMARK    1  A    between atoms: C8_8  and  C9_9 
REMARK    2  A    between atoms: C9_9  and  C10_10 
REMARK    3  A    between atoms: C10_10  and  O11_11 
ROOT
HETATM    1  C1  UNL     1     -35.134  17.598   1.342  1.00 20.00     0.017 C 
HETATM    2  C2  UNL     1     -34.833  17.410   0.196  1.00 20.00    -0.083 C 
HETATM    3  C3  UNL     1     -34.754  15.999  -1.730  1.00 20.00    -0.010 C 
HETATM    4  C4  UNL     1     -34.475  17.187  -1.166  1.00 20.00    -0.009 C 
HETATM    5  C5  UNL     1     -34.413  15.652  -3.151  1.00 20.00     0.033 C 
HETATM    6  C6  UNL     1     -33.813  18.300  -1.939  1.00 20.00     0.048 C 
HETATM    7  C7  UNL     1     -33.816  18.079  -3.455  1.00 20.00     0.010 C 
HETATM    8  C8  UNL     1     -33.430  16.637  -3.801  1.00 20.00    -0.009 C 
ENDROOT
BRANCH   8   9
HETATM    9  C9  UNL     1     -33.371  16.429  -5.312  1.00 20.00     0.031 C 
BRANCH   9  10
HETATM   10  C10 UNL     1     -34.338  15.349  -5.764  1.00 20.00     0.164 C 
BRANCH  10  11
HETATM   11  O11 UNL     1     -33.943  14.899  -7.052  1.00 20.00    -0.401 OA
HETATM   12  H25 UNL     1     -34.625  15.198  -7.675  1.00 20.00     0.209 HD
ENDBRANCH  10  11
ENDBRANCH   9  10
ENDBRANCH   8   9
TORSDOF 3
ENDMDL
MODEL 3
REMARK VINA RESULT:      -4.5      1.760      2.341
REMARK  3 active torsions:
REMARK  status: ('A' for Active; 'I' for Inactive)
REMARK    1  A    between atoms: C8_8  and  C9_9 
REMARK    2  A    between atoms: C9_9  and  C10_10 
REMARK    3  A    between atoms: C10_10  and  O11_11 
ROOT
HETATM    1  C1  UNL     1     -32.866  19.246   0.120  1.00 20.00     0.017 C 
HETATM    2  C2  UNL     1     -33.296  18.503  -0.717  1.00 20.00    -0.083 C 
HETATM    3  C3  UNL     1     -34.418  16.485  -1.329  1.00 20.00    -0.010 C 
HETATM    4  C4  UNL     1     -33.809  17.619  -1.712  1.00 20.00    -0.009 C 
HETATM    5  C5  UNL     1     -34.985  15.478  -2.290  1.00 20.00     0.033 C 
HETATM    6  C6  UNL     1     -33.668  17.996  -3.166  1.00 20.00     0.048 C 
HETATM    7  C7  UNL     1     -34.563  17.176  -4.101  1.00 20.00     0.010 C 
HETATM    8  C8  UNL     1     -34.517  15.688  -3.739  1.00 20.00    -0.009 C 
ENDROOT
BRANCH   8   9
HETATM    9  C9  UNL     1     -35.359  14.859  -4.706  1.00 20.00     0.031 C 
BRANCH   9  10
HETATM   10  C10 UNL     1     -34.681  13.544  -5.049  1.00 20.00     0.164 C 
BRANCH  10  11
HETATM   11  O11 UNL     1     -35.167  12.542  -4.168  1.00 20.00    -0.401 OA
HETATM   12  H25 UNL     1     -34.440  12.322  -3.564  1.00 20.00     0.209 HD
ENDBRANCH  10  11
ENDBRANCH   9  10
ENDBRANCH   8   9
TORSDOF 3
ENDMDL
MODEL 4
REMARK VINA RESULT:      -4.5      1.821      2.877
REMARK  3 active torsions:
REMARK  status: ('A' for Active; 'I' for Inactive)
REMARK    1  A    between atoms: C8_8  and  C9_9 
REMARK    2  A    between atoms: C9_9  and  C10_10 
REMARK    3  A    between atoms: C10_10  and  O11_11 
ROOT
HETATM    1  C1  UNL     1     -34.520  18.170   0.614  1.00 20.00     0.017 C 
HETATM    2  C2  UNL     1     -34.632  17.555  -0.409  1.00 20.00    -0.083 C 
HETATM    3  C3  UNL     1     -33.687  16.212  -2.143  1.00 20.00    -0.010 C 
HETATM    4  C4  UNL     1     -34.766  16.821  -1.625  1.00 20.00    -0.009 C 
HETATM    5  C5  UNL     1     -33.709  15.423  -3.421  1.00 20.00     0.033 C 
HETATM    6  C6  UNL     1     -36.121  16.737  -2.281  1.00 20.00     0.048 C 
HETATM    7  C7  UNL     1     -36.217  15.642  -3.349  1.00 20.00     0.010 C 
HETATM    8  C8  UNL     1     -34.981  15.649  -4.254  1.00 20.00    -0.009 C 
ENDROOT
BRANCH   8   9
HETATM    9  C9  UNL     1     -35.100  14.601  -5.358  1.00 20.00     0.031 C 
BRANCH   9  10
HETATM   10  C10 UNL     1     -34.456  13.288  -4.952  1.00 20.00     0.164 C 
BRANCH  10  11
HETATM   11  O11 UNL     1     -35.403  12.529  -4.214  1.00 20.00    -0.401 OA
HETATM   12  H25 UNL     1     -36.279  12.880  -4.438  1.00 20.00     0.209 HD
ENDBRANCH  10  11
ENDBRANCH   9  10
ENDBRANCH   8   9
TORSDOF 3
ENDMDL
MODEL 5
REMARK VINA RESULT:      -4.5      1.075      1.878
REMARK  3 active torsions:
REMARK  status: ('A' for Active; 'I' for Inactive)
REMARK    1  A    between atoms: C8_8  and  C9_9 
REMARK    2  A    between atoms: C9_9  and  C10_10 
REMARK    3  A    between atoms: C10_10  and  O11_11 
ROOT
HETATM    1  C1  UNL     1     -33.637  18.818   2.055  1.00 20.00     0.017 C 
HETATM    2  C2  UNL     1     -33.819  18.422   0.938  1.00 20.00    -0.083 C 
HETATM    3  C3  UNL     1     -33.610  18.695  -1.427  1.00 20.00    -0.010 C 
HETATM    4  C4  UNL     1     -34.035  17.951  -0.391  1.00 20.00    -0.009 C 
HETATM    5  C5  UNL     1     -33.794  18.303  -2.864  1.00 20.00     0.033 C 
HETATM    6  C6  UNL     1     -34.717  16.621  -0.593  1.00 20.00     0.048 C 
HETATM    7  C7  UNL     1     -34.561  16.062  -2.010  1.00 20.00     0.010 C 
HETATM    8  C8  UNL     1     -34.795  17.153  -3.060  1.00 20.00    -0.009 C 
ENDROOT
BRANCH   8   9
HETATM    9  C9  UNL     1     -34.701  16.587  -4.475  1.00 20.00     0.031 C 
BRANCH   9  10
HETATM   10  C10 UNL     1     -33.391  16.965  -5.142  1.00 20.00     0.164 C 
BRANCH  10  11
HETATM   11  O11 UNL     1     -32.472  15.895  -4.970  1.00 20.00    -0.401 OA
HETATM   12  H25 UNL     1     -31.908  16.129  -4.216  1.00 20.00     0.209 HD
ENDBRANCH  10  11
ENDBRANCH   9  10
ENDBRANCH   8   9
TORSDOF 3
ENDMDL
MODEL 6
REMARK VINA RESULT:      -4.4      2.653      4.323
REMARK  3 active torsions:
REMARK  status: ('A' for Active; 'I' for Inactive)
REMARK    1  A    between atoms: C8_8  and  C9_9 
REMARK    2  A    between atoms: C9_9  and  C10_10 
REMARK    3  A    between atoms: C10_10  and  O11_11 
ROOT
HETATM    1  C1  UNL     1     -34.558  16.838  -0.449  1.00 20.00     0.017 C 
HETATM    2  C2  UNL     1     -34.525  16.496  -1.598  1.00 20.00    -0.083 C 
HETATM    3  C3  UNL     1     -33.817  16.848  -3.852  1.00 20.00    -0.010 C 
HETATM    4  C4  UNL     1     -34.483  16.090  -2.965  1.00 20.00    -0.009 C 
HETATM    5  C5  UNL     1     -33.717  16.523  -5.315  1.00 20.00     0.033 C 
HETATM    6  C6  UNL     1     -35.172  14.811  -3.367  1.00 20.00     0.048 C 
HETATM    7  C7  UNL     1     -34.753  14.298  -4.749  1.00 20.00     0.010 C 
HETATM    8  C8  UNL     1     -34.711  15.441  -5.769  1.00 20.00    -0.009 C 
ENDROOT
BRANCH   8   9
HETATM    9  C9  UNL     1     -34.354  14.926  -7.161  1.00 20.00     0.031 C 
BRANCH   9  10
HETATM   10  C10 UNL     1     -35.580  14.419  -7.899  1.00 20.00     0.164 C 
BRANCH  10  11
HETATM   11  O11 UNL     1     -36.695  15.214  -7.523  1.00 20.00    -0.401 OA
HETATM   12  H25 UNL     1     -36.678  15.281  -6.555  1.00 20.00     0.209 HD
ENDBRANCH  10  11
ENDBRANCH   9  10
ENDBRANCH   8   9
TORSDOF 3
ENDMDL
MODEL 7
REMARK VINA RESULT:      -4.4     10.937     11.822
REMARK  3 active torsions:
REMARK  status: ('A' for Active; 'I' for Inactive)
REMARK    1  A    between atoms: C8_8  and  C9_9 
REMARK    2  A    between atoms: C9_9  and  C10_10 
REMARK    3  A    between atoms: C10_10  and  O11_11 
ROOT
HETATM    1  C1  UNL     1     -35.225   4.269   6.319  1.00 20.00     0.017 C 
HETATM    2  C2  UNL     1     -34.627   4.921   5.508  1.00 20.00    -0.083 C 
HETATM    3  C3  UNL     1     -33.071   6.651   4.968  1.00 20.00    -0.010 C 
HETATM    4  C4  UNL     1     -33.916   5.695   4.545  1.00 20.00    -0.009 C 
HETATM    5  C5  UNL     1     -32.280   7.531   4.043  1.00 20.00     0.033 C 
HETATM    6  C6  UNL     1     -34.119   5.403   3.079  1.00 20.00     0.048 C 
HETATM    7  C7  UNL     1     -33.050   6.027   2.176  1.00 20.00     0.010 C 
HETATM    8  C8  UNL     1     -32.764   7.476   2.585  1.00 20.00    -0.009 C 
ENDROOT
BRANCH   8   9
HETATM    9  C9  UNL     1     -31.744   8.122   1.650  1.00 20.00     0.031 C 
BRANCH   9  10
HETATM   10  C10 UNL     1     -32.266   9.425   1.072  1.00 20.00     0.164 C 
BRANCH  10  11
HETATM   11  O11 UNL     1     -32.822   9.160  -0.208  1.00 20.00    -0.401 OA
HETATM   12  H25 UNL     1     -33.623   9.703  -0.284  1.00 20.00     0.209 HD
ENDBRANCH  10  11
ENDBRANCH   9  10
ENDBRANCH   8   9
TORSDOF 3
ENDMDL
MODEL 8
REMARK VINA RESULT:      -4.4      2.224      5.385
REMARK  3 active torsions:
REMARK  status: ('A' for Active; 'I' for Inactive)
REMARK    1  A    between atoms: C8_8  and  C9_9 
REMARK    2  A    between atoms: C9_9  and  C10_10 
REMARK    3  A    between atoms: C10_10  and  O11_11 
ROOT
HETATM    1  C1  UNL     1     -34.433  14.990  -6.710  1.00 20.00     0.017 C 
HETATM    2  C2  UNL     1     -34.314  15.486  -5.625  1.00 20.00    -0.083 C 
HETATM    3  C3  UNL     1     -33.838  17.376  -4.242  1.00 20.00    -0.010 C 
HETATM    4  C4  UNL     1     -34.173  16.078  -4.334  1.00 20.00    -0.009 C 
HETATM    5  C5  UNL     1     -33.652  18.097  -2.938  1.00 20.00     0.033 C 
HETATM    6  C6  UNL     1     -34.424  15.231  -3.112  1.00 20.00     0.048 C 
HETATM    7  C7  UNL     1     -34.604  16.047  -1.828  1.00 20.00     0.010 C 
HETATM    8  C8  UNL     1     -33.549  17.154  -1.729  1.00 20.00    -0.009 C 
ENDROOT
BRANCH   8   9
HETATM    9  C9  UNL     1     -33.686  17.931  -0.421  1.00 20.00     0.031 C 
BRANCH   9  10
HETATM   10  C10 UNL     1     -32.960  19.262  -0.485  1.00 20.00     0.164 C 
BRANCH  10  11
HETATM   11  O11 UNL     1     -31.604  19.056  -0.118  1.00 20.00    -0.401 OA
HETATM   12  H25 UNL     1     -31.508  19.373   0.794  1.00 20.00     0.209 HD
ENDBRANCH  10  11
ENDBRANCH   9  10
ENDBRANCH   8   9
TORSDOF 3
ENDMDL
MODEL 9
REMARK VINA RESULT:      -4.2      2.575      5.920
REMARK  3 active torsions:
REMARK  status: ('A' for Active; 'I' for Inactive)
REMARK    1  A    between atoms: C8_8  and  C9_9 
REMARK    2  A    between atoms: C9_9  and  C10_10 
REMARK    3  A    between atoms: C10_10  and  O11_11 
ROOT
HETATM    1  C1  UNL     1     -35.313  14.395  -7.694  1.00 20.00     0.017 C 
HETATM    2  C2  UNL     1     -35.055  14.831  -6.607  1.00 20.00    -0.083 C 
HETATM    3  C3  UNL     1     -34.058  16.499  -5.218  1.00 20.00    -0.010 C 
HETATM    4  C4  UNL     1     -34.750  15.351  -5.314  1.00 20.00    -0.009 C 
HETATM    5  C5  UNL     1     -33.672  17.131  -3.911  1.00 20.00     0.033 C 
HETATM    6  C6  UNL     1     -35.229  14.605  -4.095  1.00 20.00     0.048 C 
HETATM    7  C7  UNL     1     -35.167  15.432  -2.807  1.00 20.00     0.010 C 
HETATM    8  C8  UNL     1     -33.840  16.192  -2.706  1.00 20.00    -0.009 C 
ENDROOT
BRANCH   8   9
HETATM    9  C9  UNL     1     -33.748  16.969  -1.395  1.00 20.00     0.031 C 
BRANCH   9  10
HETATM   10  C10 UNL     1     -35.120  17.380  -0.892  1.00 20.00     0.164 C 
BRANCH  10  11
HETATM   11  O11 UNL     1     -35.236  16.992   0.469  1.00 20.00    -0.401 OA
HETATM   12  H25 UNL     1     -35.766  16.179   0.485  1.00 20.00     0.209 HD
ENDBRANCH  10  11
ENDBRANCH   9  10
ENDBRANCH   8   9
TORSDOF 3
ENDMDL
