MODEL 1
REMARK VINA RESULT:      -4.6      0.000      0.000
REMARK  2 active torsions:
REMARK  status: ('A' for Active; 'I' for Inactive)
REMARK    1  A    between atoms: C1_1  and  C4_4 
REMARK    2  A    between atoms: C2_2  and  C5_5 
ROOT
HETATM    1  C5  UNL     1     -34.786  14.888  -3.414  1.00 20.00     0.235 A 
HETATM    2  C6  UNL     1     -34.098  15.131  -4.738  1.00 20.00     0.092 A 
HETATM    3  C8  UNL     1     -33.214  16.318  -4.967  1.00 20.00     0.049 C 
HETATM    4  C9  UNL     1     -34.662  14.477  -5.961  1.00 20.00     0.049 C 
HETATM    5  O10 UNL     1     -33.579  14.203  -3.776  1.00 20.00    -0.357 OA
ENDROOT
BRANCH   1   6
HETATM    6  C2  UNL     1     -34.602  15.784  -2.301  1.00 20.00    -0.066 C 
HETATM    7  C1  UNL     1     -34.448  16.530  -1.373  1.00 20.00    -0.070 C 
BRANCH   7   8
HETATM    8  C4  UNL     1     -34.263  17.424  -0.275  1.00 20.00    -0.018 C 
HETATM    9  C3  UNL     1     -35.149  17.419   0.732  1.00 20.00     0.028 C 
HETATM   10  C7  UNL     1     -33.079  18.345  -0.281  1.00 20.00     0.057 C 
ENDBRANCH   7   8
ENDBRANCH   1   6
TORSDOF 2
ENDMDL
MODEL 2
REMARK VINA RESULT:      -4.5     10.986     11.896
REMARK  2 active torsions:
REMARK  status: ('A' for Active; 'I' for Inactive)
REMARK    1  A    between atoms: C1_1  and  C4_4 
REMARK    2  A    between atoms: C2_2  and  C5_5 
ROOT
HETATM    1  C5  UNL     1     -33.944   5.380   3.746  1.00 20.00     0.235 A 
HETATM    2  C6  UNL     1     -34.300   5.436   5.214  1.00 20.00     0.092 A 
HETATM    3  C8  UNL     1     -34.047   6.656   6.046  1.00 20.00     0.049 C 
HETATM    4  C9  UNL     1     -34.455   4.145   5.957  1.00 20.00     0.049 C 
HETATM    5  O10 UNL     1     -35.283   5.632   4.189  1.00 20.00    -0.357 OA
ENDROOT
BRANCH   1   6
HETATM    6  C2  UNL     1     -33.359   6.513   3.076  1.00 20.00    -0.066 C 
HETATM    7  C1  UNL     1     -32.871   7.456   2.516  1.00 20.00    -0.070 C 
BRANCH   7   8
HETATM    8  C4  UNL     1     -32.298   8.579   1.846  1.00 20.00    -0.018 C 
HETATM    9  C3  UNL     1     -31.389   8.373   0.880  1.00 20.00     0.028 C 
HETATM   10  C7  UNL     1     -32.731   9.959   2.242  1.00 20.00     0.057 C 
ENDBRANCH   7   8
ENDBRANCH   1   6
TORSDOF 2
ENDMDL
MODEL 3
REMARK VINA RESULT:      -4.3      2.135      5.324
REMARK  2 active torsions:
REMARK  status: ('A' for Active; 'I' for Inactive)
REMARK    1  A    between atoms: C1_1  and  C4_4 
REMARK    2  A    between atoms: C2_2  and  C5_5 
ROOT
HETATM    1  C5  UNL     1     -34.807  17.201  -0.047  1.00 20.00     0.235 A 
HETATM    2  C6  UNL     1     -33.922  18.244   0.596  1.00 20.00     0.092 A 
HETATM    3  C8  UNL     1     -32.604  18.641   0.003  1.00 20.00     0.049 C 
HETATM    4  C9  UNL     1     -34.110  18.535   2.052  1.00 20.00     0.049 C 
HETATM    5  O10 UNL     1     -35.049  18.604  -0.214  1.00 20.00    -0.357 OA
ENDROOT
BRANCH   1   6
HETATM    6  C2  UNL     1     -34.427  16.553  -1.276  1.00 20.00    -0.066 C 
HETATM    7  C1  UNL     1     -34.109  16.014  -2.301  1.00 20.00    -0.070 C 
BRANCH   7   8
HETATM    8  C4  UNL     1     -33.732  15.364  -3.516  1.00 20.00    -0.018 C 
HETATM    9  C3  UNL     1     -33.185  16.088  -4.504  1.00 20.00     0.028 C 
HETATM   10  C7  UNL     1     -33.960  13.888  -3.650  1.00 20.00     0.057 C 
ENDBRANCH   7   8
ENDBRANCH   1   6
TORSDOF 2
ENDMDL
MODEL 4
REMARK VINA RESULT:      -4.3      1.146      1.551
REMARK  2 active torsions:
REMARK  status: ('A' for Active; 'I' for Inactive)
REMARK    1  A    between atoms: C1_1  and  C4_4 
REMARK    2  A    between atoms: C2_2  and  C5_5 
ROOT
HETATM    1  C5  UNL     1     -33.780  15.137  -3.575  1.00 20.00     0.235 A 
HETATM    2  C6  UNL     1     -35.008  14.512  -4.196  1.00 20.00     0.092 A 
HETATM    3  C8  UNL     1     -36.383  14.753  -3.652  1.00 20.00     0.049 C 
HETATM    4  C9  UNL     1     -34.832  13.287  -5.038  1.00 20.00     0.049 C 
HETATM    5  O10 UNL     1     -34.394  15.684  -4.749  1.00 20.00    -0.357 OA
ENDROOT
BRANCH   1   6
HETATM    6  C2  UNL     1     -33.882  16.013  -2.436  1.00 20.00    -0.066 C 
HETATM    7  C1  UNL     1     -33.968  16.743  -1.486  1.00 20.00    -0.070 C 
BRANCH   7   8
HETATM    8  C4  UNL     1     -34.070  17.605  -0.352  1.00 20.00    -0.018 C 
HETATM    9  C3  UNL     1     -35.105  17.462   0.489  1.00 20.00     0.028 C 
HETATM   10  C7  UNL     1     -33.013  18.646  -0.136  1.00 20.00     0.057 C 
ENDBRANCH   7   8
ENDBRANCH   1   6
TORSDOF 2
ENDMDL
MODEL 5
REMARK VINA RESULT:      -4.3      1.141      1.665
REMARK  2 active torsions:
REMARK  status: ('A' for Active; 'I' for Inactive)
REMARK    1  A    between atoms: C1_1  and  C4_4 
REMARK    2  A    between atoms: C2_2  and  C5_5 
ROOT
HETATM    1  C5  UNL     1     -33.792  15.703  -3.883  1.00 20.00     0.235 A 
HETATM    2  C6  UNL     1     -33.686  16.459  -5.187  1.00 20.00     0.092 A 
HETATM    3  C8  UNL     1     -33.645  17.956  -5.235  1.00 20.00     0.049 C 
HETATM    4  C9  UNL     1     -34.103  15.765  -6.446  1.00 20.00     0.049 C 
HETATM    5  O10 UNL     1     -32.539  15.872  -4.558  1.00 20.00    -0.357 OA
ENDROOT
BRANCH   1   6
HETATM    6  C2  UNL     1     -33.838  16.394  -2.620  1.00 20.00    -0.066 C 
HETATM    7  C1  UNL     1     -33.876  16.970  -1.566  1.00 20.00    -0.070 C 
BRANCH   7   8
HETATM    8  C4  UNL     1     -33.919  17.661  -0.318  1.00 20.00    -0.018 C 
HETATM    9  C3  UNL     1     -32.933  18.517  -0.008  1.00 20.00     0.028 C 
HETATM   10  C7  UNL     1     -35.068  17.410   0.612  1.00 20.00     0.057 C 
ENDBRANCH   7   8
ENDBRANCH   1   6
TORSDOF 2
ENDMDL
MODEL 6
REMARK VINA RESULT:      -4.2     10.817     11.430
REMARK  2 active torsions:
REMARK  status: ('A' for Active; 'I' for Inactive)
REMARK    1  A    between atoms: C1_1  and  C4_4 
REMARK    2  A    between atoms: C2_2  and  C5_5 
ROOT
HETATM    1  C5  UNL     1     -32.041   6.990   2.383  1.00 20.00     0.235 A 
HETATM    2  C6  UNL     1     -32.206   8.411   1.895  1.00 20.00     0.092 A 
HETATM    3  C8  UNL     1     -33.254   9.324   2.453  1.00 20.00     0.049 C 
HETATM    4  C9  UNL     1     -31.667   8.765   0.544  1.00 20.00     0.049 C 
HETATM    5  O10 UNL     1     -31.193   8.050   2.843  1.00 20.00    -0.357 OA
ENDROOT
BRANCH   1   6
HETATM    6  C2  UNL     1     -32.877   6.456   3.426  1.00 20.00    -0.066 C 
HETATM    7  C1  UNL     1     -33.575   6.010   4.296  1.00 20.00    -0.070 C 
BRANCH   7   8
HETATM    8  C4  UNL     1     -34.398   5.475   5.333  1.00 20.00    -0.018 C 
HETATM    9  C3  UNL     1     -34.399   6.063   6.539  1.00 20.00     0.028 C 
HETATM   10  C7  UNL     1     -35.240   4.268   5.042  1.00 20.00     0.057 C 
ENDBRANCH   7   8
ENDBRANCH   1   6
TORSDOF 2
ENDMDL
MODEL 7
REMARK VINA RESULT:      -4.1      1.018      1.033
REMARK  2 active torsions:
REMARK  status: ('A' for Active; 'I' for Inactive)
REMARK    1  A    between atoms: C1_1  and  C4_4 
REMARK    2  A    between atoms: C2_2  and  C5_5 
ROOT
HETATM    1  C5  UNL     1     -34.797  15.020  -3.249  1.00 20.00     0.235 A 
HETATM    2  C6  UNL     1     -35.240  15.536  -4.598  1.00 20.00     0.092 A 
HETATM    3  C8  UNL     1     -35.531  16.987  -4.837  1.00 20.00     0.049 C 
HETATM    4  C9  UNL     1     -35.854  14.569  -5.563  1.00 20.00     0.049 C 
HETATM    5  O10 UNL     1     -33.863  15.265  -4.308  1.00 20.00    -0.357 OA
ENDROOT
BRANCH   1   6
HETATM    6  C2  UNL     1     -34.614  15.909  -2.132  1.00 20.00    -0.066 C 
HETATM    7  C1  UNL     1     -34.463  16.652  -1.199  1.00 20.00    -0.070 C 
BRANCH   7   8
HETATM    8  C4  UNL     1     -34.281  17.527  -0.086  1.00 20.00    -0.018 C 
HETATM    9  C3  UNL     1     -35.194  17.536   0.897  1.00 20.00     0.028 C 
HETATM   10  C7  UNL     1     -33.072  18.413  -0.049  1.00 20.00     0.057 C 
ENDBRANCH   7   8
ENDBRANCH   1   6
TORSDOF 2
ENDMDL
MODEL 8
REMARK VINA RESULT:      -4.0     13.311     15.187
REMARK  2 active torsions:
REMARK  status: ('A' for Active; 'I' for Inactive)
REMARK    1  A    between atoms: C1_1  and  C4_4 
REMARK    2  A    between atoms: C2_2  and  C5_5 
ROOT
HETATM    1  C5  UNL     1     -41.231   4.550  -1.404  1.00 20.00     0.235 A 
HETATM    2  C6  UNL     1     -41.704   5.976  -1.577  1.00 20.00     0.092 A 
HETATM    3  C8  UNL     1     -42.526   6.401  -2.755  1.00 20.00     0.049 C 
HETATM    4  C9  UNL     1     -40.968   7.061  -0.853  1.00 20.00     0.049 C 
HETATM    5  O10 UNL     1     -42.377   5.057  -0.706  1.00 20.00    -0.357 OA
ENDROOT
BRANCH   1   6
HETATM    6  C2  UNL     1     -41.571   3.529  -2.361  1.00 20.00    -0.066 C 
HETATM    7  C1  UNL     1     -41.853   2.677  -3.159  1.00 20.00    -0.070 C 
BRANCH   7   8
HETATM    8  C4  UNL     1     -42.185   1.659  -4.104  1.00 20.00    -0.018 C 
HETATM    9  C3  UNL     1     -43.076   1.927  -5.071  1.00 20.00     0.028 C 
HETATM   10  C7  UNL     1     -41.526   0.318  -3.986  1.00 20.00     0.057 C 
ENDBRANCH   7   8
ENDBRANCH   1   6
TORSDOF 2
ENDMDL
MODEL 9
REMARK VINA RESULT:      -4.0     10.732     11.628
REMARK  2 active torsions:
REMARK  status: ('A' for Active; 'I' for Inactive)
REMARK    1  A    between atoms: C1_1  and  C4_4 
REMARK    2  A    between atoms: C2_2  and  C5_5 
ROOT
HETATM    1  C5  UNL     1     -33.135   6.115   4.485  1.00 20.00     0.235 A 
HETATM    2  C6  UNL     1     -34.499   5.468   4.548  1.00 20.00     0.092 A 
HETATM    3  C8  UNL     1     -35.563   5.759   3.534  1.00 20.00     0.049 C 
HETATM    4  C9  UNL     1     -34.965   4.921   5.861  1.00 20.00     0.049 C 
HETATM    5  O10 UNL     1     -33.361   4.782   4.009  1.00 20.00    -0.357 OA
ENDROOT
BRANCH   1   6
HETATM    6  C2  UNL     1     -32.790   7.030   3.428  1.00 20.00    -0.066 C 
HETATM    7  C1  UNL     1     -32.503   7.793   2.545  1.00 20.00    -0.070 C 
BRANCH   7   8
HETATM    8  C4  UNL     1     -32.167   8.705   1.499  1.00 20.00    -0.018 C 
HETATM    9  C3  UNL     1     -31.478   8.261   0.437  1.00 20.00     0.028 C 
HETATM   10  C7  UNL     1     -32.598  10.136   1.619  1.00 20.00     0.057 C 
ENDBRANCH   7   8
ENDBRANCH   1   6
TORSDOF 2
ENDMDL
