MODEL 1
REMARK VINA RESULT:      -4.4      0.000      0.000
REMARK  0 active torsions:
REMARK  status: ('A' for Active; 'I' for Inactive)
ROOT
HETATM    1  C1  UNL     1     -32.813   6.297   2.512  1.00 20.00     0.020 A 
HETATM    2  C2  UNL     1     -32.493   6.895   3.766  1.00 20.00     0.038 A 
HETATM    3  C3  UNL     1     -33.870   5.422   2.705  1.00 20.00     0.093 A 
HETATM    4  C4  UNL     1     -33.371   6.352   4.658  1.00 20.00     0.073 A 
HETATM    5  C5  UNL     1     -35.123   4.800   4.811  1.00 20.00     0.085 A 
HETATM    6  C6  UNL     1     -35.084   5.312   6.070  1.00 20.00     0.065 A 
HETATM    7  C7  UNL     1     -34.914   3.907   5.932  1.00 20.00     0.061 A 
HETATM    8  N8  UNL     1     -34.168   5.436   4.040  1.00 20.00    -0.337 N 
HETATM    9  S9  UNL     1     -33.822   6.506   6.322  1.00 20.00    -0.097 SA
ENDROOT
TORSDOF 0
ENDMDL
MODEL 2
REMARK VINA RESULT:      -4.2      1.561      3.638
REMARK  0 active torsions:
REMARK  status: ('A' for Active; 'I' for Inactive)
ROOT
HETATM    1  C1  UNL     1     -34.957   4.997   6.525  1.00 20.00     0.020 A 
HETATM    2  C2  UNL     1     -35.210   4.398   5.256  1.00 20.00     0.038 A 
HETATM    3  C3  UNL     1     -34.120   6.085   6.331  1.00 20.00     0.093 A 
HETATM    4  C4  UNL     1     -34.514   5.150   4.356  1.00 20.00     0.073 A 
HETATM    5  C5  UNL     1     -33.069   6.993   4.218  1.00 20.00     0.085 A 
HETATM    6  C6  UNL     1     -33.253   6.676   2.909  1.00 20.00     0.065 A 
HETATM    7  C7  UNL     1     -31.918   6.676   3.398  1.00 20.00     0.061 A 
HETATM    8  N8  UNL     1     -33.821   6.134   4.997  1.00 20.00    -0.337 N 
HETATM    9  S9  UNL     1     -34.278   5.275   2.646  1.00 20.00    -0.097 SA
ENDROOT
TORSDOF 0
ENDMDL
MODEL 3
REMARK VINA RESULT:      -3.8     12.485     13.804
REMARK  0 active torsions:
REMARK  status: ('A' for Active; 'I' for Inactive)
ROOT
HETATM    1  C1  UNL     1     -34.734  15.970  -7.523  1.00 20.00     0.020 A 
HETATM    2  C2  UNL     1     -35.133  14.643  -7.187  1.00 20.00     0.038 A 
HETATM    3  C3  UNL     1     -34.111  16.528  -6.418  1.00 20.00     0.093 A 
HETATM    4  C4  UNL     1     -34.735  14.462  -5.895  1.00 20.00     0.073 A 
HETATM    5  C5  UNL     1     -33.697  15.578  -4.112  1.00 20.00     0.085 A 
HETATM    6  C6  UNL     1     -33.871  14.329  -3.605  1.00 20.00     0.065 A 
HETATM    7  C7  UNL     1     -34.461  15.408  -2.893  1.00 20.00     0.061 A 
HETATM    8  N8  UNL     1     -34.164  15.602  -5.413  1.00 20.00    -0.337 N 
HETATM    9  S9  UNL     1     -34.682  13.217  -4.695  1.00 20.00    -0.097 SA
ENDROOT
TORSDOF 0
ENDMDL
MODEL 4
REMARK VINA RESULT:      -3.7     12.352     12.858
REMARK  0 active torsions:
REMARK  status: ('A' for Active; 'I' for Inactive)
ROOT
HETATM    1  C1  UNL     1     -33.844  16.685  -1.931  1.00 20.00     0.020 A 
HETATM    2  C2  UNL     1     -35.238  16.383  -1.909  1.00 20.00     0.038 A 
HETATM    3  C3  UNL     1     -33.283  16.063  -3.035  1.00 20.00     0.093 A 
HETATM    4  C4  UNL     1     -35.453  15.593  -3.000  1.00 20.00     0.073 A 
HETATM    5  C5  UNL     1     -34.330  14.577  -4.791  1.00 20.00     0.085 A 
HETATM    6  C6  UNL     1     -35.627  14.253  -5.045  1.00 20.00     0.065 A 
HETATM    7  C7  UNL     1     -34.705  13.181  -4.899  1.00 20.00     0.061 A 
HETATM    8  N8  UNL     1     -34.279  15.358  -3.652  1.00 20.00    -0.337 N 
HETATM    9  S9  UNL     1     -36.763  14.838  -3.841  1.00 20.00    -0.097 SA
ENDROOT
TORSDOF 0
ENDMDL
MODEL 5
REMARK VINA RESULT:      -3.7     12.534     13.797
REMARK  0 active torsions:
REMARK  status: ('A' for Active; 'I' for Inactive)
ROOT
HETATM    1  C1  UNL     1     -35.041  15.226  -7.782  1.00 20.00     0.020 A 
HETATM    2  C2  UNL     1     -34.345  16.286  -7.129  1.00 20.00     0.038 A 
HETATM    3  C3  UNL     1     -35.234  14.205  -6.865  1.00 20.00     0.093 A 
HETATM    4  C4  UNL     1     -34.150  15.855  -5.850  1.00 20.00     0.073 A 
HETATM    5  C5  UNL     1     -34.524  14.013  -4.447  1.00 20.00     0.085 A 
HETATM    6  C6  UNL     1     -33.972  14.916  -3.592  1.00 20.00     0.065 A 
HETATM    7  C7  UNL     1     -33.312  13.665  -3.732  1.00 20.00     0.061 A 
HETATM    8  N8  UNL     1     -34.637  14.592  -5.697  1.00 20.00    -0.337 N 
HETATM    9  S9  UNL     1     -33.520  16.436  -4.346  1.00 20.00    -0.097 SA
ENDROOT
TORSDOF 0
ENDMDL
MODEL 6
REMARK VINA RESULT:      -3.7     12.567     13.768
REMARK  0 active torsions:
REMARK  status: ('A' for Active; 'I' for Inactive)
ROOT
HETATM    1  C1  UNL     1     -33.966  17.801  -0.547  1.00 20.00     0.020 A 
HETATM    2  C2  UNL     1     -34.659  16.574  -0.767  1.00 20.00     0.038 A 
HETATM    3  C3  UNL     1     -33.568  18.300  -1.777  1.00 20.00     0.093 A 
HETATM    4  C4  UNL     1     -34.645  16.389  -2.119  1.00 20.00     0.073 A 
HETATM    5  C5  UNL     1     -33.856  17.357  -4.105  1.00 20.00     0.085 A 
HETATM    6  C6  UNL     1     -34.568  16.294  -4.568  1.00 20.00     0.065 A 
HETATM    7  C7  UNL     1     -33.194  16.364  -4.925  1.00 20.00     0.061 A 
HETATM    8  N8  UNL     1     -33.953  17.394  -2.726  1.00 20.00    -0.337 N 
HETATM    9  S9  UNL     1     -35.279  15.302  -3.306  1.00 20.00    -0.097 SA
ENDROOT
TORSDOF 0
ENDMDL
MODEL 7
REMARK VINA RESULT:      -3.7     12.603     14.062
REMARK  0 active torsions:
REMARK  status: ('A' for Active; 'I' for Inactive)
ROOT
HETATM    1  C1  UNL     1     -34.146  13.616  -3.563  1.00 20.00     0.020 A 
HETATM    2  C2  UNL     1     -33.857  15.011  -3.482  1.00 20.00     0.038 A 
HETATM    3  C3  UNL     1     -34.484  13.319  -4.874  1.00 20.00     0.093 A 
HETATM    4  C4  UNL     1     -34.036  15.490  -4.747  1.00 20.00     0.073 A 
HETATM    5  C5  UNL     1     -34.675  14.818  -6.901  1.00 20.00     0.085 A 
HETATM    6  C6  UNL     1     -34.342  16.122  -7.096  1.00 20.00     0.065 A 
HETATM    7  C7  UNL     1     -35.662  15.728  -7.445  1.00 20.00     0.061 A 
HETATM    8  N8  UNL     1     -34.457  14.493  -5.575  1.00 20.00    -0.337 N 
HETATM    9  S9  UNL     1     -33.844  16.962  -5.637  1.00 20.00    -0.097 SA
ENDROOT
TORSDOF 0
ENDMDL
MODEL 8
REMARK VINA RESULT:      -3.6     12.181     13.152
REMARK  0 active torsions:
REMARK  status: ('A' for Active; 'I' for Inactive)
ROOT
HETATM    1  C1  UNL     1     -34.551  13.513  -5.124  1.00 20.00     0.020 A 
HETATM    2  C2  UNL     1     -34.506  14.803  -5.732  1.00 20.00     0.038 A 
HETATM    3  C3  UNL     1     -34.696  13.683  -3.756  1.00 20.00     0.093 A 
HETATM    4  C4  UNL     1     -34.623  15.691  -4.702  1.00 20.00     0.073 A 
HETATM    5  C5  UNL     1     -34.822  15.792  -2.367  1.00 20.00     0.085 A 
HETATM    6  C6  UNL     1     -34.920  17.102  -2.720  1.00 20.00     0.065 A 
HETATM    7  C7  UNL     1     -33.880  16.746  -1.819  1.00 20.00     0.061 A 
HETATM    8  N8  UNL     1     -34.690  15.029  -3.513  1.00 20.00    -0.337 N 
HETATM    9  S9  UNL     1     -34.766  17.396  -4.444  1.00 20.00    -0.097 SA
ENDROOT
TORSDOF 0
ENDMDL
MODEL 9
REMARK VINA RESULT:      -3.6     12.420     13.125
REMARK  0 active torsions:
REMARK  status: ('A' for Active; 'I' for Inactive)
ROOT
HETATM    1  C1  UNL     1     -35.467  16.855  -2.323  1.00 20.00     0.020 A 
HETATM    2  C2  UNL     1     -34.383  15.940  -2.176  1.00 20.00     0.038 A 
HETATM    3  C3  UNL     1     -36.163  16.521  -3.474  1.00 20.00     0.093 A 
HETATM    4  C4  UNL     1     -34.475  15.098  -3.246  1.00 20.00     0.073 A 
HETATM    5  C5  UNL     1     -35.743  14.704  -5.180  1.00 20.00     0.085 A 
HETATM    6  C6  UNL     1     -34.870  13.661  -5.193  1.00 20.00     0.065 A 
HETATM    7  C7  UNL     1     -34.876  14.520  -6.326  1.00 20.00     0.061 A 
HETATM    8  N8  UNL     1     -35.510  15.468  -4.052  1.00 20.00    -0.337 N 
HETATM    9  S9  UNL     1     -33.717  13.672  -3.869  1.00 20.00    -0.097 SA
ENDROOT
TORSDOF 0
ENDMDL
