MODEL 1
REMARK VINA RESULT:      -5.0      0.000      0.000
REMARK  1 active torsions:
REMARK  status: ('A' for Active; 'I' for Inactive)
REMARK    1  A    between atoms: C3_3  and  C6_6 
ROOT
HETATM    1  C1  UNL     1     -33.943  17.244  -3.865  1.00 20.00    -0.023 C 
HETATM    2  C2  UNL     1     -34.302  16.112  -3.244  1.00 20.00    -0.071 C 
HETATM    3  C4  UNL     1     -33.377  16.987  -5.221  1.00 20.00     0.033 C 
HETATM    4  C5  UNL     1     -33.803  15.534  -5.512  1.00 20.00     0.005 C 
HETATM    5  C6  UNL     1     -34.037  14.901  -4.108  1.00 20.00     0.043 C 
HETATM    6  C7  UNL     1     -34.822  16.022  -1.851  1.00 20.00     0.044 C 
HETATM    7  C9  UNL     1     -35.024  15.530  -6.441  1.00 20.00     0.011 C 
HETATM    8  C10 UNL     1     -32.794  14.145  -3.625  1.00 20.00     0.029 C 
ENDROOT
BRANCH   5   9
HETATM    9  C3  UNL     1     -35.229  13.978  -4.067  1.00 20.00     0.136 C 
HETATM   10  C8  UNL     1     -36.573  14.620  -3.845  1.00 20.00     0.092 C 
HETATM   11  O11 UNL     1     -35.111  12.763  -4.211  1.00 20.00    -0.297 OA
ENDBRANCH   5   9
TORSDOF 1
ENDMDL
MODEL 2
REMARK VINA RESULT:      -4.9      1.081      2.576
REMARK  1 active torsions:
REMARK  status: ('A' for Active; 'I' for Inactive)
REMARK    1  A    between atoms: C3_3  and  C6_6 
ROOT
HETATM    1  C1  UNL     1     -34.367  15.716  -2.384  1.00 20.00    -0.023 C 
HETATM    2  C2  UNL     1     -33.839  15.108  -3.456  1.00 20.00    -0.071 C 
HETATM    3  C4  UNL     1     -35.652  16.402  -2.702  1.00 20.00     0.033 C 
HETATM    4  C5  UNL     1     -36.051  15.794  -4.061  1.00 20.00     0.005 C 
HETATM    5  C6  UNL     1     -34.712  15.288  -4.677  1.00 20.00     0.043 C 
HETATM    6  C7  UNL     1     -32.525  14.408  -3.488  1.00 20.00     0.044 C 
HETATM    7  C9  UNL     1     -37.122  14.714  -3.850  1.00 20.00     0.011 C 
HETATM    8  C10 UNL     1     -34.112  16.325  -5.632  1.00 20.00     0.029 C 
ENDROOT
BRANCH   5   9
HETATM    9  C3  UNL     1     -34.853  13.970  -5.396  1.00 20.00     0.136 C 
HETATM   10  C8  UNL     1     -35.101  14.034  -6.880  1.00 20.00     0.092 C 
HETATM   11  O11 UNL     1     -34.768  12.897  -4.802  1.00 20.00    -0.297 OA
ENDBRANCH   5   9
TORSDOF 1
ENDMDL
MODEL 3
REMARK VINA RESULT:      -4.9      1.986      2.939
REMARK  1 active torsions:
REMARK  status: ('A' for Active; 'I' for Inactive)
REMARK    1  A    between atoms: C3_3  and  C6_6 
ROOT
HETATM    1  C1  UNL     1     -34.032  13.923  -3.552  1.00 20.00    -0.023 C 
HETATM    2  C2  UNL     1     -34.778  15.013  -3.328  1.00 20.00    -0.071 C 
HETATM    3  C4  UNL     1     -34.449  13.199  -4.787  1.00 20.00     0.033 C 
HETATM    4  C5  UNL     1     -35.326  14.230  -5.522  1.00 20.00     0.005 C 
HETATM    5  C6  UNL     1     -35.823  15.197  -4.405  1.00 20.00     0.043 C 
HETATM    6  C7  UNL     1     -34.669  15.903  -2.138  1.00 20.00     0.044 C 
HETATM    7  C9  UNL     1     -34.516  14.892  -6.645  1.00 20.00     0.011 C 
HETATM    8  C10 UNL     1     -37.211  14.793  -3.897  1.00 20.00     0.029 C 
ENDROOT
BRANCH   5   9
HETATM    9  C3  UNL     1     -35.852  16.640  -4.842  1.00 20.00     0.136 C 
HETATM   10  C8  UNL     1     -37.180  17.180  -5.301  1.00 20.00     0.092 C 
HETATM   11  O11 UNL     1     -34.842  17.341  -4.824  1.00 20.00    -0.297 OA
ENDBRANCH   5   9
TORSDOF 1
ENDMDL
MODEL 4
REMARK VINA RESULT:      -4.9      1.636      3.308
REMARK  1 active torsions:
REMARK  status: ('A' for Active; 'I' for Inactive)
REMARK    1  A    between atoms: C3_3  and  C6_6 
ROOT
HETATM    1  C1  UNL     1     -35.132  13.635  -4.066  1.00 20.00    -0.023 C 
HETATM    2  C2  UNL     1     -34.131  14.433  -3.670  1.00 20.00    -0.071 C 
HETATM    3  C4  UNL     1     -36.443  14.345  -4.089  1.00 20.00     0.033 C 
HETATM    4  C5  UNL     1     -36.041  15.832  -4.021  1.00 20.00     0.005 C 
HETATM    5  C6  UNL     1     -34.625  15.830  -3.371  1.00 20.00     0.043 C 
HETATM    6  C7  UNL     1     -32.719  14.005  -3.464  1.00 20.00     0.044 C 
HETATM    7  C9  UNL     1     -36.115  16.451  -5.423  1.00 20.00     0.011 C 
HETATM    8  C10 UNL     1     -34.707  16.071  -1.860  1.00 20.00     0.029 C 
ENDROOT
BRANCH   5   9
HETATM    9  C3  UNL     1     -33.691  16.840  -3.988  1.00 20.00     0.136 C 
HETATM   10  C8  UNL     1     -33.706  18.224  -3.396  1.00 20.00     0.092 C 
HETATM   11  O11 UNL     1     -32.952  16.548  -4.926  1.00 20.00    -0.297 OA
ENDBRANCH   5   9
TORSDOF 1
ENDMDL
MODEL 5
REMARK VINA RESULT:      -4.8      1.604      2.641
REMARK  1 active torsions:
REMARK  status: ('A' for Active; 'I' for Inactive)
REMARK    1  A    between atoms: C3_3  and  C6_6 
ROOT
HETATM    1  C1  UNL     1     -35.156  15.808  -2.585  1.00 20.00    -0.023 C 
HETATM    2  C2  UNL     1     -35.799  15.236  -3.612  1.00 20.00    -0.071 C 
HETATM    3  C4  UNL     1     -33.689  15.917  -2.830  1.00 20.00     0.033 C 
HETATM    4  C5  UNL     1     -33.566  15.679  -4.348  1.00 20.00     0.005 C 
HETATM    5  C6  UNL     1     -34.846  14.877  -4.729  1.00 20.00     0.043 C 
HETATM    6  C7  UNL     1     -37.252  14.910  -3.643  1.00 20.00     0.044 C 
HETATM    7  C9  UNL     1     -33.398  17.023  -5.070  1.00 20.00     0.011 C 
HETATM    8  C10 UNL     1     -34.571  13.370  -4.752  1.00 20.00     0.029 C 
ENDROOT
BRANCH   5   9
HETATM    9  C3  UNL     1     -35.435  15.298  -6.052  1.00 20.00     0.136 C 
HETATM   10  C8  UNL     1     -35.057  14.472  -7.252  1.00 20.00     0.092 C 
HETATM   11  O11 UNL     1     -36.187  16.265  -6.146  1.00 20.00    -0.297 OA
ENDBRANCH   5   9
TORSDOF 1
ENDMDL
MODEL 6
REMARK VINA RESULT:      -4.8      1.594      3.036
REMARK  1 active torsions:
REMARK  status: ('A' for Active; 'I' for Inactive)
REMARK    1  A    between atoms: C3_3  and  C6_6 
ROOT
HETATM    1  C1  UNL     1     -34.498  15.346  -6.387  1.00 20.00    -0.023 C 
HETATM    2  C2  UNL     1     -34.116  16.180  -5.410  1.00 20.00    -0.071 C 
HETATM    3  C4  UNL     1     -34.900  14.010  -5.861  1.00 20.00     0.033 C 
HETATM    4  C5  UNL     1     -35.086  14.265  -4.353  1.00 20.00     0.005 C 
HETATM    5  C6  UNL     1     -34.216  15.522  -4.053  1.00 20.00     0.043 C 
HETATM    6  C7  UNL     1     -33.581  17.556  -5.612  1.00 20.00     0.044 C 
HETATM    7  C9  UNL     1     -36.580  14.414  -4.034  1.00 20.00     0.011 C 
HETATM    8  C10 UNL     1     -32.830  15.127  -3.532  1.00 20.00     0.029 C 
ENDROOT
BRANCH   5   9
HETATM    9  C3  UNL     1     -34.865  16.470  -3.076  1.00 20.00     0.136 C 
HETATM   10  C8  UNL     1     -34.429  16.364  -1.639  1.00 20.00     0.092 C 
HETATM   11  O11 UNL     1     -35.706  17.292  -3.436  1.00 20.00    -0.297 OA
ENDBRANCH   5   9
TORSDOF 1
ENDMDL
MODEL 7
REMARK VINA RESULT:      -4.7      1.527      2.995
REMARK  1 active torsions:
REMARK  status: ('A' for Active; 'I' for Inactive)
REMARK    1  A    between atoms: C3_3  and  C6_6 
ROOT
HETATM    1  C1  UNL     1     -34.639  14.841  -6.646  1.00 20.00    -0.023 C 
HETATM    2  C2  UNL     1     -34.670  14.473  -5.359  1.00 20.00    -0.071 C 
HETATM    3  C4  UNL     1     -34.954  16.288  -6.826  1.00 20.00     0.033 C 
HETATM    4  C5  UNL     1     -34.801  16.862  -5.404  1.00 20.00     0.005 C 
HETATM    5  C6  UNL     1     -35.006  15.640  -4.459  1.00 20.00     0.043 C 
HETATM    6  C7  UNL     1     -34.482  13.083  -4.855  1.00 20.00     0.044 C 
HETATM    7  C9  UNL     1     -33.444  17.567  -5.274  1.00 20.00     0.011 C 
HETATM    8  C10 UNL     1     -36.456  15.554  -3.968  1.00 20.00     0.029 C 
ENDROOT
BRANCH   5   9
HETATM    9  C3  UNL     1     -34.077  15.649  -3.271  1.00 20.00     0.136 C 
HETATM   10  C8  UNL     1     -34.652  16.132  -1.967  1.00 20.00     0.092 C 
HETATM   11  O11 UNL     1     -32.909  15.277  -3.363  1.00 20.00    -0.297 OA
ENDBRANCH   5   9
TORSDOF 1
ENDMDL
MODEL 8
REMARK VINA RESULT:      -4.6      1.340      3.029
REMARK  1 active torsions:
REMARK  status: ('A' for Active; 'I' for Inactive)
REMARK    1  A    between atoms: C3_3  and  C6_6 
ROOT
HETATM    1  C1  UNL     1     -33.549  16.527  -5.384  1.00 20.00    -0.023 C 
HETATM    2  C2  UNL     1     -34.529  15.654  -5.653  1.00 20.00    -0.071 C 
HETATM    3  C4  UNL     1     -33.853  17.363  -4.186  1.00 20.00     0.033 C 
HETATM    4  C5  UNL     1     -35.010  16.602  -3.509  1.00 20.00     0.005 C 
HETATM    5  C6  UNL     1     -35.656  15.764  -4.653  1.00 20.00     0.043 C 
HETATM    6  C7  UNL     1     -34.567  14.737  -6.827  1.00 20.00     0.044 C 
HETATM    7  C9  UNL     1     -34.470  15.785  -2.327  1.00 20.00     0.011 C 
HETATM    8  C10 UNL     1     -36.861  16.491  -5.262  1.00 20.00     0.029 C 
ENDROOT
BRANCH   5   9
HETATM    9  C3  UNL     1     -36.077  14.386  -4.210  1.00 20.00     0.136 C 
HETATM   10  C8  UNL     1     -35.019  13.315  -4.235  1.00 20.00     0.092 C 
HETATM   11  O11 UNL     1     -37.227  14.148  -3.845  1.00 20.00    -0.297 OA
ENDBRANCH   5   9
TORSDOF 1
ENDMDL
MODEL 9
REMARK VINA RESULT:      -4.6      1.604      2.678
REMARK  1 active torsions:
REMARK  status: ('A' for Active; 'I' for Inactive)
REMARK    1  A    between atoms: C3_3  and  C6_6 
ROOT
HETATM    1  C1  UNL     1     -32.590  15.335  -4.165  1.00 20.00    -0.023 C 
HETATM    2  C2  UNL     1     -33.612  16.201  -4.105  1.00 20.00    -0.071 C 
HETATM    3  C4  UNL     1     -32.927  14.023  -3.541  1.00 20.00     0.033 C 
HETATM    4  C5  UNL     1     -34.464  14.069  -3.430  1.00 20.00     0.005 C 
HETATM    5  C6  UNL     1     -34.816  15.587  -3.430  1.00 20.00     0.043 C 
HETATM    6  C7  UNL     1     -33.568  17.617  -4.564  1.00 20.00     0.044 C 
HETATM    7  C9  UNL     1     -35.089  13.254  -4.570  1.00 20.00     0.011 C 
HETATM    8  C10 UNL     1     -34.975  16.120  -2.002  1.00 20.00     0.029 C 
ENDROOT
BRANCH   5   9
HETATM    9  C3  UNL     1     -36.059  15.905  -4.222  1.00 20.00     0.136 C 
HETATM   10  C8  UNL     1     -37.343  16.026  -3.446  1.00 20.00     0.092 C 
HETATM   11  O11 UNL     1     -36.025  16.060  -5.441  1.00 20.00    -0.297 OA
ENDBRANCH   5   9
TORSDOF 1
ENDMDL
