MODEL 1
REMARK VINA RESULT:      -4.3      0.000      0.000
REMARK  1 active torsions:
REMARK  status: ('A' for Active; 'I' for Inactive)
REMARK    1  A    between atoms: C1_1  and  C8_8 
REMARK       I    between atoms: C1_1  and  N9_9 
ROOT
HETATM    1  C1  UNL     1     -33.621  16.073  -3.940  1.00 20.00     0.237 C 
HETATM    2  C2  UNL     1     -33.694  17.881  -0.024  1.00 20.00     0.013 A 
HETATM    3  C3  UNL     1     -34.819  16.228  -1.706  1.00 20.00     0.130 A 
HETATM    4  C4  UNL     1     -33.668  18.174  -2.619  1.00 20.00     0.130 A 
HETATM    5  C5  UNL     1     -34.916  17.344  -0.719  1.00 20.00     0.010 A 
HETATM    6  C6  UNL     1     -34.212  18.533  -1.277  1.00 20.00     0.010 A 
HETATM    7  N9  UNL     1     -34.017  16.768  -2.808  1.00 20.00    -0.350 N 
HETATM    8  O10 UNL     1     -32.945  16.562  -4.847  1.00 20.00    -0.272 OA
ENDROOT
BRANCH   1   9
HETATM    9  C8  UNL     1     -34.070  14.635  -4.013  1.00 20.00     0.170 C 
HETATM   10  C7  UNL     1     -34.483  14.280  -5.422  1.00 20.00     0.036 C 
HETATM   11 CL11 UNL     1     -32.687  13.661  -3.487  1.00 20.00    -0.115 Cl
ENDBRANCH   1   9
TORSDOF 1
ENDMDL
MODEL 2
REMARK VINA RESULT:      -4.1      2.081      4.349
REMARK  1 active torsions:
REMARK  status: ('A' for Active; 'I' for Inactive)
REMARK    1  A    between atoms: C1_1  and  C8_8 
REMARK       I    between atoms: C1_1  and  N9_9 
ROOT
HETATM    1  C1  UNL     1     -34.470  17.297  -2.965  1.00 20.00     0.237 C 
HETATM    2  C2  UNL     1     -35.153  13.280  -4.382  1.00 20.00     0.013 A 
HETATM    3  C3  UNL     1     -33.529  14.950  -3.198  1.00 20.00     0.130 A 
HETATM    4  C4  UNL     1     -35.041  15.840  -4.892  1.00 20.00     0.130 A 
HETATM    5  C5  UNL     1     -33.786  13.884  -4.213  1.00 20.00     0.010 A 
HETATM    6  C6  UNL     1     -34.710  14.429  -5.248  1.00 20.00     0.010 A 
HETATM    7  N9  UNL     1     -34.347  16.087  -3.630  1.00 20.00    -0.350 N 
HETATM    8  O10 UNL     1     -35.170  18.232  -3.360  1.00 20.00    -0.272 OA
ENDROOT
BRANCH   1   9
HETATM    9  C8  UNL     1     -33.682  17.421  -1.686  1.00 20.00     0.170 C 
HETATM   10  C7  UNL     1     -33.325  18.866  -1.422  1.00 20.00     0.036 C 
HETATM   11 CL11 UNL     1     -34.718  16.774  -0.403  1.00 20.00    -0.115 Cl
ENDBRANCH   1   9
TORSDOF 1
ENDMDL
MODEL 3
REMARK VINA RESULT:      -4.0     13.680     14.670
REMARK  1 active torsions:
REMARK  status: ('A' for Active; 'I' for Inactive)
REMARK    1  A    between atoms: C1_1  and  C8_8 
REMARK       I    between atoms: C1_1  and  N9_9 
ROOT
HETATM    1  C1  UNL     1     -42.754   3.762  -2.941  1.00 20.00     0.237 C 
HETATM    2  C2  UNL     1     -40.916   7.035  -0.816  1.00 20.00     0.013 A 
HETATM    3  C3  UNL     1     -41.686   4.538  -0.772  1.00 20.00     0.130 A 
HETATM    4  C4  UNL     1     -42.966   6.100  -2.138  1.00 20.00     0.130 A 
HETATM    5  C5  UNL     1     -41.617   5.889  -0.139  1.00 20.00     0.010 A 
HETATM    6  C6  UNL     1     -42.400   6.843  -0.974  1.00 20.00     0.010 A 
HETATM    7  N9  UNL     1     -42.468   4.734  -1.996  1.00 20.00    -0.350 N 
HETATM    8  O10 UNL     1     -43.417   3.965  -3.961  1.00 20.00    -0.272 OA
ENDROOT
BRANCH   1   9
HETATM    9  C8  UNL     1     -42.193   2.391  -2.657  1.00 20.00     0.170 C 
HETATM   10  C7  UNL     1     -43.308   1.376  -2.542  1.00 20.00     0.036 C 
HETATM   11 CL11 UNL     1     -41.117   2.008  -4.010  1.00 20.00    -0.115 Cl
ENDBRANCH   1   9
TORSDOF 1
ENDMDL
MODEL 4
REMARK VINA RESULT:      -3.9      2.573      3.249
REMARK  1 active torsions:
REMARK  status: ('A' for Active; 'I' for Inactive)
REMARK    1  A    between atoms: C1_1  and  C8_8 
REMARK       I    between atoms: C1_1  and  N9_9 
ROOT
HETATM    1  C1  UNL     1     -35.733  15.408  -5.598  1.00 20.00     0.237 C 
HETATM    2  C2  UNL     1     -34.022  17.209  -2.071  1.00 20.00     0.013 A 
HETATM    3  C3  UNL     1     -33.648  15.713  -4.181  1.00 20.00     0.130 A 
HETATM    4  C4  UNL     1     -35.850  15.674  -3.133  1.00 20.00     0.130 A 
HETATM    5  C5  UNL     1     -33.482  15.962  -2.718  1.00 20.00     0.010 A 
HETATM    6  C6  UNL     1     -34.828  15.938  -2.078  1.00 20.00     0.010 A 
HETATM    7  N9  UNL     1     -35.096  15.595  -4.382  1.00 20.00    -0.350 N 
HETATM    8  O10 UNL     1     -36.956  15.314  -5.728  1.00 20.00    -0.272 OA
ENDROOT
BRANCH   1   9
HETATM    9  C8  UNL     1     -34.830  15.325  -6.803  1.00 20.00     0.170 C 
HETATM   10  C7  UNL     1     -35.465  14.480  -7.883  1.00 20.00     0.036 C 
HETATM   11 CL11 UNL     1     -34.587  16.990  -7.353  1.00 20.00    -0.115 Cl
ENDBRANCH   1   9
TORSDOF 1
ENDMDL
MODEL 5
REMARK VINA RESULT:      -3.9      2.331      4.811
REMARK  1 active torsions:
REMARK  status: ('A' for Active; 'I' for Inactive)
REMARK    1  A    between atoms: C1_1  and  C8_8 
REMARK       I    between atoms: C1_1  and  N9_9 
ROOT
HETATM    1  C1  UNL     1     -34.526  16.678  -3.726  1.00 20.00     0.237 C 
HETATM    2  C2  UNL     1     -35.710  15.040  -7.537  1.00 20.00     0.013 A 
HETATM    3  C3  UNL     1     -35.481  14.675  -4.960  1.00 20.00     0.130 A 
HETATM    4  C4  UNL     1     -33.857  16.129  -6.052  1.00 20.00     0.130 A 
HETATM    5  C5  UNL     1     -35.287  14.200  -6.362  1.00 20.00     0.010 A 
HETATM    6  C6  UNL     1     -34.294  15.090  -7.030  1.00 20.00     0.010 A 
HETATM    7  N9  UNL     1     -34.634  15.866  -4.843  1.00 20.00    -0.350 N 
HETATM    8  O10 UNL     1     -33.802  17.674  -3.666  1.00 20.00    -0.272 OA
ENDROOT
BRANCH   1   9
HETATM    9  C8  UNL     1     -35.370  16.276  -2.543  1.00 20.00     0.170 C 
HETATM   10  C7  UNL     1     -34.600  16.462  -1.256  1.00 20.00     0.036 C 
HETATM   11 CL11 UNL     1     -36.805  17.314  -2.585  1.00 20.00    -0.115 Cl
ENDBRANCH   1   9
TORSDOF 1
ENDMDL
MODEL 6
REMARK VINA RESULT:      -3.9      1.998      2.232
REMARK  1 active torsions:
REMARK  status: ('A' for Active; 'I' for Inactive)
REMARK    1  A    between atoms: C1_1  and  C8_8 
REMARK       I    between atoms: C1_1  and  N9_9 
ROOT
HETATM    1  C1  UNL     1     -35.423  15.643  -4.714  1.00 20.00     0.237 C 
HETATM    2  C2  UNL     1     -34.014  18.146  -1.496  1.00 20.00     0.013 A 
HETATM    3  C3  UNL     1     -33.927  15.813  -2.670  1.00 20.00     0.130 A 
HETATM    4  C4  UNL     1     -36.022  17.057  -2.765  1.00 20.00     0.130 A 
HETATM    5  C5  UNL     1     -34.043  16.643  -1.434  1.00 20.00     0.010 A 
HETATM    6  C6  UNL     1     -35.323  17.403  -1.492  1.00 20.00     0.010 A 
HETATM    7  N9  UNL     1     -35.121  16.139  -3.456  1.00 20.00    -0.350 N 
HETATM    8  O10 UNL     1     -36.439  15.941  -5.346  1.00 20.00    -0.272 OA
ENDROOT
BRANCH   1   9
HETATM    9  C8  UNL     1     -34.413  14.688  -5.300  1.00 20.00     0.170 C 
HETATM   10  C7  UNL     1     -34.788  13.259  -4.980  1.00 20.00     0.036 C 
HETATM   11 CL11 UNL     1     -34.420  14.975  -7.047  1.00 20.00    -0.115 Cl
ENDBRANCH   1   9
TORSDOF 1
ENDMDL
MODEL 7
REMARK VINA RESULT:      -3.9     12.078     12.743
REMARK  1 active torsions:
REMARK  status: ('A' for Active; 'I' for Inactive)
REMARK    1  A    between atoms: C1_1  and  C8_8 
REMARK       I    between atoms: C1_1  and  N9_9 
ROOT
HETATM    1  C1  UNL     1     -32.628   7.088   3.962  1.00 20.00     0.237 C 
HETATM    2  C2  UNL     1     -34.741   3.878   5.921  1.00 20.00     0.013 A 
HETATM    3  C3  UNL     1     -34.640   5.540   3.907  1.00 20.00     0.130 A 
HETATM    4  C4  UNL     1     -33.718   6.279   6.040  1.00 20.00     0.130 A 
HETATM    5  C5  UNL     1     -35.400   4.877   5.008  1.00 20.00     0.010 A 
HETATM    6  C6  UNL     1     -34.835   5.329   6.312  1.00 20.00     0.010 A 
HETATM    7  N9  UNL     1     -33.609   6.333   4.584  1.00 20.00    -0.350 N 
HETATM    8  O10 UNL     1     -31.776   7.744   4.567  1.00 20.00    -0.272 OA
ENDROOT
BRANCH   1   9
HETATM    9  C8  UNL     1     -32.647   7.069   2.454  1.00 20.00     0.170 C 
HETATM   10  C7  UNL     1     -31.853   8.229   1.900  1.00 20.00     0.036 C 
HETATM   11 CL11 UNL     1     -31.938   5.519   1.972  1.00 20.00    -0.115 Cl
ENDBRANCH   1   9
TORSDOF 1
ENDMDL
MODEL 8
REMARK VINA RESULT:      -3.8     11.897     12.601
REMARK  1 active torsions:
REMARK  status: ('A' for Active; 'I' for Inactive)
REMARK    1  A    between atoms: C1_1  and  C8_8 
REMARK       I    between atoms: C1_1  and  N9_9 
ROOT
HETATM    1  C1  UNL     1     -33.844   6.099   5.194  1.00 20.00     0.237 C 
HETATM    2  C2  UNL     1     -32.205   8.432   1.957  1.00 20.00     0.013 A 
HETATM    3  C3  UNL     1     -32.873   6.068   2.847  1.00 20.00     0.130 A 
HETATM    4  C4  UNL     1     -32.113   7.723   4.469  1.00 20.00     0.130 A 
HETATM    5  C5  UNL     1     -31.896   6.976   2.176  1.00 20.00     0.010 A 
HETATM    6  C6  UNL     1     -31.431   7.987   3.168  1.00 20.00     0.010 A 
HETATM    7  N9  UNL     1     -33.002   6.593   4.210  1.00 20.00    -0.350 N 
HETATM    8  O10 UNL     1     -33.926   6.568   6.331  1.00 20.00    -0.272 OA
ENDROOT
BRANCH   1   9
HETATM    9  C8  UNL     1     -34.692   4.917   4.794  1.00 20.00     0.170 C 
HETATM   10  C7  UNL     1     -35.217   4.204   6.018  1.00 20.00     0.036 C 
HETATM   11 CL11 UNL     1     -36.016   5.569   3.815  1.00 20.00    -0.115 Cl
ENDBRANCH   1   9
TORSDOF 1
ENDMDL
MODEL 9
REMARK VINA RESULT:      -3.8      4.068      4.957
REMARK  1 active torsions:
REMARK  status: ('A' for Active; 'I' for Inactive)
REMARK    1  A    between atoms: C1_1  and  C8_8 
REMARK       I    between atoms: C1_1  and  N9_9 
ROOT
HETATM    1  C1  UNL     1     -37.493  15.052  -4.141  1.00 20.00     0.237 C 
HETATM    2  C2  UNL     1     -33.215  14.795  -3.650  1.00 20.00     0.013 A 
HETATM    3  C3  UNL     1     -35.225  15.921  -4.882  1.00 20.00     0.130 A 
HETATM    4  C4  UNL     1     -35.479  13.602  -4.174  1.00 20.00     0.130 A 
HETATM    5  C5  UNL     1     -33.884  15.266  -4.913  1.00 20.00     0.010 A 
HETATM    6  C6  UNL     1     -34.039  13.848  -4.480  1.00 20.00     0.010 A 
HETATM    7  N9  UNL     1     -36.139  14.888  -4.384  1.00 20.00    -0.350 N 
HETATM    8  O10 UNL     1     -38.230  14.158  -3.720  1.00 20.00    -0.272 OA
ENDROOT
BRANCH   1   9
HETATM    9  C8  UNL     1     -38.045  16.427  -4.421  1.00 20.00     0.170 C 
HETATM   10  C7  UNL     1     -38.918  16.406  -5.654  1.00 20.00     0.036 C 
HETATM   11 CL11 UNL     1     -38.976  16.886  -2.986  1.00 20.00    -0.115 Cl
ENDBRANCH   1   9
TORSDOF 1
ENDMDL
