MODEL 1
REMARK VINA RESULT:      -4.4      0.000      0.000
REMARK  2 active torsions:
REMARK  status: ('A' for Active; 'I' for Inactive)
REMARK    1  A    between atoms: C5_5  and  O9_9 
REMARK    2  A    between atoms: C8_8  and  O9_9 
ROOT
HETATM    1  C1  UNL     1     -33.469  13.735  -3.764  1.00 20.00    -0.028 C 
HETATM    2  C2  UNL     1     -33.137  15.030  -3.687  1.00 20.00     0.002 C 
HETATM    3  C3  UNL     1     -34.726  13.244  -4.413  1.00 20.00     0.028 C 
HETATM    4  C4  UNL     1     -35.740  14.357  -4.698  1.00 20.00     0.022 C 
HETATM    5  C5  UNL     1     -33.963  16.137  -4.278  1.00 20.00     0.158 C 
HETATM    6  C6  UNL     1     -35.095  15.653  -5.191  1.00 20.00     0.090 C 
HETATM    7 BR10 UNL     1     -34.422  15.407  -7.018  1.00 20.00    -0.088 Br
ENDROOT
BRANCH   5   8
HETATM    8  O9  UNL     1     -34.547  16.882  -3.206  1.00 20.00    -0.381 OA
BRANCH   8   9
HETATM    9  C8  UNL     1     -33.753  16.806  -2.033  1.00 20.00     0.164 C 
HETATM   10  C7  UNL     1     -34.660  16.620  -0.835  1.00 20.00     0.033 C 
ENDBRANCH   8   9
ENDBRANCH   5   8
TORSDOF 2
ENDMDL
MODEL 2
REMARK VINA RESULT:      -4.2      2.072      3.334
REMARK  2 active torsions:
REMARK  status: ('A' for Active; 'I' for Inactive)
REMARK    1  A    between atoms: C5_5  and  O9_9 
REMARK    2  A    between atoms: C8_8  and  O9_9 
ROOT
HETATM    1  C1  UNL     1     -34.259  15.151  -2.969  1.00 20.00    -0.028 C 
HETATM    2  C2  UNL     1     -35.511  15.507  -3.283  1.00 20.00     0.002 C 
HETATM    3  C3  UNL     1     -33.500  14.081  -3.690  1.00 20.00     0.028 C 
HETATM    4  C4  UNL     1     -34.379  13.220  -4.604  1.00 20.00     0.022 C 
HETATM    5  C5  UNL     1     -36.284  14.905  -4.422  1.00 20.00     0.158 C 
HETATM    6  C6  UNL     1     -35.444  14.022  -5.351  1.00 20.00     0.090 C 
HETATM    7 BR10 UNL     1     -34.594  15.126  -6.734  1.00 20.00    -0.088 Br
ENDROOT
BRANCH   5   8
HETATM    8  O9  UNL     1     -37.332  14.099  -3.875  1.00 20.00    -0.381 OA
BRANCH   8   9
HETATM    9  C8  UNL     1     -38.565  14.802  -3.853  1.00 20.00     0.164 C 
HETATM   10  C7  UNL     1     -38.914  15.229  -5.263  1.00 20.00     0.033 C 
ENDBRANCH   8   9
ENDBRANCH   5   8
TORSDOF 2
ENDMDL
MODEL 3
REMARK VINA RESULT:      -4.2      2.348      3.752
REMARK  2 active torsions:
REMARK  status: ('A' for Active; 'I' for Inactive)
REMARK    1  A    between atoms: C5_5  and  O9_9 
REMARK    2  A    between atoms: C8_8  and  O9_9 
ROOT
HETATM    1  C1  UNL     1     -33.454  13.573  -3.798  1.00 20.00    -0.028 C 
HETATM    2  C2  UNL     1     -34.775  13.676  -3.991  1.00 20.00     0.002 C 
HETATM    3  C3  UNL     1     -32.548  14.755  -3.650  1.00 20.00     0.028 C 
HETATM    4  C4  UNL     1     -33.206  16.082  -4.048  1.00 20.00     0.022 C 
HETATM    5  C5  UNL     1     -35.509  14.987  -4.038  1.00 20.00     0.158 C 
HETATM    6  C6  UNL     1     -34.665  16.191  -3.606  1.00 20.00     0.090 C 
HETATM    7 BR10 UNL     1     -34.754  16.403  -1.657  1.00 20.00    -0.088 Br
ENDROOT
BRANCH   5   8
HETATM    8  O9  UNL     1     -35.941  15.210  -5.383  1.00 20.00    -0.381 OA
BRANCH   8   9
HETATM    9  C8  UNL     1     -35.397  14.242  -6.267  1.00 20.00     0.164 C 
HETATM   10  C7  UNL     1     -34.634  14.952  -7.366  1.00 20.00     0.033 C 
ENDBRANCH   8   9
ENDBRANCH   5   8
TORSDOF 2
ENDMDL
MODEL 4
REMARK VINA RESULT:      -4.1      2.391      3.470
REMARK  2 active torsions:
REMARK  status: ('A' for Active; 'I' for Inactive)
REMARK    1  A    between atoms: C5_5  and  O9_9 
REMARK    2  A    between atoms: C8_8  and  O9_9 
ROOT
HETATM    1  C1  UNL     1     -33.419  13.694  -3.778  1.00 20.00    -0.028 C 
HETATM    2  C2  UNL     1     -34.758  13.672  -3.800  1.00 20.00     0.002 C 
HETATM    3  C3  UNL     1     -32.616  14.956  -3.754  1.00 20.00     0.028 C 
HETATM    4  C4  UNL     1     -33.439  16.210  -4.072  1.00 20.00     0.022 C 
HETATM    5  C5  UNL     1     -35.610  14.909  -3.761  1.00 20.00     0.158 C 
HETATM    6  C6  UNL     1     -34.834  16.193  -3.447  1.00 20.00     0.090 C 
HETATM    7 BR10 UNL     1     -34.694  16.431  -1.504  1.00 20.00    -0.088 Br
ENDROOT
BRANCH   5   8
HETATM    8  O9  UNL     1     -36.229  15.067  -5.040  1.00 20.00    -0.381 OA
BRANCH   8   9
HETATM    9  C8  UNL     1     -37.525  15.630  -4.921  1.00 20.00     0.164 C 
HETATM   10  C7  UNL     1     -38.321  14.825  -3.915  1.00 20.00     0.033 C 
ENDBRANCH   8   9
ENDBRANCH   5   8
TORSDOF 2
ENDMDL
MODEL 5
REMARK VINA RESULT:      -4.0      1.748      2.088
REMARK  2 active torsions:
REMARK  status: ('A' for Active; 'I' for Inactive)
REMARK    1  A    between atoms: C5_5  and  O9_9 
REMARK    2  A    between atoms: C8_8  and  O9_9 
ROOT
HETATM    1  C1  UNL     1     -34.362  15.395  -6.094  1.00 20.00    -0.028 C 
HETATM    2  C2  UNL     1     -34.356  16.242  -5.057  1.00 20.00     0.002 C 
HETATM    3  C3  UNL     1     -34.865  13.988  -6.006  1.00 20.00     0.028 C 
HETATM    4  C4  UNL     1     -35.077  13.505  -4.566  1.00 20.00     0.022 C 
HETATM    5  C5  UNL     1     -34.891  15.895  -3.697  1.00 20.00     0.158 C 
HETATM    6  C6  UNL     1     -35.669  14.576  -3.650  1.00 20.00     0.090 C 
HETATM    7 BR10 UNL     1     -37.548  14.890  -4.123  1.00 20.00    -0.088 Br
ENDROOT
BRANCH   5   8
HETATM    8  O9  UNL     1     -33.787  15.790  -2.794  1.00 20.00    -0.381 OA
BRANCH   8   9
HETATM    9  C8  UNL     1     -33.725  16.908  -1.923  1.00 20.00     0.164 C 
HETATM   10  C7  UNL     1     -34.651  16.669  -0.749  1.00 20.00     0.033 C 
ENDBRANCH   8   9
ENDBRANCH   5   8
TORSDOF 2
ENDMDL
MODEL 6
REMARK VINA RESULT:      -3.9      2.384      3.430
REMARK  2 active torsions:
REMARK  status: ('A' for Active; 'I' for Inactive)
REMARK    1  A    between atoms: C5_5  and  O9_9 
REMARK    2  A    between atoms: C8_8  and  O9_9 
ROOT
HETATM    1  C1  UNL     1     -34.658  13.688  -4.676  1.00 20.00    -0.028 C 
HETATM    2  C2  UNL     1     -35.210  14.817  -5.138  1.00 20.00     0.002 C 
HETATM    3  C3  UNL     1     -33.473  13.664  -3.761  1.00 20.00     0.028 C 
HETATM    4  C4  UNL     1     -32.759  15.017  -3.652  1.00 20.00     0.022 C 
HETATM    5  C5  UNL     1     -34.733  16.191  -4.759  1.00 20.00     0.158 C 
HETATM    6  C6  UNL     1     -33.719  16.206  -3.610  1.00 20.00     0.090 C 
HETATM    7 BR10 UNL     1     -34.659  16.241  -1.888  1.00 20.00    -0.088 Br
ENDROOT
BRANCH   5   8
HETATM    8  O9  UNL     1     -34.113  16.782  -5.904  1.00 20.00    -0.381 OA
BRANCH   8   9
HETATM    9  C8  UNL     1     -33.598  18.069  -5.606  1.00 20.00     0.164 C 
HETATM   10  C7  UNL     1     -33.803  18.972  -6.805  1.00 20.00     0.033 C 
ENDBRANCH   8   9
ENDBRANCH   5   8
TORSDOF 2
ENDMDL
MODEL 7
REMARK VINA RESULT:      -3.9      1.332      1.333
REMARK  2 active torsions:
REMARK  status: ('A' for Active; 'I' for Inactive)
REMARK    1  A    between atoms: C5_5  and  O9_9 
REMARK    2  A    between atoms: C8_8  and  O9_9 
ROOT
HETATM    1  C1  UNL     1     -33.405  13.656  -3.705  1.00 20.00    -0.028 C 
HETATM    2  C2  UNL     1     -32.781  14.841  -3.734  1.00 20.00     0.002 C 
HETATM    3  C3  UNL     1     -34.818  13.457  -4.157  1.00 20.00     0.028 C 
HETATM    4  C4  UNL     1     -35.585  14.769  -4.357  1.00 20.00     0.022 C 
HETATM    5  C5  UNL     1     -33.411  16.099  -4.262  1.00 20.00     0.158 C 
HETATM    6  C6  UNL     1     -34.740  15.874  -4.992  1.00 20.00     0.090 C 
HETATM    7 BR10 UNL     1     -34.403  15.451  -6.878  1.00 20.00    -0.088 Br
ENDROOT
BRANCH   5   8
HETATM    8  O9  UNL     1     -33.655  16.975  -3.158  1.00 20.00    -0.381 OA
BRANCH   8   9
HETATM    9  C8  UNL     1     -33.872  18.307  -3.595  1.00 20.00     0.164 C 
HETATM   10  C7  UNL     1     -33.472  19.260  -2.488  1.00 20.00     0.033 C 
ENDBRANCH   8   9
ENDBRANCH   5   8
TORSDOF 2
ENDMDL
MODEL 8
REMARK VINA RESULT:      -3.9     11.390     12.748
REMARK  2 active torsions:
REMARK  status: ('A' for Active; 'I' for Inactive)
REMARK    1  A    between atoms: C5_5  and  O9_9 
REMARK    2  A    between atoms: C8_8  and  O9_9 
ROOT
HETATM    1  C1  UNL     1     -41.679   4.326  -2.301  1.00 20.00    -0.028 C 
HETATM    2  C2  UNL     1     -42.637   5.213  -2.598  1.00 20.00     0.002 C 
HETATM    3  C3  UNL     1     -40.756   4.469  -1.131  1.00 20.00     0.028 C 
HETATM    4  C4  UNL     1     -40.794   5.862  -0.491  1.00 20.00     0.022 C 
HETATM    5  C5  UNL     1     -42.926   6.432  -1.768  1.00 20.00     0.158 C 
HETATM    6  C6  UNL     1     -42.201   6.456  -0.419  1.00 20.00     0.090 C 
HETATM    7 BR10 UNL     1     -43.259   5.496   0.927  1.00 20.00    -0.088 Br
ENDROOT
BRANCH   5   8
HETATM    8  O9  UNL     1     -42.520   7.585  -2.510  1.00 20.00    -0.381 OA
BRANCH   8   9
HETATM    9  C8  UNL     1     -42.942   7.504  -3.862  1.00 20.00     0.164 C 
HETATM   10  C7  UNL     1     -42.268   8.605  -4.655  1.00 20.00     0.033 C 
ENDBRANCH   8   9
ENDBRANCH   5   8
TORSDOF 2
ENDMDL
MODEL 9
REMARK VINA RESULT:      -3.9      1.860      2.745
REMARK  2 active torsions:
REMARK  status: ('A' for Active; 'I' for Inactive)
REMARK    1  A    between atoms: C5_5  and  O9_9 
REMARK    2  A    between atoms: C8_8  and  O9_9 
ROOT
HETATM    1  C1  UNL     1     -34.298  17.293  -4.433  1.00 20.00    -0.028 C 
HETATM    2  C2  UNL     1     -35.119  17.073  -3.398  1.00 20.00     0.002 C 
HETATM    3  C3  UNL     1     -33.222  16.339  -4.849  1.00 20.00     0.028 C 
HETATM    4  C4  UNL     1     -32.936  15.251  -3.807  1.00 20.00     0.022 C 
HETATM    5  C5  UNL     1     -35.085  15.826  -2.561  1.00 20.00     0.158 C 
HETATM    6  C6  UNL     1     -34.198  14.715  -3.131  1.00 20.00     0.090 C 
HETATM    7 BR10 UNL     1     -35.223  13.628  -4.404  1.00 20.00    -0.088 Br
ENDROOT
BRANCH   5   8
HETATM    8  O9  UNL     1     -34.584  16.171  -1.266  1.00 20.00    -0.381 OA
BRANCH   8   9
HETATM    9  C8  UNL     1     -35.083  17.428  -0.838  1.00 20.00     0.164 C 
HETATM   10  C7  UNL     1     -35.085  17.468   0.676  1.00 20.00     0.033 C 
ENDBRANCH   8   9
ENDBRANCH   5   8
TORSDOF 2
ENDMDL
