MODEL 1
REMARK VINA RESULT:      -4.8      0.000      0.000
REMARK  0 active torsions:
REMARK  status: ('A' for Active; 'I' for Inactive)
ROOT
HETATM    1  C1  UNL     1     -34.055   5.443   2.816  1.00 20.00     0.110 A 
HETATM    2  C2  UNL     1     -34.445   5.312   4.136  1.00 20.00     0.007 A 
HETATM    3  C3  UNL     1     -33.695   6.164   4.980  1.00 20.00     0.002 A 
HETATM    4  C4  UNL     1     -32.860   6.800   4.152  1.00 20.00     0.048 A 
HETATM    5  C5  UNL     1     -35.364   4.595   4.947  1.00 20.00     0.124 A 
HETATM    6  C6  UNL     1     -31.843   7.665   3.649  1.00 20.00     0.048 A 
HETATM    7  C7  UNL     1     -32.120   7.183   2.402  1.00 20.00     0.099 A 
HETATM    8  C8  UNL     1     -34.154   5.978   6.353  1.00 20.00     0.190 A 
HETATM    9  N9  UNL     1     -35.252   4.922   6.206  1.00 20.00    -0.296 NA
HETATM   10  N10 UNL     1     -33.085   6.371   2.916  1.00 20.00    -0.331 N 
ENDROOT
TORSDOF 0
ENDMDL
MODEL 2
REMARK VINA RESULT:      -4.6     11.270     12.072
REMARK  0 active torsions:
REMARK  status: ('A' for Active; 'I' for Inactive)
ROOT
HETATM    1  C1  UNL     1     -36.431  15.591  -3.266  1.00 20.00     0.110 A 
HETATM    2  C2  UNL     1     -35.586  14.602  -3.736  1.00 20.00     0.007 A 
HETATM    3  C3  UNL     1     -34.278  14.755  -3.217  1.00 20.00     0.002 A 
HETATM    4  C4  UNL     1     -34.355  15.839  -2.439  1.00 20.00     0.048 A 
HETATM    5  C5  UNL     1     -35.588  13.461  -4.580  1.00 20.00     0.124 A 
HETATM    6  C6  UNL     1     -34.009  16.899  -1.548  1.00 20.00     0.048 A 
HETATM    7  C7  UNL     1     -35.303  17.326  -1.634  1.00 20.00     0.099 A 
HETATM    8  C8  UNL     1     -33.440  13.684  -3.749  1.00 20.00     0.190 A 
HETATM    9  N9  UNL     1     -34.411  12.897  -4.633  1.00 20.00    -0.296 NA
HETATM   10  N10 UNL     1     -35.598  16.301  -2.483  1.00 20.00    -0.331 N 
ENDROOT
TORSDOF 0
ENDMDL
MODEL 3
REMARK VINA RESULT:      -4.3     11.637     13.428
REMARK  0 active torsions:
REMARK  status: ('A' for Active; 'I' for Inactive)
ROOT
HETATM    1  C1  UNL     1     -33.299  16.095  -3.764  1.00 20.00     0.110 A 
HETATM    2  C2  UNL     1     -33.869  14.901  -4.167  1.00 20.00     0.007 A 
HETATM    3  C3  UNL     1     -34.455  15.018  -5.450  1.00 20.00     0.002 A 
HETATM    4  C4  UNL     1     -34.228  16.287  -5.803  1.00 20.00     0.048 A 
HETATM    5  C5  UNL     1     -34.069  13.569  -3.718  1.00 20.00     0.124 A 
HETATM    6  C6  UNL     1     -34.202  17.508  -6.542  1.00 20.00     0.048 A 
HETATM    7  C7  UNL     1     -33.521  18.067  -5.498  1.00 20.00     0.099 A 
HETATM    8  C8  UNL     1     -35.036  13.729  -5.814  1.00 20.00     0.190 A 
HETATM    9  N9  UNL     1     -34.720  12.857  -4.597  1.00 20.00    -0.296 NA
HETATM   10  N10 UNL     1     -33.563  16.885  -4.821  1.00 20.00    -0.331 N 
ENDROOT
TORSDOF 0
ENDMDL
MODEL 4
REMARK VINA RESULT:      -4.2     11.794     12.720
REMARK  0 active torsions:
REMARK  status: ('A' for Active; 'I' for Inactive)
ROOT
HETATM    1  C1  UNL     1     -33.513  16.722  -4.297  1.00 20.00     0.110 A 
HETATM    2  C2  UNL     1     -34.120  15.537  -4.672  1.00 20.00     0.007 A 
HETATM    3  C3  UNL     1     -34.794  14.938  -3.581  1.00 20.00     0.002 A 
HETATM    4  C4  UNL     1     -34.582  15.774  -2.560  1.00 20.00     0.048 A 
HETATM    5  C5  UNL     1     -34.298  14.703  -5.806  1.00 20.00     0.124 A 
HETATM    6  C6  UNL     1     -34.599  16.364  -1.261  1.00 20.00     0.048 A 
HETATM    7  C7  UNL     1     -33.841  17.381  -1.766  1.00 20.00     0.099 A 
HETATM    8  C8  UNL     1     -35.410  13.698  -4.042  1.00 20.00     0.190 A 
HETATM    9  N9  UNL     1     -35.015  13.649  -5.520  1.00 20.00    -0.296 NA
HETATM   10  N10 UNL     1     -33.845  16.790  -2.994  1.00 20.00    -0.331 N 
ENDROOT
TORSDOF 0
ENDMDL
MODEL 5
REMARK VINA RESULT:      -4.1     11.647     12.705
REMARK  0 active torsions:
REMARK  status: ('A' for Active; 'I' for Inactive)
ROOT
HETATM    1  C1  UNL     1     -33.568  16.603  -4.458  1.00 20.00     0.110 A 
HETATM    2  C2  UNL     1     -33.816  17.021  -3.163  1.00 20.00     0.007 A 
HETATM    3  C3  UNL     1     -34.395  15.986  -2.392  1.00 20.00     0.002 A 
HETATM    4  C4  UNL     1     -34.487  14.954  -3.236  1.00 20.00     0.048 A 
HETATM    5  C5  UNL     1     -33.684  18.163  -2.331  1.00 20.00     0.124 A 
HETATM    6  C6  UNL     1     -34.756  13.661  -3.778  1.00 20.00     0.048 A 
HETATM    7  C7  UNL     1     -34.251  14.108  -4.965  1.00 20.00     0.099 A 
HETATM    8  C8  UNL     1     -34.631  16.490  -1.042  1.00 20.00     0.190 A 
HETATM    9  N9  UNL     1     -34.124  17.932  -1.123  1.00 20.00    -0.296 NA
HETATM   10  N10 UNL     1     -34.006  15.331  -4.415  1.00 20.00    -0.331 N 
ENDROOT
TORSDOF 0
ENDMDL
MODEL 6
REMARK VINA RESULT:      -4.1     11.821     13.630
REMARK  0 active torsions:
REMARK  status: ('A' for Active; 'I' for Inactive)
ROOT
HETATM    1  C1  UNL     1     -33.374  16.555  -5.055  1.00 20.00     0.110 A 
HETATM    2  C2  UNL     1     -33.648  15.275  -4.607  1.00 20.00     0.007 A 
HETATM    3  C3  UNL     1     -34.477  14.579  -5.519  1.00 20.00     0.002 A 
HETATM    4  C4  UNL     1     -34.692  15.454  -6.506  1.00 20.00     0.048 A 
HETATM    5  C5  UNL     1     -33.372  14.407  -3.519  1.00 20.00     0.124 A 
HETATM    6  C6  UNL     1     -35.155  16.048  -7.719  1.00 20.00     0.048 A 
HETATM    7  C7  UNL     1     -34.474  17.178  -7.367  1.00 20.00     0.099 A 
HETATM    8  C8  UNL     1     -34.727  13.242  -4.990  1.00 20.00     0.190 A 
HETATM    9  N9  UNL     1     -33.950  13.245  -3.671  1.00 20.00    -0.296 NA
HETATM   10  N10 UNL     1     -34.049  16.580  -6.219  1.00 20.00    -0.331 N 
ENDROOT
TORSDOF 0
ENDMDL
MODEL 7
REMARK VINA RESULT:      -4.0     11.246     12.435
REMARK  0 active torsions:
REMARK  status: ('A' for Active; 'I' for Inactive)
ROOT
HETATM    1  C1  UNL     1     -33.559  16.019  -2.775  1.00 20.00     0.110 A 
HETATM    2  C2  UNL     1     -34.078  14.878  -3.360  1.00 20.00     0.007 A 
HETATM    3  C3  UNL     1     -35.478  14.980  -3.531  1.00 20.00     0.002 A 
HETATM    4  C4  UNL     1     -35.785  16.187  -3.045  1.00 20.00     0.048 A 
HETATM    5  C5  UNL     1     -33.669  13.612  -3.856  1.00 20.00     0.124 A 
HETATM    6  C6  UNL     1     -36.517  17.346  -2.647  1.00 20.00     0.048 A 
HETATM    7  C7  UNL     1     -35.336  17.886  -2.224  1.00 20.00     0.099 A 
HETATM    8  C8  UNL     1     -35.961  13.749  -4.150  1.00 20.00     0.190 A 
HETATM    9  N9  UNL     1     -34.681  12.926  -4.316  1.00 20.00    -0.296 NA
HETATM   10  N10 UNL     1     -34.668  16.765  -2.617  1.00 20.00    -0.331 N 
ENDROOT
TORSDOF 0
ENDMDL
MODEL 8
REMARK VINA RESULT:      -4.0      9.658     10.902
REMARK  0 active torsions:
REMARK  status: ('A' for Active; 'I' for Inactive)
ROOT
HETATM    1  C1  UNL     1     -40.819   4.392  -1.325  1.00 20.00     0.110 A 
HETATM    2  C2  UNL     1     -41.289   5.693  -1.324  1.00 20.00     0.007 A 
HETATM    3  C3  UNL     1     -42.388   5.842  -2.204  1.00 20.00     0.002 A 
HETATM    4  C4  UNL     1     -42.564   4.623  -2.724  1.00 20.00     0.048 A 
HETATM    5  C5  UNL     1     -41.036   6.955  -0.726  1.00 20.00     0.124 A 
HETATM    6  C6  UNL     1     -43.079   3.534  -3.489  1.00 20.00     0.048 A 
HETATM    7  C7  UNL     1     -42.118   2.747  -2.921  1.00 20.00     0.099 A 
HETATM    8  C8  UNL     1     -42.834   7.231  -2.156  1.00 20.00     0.190 A 
HETATM    9  N9  UNL     1     -41.870   7.865  -1.151  1.00 20.00    -0.296 NA
HETATM   10  N10 UNL     1     -41.653   3.808  -2.205  1.00 20.00    -0.331 N 
ENDROOT
TORSDOF 0
ENDMDL
MODEL 9
REMARK VINA RESULT:      -3.9     12.026     13.023
REMARK  0 active torsions:
REMARK  status: ('A' for Active; 'I' for Inactive)
ROOT
HETATM    1  C1  UNL     1     -34.801  15.367  -2.821  1.00 20.00     0.110 A 
HETATM    2  C2  UNL     1     -34.507  16.379  -1.925  1.00 20.00     0.007 A 
HETATM    3  C3  UNL     1     -33.818  17.440  -2.558  1.00 20.00     0.002 A 
HETATM    4  C4  UNL     1     -33.707  17.051  -3.832  1.00 20.00     0.048 A 
HETATM    5  C5  UNL     1     -34.666  16.718  -0.555  1.00 20.00     0.124 A 
HETATM    6  C6  UNL     1     -33.386  17.027  -5.222  1.00 20.00     0.048 A 
HETATM    7  C7  UNL     1     -33.987  15.803  -5.289  1.00 20.00     0.099 A 
HETATM    8  C8  UNL     1     -33.538  18.470  -1.562  1.00 20.00     0.190 A 
HETATM    9  N9  UNL     1     -34.142  17.883  -0.284  1.00 20.00    -0.296 NA
HETATM   10  N10 UNL     1     -34.278  15.859  -3.959  1.00 20.00    -0.331 N 
ENDROOT
TORSDOF 0
ENDMDL
