MODEL 1
REMARK VINA RESULT:      -5.7      0.000      0.000
REMARK  1 active torsions:
REMARK  status: ('A' for Active; 'I' for Inactive)
REMARK    1  A    between atoms: C3_3  and  C7_7 
ROOT
HETATM    1  C1  UNL     1     -34.387   4.903   6.361  1.00 20.00    -0.030 C 
HETATM    2  C2  UNL     1     -35.223   4.321   5.496  1.00 20.00    -0.026 C 
HETATM    3  C4  UNL     1     -33.853   6.220   5.885  1.00 20.00     0.033 C 
HETATM    4  C5  UNL     1     -34.365   4.890   3.156  1.00 20.00     0.021 C 
HETATM    5  C6  UNL     1     -35.374   5.160   4.293  1.00 20.00     0.013 C 
HETATM    6  C7  UNL     1     -33.972   6.385   3.181  1.00 20.00     0.060 C 
HETATM    7  C8  UNL     1     -34.630   6.490   4.588  1.00 20.00     0.008 C 
ENDROOT
BRANCH   6   8
HETATM    8  C3  UNL     1     -32.493   6.748   3.040  1.00 20.00     0.127 C 
HETATM    9  C9  UNL     1     -32.180   8.044   2.341  1.00 20.00     0.091 C 
HETATM   10  O10 UNL     1     -31.605   6.021   3.479  1.00 20.00    -0.298 OA
ENDBRANCH   6   8
TORSDOF 1
ENDMDL
MODEL 2
REMARK VINA RESULT:      -4.5     11.984     13.112
REMARK  1 active torsions:
REMARK  status: ('A' for Active; 'I' for Inactive)
REMARK    1  A    between atoms: C3_3  and  C7_7 
ROOT
HETATM    1  C1  UNL     1     -34.092  15.889  -6.367  1.00 20.00    -0.030 C 
HETATM    2  C2  UNL     1     -34.500  14.617  -6.304  1.00 20.00    -0.026 C 
HETATM    3  C4  UNL     1     -33.592  16.424  -5.060  1.00 20.00     0.033 C 
HETATM    4  C5  UNL     1     -35.556  14.303  -3.997  1.00 20.00     0.021 C 
HETATM    5  C6  UNL     1     -34.344  14.101  -4.932  1.00 20.00     0.013 C 
HETATM    6  C7  UNL     1     -34.628  15.015  -2.987  1.00 20.00     0.060 C 
HETATM    7  C8  UNL     1     -33.591  15.198  -4.132  1.00 20.00     0.008 C 
ENDROOT
BRANCH   6   8
HETATM    8  C3  UNL     1     -35.154  16.262  -2.275  1.00 20.00     0.127 C 
HETATM    9  C9  UNL     1     -34.488  16.630  -0.976  1.00 20.00     0.091 C 
HETATM   10  O10 UNL     1     -36.073  16.933  -2.741  1.00 20.00    -0.298 OA
ENDBRANCH   6   8
TORSDOF 1
ENDMDL
MODEL 3
REMARK VINA RESULT:      -4.4     11.582     12.729
REMARK  1 active torsions:
REMARK  status: ('A' for Active; 'I' for Inactive)
REMARK    1  A    between atoms: C3_3  and  C7_7 
ROOT
HETATM    1  C1  UNL     1     -35.440  17.596  -3.332  1.00 20.00    -0.030 C 
HETATM    2  C2  UNL     1     -34.162  17.677  -2.948  1.00 20.00    -0.026 C 
HETATM    3  C4  UNL     1     -35.988  16.202  -3.305  1.00 20.00     0.033 C 
HETATM    4  C5  UNL     1     -33.016  15.547  -3.776  1.00 20.00     0.021 C 
HETATM    5  C6  UNL     1     -33.648  16.337  -2.610  1.00 20.00     0.013 C 
HETATM    6  C7  UNL     1     -33.986  14.381  -3.481  1.00 20.00     0.060 C 
HETATM    7  C8  UNL     1     -34.864  15.373  -2.664  1.00 20.00     0.008 C 
ENDROOT
BRANCH   6   8
HETATM    8  C3  UNL     1     -34.623  13.650  -4.664  1.00 20.00     0.127 C 
HETATM    9  C9  UNL     1     -34.628  14.375  -5.983  1.00 20.00     0.091 C 
HETATM   10  O10 UNL     1     -35.103  12.525  -4.546  1.00 20.00    -0.298 OA
ENDBRANCH   6   8
TORSDOF 1
ENDMDL
MODEL 4
REMARK VINA RESULT:      -4.3     11.515     12.627
REMARK  1 active torsions:
REMARK  status: ('A' for Active; 'I' for Inactive)
REMARK    1  A    between atoms: C3_3  and  C7_7 
ROOT
HETATM    1  C1  UNL     1     -33.500  16.318  -2.979  1.00 20.00    -0.030 C 
HETATM    2  C2  UNL     1     -32.870  15.551  -3.873  1.00 20.00    -0.026 C 
HETATM    3  C4  UNL     1     -34.783  15.727  -2.478  1.00 20.00     0.033 C 
HETATM    4  C5  UNL     1     -34.688  14.399  -5.255  1.00 20.00     0.021 C 
HETATM    5  C6  UNL     1     -33.643  14.320  -4.120  1.00 20.00     0.013 C 
HETATM    6  C7  UNL     1     -35.772  13.935  -4.257  1.00 20.00     0.060 C 
HETATM    7  C8  UNL     1     -34.810  14.320  -3.096  1.00 20.00     0.008 C 
ENDROOT
BRANCH   6   8
HETATM    8  C3  UNL     1     -37.146  14.605  -4.316  1.00 20.00     0.127 C 
HETATM    9  C9  UNL     1     -37.276  15.804  -5.216  1.00 20.00     0.091 C 
HETATM   10  O10 UNL     1     -38.099  14.184  -3.663  1.00 20.00    -0.298 OA
ENDBRANCH   6   8
TORSDOF 1
ENDMDL
MODEL 5
REMARK VINA RESULT:      -4.2     11.241     13.112
REMARK  1 active torsions:
REMARK  status: ('A' for Active; 'I' for Inactive)
REMARK    1  A    between atoms: C3_3  and  C7_7 
ROOT
HETATM    1  C1  UNL     1     -33.617  17.704  -4.793  1.00 20.00    -0.030 C 
HETATM    2  C2  UNL     1     -34.122  18.045  -3.604  1.00 20.00    -0.026 C 
HETATM    3  C4  UNL     1     -34.224  16.462  -5.369  1.00 20.00     0.033 C 
HETATM    4  C5  UNL     1     -34.637  15.861  -2.377  1.00 20.00     0.021 C 
HETATM    5  C6  UNL     1     -35.148  17.070  -3.190  1.00 20.00     0.013 C 
HETATM    6  C7  UNL     1     -35.293  14.919  -3.412  1.00 20.00     0.060 C 
HETATM    7  C8  UNL     1     -35.365  16.120  -4.398  1.00 20.00     0.008 C 
ENDROOT
BRANCH   6   8
HETATM    8  C3  UNL     1     -34.524  13.668  -3.843  1.00 20.00     0.127 C 
HETATM    9  C9  UNL     1     -33.037  13.675  -3.610  1.00 20.00     0.091 C 
HETATM   10  O10 UNL     1     -35.093  12.704  -4.351  1.00 20.00    -0.298 OA
ENDBRANCH   6   8
TORSDOF 1
ENDMDL
MODEL 6
REMARK VINA RESULT:      -4.2     12.472     13.354
REMARK  1 active torsions:
REMARK  status: ('A' for Active; 'I' for Inactive)
REMARK    1  A    between atoms: C3_3  and  C7_7 
ROOT
HETATM    1  C1  UNL     1     -35.129  16.091  -2.230  1.00 20.00    -0.030 C 
HETATM    2  C2  UNL     1     -33.814  16.312  -2.328  1.00 20.00    -0.026 C 
HETATM    3  C4  UNL     1     -35.663  15.172  -3.286  1.00 20.00     0.033 C 
HETATM    4  C5  UNL     1     -33.264  16.337  -4.825  1.00 20.00     0.021 C 
HETATM    5  C6  UNL     1     -33.261  15.578  -3.481  1.00 20.00     0.013 C 
HETATM    6  C7  UNL     1     -34.042  15.162  -5.460  1.00 20.00     0.060 C 
HETATM    7  C8  UNL     1     -34.408  14.684  -4.025  1.00 20.00     0.008 C 
ENDROOT
BRANCH   6   8
HETATM    8  C3  UNL     1     -35.179  15.486  -6.431  1.00 20.00     0.127 C 
HETATM    9  C9  UNL     1     -35.494  14.447  -7.473  1.00 20.00     0.091 C 
HETATM   10  O10 UNL     1     -35.807  16.541  -6.361  1.00 20.00    -0.298 OA
ENDBRANCH   6   8
TORSDOF 1
ENDMDL
MODEL 7
REMARK VINA RESULT:      -4.1     12.110     12.885
REMARK  1 active torsions:
REMARK  status: ('A' for Active; 'I' for Inactive)
REMARK    1  A    between atoms: C3_3  and  C7_7 
ROOT
HETATM    1  C1  UNL     1     -33.684  16.224  -2.410  1.00 20.00    -0.030 C 
HETATM    2  C2  UNL     1     -34.933  16.287  -1.937  1.00 20.00    -0.026 C 
HETATM    3  C4  UNL     1     -33.613  16.151  -3.905  1.00 20.00     0.033 C 
HETATM    4  C5  UNL     1     -36.374  14.853  -3.487  1.00 20.00     0.021 C 
HETATM    5  C6  UNL     1     -35.900  16.256  -3.049  1.00 20.00     0.013 C 
HETATM    6  C7  UNL     1     -35.928  15.179  -4.930  1.00 20.00     0.060 C 
HETATM    7  C8  UNL     1     -35.069  16.344  -4.357  1.00 20.00     0.008 C 
ENDROOT
BRANCH   6   8
HETATM    8  C3  UNL     1     -35.226  14.086  -5.737  1.00 20.00     0.127 C 
HETATM    9  C9  UNL     1     -34.996  14.366  -7.198  1.00 20.00     0.091 C 
HETATM   10  O10 UNL     1     -34.865  13.032  -5.217  1.00 20.00    -0.298 OA
ENDBRANCH   6   8
TORSDOF 1
ENDMDL
MODEL 8
REMARK VINA RESULT:      -4.1     11.394     13.604
REMARK  1 active torsions:
REMARK  status: ('A' for Active; 'I' for Inactive)
REMARK    1  A    between atoms: C3_3  and  C7_7 
ROOT
HETATM    1  C1  UNL     1     -37.913  15.557  -5.828  1.00 20.00    -0.030 C 
HETATM    2  C2  UNL     1     -37.445  15.615  -7.079  1.00 20.00    -0.026 C 
HETATM    3  C4  UNL     1     -36.838  15.540  -4.785  1.00 20.00     0.033 C 
HETATM    4  C5  UNL     1     -35.280  14.256  -7.110  1.00 20.00     0.021 C 
HETATM    5  C6  UNL     1     -35.971  15.635  -7.069  1.00 20.00     0.013 C 
HETATM    6  C7  UNL     1     -34.504  14.632  -5.827  1.00 20.00     0.060 C 
HETATM    7  C8  UNL     1     -35.543  15.765  -5.582  1.00 20.00     0.008 C 
ENDROOT
BRANCH   6   8
HETATM    8  C3  UNL     1     -34.326  13.563  -4.748  1.00 20.00     0.127 C 
HETATM    9  C9  UNL     1     -33.292  13.837  -3.689  1.00 20.00     0.091 C 
HETATM   10  O10 UNL     1     -34.995  12.532  -4.744  1.00 20.00    -0.298 OA
ENDBRANCH   6   8
TORSDOF 1
ENDMDL
MODEL 9
REMARK VINA RESULT:      -4.1      9.643     10.495
REMARK  1 active torsions:
REMARK  status: ('A' for Active; 'I' for Inactive)
REMARK    1  A    between atoms: C3_3  and  C7_7 
ROOT
HETATM    1  C1  UNL     1     -43.100   4.386  -0.103  1.00 20.00    -0.030 C 
HETATM    2  C2  UNL     1     -41.868   4.625   0.355  1.00 20.00    -0.026 C 
HETATM    3  C4  UNL     1     -43.312   4.832  -1.517  1.00 20.00     0.033 C 
HETATM    4  C5  UNL     1     -41.110   6.825  -0.704  1.00 20.00     0.021 C 
HETATM    5  C6  UNL     1     -41.057   5.282  -0.686  1.00 20.00     0.013 C 
HETATM    6  C7  UNL     1     -41.537   6.770  -2.188  1.00 20.00     0.060 C 
HETATM    7  C8  UNL     1     -41.915   5.275  -1.980  1.00 20.00     0.008 C 
ENDROOT
BRANCH   6   8
HETATM    8  C3  UNL     1     -42.623   7.735  -2.666  1.00 20.00     0.127 C 
HETATM    9  C9  UNL     1     -42.674   8.018  -4.143  1.00 20.00     0.091 C 
HETATM   10  O10 UNL     1     -43.417   8.252  -1.883  1.00 20.00    -0.298 OA
ENDBRANCH   6   8
TORSDOF 1
ENDMDL
