MODEL 1
REMARK VINA RESULT:      -5.1      0.000      0.000
REMARK  3 active torsions:
REMARK  status: ('A' for Active; 'I' for Inactive)
REMARK    1  A    between atoms: C1_1  and  C3_3 
REMARK    2  A    between atoms: C2_2  and  C7_7 
REMARK    3  A    between atoms: C7_7  and  C8_8 
ROOT
HETATM    1  C1  UNL     1     -33.018   6.842   3.315  1.00 20.00    -0.029 C 
HETATM    2  C2  UNL     1     -33.948   6.156   3.642  1.00 20.00    -0.098 C 
ENDROOT
BRANCH   2   3
HETATM    3  C7  UNL     1     -35.087   5.317   4.042  1.00 20.00     0.098 C 
BRANCH   3   4
HETATM    4  C8  UNL     1     -35.103   4.970   5.542  1.00 20.00    -0.012 C 
HETATM    5  C5  UNL     1     -34.512   3.588   5.825  1.00 20.00     0.010 C 
HETATM    6  C6  UNL     1     -34.409   6.037   6.392  1.00 20.00     0.010 C 
ENDBRANCH   3   4
ENDBRANCH   2   3
BRANCH   1   7
HETATM    7  C3  UNL     1     -31.899   7.668   2.931  1.00 20.00     0.198 C 
HETATM    8  C4  UNL     1     -31.974   8.294   1.570  1.00 20.00     0.106 C 
HETATM    9  O9  UNL     1     -30.962   7.823   3.703  1.00 20.00    -0.284 OA
ENDBRANCH   1   7
TORSDOF 3
ENDMDL
MODEL 2
REMARK VINA RESULT:      -5.0      1.448      1.878
REMARK  3 active torsions:
REMARK  status: ('A' for Active; 'I' for Inactive)
REMARK    1  A    between atoms: C1_1  and  C3_3 
REMARK    2  A    between atoms: C2_2  and  C7_7 
REMARK    3  A    between atoms: C7_7  and  C8_8 
ROOT
HETATM    1  C1  UNL     1     -32.343   7.674   2.393  1.00 20.00    -0.029 C 
HETATM    2  C2  UNL     1     -32.628   6.797   3.162  1.00 20.00    -0.098 C 
ENDROOT
BRANCH   2   3
HETATM    3  C7  UNL     1     -32.976   5.723   4.103  1.00 20.00     0.098 C 
BRANCH   3   4
HETATM    4  C8  UNL     1     -34.289   5.972   4.867  1.00 20.00    -0.012 C 
HETATM    5  C5  UNL     1     -35.223   4.761   4.828  1.00 20.00     0.010 C 
HETATM    6  C6  UNL     1     -34.046   6.418   6.310  1.00 20.00     0.010 C 
ENDBRANCH   3   4
ENDBRANCH   2   3
BRANCH   1   7
HETATM    7  C3  UNL     1     -32.007   8.727   1.464  1.00 20.00     0.198 C 
HETATM    8  C4  UNL     1     -32.643  10.062   1.716  1.00 20.00     0.106 C 
HETATM    9  O9  UNL     1     -31.242   8.499   0.536  1.00 20.00    -0.284 OA
ENDBRANCH   1   7
TORSDOF 3
ENDMDL
MODEL 3
REMARK VINA RESULT:      -4.8      2.020      5.242
REMARK  3 active torsions:
REMARK  status: ('A' for Active; 'I' for Inactive)
REMARK    1  A    between atoms: C1_1  and  C3_3 
REMARK    2  A    between atoms: C2_2  and  C7_7 
REMARK    3  A    between atoms: C7_7  and  C8_8 
ROOT
HETATM    1  C1  UNL     1     -33.655   6.234   4.078  1.00 20.00    -0.029 C 
HETATM    2  C2  UNL     1     -32.825   6.882   3.500  1.00 20.00    -0.098 C 
ENDROOT
BRANCH   2   3
HETATM    3  C7  UNL     1     -31.809   7.674   2.793  1.00 20.00     0.098 C 
BRANCH   3   4
HETATM    4  C8  UNL     1     -32.376   8.516   1.636  1.00 20.00    -0.012 C 
HETATM    5  C5  UNL     1     -32.706   9.947   2.067  1.00 20.00     0.010 C 
HETATM    6  C6  UNL     1     -31.455   8.520   0.414  1.00 20.00     0.010 C 
ENDBRANCH   3   4
ENDBRANCH   2   3
BRANCH   1   7
HETATM    7  C3  UNL     1     -34.648   5.457   4.779  1.00 20.00     0.198 C 
HETATM    8  C4  UNL     1     -34.487   5.362   6.267  1.00 20.00     0.106 C 
HETATM    9  O9  UNL     1     -35.555   4.922   4.156  1.00 20.00    -0.284 OA
ENDBRANCH   1   7
TORSDOF 3
ENDMDL
MODEL 4
REMARK VINA RESULT:      -4.4     11.152     11.814
REMARK  3 active torsions:
REMARK  status: ('A' for Active; 'I' for Inactive)
REMARK    1  A    between atoms: C1_1  and  C3_3 
REMARK    2  A    between atoms: C2_2  and  C7_7 
REMARK    3  A    between atoms: C7_7  and  C8_8 
ROOT
HETATM    1  C1  UNL     1     -34.367  14.801  -3.173  1.00 20.00    -0.029 C 
HETATM    2  C2  UNL     1     -34.747  15.719  -2.499  1.00 20.00    -0.098 C 
ENDROOT
BRANCH   2   3
HETATM    3  C7  UNL     1     -35.211  16.843  -1.674  1.00 20.00     0.098 C 
BRANCH   3   4
HETATM    4  C8  UNL     1     -34.348  17.090  -0.423  1.00 20.00    -0.012 C 
HETATM    5  C5  UNL     1     -33.242  18.117  -0.674  1.00 20.00     0.010 C 
HETATM    6  C6  UNL     1     -35.187  17.488   0.793  1.00 20.00     0.010 C 
ENDBRANCH   3   4
ENDBRANCH   2   3
BRANCH   1   7
HETATM    7  C3  UNL     1     -33.914  13.691  -3.978  1.00 20.00     0.198 C 
HETATM    8  C4  UNL     1     -34.778  13.323  -5.147  1.00 20.00     0.106 C 
HETATM    9  O9  UNL     1     -32.876  13.111  -3.687  1.00 20.00    -0.284 OA
ENDBRANCH   1   7
TORSDOF 3
ENDMDL
MODEL 5
REMARK VINA RESULT:      -4.3     11.627     12.412
REMARK  3 active torsions:
REMARK  status: ('A' for Active; 'I' for Inactive)
REMARK    1  A    between atoms: C1_1  and  C3_3 
REMARK    2  A    between atoms: C2_2  and  C7_7 
REMARK    3  A    between atoms: C7_7  and  C8_8 
ROOT
HETATM    1  C1  UNL     1     -34.767  14.719  -3.520  1.00 20.00    -0.029 C 
HETATM    2  C2  UNL     1     -34.755  15.447  -2.565  1.00 20.00    -0.098 C 
ENDROOT
BRANCH   2   3
HETATM    3  C7  UNL     1     -34.739  16.338  -1.396  1.00 20.00     0.098 C 
BRANCH   3   4
HETATM    4  C8  UNL     1     -33.611  17.384  -1.431  1.00 20.00    -0.012 C 
HETATM    5  C5  UNL     1     -33.732  18.330  -2.628  1.00 20.00     0.010 C 
HETATM    6  C6  UNL     1     -33.513  18.177  -0.125  1.00 20.00     0.010 C 
ENDBRANCH   3   4
ENDBRANCH   2   3
BRANCH   1   7
HETATM    7  C3  UNL     1     -34.785  13.838  -4.663  1.00 20.00     0.198 C 
HETATM    8  C4  UNL     1     -34.580  14.483  -6.001  1.00 20.00     0.106 C 
HETATM    9  O9  UNL     1     -34.961  12.637  -4.504  1.00 20.00    -0.284 OA
ENDBRANCH   1   7
TORSDOF 3
ENDMDL
MODEL 6
REMARK VINA RESULT:      -4.3      1.842      4.749
REMARK  3 active torsions:
REMARK  status: ('A' for Active; 'I' for Inactive)
REMARK    1  A    between atoms: C1_1  and  C3_3 
REMARK    2  A    between atoms: C2_2  and  C7_7 
REMARK    3  A    between atoms: C7_7  and  C8_8 
ROOT
HETATM    1  C1  UNL     1     -33.881   5.826   4.588  1.00 20.00    -0.029 C 
HETATM    2  C2  UNL     1     -33.352   6.127   3.553  1.00 20.00    -0.098 C 
ENDROOT
BRANCH   2   3
HETATM    3  C7  UNL     1     -32.704   6.494   2.286  1.00 20.00     0.098 C 
BRANCH   3   4
HETATM    4  C8  UNL     1     -31.749   7.696   2.405  1.00 20.00    -0.012 C 
HETATM    5  C5  UNL     1     -32.321   8.958   1.756  1.00 20.00     0.010 C 
HETATM    6  C6  UNL     1     -31.341   7.972   3.854  1.00 20.00     0.010 C 
ENDBRANCH   3   4
ENDBRANCH   2   3
BRANCH   1   7
HETATM    7  C3  UNL     1     -34.510   5.465   5.836  1.00 20.00     0.198 C 
HETATM    8  C4  UNL     1     -35.148   4.108   5.889  1.00 20.00     0.106 C 
HETATM    9  O9  UNL     1     -34.499   6.252   6.773  1.00 20.00    -0.284 OA
ENDBRANCH   1   7
TORSDOF 3
ENDMDL
MODEL 7
REMARK VINA RESULT:      -4.2     11.285     11.927
REMARK  3 active torsions:
REMARK  status: ('A' for Active; 'I' for Inactive)
REMARK    1  A    between atoms: C1_1  and  C3_3 
REMARK    2  A    between atoms: C2_2  and  C7_7 
REMARK    3  A    between atoms: C7_7  and  C8_8 
ROOT
HETATM    1  C1  UNL     1     -34.701  16.623  -1.130  1.00 20.00    -0.029 C 
HETATM    2  C2  UNL     1     -34.939  15.941  -2.090  1.00 20.00    -0.098 C 
ENDROOT
BRANCH   2   3
HETATM    3  C7  UNL     1     -35.229  15.106  -3.264  1.00 20.00     0.098 C 
BRANCH   3   4
HETATM    4  C8  UNL     1     -34.142  14.058  -3.562  1.00 20.00    -0.012 C 
HETATM    5  C5  UNL     1     -34.462  13.226  -4.805  1.00 20.00     0.010 C 
HETATM    6  C6  UNL     1     -32.748  14.682  -3.675  1.00 20.00     0.010 C 
ENDBRANCH   3   4
ENDBRANCH   2   3
BRANCH   1   7
HETATM    7  C3  UNL     1     -34.419  17.449   0.019  1.00 20.00     0.198 C 
HETATM    8  C4  UNL     1     -33.234  18.362  -0.096  1.00 20.00     0.106 C 
HETATM    9  O9  UNL     1     -35.131  17.377   1.011  1.00 20.00    -0.284 OA
ENDBRANCH   1   7
TORSDOF 3
ENDMDL
MODEL 8
REMARK VINA RESULT:      -4.1     11.580     12.356
REMARK  3 active torsions:
REMARK  status: ('A' for Active; 'I' for Inactive)
REMARK    1  A    between atoms: C1_1  and  C3_3 
REMARK    2  A    between atoms: C2_2  and  C7_7 
REMARK    3  A    between atoms: C7_7  and  C8_8 
ROOT
HETATM    1  C1  UNL     1     -33.883  16.086  -2.453  1.00 20.00    -0.029 C 
HETATM    2  C2  UNL     1     -34.312  16.531  -1.423  1.00 20.00    -0.098 C 
ENDROOT
BRANCH   2   3
HETATM    3  C7  UNL     1     -34.838  17.076  -0.164  1.00 20.00     0.098 C 
BRANCH   3   4
HETATM    4  C8  UNL     1     -34.134  18.366   0.293  1.00 20.00    -0.012 C 
HETATM    5  C5  UNL     1     -34.136  18.521   1.816  1.00 20.00     0.010 C 
HETATM    6  C6  UNL     1     -32.710  18.477  -0.258  1.00 20.00     0.010 C 
ENDBRANCH   3   4
ENDBRANCH   2   3
BRANCH   1   7
HETATM    7  C3  UNL     1     -33.359  15.549  -3.686  1.00 20.00     0.198 C 
HETATM    8  C4  UNL     1     -33.494  14.067  -3.874  1.00 20.00     0.106 C 
HETATM    9  O9  UNL     1     -32.843  16.297  -4.505  1.00 20.00    -0.284 OA
ENDBRANCH   1   7
TORSDOF 3
ENDMDL
MODEL 9
REMARK VINA RESULT:      -3.9     11.431     12.257
REMARK  3 active torsions:
REMARK  status: ('A' for Active; 'I' for Inactive)
REMARK    1  A    between atoms: C1_1  and  C3_3 
REMARK    2  A    between atoms: C2_2  and  C7_7 
REMARK    3  A    between atoms: C7_7  and  C8_8 
ROOT
HETATM    1  C1  UNL     1     -34.047  16.045  -2.298  1.00 20.00    -0.029 C 
HETATM    2  C2  UNL     1     -34.038  15.049  -2.968  1.00 20.00    -0.098 C 
ENDROOT
BRANCH   2   3
HETATM    3  C7  UNL     1     -34.027  13.829  -3.788  1.00 20.00     0.098 C 
BRANCH   3   4
HETATM    4  C8  UNL     1     -35.231  13.714  -4.741  1.00 20.00    -0.012 C 
HETATM    5  C5  UNL     1     -36.506  14.310  -4.140  1.00 20.00     0.010 C 
HETATM    6  C6  UNL     1     -34.946  14.325  -6.115  1.00 20.00     0.010 C 
ENDBRANCH   3   4
ENDBRANCH   2   3
BRANCH   1   7
HETATM    7  C3  UNL     1     -34.052  17.240  -1.488  1.00 20.00     0.198 C 
HETATM    8  C4  UNL     1     -34.742  17.138  -0.160  1.00 20.00     0.106 C 
HETATM    9  O9  UNL     1     -33.510  18.257  -1.899  1.00 20.00    -0.284 OA
ENDBRANCH   1   7
TORSDOF 3
ENDMDL
