MODEL 1
REMARK VINA RESULT:      -4.7      0.000      0.000
REMARK  2 active torsions:
REMARK  status: ('A' for Active; 'I' for Inactive)
REMARK    1  A    between atoms: C3_3  and  C8_8 
REMARK    2  A    between atoms: C8_8  and  C10_10 
ROOT
HETATM    1  C1  UNL     1     -33.786  16.572  -2.256  1.00 20.00    -0.026 C 
HETATM    2  C2  UNL     1     -34.898  15.825  -2.175  1.00 20.00    -0.024 C 
HETATM    3  C4  UNL     1     -35.210  17.285  -3.924  1.00 20.00     0.018 C 
HETATM    4  C5  UNL     1     -33.374  15.932  -4.616  1.00 20.00     0.025 C 
HETATM    5  C6  UNL     1     -33.712  17.106  -3.665  1.00 20.00     0.010 C 
HETATM    6  C7  UNL     1     -35.549  15.837  -3.544  1.00 20.00     0.024 C 
HETATM    7  C8  UNL     1     -34.654  15.035  -4.536  1.00 20.00     0.020 C 
ENDROOT
BRANCH   7   8
HETATM    8  C3  UNL     1     -34.333  13.656  -4.020  1.00 20.00     0.241 C 
HETATM    9  O11 UNL     1     -34.964  12.653  -4.335  1.00 20.00    -0.306 OA
ENDBRANCH   7   8
BRANCH   7  10
HETATM   10  C10 UNL     1     -35.313  14.852  -5.906  1.00 20.00     0.013 C 
HETATM   11  C9  UNL     1     -34.353  15.113  -7.016  1.00 20.00     0.006 C 
ENDBRANCH   7  10
TORSDOF 2
ENDMDL
MODEL 2
REMARK VINA RESULT:      -4.6      1.115      3.300
REMARK  2 active torsions:
REMARK  status: ('A' for Active; 'I' for Inactive)
REMARK    1  A    between atoms: C3_3  and  C8_8 
REMARK    2  A    between atoms: C8_8  and  C10_10 
ROOT
HETATM    1  C1  UNL     1     -35.980  15.064  -7.004  1.00 20.00    -0.026 C 
HETATM    2  C2  UNL     1     -34.661  14.821  -7.062  1.00 20.00    -0.024 C 
HETATM    3  C4  UNL     1     -34.913  16.838  -5.987  1.00 20.00     0.018 C 
HETATM    4  C5  UNL     1     -35.961  15.269  -4.532  1.00 20.00     0.025 C 
HETATM    5  C6  UNL     1     -36.203  16.025  -5.862  1.00 20.00     0.010 C 
HETATM    6  C7  UNL     1     -34.009  15.598  -5.936  1.00 20.00     0.024 C 
HETATM    7  C8  UNL     1     -34.427  14.962  -4.576  1.00 20.00     0.020 C 
ENDROOT
BRANCH   7   8
HETATM    8  C3  UNL     1     -34.157  13.481  -4.537  1.00 20.00     0.241 C 
HETATM    9  O11 UNL     1     -35.029  12.640  -4.344  1.00 20.00    -0.306 OA
ENDBRANCH   7   8
BRANCH   7  10
HETATM   10  C10 UNL     1     -33.685  15.579  -3.387  1.00 20.00     0.013 C 
HETATM   11  C9  UNL     1     -34.613  15.888  -2.261  1.00 20.00     0.006 C 
ENDBRANCH   7  10
TORSDOF 2
ENDMDL
MODEL 3
REMARK VINA RESULT:      -4.5      1.921      3.731
REMARK  2 active torsions:
REMARK  status: ('A' for Active; 'I' for Inactive)
REMARK    1  A    between atoms: C3_3  and  C8_8 
REMARK    2  A    between atoms: C8_8  and  C10_10 
ROOT
HETATM    1  C1  UNL     1     -34.782  13.507  -5.507  1.00 20.00    -0.026 C 
HETATM    2  C2  UNL     1     -35.110  14.705  -6.013  1.00 20.00    -0.024 C 
HETATM    3  C4  UNL     1     -36.386  14.417  -4.121  1.00 20.00     0.018 C 
HETATM    4  C5  UNL     1     -34.144  14.468  -3.311  1.00 20.00     0.025 C 
HETATM    5  C6  UNL     1     -35.139  13.532  -4.041  1.00 20.00     0.010 C 
HETATM    6  C7  UNL     1     -35.659  15.541  -4.874  1.00 20.00     0.024 C 
HETATM    7  C8  UNL     1     -34.498  15.878  -3.890  1.00 20.00     0.020 C 
ENDROOT
BRANCH   7   8
HETATM    8  C3  UNL     1     -33.321  16.498  -4.596  1.00 20.00     0.241 C 
HETATM    9  O11 UNL     1     -33.323  17.644  -5.035  1.00 20.00    -0.306 OA
ENDBRANCH   7   8
BRANCH   7  10
HETATM   10  C10 UNL     1     -34.924  16.858  -2.793  1.00 20.00     0.013 C 
HETATM   11  C9  UNL     1     -34.546  16.363  -1.438  1.00 20.00     0.006 C 
ENDBRANCH   7  10
TORSDOF 2
ENDMDL
MODEL 4
REMARK VINA RESULT:      -4.4      1.812      3.638
REMARK  2 active torsions:
REMARK  status: ('A' for Active; 'I' for Inactive)
REMARK    1  A    between atoms: C3_3  and  C8_8 
REMARK    2  A    between atoms: C8_8  and  C10_10 
ROOT
HETATM    1  C1  UNL     1     -34.176  15.206  -5.452  1.00 20.00    -0.026 C 
HETATM    2  C2  UNL     1     -34.915  14.420  -4.655  1.00 20.00    -0.024 C 
HETATM    3  C4  UNL     1     -32.953  14.838  -3.531  1.00 20.00     0.018 C 
HETATM    4  C5  UNL     1     -33.978  16.981  -3.731  1.00 20.00     0.025 C 
HETATM    5  C6  UNL     1     -33.196  15.938  -4.567  1.00 20.00     0.010 C 
HETATM    6  C7  UNL     1     -34.447  14.653  -3.232  1.00 20.00     0.024 C 
HETATM    7  C8  UNL     1     -34.860  16.090  -2.794  1.00 20.00     0.020 C 
ENDROOT
BRANCH   7   8
HETATM    8  C3  UNL     1     -36.329  16.347  -3.007  1.00 20.00     0.241 C 
HETATM    9  O11 UNL     1     -36.762  17.303  -3.644  1.00 20.00    -0.306 OA
ENDBRANCH   7   8
BRANCH   7  10
HETATM   10  C10 UNL     1     -34.575  16.358  -1.313  1.00 20.00     0.013 C 
HETATM   11  C9  UNL     1     -33.662  17.523  -1.132  1.00 20.00     0.006 C 
ENDBRANCH   7  10
TORSDOF 2
ENDMDL
MODEL 5
REMARK VINA RESULT:      -4.4      1.407      1.996
REMARK  2 active torsions:
REMARK  status: ('A' for Active; 'I' for Inactive)
REMARK    1  A    between atoms: C3_3  and  C8_8 
REMARK    2  A    between atoms: C8_8  and  C10_10 
ROOT
HETATM    1  C1  UNL     1     -34.531  15.931  -2.368  1.00 20.00    -0.026 C 
HETATM    2  C2  UNL     1     -35.140  16.701  -3.282  1.00 20.00    -0.024 C 
HETATM    3  C4  UNL     1     -33.307  15.773  -4.316  1.00 20.00     0.018 C 
HETATM    4  C5  UNL     1     -34.686  13.902  -3.786  1.00 20.00     0.025 C 
HETATM    5  C6  UNL     1     -33.716  14.909  -3.120  1.00 20.00     0.010 C 
HETATM    6  C7  UNL     1     -34.752  16.170  -4.648  1.00 20.00     0.024 C 
HETATM    7  C8  UNL     1     -35.420  14.778  -4.856  1.00 20.00     0.020 C 
ENDROOT
BRANCH   7   8
HETATM    8  C3  UNL     1     -36.906  14.821  -4.613  1.00 20.00     0.241 C 
HETATM    9  O11 UNL     1     -37.478  14.106  -3.797  1.00 20.00    -0.306 OA
ENDBRANCH   7   8
BRANCH   7  10
HETATM   10  C10 UNL     1     -35.219  14.236  -6.275  1.00 20.00     0.013 C 
HETATM   11  C9  UNL     1     -35.992  15.024  -7.278  1.00 20.00     0.006 C 
ENDBRANCH   7  10
TORSDOF 2
ENDMDL
MODEL 6
REMARK VINA RESULT:      -4.4      1.795      3.272
REMARK  2 active torsions:
REMARK  status: ('A' for Active; 'I' for Inactive)
REMARK    1  A    between atoms: C3_3  and  C8_8 
REMARK    2  A    between atoms: C8_8  and  C10_10 
ROOT
HETATM    1  C1  UNL     1     -35.680  16.863  -6.775  1.00 20.00    -0.026 C 
HETATM    2  C2  UNL     1     -36.527  15.823  -6.819  1.00 20.00    -0.024 C 
HETATM    3  C4  UNL     1     -34.420  14.972  -7.171  1.00 20.00     0.018 C 
HETATM    4  C5  UNL     1     -34.330  15.850  -4.957  1.00 20.00     0.025 C 
HETATM    5  C6  UNL     1     -34.317  16.311  -6.436  1.00 20.00     0.010 C 
HETATM    6  C7  UNL     1     -35.732  14.579  -6.477  1.00 20.00     0.024 C 
HETATM    7  C8  UNL     1     -35.321  14.639  -4.975  1.00 20.00     0.020 C 
ENDROOT
BRANCH   7   8
HETATM    8  C3  UNL     1     -36.505  14.879  -4.074  1.00 20.00     0.241 C 
HETATM    9  O11 UNL     1     -37.329  14.013  -3.797  1.00 20.00    -0.306 OA
ENDBRANCH   7   8
BRANCH   7  10
HETATM   10  C10 UNL     1     -34.655  13.346  -4.495  1.00 20.00     0.013 C 
HETATM   11  C9  UNL     1     -33.369  13.619  -3.792  1.00 20.00     0.006 C 
ENDBRANCH   7  10
TORSDOF 2
ENDMDL
MODEL 7
REMARK VINA RESULT:      -4.3      1.610      2.441
REMARK  2 active torsions:
REMARK  status: ('A' for Active; 'I' for Inactive)
REMARK    1  A    between atoms: C3_3  and  C8_8 
REMARK    2  A    between atoms: C8_8  and  C10_10 
ROOT
HETATM    1  C1  UNL     1     -32.617  14.780  -3.742  1.00 20.00    -0.026 C 
HETATM    2  C2  UNL     1     -33.502  13.772  -3.729  1.00 20.00    -0.024 C 
HETATM    3  C4  UNL     1     -34.485  15.527  -2.614  1.00 20.00     0.018 C 
HETATM    4  C5  UNL     1     -34.208  16.334  -4.840  1.00 20.00     0.025 C 
HETATM    5  C6  UNL     1     -33.396  16.057  -3.550  1.00 20.00     0.010 C 
HETATM    6  C7  UNL     1     -34.879  14.384  -3.560  1.00 20.00     0.024 C 
HETATM    7  C8  UNL     1     -35.248  15.164  -4.857  1.00 20.00     0.020 C 
ENDROOT
BRANCH   7   8
HETATM    8  C3  UNL     1     -35.102  14.312  -6.091  1.00 20.00     0.241 C 
HETATM    9  O11 UNL     1     -34.455  14.654  -7.076  1.00 20.00    -0.306 OA
ENDBRANCH   7   8
BRANCH   7  10
HETATM   10  C10 UNL     1     -36.690  15.679  -4.843  1.00 20.00     0.013 C 
HETATM   11  C9  UNL     1     -37.608  14.722  -4.162  1.00 20.00     0.006 C 
ENDBRANCH   7  10
TORSDOF 2
ENDMDL
MODEL 8
REMARK VINA RESULT:      -4.3      1.514      2.499
REMARK  2 active torsions:
REMARK  status: ('A' for Active; 'I' for Inactive)
REMARK    1  A    between atoms: C3_3  and  C8_8 
REMARK    2  A    between atoms: C8_8  and  C10_10 
ROOT
HETATM    1  C1  UNL     1     -33.338  13.772  -3.726  1.00 20.00    -0.026 C 
HETATM    2  C2  UNL     1     -34.634  13.510  -3.953  1.00 20.00    -0.024 C 
HETATM    3  C4  UNL     1     -34.556  15.489  -2.782  1.00 20.00     0.018 C 
HETATM    4  C5  UNL     1     -33.459  15.985  -4.840  1.00 20.00     0.025 C 
HETATM    5  C6  UNL     1     -33.220  15.258  -3.493  1.00 20.00     0.010 C 
HETATM    6  C7  UNL     1     -35.377  14.831  -3.901  1.00 20.00     0.024 C 
HETATM    7  C8  UNL     1     -34.967  15.689  -5.136  1.00 20.00     0.020 C 
ENDROOT
BRANCH   7   8
HETATM    8  C3  UNL     1     -35.140  14.937  -6.430  1.00 20.00     0.241 C 
HETATM    9  O11 UNL     1     -34.258  14.839  -7.277  1.00 20.00    -0.306 OA
ENDBRANCH   7   8
BRANCH   7  10
HETATM   10  C10 UNL     1     -35.790  16.974  -5.257  1.00 20.00     0.013 C 
HETATM   11  C9  UNL     1     -34.921  18.164  -5.487  1.00 20.00     0.006 C 
ENDBRANCH   7  10
TORSDOF 2
ENDMDL
MODEL 9
REMARK VINA RESULT:      -4.3      1.996      2.784
REMARK  2 active torsions:
REMARK  status: ('A' for Active; 'I' for Inactive)
REMARK    1  A    between atoms: C3_3  and  C8_8 
REMARK    2  A    between atoms: C8_8  and  C10_10 
ROOT
HETATM    1  C1  UNL     1     -34.793  15.630  -2.544  1.00 20.00    -0.026 C 
HETATM    2  C2  UNL     1     -33.556  15.489  -3.043  1.00 20.00    -0.024 C 
HETATM    3  C4  UNL     1     -34.787  13.708  -3.820  1.00 20.00     0.018 C 
HETATM    4  C5  UNL     1     -35.839  15.613  -4.793  1.00 20.00     0.025 C 
HETATM    5  C6  UNL     1     -35.726  14.858  -3.445  1.00 20.00     0.010 C 
HETATM    6  C7  UNL     1     -33.669  14.646  -4.298  1.00 20.00     0.024 C 
HETATM    7  C8  UNL     1     -34.402  15.473  -5.397  1.00 20.00     0.020 C 
ENDROOT
BRANCH   7   8
HETATM    8  C3  UNL     1     -33.760  16.818  -5.616  1.00 20.00     0.241 C 
HETATM    9  O11 UNL     1     -34.362  17.880  -5.501  1.00 20.00    -0.306 OA
ENDBRANCH   7   8
BRANCH   7  10
HETATM   10  C10 UNL     1     -34.417  14.763  -6.754  1.00 20.00     0.013 C 
HETATM   11  C9  UNL     1     -35.781  14.762  -7.358  1.00 20.00     0.006 C 
ENDBRANCH   7  10
TORSDOF 2
ENDMDL
