MODEL 1
REMARK VINA RESULT:      -4.7      0.000      0.000
REMARK  1 active torsions:
REMARK  status: ('A' for Active; 'I' for Inactive)
REMARK    1  A    between atoms: C1_1  and  C7_7 
ROOT
HETATM    1  C2  UNL     1     -33.937  16.677  -2.404  1.00 20.00     0.004 C 
HETATM    2  C3  UNL     1     -33.838  17.552  -3.647  1.00 20.00     0.037 C 
HETATM    3  C4  UNL     1     -34.742  15.404  -2.674  1.00 20.00     0.016 C 
HETATM    4  C5  UNL     1     -34.090  15.519  -5.117  1.00 20.00     0.053 C 
HETATM    5  C6  UNL     1     -33.283  16.781  -4.835  1.00 20.00     0.171 C 
HETATM    6  C7  UNL     1     -34.229  14.603  -3.887  1.00 20.00     0.012 C 
HETATM    7  C8  UNL     1     -32.906  13.891  -3.568  1.00 20.00     0.023 C 
HETATM    8  F10 UNL     1     -33.338  17.582  -5.933  1.00 20.00    -0.249 F 
ENDROOT
BRANCH   6   9
HETATM    9  C1  UNL     1     -35.235  13.529  -4.206  1.00 20.00     0.240 C 
HETATM   10  O9  UNL     1     -34.953  12.492  -4.798  1.00 20.00    -0.306 OA
ENDBRANCH   6   9
TORSDOF 1
ENDMDL
MODEL 2
REMARK VINA RESULT:      -4.5      1.963      2.718
REMARK  1 active torsions:
REMARK  status: ('A' for Active; 'I' for Inactive)
REMARK    1  A    between atoms: C1_1  and  C7_7 
ROOT
HETATM    1  C2  UNL     1     -33.664  17.219  -4.376  1.00 20.00     0.004 C 
HETATM    2  C3  UNL     1     -33.658  17.030  -2.865  1.00 20.00     0.037 C 
HETATM    3  C4  UNL     1     -33.767  15.881  -5.111  1.00 20.00     0.016 C 
HETATM    4  C5  UNL     1     -34.960  14.885  -3.112  1.00 20.00     0.053 C 
HETATM    5  C6  UNL     1     -34.860  16.225  -2.394  1.00 20.00     0.171 C 
HETATM    6  C7  UNL     1     -34.958  15.020  -4.646  1.00 20.00     0.012 C 
HETATM    7  C8  UNL     1     -36.290  15.586  -5.159  1.00 20.00     0.023 C 
HETATM    8  F10 UNL     1     -34.726  15.991  -1.060  1.00 20.00    -0.249 F 
ENDROOT
BRANCH   6   9
HETATM    9  C1  UNL     1     -34.811  13.645  -5.244  1.00 20.00     0.240 C 
HETATM   10  O9  UNL     1     -34.866  12.612  -4.586  1.00 20.00    -0.306 OA
ENDBRANCH   6   9
TORSDOF 1
ENDMDL
MODEL 3
REMARK VINA RESULT:      -4.4      1.710      2.404
REMARK  1 active torsions:
REMARK  status: ('A' for Active; 'I' for Inactive)
REMARK    1  A    between atoms: C1_1  and  C7_7 
ROOT
HETATM    1  C2  UNL     1     -33.417  13.792  -3.841  1.00 20.00     0.004 C 
HETATM    2  C3  UNL     1     -32.879  15.207  -3.676  1.00 20.00     0.037 C 
HETATM    3  C4  UNL     1     -34.946  13.769  -3.864  1.00 20.00     0.016 C 
HETATM    4  C5  UNL     1     -34.961  16.140  -4.751  1.00 20.00     0.053 C 
HETATM    5  C6  UNL     1     -33.436  16.148  -4.733  1.00 20.00     0.171 C 
HETATM    6  C7  UNL     1     -35.555  14.728  -4.905  1.00 20.00     0.012 C 
HETATM    7  C8  UNL     1     -35.367  14.196  -6.333  1.00 20.00     0.023 C 
HETATM    8  F10 UNL     1     -33.015  17.411  -4.452  1.00 20.00    -0.249 F 
ENDROOT
BRANCH   6   9
HETATM    9  C1  UNL     1     -37.040  14.810  -4.664  1.00 20.00     0.240 C 
HETATM   10  O9  UNL     1     -37.624  14.148  -3.812  1.00 20.00    -0.306 OA
ENDBRANCH   6   9
TORSDOF 1
ENDMDL
MODEL 4
REMARK VINA RESULT:      -4.3     12.066     13.365
REMARK  1 active torsions:
REMARK  status: ('A' for Active; 'I' for Inactive)
REMARK    1  A    between atoms: C1_1  and  C7_7 
ROOT
HETATM    1  C2  UNL     1     -42.646   6.793  -1.938  1.00 20.00     0.004 C 
HETATM    2  C3  UNL     1     -41.473   7.166  -1.040  1.00 20.00     0.037 C 
HETATM    3  C4  UNL     1     -42.376   5.500  -2.709  1.00 20.00     0.016 C 
HETATM    4  C5  UNL     1     -40.811   4.738  -0.871  1.00 20.00     0.053 C 
HETATM    5  C6  UNL     1     -41.095   6.026  -0.107  1.00 20.00     0.171 C 
HETATM    6  C7  UNL     1     -41.965   4.323  -1.803  1.00 20.00     0.012 C 
HETATM    7  C8  UNL     1     -43.162   3.786  -1.006  1.00 20.00     0.023 C 
HETATM    8  F10 UNL     1     -39.971   6.380   0.573  1.00 20.00    -0.249 F 
ENDROOT
BRANCH   6   9
HETATM    9  C1  UNL     1     -41.485   3.195  -2.679  1.00 20.00     0.240 C 
HETATM   10  O9  UNL     1     -42.167   2.213  -2.952  1.00 20.00    -0.306 OA
ENDBRANCH   6   9
TORSDOF 1
ENDMDL
MODEL 5
REMARK VINA RESULT:      -4.3      2.601      3.764
REMARK  1 active torsions:
REMARK  status: ('A' for Active; 'I' for Inactive)
REMARK    1  A    between atoms: C1_1  and  C7_7 
ROOT
HETATM    1  C2  UNL     1     -33.818  13.710  -3.643  1.00 20.00     0.004 C 
HETATM    2  C3  UNL     1     -35.181  13.530  -4.299  1.00 20.00     0.037 C 
HETATM    3  C4  UNL     1     -33.297  15.139  -3.809  1.00 20.00     0.016 C 
HETATM    4  C5  UNL     1     -35.680  15.980  -3.972  1.00 20.00     0.053 C 
HETATM    5  C6  UNL     1     -36.187  14.553  -3.797  1.00 20.00     0.171 C 
HETATM    6  C7  UNL     1     -34.297  16.212  -3.335  1.00 20.00     0.012 C 
HETATM    7  C8  UNL     1     -34.389  16.253  -1.803  1.00 20.00     0.023 C 
HETATM    8  F10 UNL     1     -37.337  14.414  -4.510  1.00 20.00    -0.249 F 
ENDROOT
BRANCH   6   9
HETATM    9  C1  UNL     1     -33.791  17.560  -3.776  1.00 20.00     0.240 C 
HETATM   10  O9  UNL     1     -33.355  17.784  -4.901  1.00 20.00    -0.306 OA
ENDBRANCH   6   9
TORSDOF 1
ENDMDL
MODEL 6
REMARK VINA RESULT:      -4.2      1.974      2.485
REMARK  1 active torsions:
REMARK  status: ('A' for Active; 'I' for Inactive)
REMARK    1  A    between atoms: C1_1  and  C7_7 
ROOT
HETATM    1  C2  UNL     1     -33.683  16.133  -2.550  1.00 20.00     0.004 C 
HETATM    2  C3  UNL     1     -35.081  16.497  -2.069  1.00 20.00     0.037 C 
HETATM    3  C4  UNL     1     -33.696  14.873  -3.418  1.00 20.00     0.016 C 
HETATM    4  C5  UNL     1     -36.087  15.369  -4.088  1.00 20.00     0.053 C 
HETATM    5  C6  UNL     1     -36.059  16.627  -3.227  1.00 20.00     0.171 C 
HETATM    6  C7  UNL     1     -34.693  14.952  -4.591  1.00 20.00     0.012 C 
HETATM    7  C8  UNL     1     -34.189  15.898  -5.691  1.00 20.00     0.023 C 
HETATM    8  F10 UNL     1     -37.305  16.830  -2.720  1.00 20.00    -0.249 F 
ENDROOT
BRANCH   6   9
HETATM    9  C1  UNL     1     -34.803  13.583  -5.212  1.00 20.00     0.240 C 
HETATM   10  O9  UNL     1     -34.942  12.554  -4.560  1.00 20.00    -0.306 OA
ENDBRANCH   6   9
TORSDOF 1
ENDMDL
MODEL 7
REMARK VINA RESULT:      -4.2     12.138     13.250
REMARK  1 active torsions:
REMARK  status: ('A' for Active; 'I' for Inactive)
REMARK    1  A    between atoms: C1_1  and  C7_7 
ROOT
HETATM    1  C2  UNL     1     -34.238   6.391   6.463  1.00 20.00     0.004 C 
HETATM    2  C3  UNL     1     -34.662   4.941   6.270  1.00 20.00     0.037 C 
HETATM    3  C4  UNL     1     -33.135   6.790   5.481  1.00 20.00     0.016 C 
HETATM    4  C5  UNL     1     -33.967   5.044   3.848  1.00 20.00     0.053 C 
HETATM    5  C6  UNL     1     -35.068   4.660   4.831  1.00 20.00     0.171 C 
HETATM    6  C7  UNL     1     -33.494   6.500   4.010  1.00 20.00     0.012 C 
HETATM    7  C8  UNL     1     -34.543   7.490   3.484  1.00 20.00     0.023 C 
HETATM    8  F10 UNL     1     -35.314   3.328   4.703  1.00 20.00    -0.249 F 
ENDROOT
BRANCH   6   9
HETATM    9  C1  UNL     1     -32.256   6.693   3.173  1.00 20.00     0.240 C 
HETATM   10  O9  UNL     1     -32.086   7.653   2.428  1.00 20.00    -0.306 OA
ENDBRANCH   6   9
TORSDOF 1
ENDMDL
MODEL 8
REMARK VINA RESULT:      -4.2     11.748     12.919
REMARK  1 active torsions:
REMARK  status: ('A' for Active; 'I' for Inactive)
REMARK    1  A    between atoms: C1_1  and  C7_7 
ROOT
HETATM    1  C2  UNL     1     -34.939   4.499   4.097  1.00 20.00     0.004 C 
HETATM    2  C3  UNL     1     -35.167   5.137   5.462  1.00 20.00     0.037 C 
HETATM    3  C4  UNL     1     -34.501   5.534   3.058  1.00 20.00     0.016 C 
HETATM    4  C5  UNL     1     -33.515   6.959   4.904  1.00 20.00     0.053 C 
HETATM    5  C6  UNL     1     -33.948   5.917   5.929  1.00 20.00     0.171 C 
HETATM    6  C7  UNL     1     -33.282   6.366   3.502  1.00 20.00     0.012 C 
HETATM    7  C8  UNL     1     -31.991   5.536   3.455  1.00 20.00     0.023 C 
HETATM    8  F10 UNL     1     -34.263   6.557   7.088  1.00 20.00    -0.249 F 
ENDROOT
BRANCH   6   9
HETATM    9  C1  UNL     1     -33.104   7.503   2.529  1.00 20.00     0.240 C 
HETATM   10  O9  UNL     1     -32.008   7.939   2.192  1.00 20.00    -0.306 OA
ENDBRANCH   6   9
TORSDOF 1
ENDMDL
MODEL 9
REMARK VINA RESULT:      -4.1      2.594      3.732
REMARK  1 active torsions:
REMARK  status: ('A' for Active; 'I' for Inactive)
REMARK    1  A    between atoms: C1_1  and  C7_7 
ROOT
HETATM    1  C2  UNL     1     -36.224  14.635  -4.180  1.00 20.00     0.004 C 
HETATM    2  C3  UNL     1     -35.216  13.493  -4.170  1.00 20.00     0.037 C 
HETATM    3  C4  UNL     1     -35.970  15.620  -3.038  1.00 20.00     0.016 C 
HETATM    4  C5  UNL     1     -33.521  14.978  -3.039  1.00 20.00     0.053 C 
HETATM    5  C6  UNL     1     -33.784  14.006  -4.183  1.00 20.00     0.171 C 
HETATM    6  C7  UNL     1     -34.522  16.148  -2.998  1.00 20.00     0.012 C 
HETATM    7  C8  UNL     1     -34.260  17.148  -4.133  1.00 20.00     0.023 C 
HETATM    8  F10 UNL     1     -32.944  12.944  -4.049  1.00 20.00    -0.249 F 
ENDROOT
BRANCH   6   9
HETATM    9  C1  UNL     1     -34.325  16.896  -1.705  1.00 20.00     0.240 C 
HETATM   10  O9  UNL     1     -34.710  16.479  -0.617  1.00 20.00    -0.306 OA
ENDBRANCH   6   9
TORSDOF 1
ENDMDL
