MODEL 1
REMARK VINA RESULT:      -4.5      0.000      0.000
REMARK  2 active torsions:
REMARK  status: ('A' for Active; 'I' for Inactive)
REMARK    1  A    between atoms: C1_1  and  N9_9 
REMARK    2  A    between atoms: C4_4  and  C8_8 
ROOT
HETATM    1  C2  UNL     1     -33.633  16.865  -3.536  1.00 20.00     0.031 C 
HETATM    2  C3  UNL     1     -34.997  14.963  -3.071  1.00 20.00     0.130 C 
HETATM    3  C4  UNL     1     -34.026  15.923  -2.393  1.00 20.00     0.005 C 
HETATM    4  C5  UNL     1     -33.575  15.941  -4.761  1.00 20.00     0.083 C 
HETATM    5  C6  UNL     1     -33.962  16.676  -6.037  1.00 20.00     0.032 C 
HETATM    6  N9  UNL     1     -34.480  14.842  -4.423  1.00 20.00    -0.355 N 
ENDROOT
BRANCH   3   7
HETATM    7  C8  UNL     1     -34.630  16.647  -1.201  1.00 20.00     0.002 C 
HETATM    8  C7  UNL     1     -33.716  17.703  -0.665  1.00 20.00     0.005 C 
ENDBRANCH   3   7
BRANCH   6   9
HETATM    9  C1  UNL     1     -34.712  13.745  -5.220  1.00 20.00     0.351 C 
HETATM   10  O10 UNL     1     -34.762  12.572  -4.867  1.00 20.00    -0.284 OA
ENDBRANCH   6   9
TORSDOF 2
ENDMDL
MODEL 2
REMARK VINA RESULT:      -4.4      1.931      2.203
REMARK  2 active torsions:
REMARK  status: ('A' for Active; 'I' for Inactive)
REMARK    1  A    between atoms: C1_1  and  N9_9 
REMARK    2  A    between atoms: C4_4  and  C8_8 
ROOT
HETATM    1  C2  UNL     1     -33.847  15.118  -3.129  1.00 20.00     0.031 C 
HETATM    2  C3  UNL     1     -35.971  16.161  -2.821  1.00 20.00     0.130 C 
HETATM    3  C4  UNL     1     -34.693  15.820  -2.062  1.00 20.00     0.005 C 
HETATM    4  C5  UNL     1     -34.878  14.321  -3.941  1.00 20.00     0.083 C 
HETATM    5  C6  UNL     1     -34.464  14.191  -5.400  1.00 20.00     0.032 C 
HETATM    6  N9  UNL     1     -36.128  15.057  -3.752  1.00 20.00    -0.355 N 
ENDROOT
BRANCH   3   7
HETATM    7  C8  UNL     1     -34.010  17.035  -1.459  1.00 20.00     0.002 C 
HETATM    8  C7  UNL     1     -34.517  17.340  -0.085  1.00 20.00     0.005 C 
ENDBRANCH   3   7
BRANCH   6   9
HETATM    9  C1  UNL     1     -37.346  14.679  -4.270  1.00 20.00     0.351 C 
HETATM   10  O10 UNL     1     -38.306  14.234  -3.651  1.00 20.00    -0.284 OA
ENDBRANCH   6   9
TORSDOF 2
ENDMDL
MODEL 3
REMARK VINA RESULT:      -4.3      1.383      1.982
REMARK  2 active torsions:
REMARK  status: ('A' for Active; 'I' for Inactive)
REMARK    1  A    between atoms: C1_1  and  N9_9 
REMARK    2  A    between atoms: C4_4  and  C8_8 
ROOT
HETATM    1  C2  UNL     1     -35.858  16.556  -2.824  1.00 20.00     0.031 C 
HETATM    2  C3  UNL     1     -33.984  15.113  -3.146  1.00 20.00     0.130 C 
HETATM    3  C4  UNL     1     -34.326  16.558  -2.796  1.00 20.00     0.005 C 
HETATM    4  C5  UNL     1     -36.197  15.606  -3.981  1.00 20.00     0.083 C 
HETATM    5  C6  UNL     1     -37.505  14.867  -3.734  1.00 20.00     0.032 C 
HETATM    6  N9  UNL     1     -35.034  14.721  -4.069  1.00 20.00    -0.355 N 
ENDROOT
BRANCH   3   7
HETATM    7  C8  UNL     1     -33.751  17.006  -1.463  1.00 20.00     0.002 C 
HETATM    8  C7  UNL     1     -34.760  16.928  -0.362  1.00 20.00     0.005 C 
ENDBRANCH   3   7
BRANCH   6   9
HETATM    9  C1  UNL     1     -34.877  13.725  -5.006  1.00 20.00     0.351 C 
HETATM   10  O10 UNL     1     -34.783  12.521  -4.795  1.00 20.00    -0.284 OA
ENDBRANCH   6   9
TORSDOF 2
ENDMDL
MODEL 4
REMARK VINA RESULT:      -4.0     11.741     12.664
REMARK  2 active torsions:
REMARK  status: ('A' for Active; 'I' for Inactive)
REMARK    1  A    between atoms: C1_1  and  N9_9 
REMARK    2  A    between atoms: C4_4  and  C8_8 
ROOT
HETATM    1  C2  UNL     1     -33.702   6.194   2.789  1.00 20.00     0.031 C 
HETATM    2  C3  UNL     1     -33.058   6.618   5.047  1.00 20.00     0.130 C 
HETATM    3  C4  UNL     1     -32.460   6.411   3.660  1.00 20.00     0.005 C 
HETATM    4  C5  UNL     1     -34.647   5.396   3.698  1.00 20.00     0.083 C 
HETATM    5  C6  UNL     1     -36.107   5.713   3.406  1.00 20.00     0.032 C 
HETATM    6  N9  UNL     1     -34.230   5.759   5.053  1.00 20.00    -0.355 N 
ENDROOT
BRANCH   3   7
HETATM    7  C8  UNL     1     -31.598   7.572   3.197  1.00 20.00     0.002 C 
HETATM    8  C7  UNL     1     -32.159   8.237   1.979  1.00 20.00     0.005 C 
ENDBRANCH   3   7
BRANCH   6   9
HETATM    9  C1  UNL     1     -34.778   5.245   6.206  1.00 20.00     0.351 C 
HETATM   10  O10 UNL     1     -35.213   4.112   6.375  1.00 20.00    -0.284 OA
ENDBRANCH   6   9
TORSDOF 2
ENDMDL
MODEL 5
REMARK VINA RESULT:      -4.0      1.552      2.402
REMARK  2 active torsions:
REMARK  status: ('A' for Active; 'I' for Inactive)
REMARK    1  A    between atoms: C1_1  and  N9_9 
REMARK    2  A    between atoms: C4_4  and  C8_8 
ROOT
HETATM    1  C2  UNL     1     -34.881  14.927  -3.107  1.00 20.00     0.031 C 
HETATM    2  C3  UNL     1     -33.615  16.534  -4.336  1.00 20.00     0.130 C 
HETATM    3  C4  UNL     1     -34.484  16.407  -3.089  1.00 20.00     0.005 C 
HETATM    4  C5  UNL     1     -35.066  14.620  -4.599  1.00 20.00     0.083 C 
HETATM    5  C6  UNL     1     -34.706  13.177  -4.924  1.00 20.00     0.032 C 
HETATM    6  N9  UNL     1     -34.214  15.601  -5.274  1.00 20.00    -0.355 N 
ENDROOT
BRANCH   3   7
HETATM    7  C8  UNL     1     -33.770  16.821  -1.814  1.00 20.00     0.002 C 
HETATM    8  C7  UNL     1     -34.666  16.742  -0.618  1.00 20.00     0.005 C 
ENDBRANCH   3   7
BRANCH   6   9
HETATM    9  C1  UNL     1     -34.096  15.729  -6.639  1.00 20.00     0.351 C 
HETATM   10  O10 UNL     1     -35.002  15.703  -7.464  1.00 20.00    -0.284 OA
ENDBRANCH   6   9
TORSDOF 2
ENDMDL
MODEL 6
REMARK VINA RESULT:      -4.0      2.024      3.094
REMARK  2 active torsions:
REMARK  status: ('A' for Active; 'I' for Inactive)
REMARK    1  A    between atoms: C1_1  and  N9_9 
REMARK    2  A    between atoms: C4_4  and  C8_8 
ROOT
HETATM    1  C2  UNL     1     -34.040  16.244  -6.706  1.00 20.00     0.031 C 
HETATM    2  C3  UNL     1     -34.587  16.089  -4.388  1.00 20.00     0.130 C 
HETATM    3  C4  UNL     1     -33.573  16.729  -5.330  1.00 20.00     0.005 C 
HETATM    4  C5  UNL     1     -34.526  14.813  -6.439  1.00 20.00     0.083 C 
HETATM    5  C6  UNL     1     -35.669  14.426  -7.367  1.00 20.00     0.032 C 
HETATM    6  N9  UNL     1     -34.899  14.820  -5.024  1.00 20.00    -0.355 N 
ENDROOT
BRANCH   3   7
HETATM    7  C8  UNL     1     -33.518  18.243  -5.214  1.00 20.00     0.002 C 
HETATM    8  C7  UNL     1     -33.757  18.915  -6.529  1.00 20.00     0.005 C 
ENDBRANCH   3   7
BRANCH   6   9
HETATM    9  C1  UNL     1     -35.355  13.724  -4.328  1.00 20.00     0.351 C 
HETATM   10  O10 UNL     1     -34.995  12.560  -4.464  1.00 20.00    -0.284 OA
ENDBRANCH   6   9
TORSDOF 2
ENDMDL
MODEL 7
REMARK VINA RESULT:      -3.8      2.511      3.929
REMARK  2 active torsions:
REMARK  status: ('A' for Active; 'I' for Inactive)
REMARK    1  A    between atoms: C1_1  and  N9_9 
REMARK    2  A    between atoms: C4_4  and  C8_8 
ROOT
HETATM    1  C2  UNL     1     -33.898  15.973  -2.555  1.00 20.00     0.031 C 
HETATM    2  C3  UNL     1     -33.407  16.041  -4.890  1.00 20.00     0.130 C 
HETATM    3  C4  UNL     1     -33.045  15.276  -3.621  1.00 20.00     0.005 C 
HETATM    4  C5  UNL     1     -33.876  17.447  -2.982  1.00 20.00     0.083 C 
HETATM    5  C6  UNL     1     -35.168  18.160  -2.606  1.00 20.00     0.032 C 
HETATM    6  N9  UNL     1     -33.635  17.398  -4.425  1.00 20.00    -0.355 N 
ENDROOT
BRANCH   3   7
HETATM    7  C8  UNL     1     -33.313  13.784  -3.721  1.00 20.00     0.002 C 
HETATM    8  C7  UNL     1     -34.416  13.476  -4.684  1.00 20.00     0.005 C 
ENDBRANCH   3   7
BRANCH   6   9
HETATM    9  C1  UNL     1     -33.494  18.502  -5.234  1.00 20.00     0.351 C 
HETATM   10  O10 UNL     1     -33.772  18.586  -6.424  1.00 20.00    -0.284 OA
ENDBRANCH   6   9
TORSDOF 2
ENDMDL
MODEL 8
REMARK VINA RESULT:      -3.8      1.281      3.229
REMARK  2 active torsions:
REMARK  status: ('A' for Active; 'I' for Inactive)
REMARK    1  A    between atoms: C1_1  and  N9_9 
REMARK    2  A    between atoms: C4_4  and  C8_8 
ROOT
HETATM    1  C2  UNL     1     -35.290  17.232  -4.058  1.00 20.00     0.031 C 
HETATM    2  C3  UNL     1     -34.371  15.485  -5.399  1.00 20.00     0.130 C 
HETATM    3  C4  UNL     1     -35.247  16.729  -5.505  1.00 20.00     0.005 C 
HETATM    4  C5  UNL     1     -35.327  15.942  -3.228  1.00 20.00     0.083 C 
HETATM    5  C6  UNL     1     -34.629  16.118  -1.886  1.00 20.00     0.032 C 
HETATM    6  N9  UNL     1     -34.692  14.944  -4.090  1.00 20.00    -0.355 N 
ENDROOT
BRANCH   3   7
HETATM    7  C8  UNL     1     -34.711  17.761  -6.482  1.00 20.00     0.002 C 
HETATM    8  C7  UNL     1     -33.613  18.583  -5.884  1.00 20.00     0.005 C 
ENDBRANCH   3   7
BRANCH   6   9
HETATM    9  C1  UNL     1     -34.541  13.615  -3.769  1.00 20.00     0.351 C 
HETATM   10  O10 UNL     1     -34.982  12.651  -4.385  1.00 20.00    -0.284 OA
ENDBRANCH   6   9
TORSDOF 2
ENDMDL
MODEL 9
REMARK VINA RESULT:      -3.7     12.271     14.102
REMARK  2 active torsions:
REMARK  status: ('A' for Active; 'I' for Inactive)
REMARK    1  A    between atoms: C1_1  and  N9_9 
REMARK    2  A    between atoms: C4_4  and  C8_8 
ROOT
HETATM    1  C2  UNL     1     -43.364   4.372  -3.205  1.00 20.00     0.031 C 
HETATM    2  C3  UNL     1     -41.340   3.951  -2.014  1.00 20.00     0.130 C 
HETATM    3  C4  UNL     1     -42.660   3.285  -2.387  1.00 20.00     0.005 C 
HETATM    4  C5  UNL     1     -42.962   5.674  -2.498  1.00 20.00     0.083 C 
HETATM    5  C6  UNL     1     -42.869   6.838  -3.477  1.00 20.00     0.032 C 
HETATM    6  N9  UNL     1     -41.691   5.351  -1.851  1.00 20.00    -0.355 N 
ENDROOT
BRANCH   3   7
HETATM    7  C8  UNL     1     -42.482   1.983  -3.147  1.00 20.00     0.002 C 
HETATM    8  C7  UNL     1     -41.187   1.942  -3.896  1.00 20.00     0.005 C 
ENDBRANCH   3   7
BRANCH   6   9
HETATM    9  C1  UNL     1     -40.973   6.218  -1.058  1.00 20.00     0.351 C 
HETATM   10  O10 UNL     1     -40.723   6.094   0.135  1.00 20.00    -0.284 OA
ENDBRANCH   6   9
TORSDOF 2
ENDMDL
