MODEL 1
REMARK VINA RESULT:      -3.8      0.000      0.000
REMARK  1 active torsions:
REMARK  status: ('A' for Active; 'I' for Inactive)
REMARK    1  A    between atoms: C3_3  and  C7_7 
ROOT
HETATM    1  C1  UNL     1     -35.584  16.954  -4.230  1.00 20.00     0.346 C 
HETATM    2  C2  UNL     1     -33.763  16.148  -2.915  1.00 20.00     0.233 C 
HETATM    3  C3  UNL     1     -34.576  14.837  -2.990  1.00 20.00     0.081 C 
HETATM    4  C4  UNL     1     -33.982  16.855  -1.567  1.00 20.00     0.044 C 
HETATM    5  C6  UNL     1     -33.373  16.888  -5.220  1.00 20.00     0.311 C 
HETATM    6  N8  UNL     1     -34.143  17.080  -3.996  1.00 20.00     0.098 N 
HETATM    7  S9  UNL     1     -36.142  15.290  -3.792  1.00 20.00    -0.132 SA
ENDROOT
BRANCH   3   8
HETATM    8  C7  UNL     1     -33.892  13.729  -3.782  1.00 20.00     0.013 C 
HETATM    9  C5  UNL     1     -34.724  13.278  -4.941  1.00 20.00     0.006 C 
ENDBRANCH   3   8
TORSDOF 1
ENDMDL
MODEL 2
REMARK VINA RESULT:      -3.8      1.687      3.387
REMARK  1 active torsions:
REMARK  status: ('A' for Active; 'I' for Inactive)
REMARK    1  A    between atoms: C3_3  and  C7_7 
ROOT
HETATM    1  C1  UNL     1     -34.968  15.879  -5.165  1.00 20.00     0.346 C 
HETATM    2  C2  UNL     1     -34.485  14.498  -3.279  1.00 20.00     0.233 C 
HETATM    3  C3  UNL     1     -33.929  15.827  -2.725  1.00 20.00     0.081 C 
HETATM    4  C4  UNL     1     -33.351  13.601  -3.800  1.00 20.00     0.044 C 
HETATM    5  C6  UNL     1     -36.814  14.907  -3.932  1.00 20.00     0.311 C 
HETATM    6  N8  UNL     1     -35.438  14.732  -4.384  1.00 20.00     0.098 N 
HETATM    7  S9  UNL     1     -34.010  16.996  -4.113  1.00 20.00    -0.132 SA
ENDROOT
BRANCH   3   8
HETATM    8  C7  UNL     1     -34.712  16.379  -1.539  1.00 20.00     0.013 C 
HETATM    9  C5  UNL     1     -33.919  17.388  -0.769  1.00 20.00     0.006 C 
ENDBRANCH   3   8
TORSDOF 1
ENDMDL
MODEL 3
REMARK VINA RESULT:      -3.6      1.417      3.197
REMARK  1 active torsions:
REMARK  status: ('A' for Active; 'I' for Inactive)
REMARK    1  A    between atoms: C3_3  and  C7_7 
ROOT
HETATM    1  C1  UNL     1     -35.580  14.297  -4.329  1.00 20.00     0.346 C 
HETATM    2  C2  UNL     1     -33.743  15.795  -4.611  1.00 20.00     0.233 C 
HETATM    3  C3  UNL     1     -34.497  16.576  -3.513  1.00 20.00     0.081 C 
HETATM    4  C4  UNL     1     -34.011  16.399  -5.999  1.00 20.00     0.044 C 
HETATM    5  C6  UNL     1     -33.355  13.532  -3.747  1.00 20.00     0.311 C 
HETATM    6  N8  UNL     1     -34.149  14.375  -4.635  1.00 20.00     0.098 N 
HETATM    7  S9  UNL     1     -36.070  15.696  -3.292  1.00 20.00    -0.132 SA
ENDROOT
BRANCH   3   8
HETATM    8  C7  UNL     1     -33.754  16.648  -2.183  1.00 20.00     0.013 C 
HETATM    9  C5  UNL     1     -34.688  16.548  -1.019  1.00 20.00     0.006 C 
ENDBRANCH   3   8
TORSDOF 1
ENDMDL
MODEL 4
REMARK VINA RESULT:      -3.6      1.790      3.131
REMARK  1 active torsions:
REMARK  status: ('A' for Active; 'I' for Inactive)
REMARK    1  A    between atoms: C3_3  and  C7_7 
ROOT
HETATM    1  C1  UNL     1     -34.771  14.027  -5.486  1.00 20.00     0.346 C 
HETATM    2  C2  UNL     1     -36.007  15.500  -4.071  1.00 20.00     0.233 C 
HETATM    3  C3  UNL     1     -34.976  15.011  -3.031  1.00 20.00     0.081 C 
HETATM    4  C4  UNL     1     -37.346  14.763  -3.906  1.00 20.00     0.044 C 
HETATM    5  C6  UNL     1     -34.744  16.402  -5.970  1.00 20.00     0.311 C 
HETATM    6  N8  UNL     1     -35.524  15.284  -5.450  1.00 20.00     0.098 N 
HETATM    7  S9  UNL     1     -34.042  13.694  -3.864  1.00 20.00    -0.132 SA
ENDROOT
BRANCH   3   8
HETATM    8  C7  UNL     1     -34.019  16.097  -2.550  1.00 20.00     0.013 C 
HETATM    9  C5  UNL     1     -34.418  16.638  -1.214  1.00 20.00     0.006 C 
ENDBRANCH   3   8
TORSDOF 1
ENDMDL
MODEL 5
REMARK VINA RESULT:      -3.5      1.789      2.927
REMARK  1 active torsions:
REMARK  status: ('A' for Active; 'I' for Inactive)
REMARK    1  A    between atoms: C3_3  and  C7_7 
ROOT
HETATM    1  C1  UNL     1     -33.020  15.118  -3.845  1.00 20.00     0.346 C 
HETATM    2  C2  UNL     1     -35.115  15.713  -2.869  1.00 20.00     0.233 C 
HETATM    3  C3  UNL     1     -35.075  16.791  -3.973  1.00 20.00     0.081 C 
HETATM    4  C4  UNL     1     -34.699  16.301  -1.510  1.00 20.00     0.044 C 
HETATM    5  C6  UNL     1     -34.854  13.539  -3.973  1.00 20.00     0.311 C 
HETATM    6  N8  UNL     1     -34.214  14.586  -3.183  1.00 20.00     0.098 N 
HETATM    7  S9  UNL     1     -33.426  16.647  -4.723  1.00 20.00    -0.132 SA
ENDROOT
BRANCH   3   8
HETATM    8  C7  UNL     1     -36.146  16.621  -5.044  1.00 20.00     0.013 C 
HETATM    9  C5  UNL     1     -35.549  16.344  -6.388  1.00 20.00     0.006 C 
ENDBRANCH   3   8
TORSDOF 1
ENDMDL
MODEL 6
REMARK VINA RESULT:      -3.4      1.822      2.542
REMARK  1 active torsions:
REMARK  status: ('A' for Active; 'I' for Inactive)
REMARK    1  A    between atoms: C3_3  and  C7_7 
ROOT
HETATM    1  C1  UNL     1     -33.330  16.120  -4.413  1.00 20.00     0.346 C 
HETATM    2  C2  UNL     1     -34.749  15.435  -2.621  1.00 20.00     0.233 C 
HETATM    3  C3  UNL     1     -35.843  15.940  -3.585  1.00 20.00     0.081 C 
HETATM    4  C4  UNL     1     -34.447  16.479  -1.534  1.00 20.00     0.044 C 
HETATM    5  C6  UNL     1     -33.428  13.767  -3.841  1.00 20.00     0.311 C 
HETATM    6  N8  UNL     1     -33.494  15.136  -3.340  1.00 20.00     0.098 N 
HETATM    7  S9  UNL     1     -34.947  16.715  -4.963  1.00 20.00    -0.132 SA
ENDROOT
BRANCH   3   8
HETATM    8  C7  UNL     1     -36.757  14.842  -4.117  1.00 20.00     0.013 C 
HETATM    9  C5  UNL     1     -38.172  15.031  -3.672  1.00 20.00     0.006 C 
ENDBRANCH   3   8
TORSDOF 1
ENDMDL
MODEL 7
REMARK VINA RESULT:      -3.4      2.007      2.976
REMARK  1 active torsions:
REMARK  status: ('A' for Active; 'I' for Inactive)
REMARK    1  A    between atoms: C3_3  and  C7_7 
ROOT
HETATM    1  C1  UNL     1     -33.671  15.913  -3.010  1.00 20.00     0.346 C 
HETATM    2  C2  UNL     1     -35.418  14.998  -4.354  1.00 20.00     0.233 C 
HETATM    3  C3  UNL     1     -34.948  16.100  -5.328  1.00 20.00     0.081 C 
HETATM    4  C4  UNL     1     -36.686  15.432  -3.601  1.00 20.00     0.044 C 
HETATM    5  C6  UNL     1     -33.454  13.635  -3.807  1.00 20.00     0.311 C 
HETATM    6  N8  UNL     1     -34.373  14.676  -3.361  1.00 20.00     0.098 N 
HETATM    7  S9  UNL     1     -33.731  17.075  -4.395  1.00 20.00    -0.132 SA
ENDROOT
BRANCH   3   8
HETATM    8  C7  UNL     1     -34.312  15.568  -6.607  1.00 20.00     0.013 C 
HETATM    9  C5  UNL     1     -35.148  14.502  -7.242  1.00 20.00     0.006 C 
ENDBRANCH   3   8
TORSDOF 1
ENDMDL
MODEL 8
REMARK VINA RESULT:      -3.4      2.013      3.410
REMARK  1 active torsions:
REMARK  status: ('A' for Active; 'I' for Inactive)
REMARK    1  A    between atoms: C3_3  and  C7_7 
ROOT
HETATM    1  C1  UNL     1     -36.306  16.563  -5.220  1.00 20.00     0.346 C 
HETATM    2  C2  UNL     1     -34.631  14.904  -5.591  1.00 20.00     0.233 C 
HETATM    3  C3  UNL     1     -33.753  15.939  -4.855  1.00 20.00     0.081 C 
HETATM    4  C4  UNL     1     -34.413  14.978  -7.111  1.00 20.00     0.044 C 
HETATM    5  C6  UNL     1     -36.539  14.409  -4.132  1.00 20.00     0.311 C 
HETATM    6  N8  UNL     1     -36.066  15.120  -5.315  1.00 20.00     0.098 N 
HETATM    7  S9  UNL     1     -34.807  17.406  -4.659  1.00 20.00    -0.132 SA
ENDROOT
BRANCH   3   8
HETATM    8  C7  UNL     1     -33.258  15.474  -3.491  1.00 20.00     0.013 C 
HETATM    9  C5  UNL     1     -33.818  16.306  -2.381  1.00 20.00     0.006 C 
ENDBRANCH   3   8
TORSDOF 1
ENDMDL
MODEL 9
REMARK VINA RESULT:      -3.4      1.604      2.412
REMARK  1 active torsions:
REMARK  status: ('A' for Active; 'I' for Inactive)
REMARK    1  A    between atoms: C3_3  and  C7_7 
ROOT
HETATM    1  C1  UNL     1     -35.484  15.797  -2.953  1.00 20.00     0.346 C 
HETATM    2  C2  UNL     1     -34.042  14.779  -4.559  1.00 20.00     0.233 C 
HETATM    3  C3  UNL     1     -35.387  14.272  -5.121  1.00 20.00     0.081 C 
HETATM    4  C4  UNL     1     -33.341  13.684  -3.736  1.00 20.00     0.044 C 
HETATM    5  C6  UNL     1     -34.191  17.223  -4.425  1.00 20.00     0.311 C 
HETATM    6  N8  UNL     1     -34.231  15.961  -3.694  1.00 20.00     0.098 N 
HETATM    7  S9  UNL     1     -36.636  14.772  -3.900  1.00 20.00    -0.132 SA
ENDROOT
BRANCH   3   8
HETATM    8  C7  UNL     1     -35.743  14.846  -6.488  1.00 20.00     0.013 C 
HETATM    9  C5  UNL     1     -34.549  14.929  -7.385  1.00 20.00     0.006 C 
ENDBRANCH   3   8
TORSDOF 1
ENDMDL
