MODEL 1
REMARK VINA RESULT:      -4.9      0.000      0.000
REMARK  1 active torsions:
REMARK  status: ('A' for Active; 'I' for Inactive)
REMARK    1  A    between atoms: C2_2  and  C3_3 
ROOT
HETATM    1  C1  UNL     1     -35.908  16.261  -2.906  1.00 20.00    -0.009 C 
HETATM    2  C2  UNL     1     -34.724  16.104  -2.240  1.00 20.00    -0.007 C 
HETATM    3  C4  UNL     1     -34.483  13.309  -4.691  1.00 20.00     0.002 C 
HETATM    4  C5  UNL     1     -35.701  14.263  -4.841  1.00 20.00     0.009 C 
HETATM    5  C6  UNL     1     -33.673  13.864  -3.478  1.00 20.00     0.015 C 
HETATM    6  C7  UNL     1     -35.702  14.883  -3.474  1.00 20.00     0.021 C 
HETATM    7  C8  UNL     1     -34.172  15.297  -3.399  1.00 20.00    -0.007 C 
HETATM    8  C10 UNL     1     -33.430  16.194  -4.413  1.00 20.00     0.021 C 
ENDROOT
BRANCH   2   9
HETATM    9  C3  UNL     1     -34.180  16.935  -1.175  1.00 20.00     0.152 C 
HETATM   10  C9  UNL     1     -34.987  17.094   0.095  1.00 20.00     0.096 C 
HETATM   11  O11 UNL     1     -33.090  17.505  -1.305  1.00 20.00    -0.293 OA
ENDBRANCH   2   9
TORSDOF 1
ENDMDL
MODEL 2
REMARK VINA RESULT:      -4.8      3.176      4.404
REMARK  1 active torsions:
REMARK  status: ('A' for Active; 'I' for Inactive)
REMARK    1  A    between atoms: C2_2  and  C3_3 
ROOT
HETATM    1  C1  UNL     1     -35.062  14.426  -6.842  1.00 20.00    -0.009 C 
HETATM    2  C2  UNL     1     -34.453  14.570  -5.627  1.00 20.00    -0.007 C 
HETATM    3  C4  UNL     1     -34.186  18.052  -6.922  1.00 20.00     0.002 C 
HETATM    4  C5  UNL     1     -34.999  17.049  -7.787  1.00 20.00     0.009 C 
HETATM    5  C6  UNL     1     -33.706  17.234  -5.683  1.00 20.00     0.015 C 
HETATM    6  C7  UNL     1     -34.477  15.758  -7.226  1.00 20.00     0.021 C 
HETATM    7  C8  UNL     1     -34.682  16.068  -5.683  1.00 20.00    -0.007 C 
HETATM    8  C10 UNL     1     -36.014  16.465  -5.012  1.00 20.00     0.021 C 
ENDROOT
BRANCH   2   9
HETATM    9  C3  UNL     1     -34.281  13.565  -4.588  1.00 20.00     0.152 C 
HETATM   10  C9  UNL     1     -33.140  13.732  -3.608  1.00 20.00     0.096 C 
HETATM   11  O11 UNL     1     -35.042  12.592  -4.508  1.00 20.00    -0.293 OA
ENDBRANCH   2   9
TORSDOF 1
ENDMDL
MODEL 3
REMARK VINA RESULT:      -4.8      1.752      4.074
REMARK  1 active torsions:
REMARK  status: ('A' for Active; 'I' for Inactive)
REMARK    1  A    between atoms: C2_2  and  C3_3 
ROOT
HETATM    1  C1  UNL     1     -33.604  16.307  -4.301  1.00 20.00    -0.009 C 
HETATM    2  C2  UNL     1     -33.860  15.207  -3.530  1.00 20.00    -0.007 C 
HETATM    3  C4  UNL     1     -34.731  17.921  -1.131  1.00 20.00     0.002 C 
HETATM    4  C5  UNL     1     -34.373  18.360  -2.578  1.00 20.00     0.009 C 
HETATM    5  C6  UNL     1     -34.617  16.365  -1.133  1.00 20.00     0.015 C 
HETATM    6  C7  UNL     1     -33.652  17.128  -3.041  1.00 20.00     0.021 C 
HETATM    7  C8  UNL     1     -34.732  16.046  -2.614  1.00 20.00    -0.007 C 
HETATM    8  C10 UNL     1     -36.210  16.023  -3.059  1.00 20.00     0.021 C 
ENDROOT
BRANCH   2   9
HETATM    9  C3  UNL     1     -33.770  13.806  -3.912  1.00 20.00     0.152 C 
HETATM   10  C9  UNL     1     -34.794  13.259  -4.883  1.00 20.00     0.096 C 
HETATM   11  O11 UNL     1     -32.884  13.074  -3.452  1.00 20.00    -0.293 OA
ENDBRANCH   2   9
TORSDOF 1
ENDMDL
MODEL 4
REMARK VINA RESULT:      -4.7      1.167      1.558
REMARK  1 active torsions:
REMARK  status: ('A' for Active; 'I' for Inactive)
REMARK    1  A    between atoms: C2_2  and  C3_3 
ROOT
HETATM    1  C1  UNL     1     -33.926  17.067  -4.550  1.00 20.00    -0.009 C 
HETATM    2  C2  UNL     1     -34.165  16.607  -3.285  1.00 20.00    -0.007 C 
HETATM    3  C4  UNL     1     -34.901  13.536  -5.260  1.00 20.00     0.002 C 
HETATM    4  C5  UNL     1     -34.340  14.752  -6.048  1.00 20.00     0.009 C 
HETATM    5  C6  UNL     1     -34.978  14.008  -3.774  1.00 20.00     0.015 C 
HETATM    6  C7  UNL     1     -34.638  15.845  -5.064  1.00 20.00     0.021 C 
HETATM    7  C8  UNL     1     -34.009  15.178  -3.769  1.00 20.00    -0.007 C 
HETATM    8  C10 UNL     1     -32.553  14.685  -3.625  1.00 20.00     0.021 C 
ENDROOT
BRANCH   2   9
HETATM    9  C3  UNL     1     -33.999  17.322  -2.028  1.00 20.00     0.152 C 
HETATM   10  C9  UNL     1     -34.557  16.697  -0.768  1.00 20.00     0.096 C 
HETATM   11  O11 UNL     1     -33.424  18.417  -1.987  1.00 20.00    -0.293 OA
ENDBRANCH   2   9
TORSDOF 1
ENDMDL
MODEL 5
REMARK VINA RESULT:      -4.7     12.788     14.229
REMARK  1 active torsions:
REMARK  status: ('A' for Active; 'I' for Inactive)
REMARK    1  A    between atoms: C2_2  and  C3_3 
ROOT
HETATM    1  C1  UNL     1     -43.080   4.859  -3.019  1.00 20.00    -0.009 C 
HETATM    2  C2  UNL     1     -42.329   3.791  -2.612  1.00 20.00    -0.007 C 
HETATM    3  C4  UNL     1     -40.870   6.479  -0.486  1.00 20.00     0.002 C 
HETATM    4  C5  UNL     1     -42.103   6.867  -1.349  1.00 20.00     0.009 C 
HETATM    5  C6  UNL     1     -40.612   4.971  -0.791  1.00 20.00     0.015 C 
HETATM    6  C7  UNL     1     -42.068   5.749  -2.349  1.00 20.00     0.021 C 
HETATM    7  C8  UNL     1     -41.958   4.529  -1.339  1.00 20.00    -0.007 C 
HETATM    8  C10 UNL     1     -42.944   4.216  -0.193  1.00 20.00     0.021 C 
ENDROOT
BRANCH   2   9
HETATM    9  C3  UNL     1     -42.448   2.403  -3.032  1.00 20.00     0.152 C 
HETATM   10  C9  UNL     1     -41.366   1.826  -3.918  1.00 20.00     0.096 C 
HETATM   11  O11 UNL     1     -43.412   1.710  -2.683  1.00 20.00    -0.293 OA
ENDBRANCH   2   9
TORSDOF 1
ENDMDL
MODEL 6
REMARK VINA RESULT:      -4.6      2.253      4.283
REMARK  1 active torsions:
REMARK  status: ('A' for Active; 'I' for Inactive)
REMARK    1  A    between atoms: C2_2  and  C3_3 
ROOT
HETATM    1  C1  UNL     1     -33.780  14.582  -3.074  1.00 20.00    -0.009 C 
HETATM    2  C2  UNL     1     -34.603  14.721  -4.156  1.00 20.00    -0.007 C 
HETATM    3  C4  UNL     1     -34.888  18.121  -2.661  1.00 20.00     0.002 C 
HETATM    4  C5  UNL     1     -33.864  17.154  -2.002  1.00 20.00     0.009 C 
HETATM    5  C6  UNL     1     -35.519  17.313  -3.837  1.00 20.00     0.015 C 
HETATM    6  C7  UNL     1     -34.382  15.847  -2.528  1.00 20.00     0.021 C 
HETATM    7  C8  UNL     1     -34.477  16.230  -4.065  1.00 20.00    -0.007 C 
HETATM    8  C10 UNL     1     -33.317  16.757  -4.937  1.00 20.00     0.021 C 
ENDROOT
BRANCH   2   9
HETATM    9  C3  UNL     1     -34.883  13.745  -5.199  1.00 20.00     0.152 C 
HETATM   10  C9  UNL     1     -35.291  14.250  -6.565  1.00 20.00     0.096 C 
HETATM   11  O11 UNL     1     -34.798  12.530  -4.976  1.00 20.00    -0.293 OA
ENDBRANCH   2   9
TORSDOF 1
ENDMDL
MODEL 7
REMARK VINA RESULT:      -4.6      2.420      3.419
REMARK  1 active torsions:
REMARK  status: ('A' for Active; 'I' for Inactive)
REMARK    1  A    between atoms: C2_2  and  C3_3 
ROOT
HETATM    1  C1  UNL     1     -35.834  16.597  -4.676  1.00 20.00    -0.009 C 
HETATM    2  C2  UNL     1     -36.367  15.539  -3.994  1.00 20.00    -0.007 C 
HETATM    3  C4  UNL     1     -32.741  14.718  -3.766  1.00 20.00     0.002 C 
HETATM    4  C5  UNL     1     -33.106  16.084  -4.411  1.00 20.00     0.009 C 
HETATM    5  C6  UNL     1     -34.106  14.070  -3.375  1.00 20.00     0.015 C 
HETATM    6  C7  UNL     1     -34.545  15.824  -4.748  1.00 20.00     0.021 C 
HETATM    7  C8  UNL     1     -35.025  15.279  -3.337  1.00 20.00    -0.007 C 
HETATM    8  C10 UNL     1     -34.897  16.025  -1.991  1.00 20.00     0.021 C 
ENDROOT
BRANCH   2   9
HETATM    9  C3  UNL     1     -37.766  15.296  -3.674  1.00 20.00     0.152 C 
HETATM   10  C9  UNL     1     -38.619  16.468  -3.242  1.00 20.00     0.096 C 
HETATM   11  O11 UNL     1     -38.248  14.158  -3.744  1.00 20.00    -0.293 OA
ENDBRANCH   2   9
TORSDOF 1
ENDMDL
MODEL 8
REMARK VINA RESULT:      -4.5      1.709      2.779
REMARK  1 active torsions:
REMARK  status: ('A' for Active; 'I' for Inactive)
REMARK    1  A    between atoms: C2_2  and  C3_3 
ROOT
HETATM    1  C1  UNL     1     -34.675  16.851  -0.382  1.00 20.00    -0.009 C 
HETATM    2  C2  UNL     1     -33.681  17.682  -0.818  1.00 20.00    -0.007 C 
HETATM    3  C4  UNL     1     -34.760  16.178  -4.051  1.00 20.00     0.002 C 
HETATM    4  C5  UNL     1     -35.598  15.805  -2.797  1.00 20.00     0.009 C 
HETATM    5  C6  UNL     1     -33.651  17.147  -3.533  1.00 20.00     0.015 C 
HETATM    6  C7  UNL     1     -34.615  16.172  -1.723  1.00 20.00     0.021 C 
HETATM    7  C8  UNL     1     -34.250  17.633  -2.224  1.00 20.00    -0.007 C 
HETATM    8  C10 UNL     1     -35.254  18.779  -2.470  1.00 20.00     0.021 C 
ENDROOT
BRANCH   2   9
HETATM    9  C3  UNL     1     -32.883  18.611  -0.032  1.00 20.00     0.152 C 
HETATM   10  C9  UNL     1     -33.206  18.770   1.438  1.00 20.00     0.096 C 
HETATM   11  O11 UNL     1     -31.967  19.263  -0.550  1.00 20.00    -0.293 OA
ENDBRANCH   2   9
TORSDOF 1
ENDMDL
MODEL 9
REMARK VINA RESULT:      -4.5     11.791     12.779
REMARK  1 active torsions:
REMARK  status: ('A' for Active; 'I' for Inactive)
REMARK    1  A    between atoms: C2_2  and  C3_3 
ROOT
HETATM    1  C1  UNL     1     -33.503   6.981   5.162  1.00 20.00    -0.009 C 
HETATM    2  C2  UNL     1     -33.215   6.141   4.123  1.00 20.00    -0.007 C 
HETATM    3  C4  UNL     1     -35.324   3.902   6.224  1.00 20.00     0.002 C 
HETATM    4  C5  UNL     1     -35.194   5.378   6.694  1.00 20.00     0.009 C 
HETATM    5  C6  UNL     1     -34.478   3.810   4.916  1.00 20.00     0.015 C 
HETATM    6  C7  UNL     1     -33.962   5.774   5.933  1.00 20.00     0.021 C 
HETATM    7  C8  UNL     1     -34.399   5.268   4.494  1.00 20.00    -0.007 C 
HETATM    8  C10 UNL     1     -35.676   5.692   3.738  1.00 20.00     0.021 C 
ENDROOT
BRANCH   2   9
HETATM    9  C3  UNL     1     -32.457   6.439   2.916  1.00 20.00     0.152 C 
HETATM   10  C9  UNL     1     -32.155   7.886   2.596  1.00 20.00     0.096 C 
HETATM   11  O11 UNL     1     -32.074   5.534   2.164  1.00 20.00    -0.293 OA
ENDBRANCH   2   9
TORSDOF 1
ENDMDL
