MODEL 1
REMARK VINA RESULT:      -3.8      0.000      0.000
REMARK  5 active torsions:
REMARK  status: ('A' for Active; 'I' for Inactive)
REMARK    1  A    between atoms: C1_1  and  C5_5 
REMARK    2  A    between atoms: C5_5  and  C8_8 
REMARK    3  A    between atoms: C6_6  and  N9_9 
REMARK    4  A    between atoms: C7_7  and  N9_9 
REMARK    5  A    between atoms: C8_8  and  N9_9 
ROOT
HETATM    1  C1  UNL     1     -34.727  16.549  -1.056  1.00 20.00    -0.092 C 
HETATM    2  C2  UNL     1     -34.781  17.163  -0.025  1.00 20.00    -0.022 C 
HETATM    3  S10 UNL     1     -34.863  18.077   1.511  1.00 20.00     0.008 SA
ENDROOT
BRANCH   1   4
HETATM    4  C5  UNL     1     -34.662  15.796  -2.316  1.00 20.00     0.122 C 
BRANCH   4   5
HETATM    5  C8  UNL     1     -33.356  16.031  -3.063  1.00 20.00     0.246 C 
BRANCH   5   6
HETATM    6  N9  UNL     1     -33.259  15.105  -4.241  1.00 20.00    -0.071 N 
HETATM    7  H25 UNL     1     -32.266  15.068  -4.510  1.00 20.00     0.279 HD
BRANCH   6   8
HETATM    8  C6  UNL     1     -33.667  13.703  -3.890  1.00 20.00     0.230 C 
HETATM    9  C3  UNL     1     -34.673  13.207  -4.904  1.00 20.00     0.034 C 
ENDBRANCH   6   8
BRANCH   6  10
HETATM   10  C7  UNL     1     -34.012  15.628  -5.431  1.00 20.00     0.230 C 
HETATM   11  C4  UNL     1     -33.648  17.080  -5.653  1.00 20.00     0.034 C 
ENDBRANCH   6  10
ENDBRANCH   5   6
ENDBRANCH   4   5
ENDBRANCH   1   4
TORSDOF 5
ENDMDL
MODEL 2
REMARK VINA RESULT:      -3.7      1.264      1.712
REMARK  5 active torsions:
REMARK  status: ('A' for Active; 'I' for Inactive)
REMARK    1  A    between atoms: C1_1  and  C5_5 
REMARK    2  A    between atoms: C5_5  and  C8_8 
REMARK    3  A    between atoms: C6_6  and  N9_9 
REMARK    4  A    between atoms: C7_7  and  N9_9 
REMARK    5  A    between atoms: C8_8  and  N9_9 
ROOT
HETATM    1  C1  UNL     1     -33.838  16.597  -2.305  1.00 20.00    -0.092 C 
HETATM    2  C2  UNL     1     -34.285  16.926  -1.240  1.00 20.00    -0.022 C 
HETATM    3  S10 UNL     1     -34.953  17.417   0.346  1.00 20.00     0.008 SA
ENDROOT
BRANCH   1   4
HETATM    4  C5  UNL     1     -33.291  16.191  -3.608  1.00 20.00     0.122 C 
BRANCH   4   5
HETATM    5  C8  UNL     1     -33.187  14.678  -3.745  1.00 20.00     0.246 C 
BRANCH   5   6
HETATM    6  N9  UNL     1     -34.018  14.205  -4.903  1.00 20.00    -0.071 N 
HETATM    7  H25 UNL     1     -33.412  13.606  -5.480  1.00 20.00     0.279 HD
BRANCH   6   8
HETATM    8  C6  UNL     1     -35.172  13.354  -4.456  1.00 20.00     0.230 C 
HETATM    9  C3  UNL     1     -36.336  14.248  -4.088  1.00 20.00     0.034 C 
ENDBRANCH   6   8
BRANCH   6  10
HETATM   10  C7  UNL     1     -34.463  15.342  -5.777  1.00 20.00     0.230 C 
HETATM   11  C4  UNL     1     -34.454  14.894  -7.222  1.00 20.00     0.034 C 
ENDBRANCH   6  10
ENDBRANCH   5   6
ENDBRANCH   4   5
ENDBRANCH   1   4
TORSDOF 5
ENDMDL
MODEL 3
REMARK VINA RESULT:      -3.6      0.948      2.380
REMARK  5 active torsions:
REMARK  status: ('A' for Active; 'I' for Inactive)
REMARK    1  A    between atoms: C1_1  and  C5_5 
REMARK    2  A    between atoms: C5_5  and  C8_8 
REMARK    3  A    between atoms: C6_6  and  N9_9 
REMARK    4  A    between atoms: C7_7  and  N9_9 
REMARK    5  A    between atoms: C8_8  and  N9_9 
ROOT
HETATM    1  C1  UNL     1     -34.428  16.732  -1.059  1.00 20.00    -0.092 C 
HETATM    2  C2  UNL     1     -34.869  17.178  -0.034  1.00 20.00    -0.022 C 
HETATM    3  S10 UNL     1     -35.526  17.841   1.492  1.00 20.00     0.008 SA
ENDROOT
BRANCH   1   4
HETATM    4  C5  UNL     1     -33.888  16.185  -2.312  1.00 20.00     0.122 C 
BRANCH   4   5
HETATM    5  C8  UNL     1     -34.961  15.516  -3.160  1.00 20.00     0.246 C 
BRANCH   5   6
HETATM    6  N9  UNL     1     -34.668  15.718  -4.620  1.00 20.00    -0.071 N 
HETATM    7  H25 UNL     1     -35.413  16.323  -4.992  1.00 20.00     0.279 HD
BRANCH   6   8
HETATM    8  C6  UNL     1     -33.371  16.442  -4.838  1.00 20.00     0.230 C 
HETATM    9  C3  UNL     1     -33.633  17.711  -5.619  1.00 20.00     0.034 C 
ENDBRANCH   6   8
BRANCH   6  10
HETATM   10  C7  UNL     1     -34.729  14.430  -5.388  1.00 20.00     0.230 C 
HETATM   11  C4  UNL     1     -34.947  13.284  -4.425  1.00 20.00     0.034 C 
ENDBRANCH   6  10
ENDBRANCH   5   6
ENDBRANCH   4   5
ENDBRANCH   1   4
TORSDOF 5
ENDMDL
MODEL 4
REMARK VINA RESULT:      -3.5      2.637      3.759
REMARK  5 active torsions:
REMARK  status: ('A' for Active; 'I' for Inactive)
REMARK    1  A    between atoms: C1_1  and  C5_5 
REMARK    2  A    between atoms: C5_5  and  C8_8 
REMARK    3  A    between atoms: C6_6  and  N9_9 
REMARK    4  A    between atoms: C7_7  and  N9_9 
REMARK    5  A    between atoms: C8_8  and  N9_9 
ROOT
HETATM    1  C1  UNL     1     -36.301  14.207  -4.069  1.00 20.00    -0.092 C 
HETATM    2  C2  UNL     1     -37.369  14.716  -3.866  1.00 20.00    -0.022 C 
HETATM    3  S10 UNL     1     -38.961  15.476  -3.561  1.00 20.00     0.008 SA
ENDROOT
BRANCH   1   4
HETATM    4  C5  UNL     1     -34.992  13.585  -4.317  1.00 20.00     0.122 C 
BRANCH   4   5
HETATM    5  C8  UNL     1     -33.869  14.283  -3.564  1.00 20.00     0.246 C 
BRANCH   5   6
HETATM    6  N9  UNL     1     -33.994  15.773  -3.711  1.00 20.00    -0.071 N 
HETATM    7  H25 UNL     1     -34.988  15.972  -3.890  1.00 20.00     0.279 HD
BRANCH   6   8
HETATM    8  C6  UNL     1     -33.627  16.495  -2.446  1.00 20.00     0.230 C 
HETATM    9  C3  UNL     1     -34.740  16.326  -1.435  1.00 20.00     0.034 C 
ENDBRANCH   6   8
BRANCH   6  10
HETATM   10  C7  UNL     1     -33.227  16.287  -4.894  1.00 20.00     0.230 C 
HETATM   11  C4  UNL     1     -33.567  17.745  -5.114  1.00 20.00     0.034 C 
ENDBRANCH   6  10
ENDBRANCH   5   6
ENDBRANCH   4   5
ENDBRANCH   1   4
TORSDOF 5
ENDMDL
MODEL 5
REMARK VINA RESULT:      -3.5      1.687      2.179
REMARK  5 active torsions:
REMARK  status: ('A' for Active; 'I' for Inactive)
REMARK    1  A    between atoms: C1_1  and  C5_5 
REMARK    2  A    between atoms: C5_5  and  C8_8 
REMARK    3  A    between atoms: C6_6  and  N9_9 
REMARK    4  A    between atoms: C7_7  and  N9_9 
REMARK    5  A    between atoms: C8_8  and  N9_9 
ROOT
HETATM    1  C1  UNL     1     -34.519  16.514  -1.290  1.00 20.00    -0.092 C 
HETATM    2  C2  UNL     1     -34.817  17.004  -0.235  1.00 20.00    -0.022 C 
HETATM    3  S10 UNL     1     -35.260  17.736   1.336  1.00 20.00     0.008 SA
ENDROOT
BRANCH   1   4
HETATM    4  C5  UNL     1     -34.156  15.914  -2.583  1.00 20.00     0.122 C 
BRANCH   4   5
HETATM    5  C8  UNL     1     -34.953  16.505  -3.738  1.00 20.00     0.246 C 
BRANCH   5   6
HETATM    6  N9  UNL     1     -35.527  15.406  -4.586  1.00 20.00    -0.071 N 
HETATM    7  H25 UNL     1     -36.099  15.859  -5.312  1.00 20.00     0.279 HD
BRANCH   6   8
HETATM    8  C6  UNL     1     -34.457  14.627  -5.297  1.00 20.00     0.230 C 
HETATM    9  C3  UNL     1     -34.577  13.165  -4.927  1.00 20.00     0.034 C 
ENDBRANCH   6   8
BRANCH   6  10
HETATM   10  C7  UNL     1     -36.446  14.514  -3.803  1.00 20.00     0.230 C 
HETATM   11  C4  UNL     1     -37.818  15.148  -3.733  1.00 20.00     0.034 C 
ENDBRANCH   6  10
ENDBRANCH   5   6
ENDBRANCH   4   5
ENDBRANCH   1   4
TORSDOF 5
ENDMDL
MODEL 6
REMARK VINA RESULT:      -3.5      3.248      3.762
REMARK  5 active torsions:
REMARK  status: ('A' for Active; 'I' for Inactive)
REMARK    1  A    between atoms: C1_1  and  C5_5 
REMARK    2  A    between atoms: C5_5  and  C8_8 
REMARK    3  A    between atoms: C6_6  and  N9_9 
REMARK    4  A    between atoms: C7_7  and  N9_9 
REMARK    5  A    between atoms: C8_8  and  N9_9 
ROOT
HETATM    1  C1  UNL     1     -36.441  14.660  -3.804  1.00 20.00    -0.092 C 
HETATM    2  C2  UNL     1     -37.629  14.789  -3.924  1.00 20.00    -0.022 C 
HETATM    3  S10 UNL     1     -39.399  14.982  -4.103  1.00 20.00     0.008 SA
ENDROOT
BRANCH   1   4
HETATM    4  C5  UNL     1     -34.986  14.503  -3.660  1.00 20.00     0.122 C 
BRANCH   4   5
HETATM    5  C8  UNL     1     -34.331  13.990  -4.935  1.00 20.00     0.246 C 
BRANCH   5   6
HETATM    6  N9  UNL     1     -33.598  15.105  -5.625  1.00 20.00    -0.071 N 
HETATM    7  H25 UNL     1     -32.714  14.709  -5.973  1.00 20.00     0.279 HD
BRANCH   6   8
HETATM    8  C6  UNL     1     -34.347  15.614  -6.822  1.00 20.00     0.230 C 
HETATM    9  C3  UNL     1     -35.223  14.509  -7.369  1.00 20.00     0.034 C 
ENDBRANCH   6   8
BRANCH   6  10
HETATM   10  C7  UNL     1     -33.236  16.211  -4.676  1.00 20.00     0.230 C 
HETATM   11  C4  UNL     1     -33.546  17.544  -5.321  1.00 20.00     0.034 C 
ENDBRANCH   6  10
ENDBRANCH   5   6
ENDBRANCH   4   5
ENDBRANCH   1   4
TORSDOF 5
ENDMDL
MODEL 7
REMARK VINA RESULT:      -3.4     11.155     12.312
REMARK  5 active torsions:
REMARK  status: ('A' for Active; 'I' for Inactive)
REMARK    1  A    between atoms: C1_1  and  C5_5 
REMARK    2  A    between atoms: C5_5  and  C8_8 
REMARK    3  A    between atoms: C6_6  and  N9_9 
REMARK    4  A    between atoms: C7_7  and  N9_9 
REMARK    5  A    between atoms: C8_8  and  N9_9 
ROOT
HETATM    1  C1  UNL     1     -32.145   7.638   2.494  1.00 20.00    -0.092 C 
HETATM    2  C2  UNL     1     -32.142   8.540   1.702  1.00 20.00    -0.022 C 
HETATM    3  S10 UNL     1     -32.136   9.883   0.520  1.00 20.00     0.008 SA
ENDROOT
BRANCH   1   4
HETATM    4  C5  UNL     1     -32.150   6.531   3.463  1.00 20.00     0.122 C 
BRANCH   4   5
HETATM    5  C8  UNL     1     -33.428   5.706   3.391  1.00 20.00     0.246 C 
BRANCH   5   6
HETATM    6  N9  UNL     1     -34.278   5.960   4.603  1.00 20.00    -0.071 N 
HETATM    7  H25 UNL     1     -34.688   6.897   4.488  1.00 20.00     0.279 HD
BRANCH   6   8
HETATM    8  C6  UNL     1     -35.422   4.992   4.701  1.00 20.00     0.230 C 
HETATM    9  C3  UNL     1     -35.064   3.895   5.678  1.00 20.00     0.034 C 
ENDBRANCH   6   8
BRANCH   6  10
HETATM   10  C7  UNL     1     -33.462   5.995   5.863  1.00 20.00     0.230 C 
HETATM   11  C4  UNL     1     -33.812   7.239   6.651  1.00 20.00     0.034 C 
ENDBRANCH   6  10
ENDBRANCH   5   6
ENDBRANCH   4   5
ENDBRANCH   1   4
TORSDOF 5
ENDMDL
MODEL 8
REMARK VINA RESULT:      -3.4      3.402      4.866
REMARK  5 active torsions:
REMARK  status: ('A' for Active; 'I' for Inactive)
REMARK    1  A    between atoms: C1_1  and  C5_5 
REMARK    2  A    between atoms: C5_5  and  C8_8 
REMARK    3  A    between atoms: C6_6  and  N9_9 
REMARK    4  A    between atoms: C7_7  and  N9_9 
REMARK    5  A    between atoms: C8_8  and  N9_9 
ROOT
HETATM    1  C1  UNL     1     -34.785  14.048  -5.340  1.00 20.00    -0.092 C 
HETATM    2  C2  UNL     1     -35.352  14.277  -6.373  1.00 20.00    -0.022 C 
HETATM    3  S10 UNL     1     -36.198  14.619  -7.913  1.00 20.00     0.008 SA
ENDROOT
BRANCH   1   4
HETATM    4  C5  UNL     1     -34.089  13.769  -4.075  1.00 20.00     0.122 C 
BRANCH   4   5
HETATM    5  C8  UNL     1     -33.338  14.985  -3.549  1.00 20.00     0.246 C 
BRANCH   5   6
HETATM    6  N9  UNL     1     -34.299  16.103  -3.261  1.00 20.00    -0.071 N 
HETATM    7  H25 UNL     1     -35.102  15.975  -3.892  1.00 20.00     0.279 HD
BRANCH   6   8
HETATM    8  C6  UNL     1     -34.832  16.039  -1.859  1.00 20.00     0.230 C 
HETATM    9  C3  UNL     1     -34.133  17.079  -1.012  1.00 20.00     0.034 C 
ENDBRANCH   6   8
BRANCH   6  10
HETATM   10  C7  UNL     1     -33.708  17.446  -3.577  1.00 20.00     0.230 C 
HETATM   11  C4  UNL     1     -33.532  17.575  -5.074  1.00 20.00     0.034 C 
ENDBRANCH   6  10
ENDBRANCH   5   6
ENDBRANCH   4   5
ENDBRANCH   1   4
TORSDOF 5
ENDMDL
MODEL 9
REMARK VINA RESULT:      -3.4      2.794      4.082
REMARK  5 active torsions:
REMARK  status: ('A' for Active; 'I' for Inactive)
REMARK    1  A    between atoms: C1_1  and  C5_5 
REMARK    2  A    between atoms: C5_5  and  C8_8 
REMARK    3  A    between atoms: C6_6  and  N9_9 
REMARK    4  A    between atoms: C7_7  and  N9_9 
REMARK    5  A    between atoms: C8_8  and  N9_9 
ROOT
HETATM    1  C1  UNL     1     -36.463  14.550  -4.174  1.00 20.00    -0.092 C 
HETATM    2  C2  UNL     1     -37.603  14.826  -3.922  1.00 20.00    -0.022 C 
HETATM    3  S10 UNL     1     -39.303  15.240  -3.546  1.00 20.00     0.008 SA
ENDROOT
BRANCH   1   4
HETATM    4  C5  UNL     1     -35.065  14.213  -4.484  1.00 20.00     0.122 C 
BRANCH   4   5
HETATM    5  C8  UNL     1     -34.138  14.447  -3.299  1.00 20.00     0.246 C 
BRANCH   5   6
HETATM    6  N9  UNL     1     -33.444  15.772  -3.438  1.00 20.00    -0.071 N 
HETATM    7  H25 UNL     1     -32.529  15.678  -2.977  1.00 20.00     0.279 HD
BRANCH   6   8
HETATM    8  C6  UNL     1     -33.175  16.118  -4.874  1.00 20.00     0.230 C 
HETATM    9  C3  UNL     1     -33.519  17.572  -5.109  1.00 20.00     0.034 C 
ENDBRANCH   6   8
BRANCH   6  10
HETATM   10  C7  UNL     1     -34.181  16.868  -2.724  1.00 20.00     0.230 C 
HETATM   11  C4  UNL     1     -34.596  16.381  -1.353  1.00 20.00     0.034 C 
ENDBRANCH   6  10
ENDBRANCH   5   6
ENDBRANCH   4   5
ENDBRANCH   1   4
TORSDOF 5
ENDMDL
