MODEL 1
REMARK VINA RESULT:      -4.1      0.000      0.000
REMARK  3 active torsions:
REMARK  status: ('A' for Active; 'I' for Inactive)
REMARK    1  A    between atoms: C8_8  and  C9_9 
REMARK    2  A    between atoms: C8_8  and  O11_11 
REMARK    3  A    between atoms: N10_10  and  O11_11 
ROOT
HETATM    1  C1  UNL     1     -35.490  15.102  -3.365  1.00 20.00     0.107 A 
HETATM    2  C2  UNL     1     -34.506  14.483  -4.348  1.00 20.00     0.049 A 
HETATM    3  C3  UNL     1     -36.955  15.162  -3.624  1.00 20.00     0.031 C 
HETATM    4  C4  UNL     1     -34.988  13.971  -5.680  1.00 20.00     0.036 C 
HETATM    5  C5  UNL     1     -33.351  13.700  -3.776  1.00 20.00     0.036 C 
HETATM    6  N10 UNL     1     -34.597  15.942  -4.153  1.00 20.00    -0.180 NA
ENDROOT
BRANCH   6   7
HETATM    7  O11 UNL     1     -33.523  16.401  -3.290  1.00 20.00    -0.302 OA
BRANCH   7   8
HETATM    8  C8  UNL     1     -34.004  17.525  -2.565  1.00 20.00     0.197 C 
BRANCH   8   9
HETATM    9  C9  UNL     1     -33.608  17.403  -1.092  1.00 20.00     0.003 C 
HETATM   10  C6  UNL     1     -32.988  18.702  -0.571  1.00 20.00     0.011 C 
HETATM   11  C7  UNL     1     -34.818  17.016  -0.245  1.00 20.00     0.011 C 
ENDBRANCH   8   9
ENDBRANCH   7   8
ENDBRANCH   6   7
TORSDOF 3
ENDMDL
MODEL 2
REMARK VINA RESULT:      -4.1      1.431      2.006
REMARK  3 active torsions:
REMARK  status: ('A' for Active; 'I' for Inactive)
REMARK    1  A    between atoms: C8_8  and  C9_9 
REMARK    2  A    between atoms: C8_8  and  O11_11 
REMARK    3  A    between atoms: N10_10  and  O11_11 
ROOT
HETATM    1  C1  UNL     1     -33.844  14.812  -4.043  1.00 20.00     0.107 A 
HETATM    2  C2  UNL     1     -34.122  15.762  -5.199  1.00 20.00     0.049 A 
HETATM    3  C3  UNL     1     -33.840  13.332  -4.201  1.00 20.00     0.031 C 
HETATM    4  C4  UNL     1     -34.489  15.217  -6.555  1.00 20.00     0.036 C 
HETATM    5  C5  UNL     1     -33.329  17.044  -5.254  1.00 20.00     0.036 C 
HETATM    6  N10 UNL     1     -35.109  15.530  -4.128  1.00 20.00    -0.180 NA
ENDROOT
BRANCH   6   7
HETATM    7  O11 UNL     1     -35.078  16.624  -3.173  1.00 20.00    -0.302 OA
BRANCH   7   8
HETATM    8  C8  UNL     1     -34.882  16.062  -1.882  1.00 20.00     0.197 C 
BRANCH   8   9
HETATM    9  C9  UNL     1     -34.089  17.034  -1.005  1.00 20.00     0.003 C 
HETATM   10  C6  UNL     1     -33.730  18.310  -1.770  1.00 20.00     0.011 C 
HETATM   11  C7  UNL     1     -34.876  17.376   0.257  1.00 20.00     0.011 C 
ENDBRANCH   8   9
ENDBRANCH   7   8
ENDBRANCH   6   7
TORSDOF 3
ENDMDL
MODEL 3
REMARK VINA RESULT:      -4.0      1.446      2.085
REMARK  3 active torsions:
REMARK  status: ('A' for Active; 'I' for Inactive)
REMARK    1  A    between atoms: C8_8  and  C9_9 
REMARK    2  A    between atoms: C8_8  and  O11_11 
REMARK    3  A    between atoms: N10_10  and  O11_11 
ROOT
HETATM    1  C1  UNL     1     -34.525  16.121  -4.280  1.00 20.00     0.107 A 
HETATM    2  C2  UNL     1     -34.936  14.722  -3.841  1.00 20.00     0.049 A 
HETATM    3  C3  UNL     1     -33.205  16.411  -4.905  1.00 20.00     0.031 C 
HETATM    4  C4  UNL     1     -33.965  13.576  -3.956  1.00 20.00     0.036 C 
HETATM    5  C5  UNL     1     -36.376  14.323  -4.048  1.00 20.00     0.036 C 
HETATM    6  N10 UNL     1     -34.576  15.769  -2.866  1.00 20.00    -0.180 NA
ENDROOT
BRANCH   6   7
HETATM    7  O11 UNL     1     -35.776  16.355  -2.294  1.00 20.00    -0.302 OA
BRANCH   7   8
HETATM    8  C8  UNL     1     -35.398  17.562  -1.645  1.00 20.00     0.197 C 
BRANCH   8   9
HETATM    9  C9  UNL     1     -34.442  17.255  -0.490  1.00 20.00     0.003 C 
HETATM   10  C6  UNL     1     -33.197  18.143  -0.545  1.00 20.00     0.011 C 
HETATM   11  C7  UNL     1     -35.153  17.422   0.850  1.00 20.00     0.011 C 
ENDBRANCH   8   9
ENDBRANCH   7   8
ENDBRANCH   6   7
TORSDOF 3
ENDMDL
MODEL 4
REMARK VINA RESULT:      -4.0      1.093      1.942
REMARK  3 active torsions:
REMARK  status: ('A' for Active; 'I' for Inactive)
REMARK    1  A    between atoms: C8_8  and  C9_9 
REMARK    2  A    between atoms: C8_8  and  O11_11 
REMARK    3  A    between atoms: N10_10  and  O11_11 
ROOT
HETATM    1  C1  UNL     1     -35.068  15.648  -5.641  1.00 20.00     0.107 A 
HETATM    2  C2  UNL     1     -35.354  14.588  -4.586  1.00 20.00     0.049 A 
HETATM    3  C3  UNL     1     -34.313  15.355  -6.891  1.00 20.00     0.031 C 
HETATM    4  C4  UNL     1     -34.802  13.195  -4.743  1.00 20.00     0.036 C 
HETATM    5  C5  UNL     1     -36.695  14.637  -3.897  1.00 20.00     0.036 C 
HETATM    6  N10 UNL     1     -34.356  15.652  -4.369  1.00 20.00    -0.180 NA
ENDROOT
BRANCH   6   7
HETATM    7  O11 UNL     1     -34.915  16.702  -3.537  1.00 20.00    -0.302 OA
BRANCH   7   8
HETATM    8  C8  UNL     1     -33.836  17.499  -3.067  1.00 20.00     0.197 C 
BRANCH   8   9
HETATM    9  C9  UNL     1     -33.582  17.211  -1.585  1.00 20.00     0.003 C 
HETATM   10  C6  UNL     1     -33.247  18.492  -0.817  1.00 20.00     0.011 C 
HETATM   11  C7  UNL     1     -34.791  16.519  -0.961  1.00 20.00     0.011 C 
ENDBRANCH   8   9
ENDBRANCH   7   8
ENDBRANCH   6   7
TORSDOF 3
ENDMDL
MODEL 5
REMARK VINA RESULT:      -3.9      1.908      2.323
REMARK  3 active torsions:
REMARK  status: ('A' for Active; 'I' for Inactive)
REMARK    1  A    between atoms: C8_8  and  C9_9 
REMARK    2  A    between atoms: C8_8  and  O11_11 
REMARK    3  A    between atoms: N10_10  and  O11_11 
ROOT
HETATM    1  C1  UNL     1     -36.974  15.056  -5.694  1.00 20.00     0.107 A 
HETATM    2  C2  UNL     1     -35.514  14.729  -5.411  1.00 20.00     0.049 A 
HETATM    3  C3  UNL     1     -37.441  15.576  -7.009  1.00 20.00     0.031 C 
HETATM    4  C4  UNL     1     -34.461  15.003  -6.453  1.00 20.00     0.036 C 
HETATM    5  C5  UNL     1     -35.225  13.520  -4.557  1.00 20.00     0.036 C 
HETATM    6  N10 UNL     1     -36.170  15.918  -4.836  1.00 20.00    -0.180 NA
ENDROOT
BRANCH   6   7
HETATM    7  O11 UNL     1     -36.546  15.667  -3.456  1.00 20.00    -0.302 OA
BRANCH   7   8
HETATM    8  C8  UNL     1     -35.973  16.695  -2.660  1.00 20.00     0.197 C 
BRANCH   8   9
HETATM    9  C9  UNL     1     -34.800  16.135  -1.851  1.00 20.00     0.003 C 
HETATM   10  C6  UNL     1     -33.488  16.230  -2.632  1.00 20.00     0.011 C 
HETATM   11  C7  UNL     1     -34.677  16.865  -0.516  1.00 20.00     0.011 C 
ENDBRANCH   8   9
ENDBRANCH   7   8
ENDBRANCH   6   7
TORSDOF 3
ENDMDL
MODEL 6
REMARK VINA RESULT:      -3.9      1.975      4.005
REMARK  3 active torsions:
REMARK  status: ('A' for Active; 'I' for Inactive)
REMARK    1  A    between atoms: C8_8  and  C9_9 
REMARK    2  A    between atoms: C8_8  and  O11_11 
REMARK    3  A    between atoms: N10_10  and  O11_11 
ROOT
HETATM    1  C1  UNL     1     -34.341  15.745  -2.387  1.00 20.00     0.107 A 
HETATM    2  C2  UNL     1     -35.201  14.991  -3.391  1.00 20.00     0.049 A 
HETATM    3  C3  UNL     1     -34.920  16.538  -1.268  1.00 20.00     0.031 C 
HETATM    4  C4  UNL     1     -36.703  15.092  -3.328  1.00 20.00     0.036 C 
HETATM    5  C5  UNL     1     -34.702  13.650  -3.868  1.00 20.00     0.036 C 
HETATM    6  N10 UNL     1     -34.491  16.232  -3.752  1.00 20.00    -0.180 NA
ENDROOT
BRANCH   6   7
HETATM    7  O11 UNL     1     -33.276  15.920  -4.484  1.00 20.00    -0.302 OA
BRANCH   7   8
HETATM    8  C8  UNL     1     -33.252  16.738  -5.646  1.00 20.00     0.197 C 
BRANCH   8   9
HETATM    9  C9  UNL     1     -34.481  16.448  -6.512  1.00 20.00     0.003 C 
HETATM   10  C6  UNL     1     -34.695  17.543  -7.560  1.00 20.00     0.011 C 
HETATM   11  C7  UNL     1     -34.348  15.086  -7.188  1.00 20.00     0.011 C 
ENDBRANCH   8   9
ENDBRANCH   7   8
ENDBRANCH   6   7
TORSDOF 3
ENDMDL
MODEL 7
REMARK VINA RESULT:      -3.9      1.384      4.542
REMARK  3 active torsions:
REMARK  status: ('A' for Active; 'I' for Inactive)
REMARK    1  A    between atoms: C8_8  and  C9_9 
REMARK    2  A    between atoms: C8_8  and  O11_11 
REMARK    3  A    between atoms: N10_10  and  O11_11 
ROOT
HETATM    1  C1  UNL     1     -34.069  17.055  -3.354  1.00 20.00     0.107 A 
HETATM    2  C2  UNL     1     -34.932  17.369  -2.140  1.00 20.00     0.049 A 
HETATM    3  C3  UNL     1     -33.713  18.079  -4.374  1.00 20.00     0.031 C 
HETATM    4  C4  UNL     1     -35.533  18.741  -1.973  1.00 20.00     0.036 C 
HETATM    5  C5  UNL     1     -34.572  16.700  -0.837  1.00 20.00     0.036 C 
HETATM    6  N10 UNL     1     -35.445  16.581  -3.276  1.00 20.00    -0.180 NA
ENDROOT
BRANCH   6   7
HETATM    7  O11 UNL     1     -35.422  15.165  -2.955  1.00 20.00    -0.302 OA
BRANCH   7   8
HETATM    8  C8  UNL     1     -36.055  14.471  -4.022  1.00 20.00     0.197 C 
BRANCH   8   9
HETATM    9  C9  UNL     1     -35.012  13.701  -4.835  1.00 20.00     0.003 C 
HETATM   10  C6  UNL     1     -34.657  14.440  -6.128  1.00 20.00     0.011 C 
HETATM   11  C7  UNL     1     -33.757  13.460  -4.001  1.00 20.00     0.011 C 
ENDBRANCH   8   9
ENDBRANCH   7   8
ENDBRANCH   6   7
TORSDOF 3
ENDMDL
MODEL 8
REMARK VINA RESULT:      -3.9      1.212      4.445
REMARK  3 active torsions:
REMARK  status: ('A' for Active; 'I' for Inactive)
REMARK    1  A    between atoms: C8_8  and  C9_9 
REMARK    2  A    between atoms: C8_8  and  O11_11 
REMARK    3  A    between atoms: N10_10  and  O11_11 
ROOT
HETATM    1  C1  UNL     1     -34.717  16.588  -2.075  1.00 20.00     0.107 A 
HETATM    2  C2  UNL     1     -34.231  17.661  -3.039  1.00 20.00     0.049 A 
HETATM    3  C3  UNL     1     -34.638  16.742  -0.596  1.00 20.00     0.031 C 
HETATM    4  C4  UNL     1     -33.567  18.907  -2.514  1.00 20.00     0.036 C 
HETATM    5  C5  UNL     1     -35.035  17.884  -4.295  1.00 20.00     0.036 C 
HETATM    6  N10 UNL     1     -33.486  16.404  -2.834  1.00 20.00    -0.180 NA
ENDROOT
BRANCH   6   7
HETATM    7  O11 UNL     1     -33.754  15.479  -3.920  1.00 20.00    -0.302 OA
BRANCH   7   8
HETATM    8  C8  UNL     1     -34.355  14.320  -3.359  1.00 20.00     0.197 C 
BRANCH   8   9
HETATM    9  C9  UNL     1     -35.422  13.773  -4.311  1.00 20.00     0.003 C 
HETATM   10  C6  UNL     1     -36.780  14.433  -4.065  1.00 20.00     0.011 C 
HETATM   11  C7  UNL     1     -34.992  13.969  -5.763  1.00 20.00     0.011 C 
ENDBRANCH   8   9
ENDBRANCH   7   8
ENDBRANCH   6   7
TORSDOF 3
ENDMDL
MODEL 9
REMARK VINA RESULT:      -3.8      1.542      4.590
REMARK  3 active torsions:
REMARK  status: ('A' for Active; 'I' for Inactive)
REMARK    1  A    between atoms: C8_8  and  C9_9 
REMARK    2  A    between atoms: C8_8  and  O11_11 
REMARK    3  A    between atoms: N10_10  and  O11_11 
ROOT
HETATM    1  C1  UNL     1     -35.308  17.810  -1.716  1.00 20.00     0.107 A 
HETATM    2  C2  UNL     1     -34.483  17.605  -0.453  1.00 20.00     0.049 A 
HETATM    3  C3  UNL     1     -36.780  18.032  -1.686  1.00 20.00     0.031 C 
HETATM    4  C4  UNL     1     -35.159  17.541   0.892  1.00 20.00     0.036 C 
HETATM    5  C5  UNL     1     -33.107  18.222  -0.414  1.00 20.00     0.036 C 
HETATM    6  N10 UNL     1     -34.784  16.493  -1.374  1.00 20.00    -0.180 NA
ENDROOT
BRANCH   6   7
HETATM    7  O11 UNL     1     -33.640  16.222  -2.226  1.00 20.00    -0.302 OA
BRANCH   7   8
HETATM    8  C8  UNL     1     -34.133  15.886  -3.515  1.00 20.00     0.197 C 
BRANCH   8   9
HETATM    9  C9  UNL     1     -34.804  14.511  -3.474  1.00 20.00     0.003 C 
HETATM   10  C6  UNL     1     -36.253  14.582  -3.963  1.00 20.00     0.011 C 
HETATM   11  C7  UNL     1     -34.012  13.506  -4.306  1.00 20.00     0.011 C 
ENDBRANCH   8   9
ENDBRANCH   7   8
ENDBRANCH   6   7
TORSDOF 3
ENDMDL
