MODEL 1
REMARK VINA RESULT:      -4.8      0.000      0.000
REMARK  1 active torsions:
REMARK  status: ('A' for Active; 'I' for Inactive)
REMARK    1  A    between atoms: C3_3  and  C7_7 
ROOT
HETATM    1  C1  UNL     1     -33.547  13.782  -3.868  1.00 20.00    -0.029 C 
HETATM    2  C2  UNL     1     -32.993  14.955  -3.533  1.00 20.00    -0.026 C 
HETATM    3  C4  UNL     1     -35.014  13.601  -4.112  1.00 20.00     0.039 C 
HETATM    4  C5  UNL     1     -35.188  16.120  -3.997  1.00 20.00     0.020 C 
HETATM    5  C6  UNL     1     -33.775  16.236  -3.395  1.00 20.00     0.004 C 
HETATM    6  C7  UNL     1     -35.858  14.791  -3.642  1.00 20.00     0.059 C 
HETATM    7  C9  UNL     1     -33.823  16.660  -1.925  1.00 20.00     0.014 C 
ENDROOT
BRANCH   6   8
HETATM    8  C3  UNL     1     -37.215  14.717  -4.270  1.00 20.00     0.127 C 
HETATM    9  C8  UNL     1     -37.363  15.326  -5.639  1.00 20.00     0.091 C 
HETATM   10  O10 UNL     1     -38.164  14.183  -3.697  1.00 20.00    -0.298 OA
ENDBRANCH   6   8
TORSDOF 1
ENDMDL
MODEL 2
REMARK VINA RESULT:      -4.8      2.349      3.166
REMARK  1 active torsions:
REMARK  status: ('A' for Active; 'I' for Inactive)
REMARK    1  A    between atoms: C3_3  and  C7_7 
ROOT
HETATM    1  C1  UNL     1     -33.650  17.525  -4.127  1.00 20.00    -0.029 C 
HETATM    2  C2  UNL     1     -34.357  17.931  -3.063  1.00 20.00    -0.026 C 
HETATM    3  C4  UNL     1     -33.377  16.085  -4.438  1.00 20.00     0.039 C 
HETATM    4  C5  UNL     1     -35.018  15.537  -2.593  1.00 20.00     0.020 C 
HETATM    5  C6  UNL     1     -34.988  16.986  -2.073  1.00 20.00     0.004 C 
HETATM    6  C7  UNL     1     -33.704  15.142  -3.274  1.00 20.00     0.059 C 
HETATM    7  C9  UNL     1     -34.267  17.087  -0.727  1.00 20.00     0.014 C 
ENDROOT
BRANCH   6   8
HETATM    8  C3  UNL     1     -33.792  13.737  -3.782  1.00 20.00     0.127 C 
HETATM    9  C8  UNL     1     -35.102  13.319  -4.396  1.00 20.00     0.091 C 
HETATM   10  O10 UNL     1     -32.841  12.961  -3.705  1.00 20.00    -0.298 OA
ENDBRANCH   6   8
TORSDOF 1
ENDMDL
MODEL 3
REMARK VINA RESULT:      -4.5     10.828     12.092
REMARK  1 active torsions:
REMARK  status: ('A' for Active; 'I' for Inactive)
REMARK    1  A    between atoms: C3_3  and  C7_7 
ROOT
HETATM    1  C1  UNL     1     -40.588   5.672  -0.304  1.00 20.00    -0.029 C 
HETATM    2  C2  UNL     1     -40.934   6.942  -0.557  1.00 20.00    -0.026 C 
HETATM    3  C4  UNL     1     -41.094   4.505  -1.095  1.00 20.00     0.039 C 
HETATM    4  C5  UNL     1     -42.060   6.206  -2.697  1.00 20.00     0.020 C 
HETATM    5  C6  UNL     1     -41.847   7.348  -1.685  1.00 20.00     0.004 C 
HETATM    6  C7  UNL     1     -42.276   4.857  -2.006  1.00 20.00     0.059 C 
HETATM    7  C9  UNL     1     -43.176   7.856  -1.121  1.00 20.00     0.014 C 
ENDROOT
BRANCH   6   8
HETATM    8  C3  UNL     1     -42.453   3.779  -3.029  1.00 20.00     0.127 C 
HETATM    9  C8  UNL     1     -41.395   2.709  -3.077  1.00 20.00     0.091 C 
HETATM   10  O10 UNL     1     -43.417   3.765  -3.793  1.00 20.00    -0.298 OA
ENDBRANCH   6   8
TORSDOF 1
ENDMDL
MODEL 4
REMARK VINA RESULT:      -4.5     11.711     12.889
REMARK  1 active torsions:
REMARK  status: ('A' for Active; 'I' for Inactive)
REMARK    1  A    between atoms: C3_3  and  C7_7 
ROOT
HETATM    1  C1  UNL     1     -34.065   6.416   6.581  1.00 20.00    -0.029 C 
HETATM    2  C2  UNL     1     -34.990   5.493   6.285  1.00 20.00    -0.026 C 
HETATM    3  C4  UNL     1     -33.099   6.969   5.577  1.00 20.00     0.039 C 
HETATM    4  C5  UNL     1     -34.460   5.753   3.827  1.00 20.00     0.020 C 
HETATM    5  C6  UNL     1     -35.190   4.926   4.902  1.00 20.00     0.004 C 
HETATM    6  C7  UNL     1     -33.054   6.165   4.273  1.00 20.00     0.059 C 
HETATM    7  C9  UNL     1     -34.757   3.459   4.874  1.00 20.00     0.014 C 
ENDROOT
BRANCH   6   8
HETATM    8  C3  UNL     1     -32.398   6.985   3.206  1.00 20.00     0.127 C 
HETATM    9  C8  UNL     1     -31.327   7.945   3.652  1.00 20.00     0.091 C 
HETATM   10  O10 UNL     1     -32.715   6.879   2.022  1.00 20.00    -0.298 OA
ENDBRANCH   6   8
TORSDOF 1
ENDMDL
MODEL 5
REMARK VINA RESULT:      -4.4      2.064      3.747
REMARK  1 active torsions:
REMARK  status: ('A' for Active; 'I' for Inactive)
REMARK    1  A    between atoms: C3_3  and  C7_7 
ROOT
HETATM    1  C1  UNL     1     -33.820  13.693  -4.113  1.00 20.00    -0.029 C 
HETATM    2  C2  UNL     1     -35.089  13.446  -4.468  1.00 20.00    -0.026 C 
HETATM    3  C4  UNL     1     -33.396  14.922  -3.368  1.00 20.00     0.039 C 
HETATM    4  C5  UNL     1     -35.859  15.405  -3.068  1.00 20.00     0.020 C 
HETATM    5  C6  UNL     1     -36.241  14.357  -4.131  1.00 20.00     0.004 C 
HETATM    6  C7  UNL     1     -34.476  16.009  -3.326  1.00 20.00     0.059 C 
HETATM    7  C9  UNL     1     -36.772  15.016  -5.406  1.00 20.00     0.014 C 
ENDROOT
BRANCH   6   8
HETATM    8  C3  UNL     1     -34.142  17.000  -2.255  1.00 20.00     0.127 C 
HETATM    9  C8  UNL     1     -34.587  16.662  -0.856  1.00 20.00     0.091 C 
HETATM   10  O10 UNL     1     -33.533  18.039  -2.504  1.00 20.00    -0.298 OA
ENDBRANCH   6   8
TORSDOF 1
ENDMDL
MODEL 6
REMARK VINA RESULT:      -4.3      2.527      4.203
REMARK  1 active torsions:
REMARK  status: ('A' for Active; 'I' for Inactive)
REMARK    1  A    between atoms: C3_3  and  C7_7 
ROOT
HETATM    1  C1  UNL     1     -34.011  16.972  -6.355  1.00 20.00    -0.029 C 
HETATM    2  C2  UNL     1     -34.657  16.755  -7.509  1.00 20.00    -0.026 C 
HETATM    3  C4  UNL     1     -33.905  15.951  -5.264  1.00 20.00     0.039 C 
HETATM    4  C5  UNL     1     -34.900  14.311  -6.911  1.00 20.00     0.020 C 
HETATM    5  C6  UNL     1     -35.324  15.449  -7.858  1.00 20.00     0.004 C 
HETATM    6  C7  UNL     1     -34.858  14.765  -5.449  1.00 20.00     0.059 C 
HETATM    7  C9  UNL     1     -36.843  15.630  -7.877  1.00 20.00     0.014 C 
ENDROOT
BRANCH   6   8
HETATM    8  C3  UNL     1     -34.418  13.633  -4.573  1.00 20.00     0.127 C 
HETATM    9  C8  UNL     1     -33.214  13.877  -3.703  1.00 20.00     0.091 C 
HETATM   10  O10 UNL     1     -35.012  12.555  -4.563  1.00 20.00    -0.298 OA
ENDBRANCH   6   8
TORSDOF 1
ENDMDL
MODEL 7
REMARK VINA RESULT:      -4.2      2.552      3.025
REMARK  1 active torsions:
REMARK  status: ('A' for Active; 'I' for Inactive)
REMARK    1  A    between atoms: C3_3  and  C7_7 
ROOT
HETATM    1  C1  UNL     1     -34.431  13.473  -4.818  1.00 20.00    -0.029 C 
HETATM    2  C2  UNL     1     -33.800  13.839  -3.693  1.00 20.00    -0.026 C 
HETATM    3  C4  UNL     1     -34.743  14.421  -5.936  1.00 20.00     0.039 C 
HETATM    4  C5  UNL     1     -33.297  16.096  -4.713  1.00 20.00     0.020 C 
HETATM    5  C6  UNL     1     -33.303  15.238  -3.434  1.00 20.00     0.004 C 
HETATM    6  C7  UNL     1     -34.564  15.893  -5.549  1.00 20.00     0.059 C 
HETATM    7  C9  UNL     1     -34.133  15.887  -2.324  1.00 20.00     0.014 C 
ENDROOT
BRANCH   6   8
HETATM    8  C3  UNL     1     -34.499  16.729  -6.790  1.00 20.00     0.127 C 
HETATM    9  C8  UNL     1     -34.042  18.154  -6.624  1.00 20.00     0.091 C 
HETATM   10  O10 UNL     1     -34.803  16.274  -7.891  1.00 20.00    -0.298 OA
ENDBRANCH   6   8
TORSDOF 1
ENDMDL
MODEL 8
REMARK VINA RESULT:      -4.2      2.039      2.553
REMARK  1 active torsions:
REMARK  status: ('A' for Active; 'I' for Inactive)
REMARK    1  A    between atoms: C3_3  and  C7_7 
ROOT
HETATM    1  C1  UNL     1     -34.363  15.936  -2.172  1.00 20.00    -0.029 C 
HETATM    2  C2  UNL     1     -33.852  17.079  -2.650  1.00 20.00    -0.026 C 
HETATM    3  C4  UNL     1     -34.776  14.788  -3.043  1.00 20.00     0.039 C 
HETATM    4  C5  UNL     1     -33.680  16.039  -4.948  1.00 20.00     0.020 C 
HETATM    5  C6  UNL     1     -33.603  17.333  -4.114  1.00 20.00     0.004 C 
HETATM    6  C7  UNL     1     -34.857  15.154  -4.530  1.00 20.00     0.059 C 
HETATM    7  C9  UNL     1     -34.576  18.394  -4.631  1.00 20.00     0.014 C 
ENDROOT
BRANCH   6   8
HETATM    8  C3  UNL     1     -34.874  13.902  -5.350  1.00 20.00     0.127 C 
HETATM    9  C8  UNL     1     -35.088  14.065  -6.831  1.00 20.00     0.091 C 
HETATM   10  O10 UNL     1     -34.720  12.794  -4.840  1.00 20.00    -0.298 OA
ENDBRANCH   6   8
TORSDOF 1
ENDMDL
MODEL 9
REMARK VINA RESULT:      -4.2      2.243      4.050
REMARK  1 active torsions:
REMARK  status: ('A' for Active; 'I' for Inactive)
REMARK    1  A    between atoms: C3_3  and  C7_7 
ROOT
HETATM    1  C1  UNL     1     -36.079  16.329  -4.031  1.00 20.00    -0.029 C 
HETATM    2  C2  UNL     1     -35.164  15.558  -4.635  1.00 20.00    -0.026 C 
HETATM    3  C4  UNL     1     -35.920  16.865  -2.640  1.00 20.00     0.039 C 
HETATM    4  C5  UNL     1     -33.543  16.008  -2.748  1.00 20.00     0.020 C 
HETATM    5  C6  UNL     1     -33.854  15.167  -4.000  1.00 20.00     0.004 C 
HETATM    6  C7  UNL     1     -34.777  16.201  -1.863  1.00 20.00     0.059 C 
HETATM    7  C9  UNL     1     -33.856  13.669  -3.686  1.00 20.00     0.014 C 
ENDROOT
BRANCH   6   8
HETATM    8  C3  UNL     1     -34.430  17.043  -0.675  1.00 20.00     0.127 C 
HETATM    9  C8  UNL     1     -33.277  17.998  -0.835  1.00 20.00     0.091 C 
HETATM   10  O10 UNL     1     -35.056  16.962   0.381  1.00 20.00    -0.298 OA
ENDBRANCH   6   8
TORSDOF 1
ENDMDL
