MODEL 1
REMARK VINA RESULT:      -4.3      0.000      0.000
REMARK  1 active torsions:
REMARK  status: ('A' for Active; 'I' for Inactive)
REMARK    1  A    between atoms: C2_2  and  C4_4 
ROOT
HETATM    1  C1  UNL     1     -33.619   6.782   5.335  1.00 20.00     0.318 A 
HETATM    2  C2  UNL     1     -33.821   5.367   4.848  1.00 20.00     0.357 A 
HETATM    3  C3  UNL     1     -32.458   6.538   3.210  1.00 20.00     0.310 C 
HETATM    4  N5  UNL     1     -33.735   6.480   3.911  1.00 20.00     0.102 N 
ENDROOT
BRANCH   2   5
HETATM    5  C4  UNL     1     -35.132   4.688   5.040  1.00 20.00     0.419 C 
HETATM    6  F6  UNL     1     -35.053   3.364   4.758  1.00 20.00    -0.169 F 
HETATM    7  F7  UNL     1     -35.571   4.804   6.317  1.00 20.00    -0.169 F 
HETATM    8  F8  UNL     1     -36.088   5.215   4.235  1.00 20.00    -0.169 F 
ENDBRANCH   2   5
TORSDOF 1
ENDMDL
MODEL 2
REMARK VINA RESULT:      -4.2      1.332      1.793
REMARK  1 active torsions:
REMARK  status: ('A' for Active; 'I' for Inactive)
REMARK    1  A    between atoms: C2_2  and  C4_4 
ROOT
HETATM    1  C1  UNL     1     -34.178   5.607   3.046  1.00 20.00     0.318 A 
HETATM    2  C2  UNL     1     -34.143   6.158   4.453  1.00 20.00     0.357 A 
HETATM    3  C3  UNL     1     -32.184   6.984   3.272  1.00 20.00     0.310 C 
HETATM    4  N5  UNL     1     -32.915   5.815   3.748  1.00 20.00     0.102 N 
ENDROOT
BRANCH   2   5
HETATM    5  C4  UNL     1     -34.574   5.313   5.600  1.00 20.00     0.419 C 
HETATM    6  F6  UNL     1     -35.762   4.707   5.354  1.00 20.00    -0.169 F 
HETATM    7  F7  UNL     1     -33.671   4.338   5.866  1.00 20.00    -0.169 F 
HETATM    8  F8  UNL     1     -34.722   6.046   6.731  1.00 20.00    -0.169 F 
ENDBRANCH   2   5
TORSDOF 1
ENDMDL
MODEL 3
REMARK VINA RESULT:      -4.2      1.343      1.525
REMARK  1 active torsions:
REMARK  status: ('A' for Active; 'I' for Inactive)
REMARK    1  A    between atoms: C2_2  and  C4_4 
ROOT
HETATM    1  C1  UNL     1     -34.161   5.609   3.034  1.00 20.00     0.318 A 
HETATM    2  C2  UNL     1     -34.134   6.176   4.434  1.00 20.00     0.357 A 
HETATM    3  C3  UNL     1     -32.175   6.999   3.250  1.00 20.00     0.310 C 
HETATM    4  N5  UNL     1     -32.901   5.832   3.737  1.00 20.00     0.102 N 
ENDROOT
BRANCH   2   5
HETATM    5  C4  UNL     1     -34.564   5.343   5.589  1.00 20.00     0.419 C 
HETATM    6  F6  UNL     1     -33.675   4.352   5.847  1.00 20.00    -0.169 F 
HETATM    7  F7  UNL     1     -34.684   6.082   6.719  1.00 20.00    -0.169 F 
HETATM    8  F8  UNL     1     -35.765   4.756   5.361  1.00 20.00    -0.169 F 
ENDBRANCH   2   5
TORSDOF 1
ENDMDL
MODEL 4
REMARK VINA RESULT:      -4.2      1.333      1.991
REMARK  1 active torsions:
REMARK  status: ('A' for Active; 'I' for Inactive)
REMARK    1  A    between atoms: C2_2  and  C4_4 
ROOT
HETATM    1  C1  UNL     1     -34.178   5.608   3.048  1.00 20.00     0.318 A 
HETATM    2  C2  UNL     1     -34.142   6.161   4.453  1.00 20.00     0.357 A 
HETATM    3  C3  UNL     1     -32.183   6.985   3.271  1.00 20.00     0.310 C 
HETATM    4  N5  UNL     1     -32.914   5.817   3.748  1.00 20.00     0.102 N 
ENDROOT
BRANCH   2   5
HETATM    5  C4  UNL     1     -34.572   5.317   5.601  1.00 20.00     0.419 C 
HETATM    6  F6  UNL     1     -34.713   6.050   6.733  1.00 20.00    -0.169 F 
HETATM    7  F7  UNL     1     -35.762   4.715   5.359  1.00 20.00    -0.169 F 
HETATM    8  F8  UNL     1     -33.671   4.339   5.866  1.00 20.00    -0.169 F 
ENDBRANCH   2   5
TORSDOF 1
ENDMDL
MODEL 5
REMARK VINA RESULT:      -4.1      2.978      3.701
REMARK  1 active torsions:
REMARK  status: ('A' for Active; 'I' for Inactive)
REMARK    1  A    between atoms: C2_2  and  C4_4 
ROOT
HETATM    1  C1  UNL     1     -33.804   6.431   5.497  1.00 20.00     0.318 A 
HETATM    2  C2  UNL     1     -33.720   6.583   3.996  1.00 20.00     0.357 A 
HETATM    3  C3  UNL     1     -35.396   4.890   4.488  1.00 20.00     0.310 C 
HETATM    4  N5  UNL     1     -33.998   5.289   4.607  1.00 20.00     0.102 N 
ENDROOT
BRANCH   2   5
HETATM    5  C4  UNL     1     -32.403   6.798   3.337  1.00 20.00     0.419 C 
HETATM    6  F6  UNL     1     -31.563   7.515   4.124  1.00 20.00    -0.169 F 
HETATM    7  F7  UNL     1     -31.789   5.623   3.057  1.00 20.00    -0.169 F 
HETATM    8  F8  UNL     1     -32.535   7.474   2.169  1.00 20.00    -0.169 F 
ENDBRANCH   2   5
TORSDOF 1
ENDMDL
MODEL 6
REMARK VINA RESULT:      -4.1      2.983      3.719
REMARK  1 active torsions:
REMARK  status: ('A' for Active; 'I' for Inactive)
REMARK    1  A    between atoms: C2_2  and  C4_4 
ROOT
HETATM    1  C1  UNL     1     -33.797   6.410   5.486  1.00 20.00     0.318 A 
HETATM    2  C2  UNL     1     -33.715   6.586   3.988  1.00 20.00     0.357 A 
HETATM    3  C3  UNL     1     -35.401   4.897   4.456  1.00 20.00     0.310 C 
HETATM    4  N5  UNL     1     -34.000   5.284   4.579  1.00 20.00     0.102 N 
ENDROOT
BRANCH   2   5
HETATM    5  C4  UNL     1     -32.398   6.803   3.330  1.00 20.00     0.419 C 
HETATM    6  F6  UNL     1     -32.531   7.470   2.157  1.00 20.00    -0.169 F 
HETATM    7  F7  UNL     1     -31.563   7.527   4.114  1.00 20.00    -0.169 F 
HETATM    8  F8  UNL     1     -31.778   5.629   3.056  1.00 20.00    -0.169 F 
ENDBRANCH   2   5
TORSDOF 1
ENDMDL
MODEL 7
REMARK VINA RESULT:      -3.8      2.506      3.301
REMARK  1 active torsions:
REMARK  status: ('A' for Active; 'I' for Inactive)
REMARK    1  A    between atoms: C2_2  and  C4_4 
ROOT
HETATM    1  C1  UNL     1     -33.932   6.377   5.876  1.00 20.00     0.318 A 
HETATM    2  C2  UNL     1     -34.293   5.949   4.473  1.00 20.00     0.357 A 
HETATM    3  C3  UNL     1     -35.178   4.290   6.017  1.00 20.00     0.310 C 
HETATM    4  N5  UNL     1     -33.990   4.966   5.505  1.00 20.00     0.102 N 
ENDROOT
BRANCH   2   5
HETATM    5  C4  UNL     1     -33.327   6.142   3.358  1.00 20.00     0.419 C 
HETATM    6  F6  UNL     1     -33.699   5.453   2.251  1.00 20.00    -0.169 F 
HETATM    7  F7  UNL     1     -33.225   7.447   3.007  1.00 20.00    -0.169 F 
HETATM    8  F8  UNL     1     -32.084   5.717   3.696  1.00 20.00    -0.169 F 
ENDBRANCH   2   5
TORSDOF 1
ENDMDL
MODEL 8
REMARK VINA RESULT:      -3.6      1.460      2.121
REMARK  1 active torsions:
REMARK  status: ('A' for Active; 'I' for Inactive)
REMARK    1  A    between atoms: C2_2  and  C4_4 
ROOT
HETATM    1  C1  UNL     1     -32.211   5.571   3.256  1.00 20.00     0.318 A 
HETATM    2  C2  UNL     1     -33.650   5.956   3.008  1.00 20.00     0.357 A 
HETATM    3  C3  UNL     1     -32.249   7.851   2.406  1.00 20.00     0.310 C 
HETATM    4  N5  UNL     1     -32.675   6.940   3.462  1.00 20.00     0.102 N 
ENDROOT
BRANCH   2   5
HETATM    5  C4  UNL     1     -34.717   5.516   3.948  1.00 20.00     0.419 C 
HETATM    6  F6  UNL     1     -35.950   5.847   3.492  1.00 20.00    -0.169 F 
HETATM    7  F7  UNL     1     -34.700   4.172   4.125  1.00 20.00    -0.169 F 
HETATM    8  F8  UNL     1     -34.572   6.086   5.169  1.00 20.00    -0.169 F 
ENDBRANCH   2   5
TORSDOF 1
ENDMDL
MODEL 9
REMARK VINA RESULT:      -3.6      1.500      2.483
REMARK  1 active torsions:
REMARK  status: ('A' for Active; 'I' for Inactive)
REMARK    1  A    between atoms: C2_2  and  C4_4 
ROOT
HETATM    1  C1  UNL     1     -32.895   6.516   4.317  1.00 20.00     0.318 A 
HETATM    2  C2  UNL     1     -34.403   6.438   4.343  1.00 20.00     0.357 A 
HETATM    3  C3  UNL     1     -33.645   7.088   6.561  1.00 20.00     0.310 C 
HETATM    4  N5  UNL     1     -33.610   6.076   5.511  1.00 20.00     0.102 N 
ENDROOT
BRANCH   2   5
HETATM    5  C4  UNL     1     -35.111   5.364   3.594  1.00 20.00     0.419 C 
HETATM    6  F6  UNL     1     -36.390   5.714   3.311  1.00 20.00    -0.169 F 
HETATM    7  F7  UNL     1     -34.497   5.090   2.417  1.00 20.00    -0.169 F 
HETATM    8  F8  UNL     1     -35.158   4.209   4.303  1.00 20.00    -0.169 F 
ENDBRANCH   2   5
TORSDOF 1
ENDMDL
