MODEL 1
REMARK VINA RESULT:      -5.2      0.000      0.000
REMARK  0 active torsions:
REMARK  status: ('A' for Active; 'I' for Inactive)
ROOT
HETATM    1  C1  UNL     1     -33.628   4.963   6.454  1.00 20.00     0.012 A 
HETATM    2  C2  UNL     1     -33.247   5.436   2.637  1.00 20.00     0.006 A 
HETATM    3  C3  UNL     1     -35.576   4.622   5.080  1.00 20.00     0.101 C 
HETATM    4  C4  UNL     1     -34.898   5.304   6.216  1.00 20.00     0.016 A 
HETATM    5  C5  UNL     1     -34.187   5.585   3.585  1.00 20.00     0.035 A 
HETATM    6  C6  UNL     1     -32.214   7.820   2.751  1.00 20.00     0.015 A 
HETATM    7  C7  UNL     1     -33.857   6.300   5.997  1.00 20.00     0.017 A 
HETATM    8  C8  UNL     1     -32.085   6.326   2.811  1.00 20.00     0.015 A 
HETATM    9  C9  UNL     1     -33.777   6.710   4.549  1.00 20.00     0.048 A 
HETATM   10  C10 UNL     1     -32.392   7.120   4.073  1.00 20.00     0.004 A 
HETATM   11  N11 UNL     1     -35.262   4.766   3.825  1.00 20.00    -0.269 NA
ENDROOT
TORSDOF 0
ENDMDL
MODEL 2
REMARK VINA RESULT:      -5.0     12.324     13.466
REMARK  0 active torsions:
REMARK  status: ('A' for Active; 'I' for Inactive)
ROOT
HETATM    1  C1  UNL     1     -32.913  15.087  -3.587  1.00 20.00     0.012 A 
HETATM    2  C2  UNL     1     -33.489  18.461  -1.793  1.00 20.00     0.006 A 
HETATM    3  C3  UNL     1     -33.505  16.990  -4.938  1.00 20.00     0.101 C 
HETATM    4  C4  UNL     1     -33.759  15.595  -4.488  1.00 20.00     0.016 A 
HETATM    5  C5  UNL     1     -33.933  17.804  -2.878  1.00 20.00     0.035 A 
HETATM    6  C6  UNL     1     -35.228  17.573  -0.076  1.00 20.00     0.015 A 
HETATM    7  C7  UNL     1     -34.259  15.303  -3.151  1.00 20.00     0.017 A 
HETATM    8  C8  UNL     1     -33.811  17.789  -0.522  1.00 20.00     0.015 A 
HETATM    9  C9  UNL     1     -34.713  16.554  -2.443  1.00 20.00     0.048 A 
HETATM   10  C10 UNL     1     -34.559  16.528  -0.930  1.00 20.00     0.004 A 
HETATM   11  N11 UNL     1     -33.606  18.050  -4.189  1.00 20.00    -0.269 NA
ENDROOT
TORSDOF 0
ENDMDL
MODEL 3
REMARK VINA RESULT:      -4.8     11.837     12.990
REMARK  0 active torsions:
REMARK  status: ('A' for Active; 'I' for Inactive)
ROOT
HETATM    1  C1  UNL     1     -33.687  13.516  -4.150  1.00 20.00     0.012 A 
HETATM    2  C2  UNL     1     -33.731  17.326  -3.505  1.00 20.00     0.006 A 
HETATM    3  C3  UNL     1     -34.449  14.947  -5.929  1.00 20.00     0.101 C 
HETATM    4  C4  UNL     1     -34.673  13.803  -5.004  1.00 20.00     0.016 A 
HETATM    5  C5  UNL     1     -34.415  16.413  -4.215  1.00 20.00     0.035 A 
HETATM    6  C6  UNL     1     -35.128  17.224  -1.314  1.00 20.00     0.015 A 
HETATM    7  C7  UNL     1     -34.906  14.006  -3.581  1.00 20.00     0.017 A 
HETATM    8  C8  UNL     1     -33.822  17.130  -2.047  1.00 20.00     0.015 A 
HETATM    9  C9  UNL     1     -35.149  15.458  -3.260  1.00 20.00     0.048 A 
HETATM   10  C10 UNL     1     -34.695  15.896  -1.876  1.00 20.00     0.004 A 
HETATM   11  N11 UNL     1     -34.348  16.193  -5.568  1.00 20.00    -0.269 NA
ENDROOT
TORSDOF 0
ENDMDL
MODEL 4
REMARK VINA RESULT:      -4.8     11.863     12.829
REMARK  0 active torsions:
REMARK  status: ('A' for Active; 'I' for Inactive)
ROOT
HETATM    1  C1  UNL     1     -34.732  16.538  -1.207  1.00 20.00     0.012 A 
HETATM    2  C2  UNL     1     -36.380  14.828  -4.256  1.00 20.00     0.006 A 
HETATM    3  C3  UNL     1     -35.667  17.951  -2.917  1.00 20.00     0.101 C 
HETATM    4  C4  UNL     1     -34.516  17.531  -2.073  1.00 20.00     0.016 A 
HETATM    5  C5  UNL     1     -35.709  15.956  -3.970  1.00 20.00     0.035 A 
HETATM    6  C6  UNL     1     -34.349  13.324  -4.867  1.00 20.00     0.015 A 
HETATM    7  C7  UNL     1     -33.835  16.261  -2.287  1.00 20.00     0.017 A 
HETATM    8  C8  UNL     1     -35.586  13.602  -4.063  1.00 20.00     0.015 A 
HETATM    9  C9  UNL     1     -34.263  15.614  -3.579  1.00 20.00     0.048 A 
HETATM   10  C10 UNL     1     -34.230  14.093  -3.577  1.00 20.00     0.004 A 
HETATM   11  N11 UNL     1     -36.228  17.220  -3.837  1.00 20.00    -0.269 NA
ENDROOT
TORSDOF 0
ENDMDL
MODEL 5
REMARK VINA RESULT:      -4.7     12.178     13.122
REMARK  0 active torsions:
REMARK  status: ('A' for Active; 'I' for Inactive)
ROOT
HETATM    1  C1  UNL     1     -33.298  16.230  -4.760  1.00 20.00     0.012 A 
HETATM    2  C2  UNL     1     -36.128  17.347  -2.378  1.00 20.00     0.006 A 
HETATM    3  C3  UNL     1     -35.434  15.141  -4.967  1.00 20.00     0.101 C 
HETATM    4  C4  UNL     1     -33.962  15.072  -4.761  1.00 20.00     0.016 A 
HETATM    5  C5  UNL     1     -35.724  16.237  -3.017  1.00 20.00     0.035 A 
HETATM    6  C6  UNL     1     -34.785  17.027  -0.175  1.00 20.00     0.015 A 
HETATM    7  C7  UNL     1     -33.343  15.518  -3.520  1.00 20.00     0.017 A 
HETATM    8  C8  UNL     1     -35.163  17.839  -1.379  1.00 20.00     0.015 A 
HETATM    9  C9  UNL     1     -34.372  15.776  -2.449  1.00 20.00     0.048 A 
HETATM   10  C10 UNL     1     -34.000  16.861  -1.450  1.00 20.00     0.004 A 
HETATM   11  N11 UNL     1     -36.284  15.671  -4.136  1.00 20.00    -0.269 NA
ENDROOT
TORSDOF 0
ENDMDL
MODEL 6
REMARK VINA RESULT:      -4.7     12.058     13.174
REMARK  0 active torsions:
REMARK  status: ('A' for Active; 'I' for Inactive)
ROOT
HETATM    1  C1  UNL     1     -35.389  17.065  -1.857  1.00 20.00     0.012 A 
HETATM    2  C2  UNL     1     -34.698  15.726  -5.416  1.00 20.00     0.006 A 
HETATM    3  C3  UNL     1     -33.688  18.164  -3.159  1.00 20.00     0.101 C 
HETATM    4  C4  UNL     1     -34.113  17.457  -1.921  1.00 20.00     0.016 A 
HETATM    5  C5  UNL     1     -34.031  16.318  -4.411  1.00 20.00     0.035 A 
HETATM    6  C6  UNL     1     -34.316  13.251  -4.715  1.00 20.00     0.015 A 
HETATM    7  C7  UNL     1     -34.404  16.029  -1.919  1.00 20.00     0.017 A 
HETATM    8  C8  UNL     1     -35.223  14.392  -5.071  1.00 20.00     0.015 A 
HETATM    9  C9  UNL     1     -33.967  15.372  -3.202  1.00 20.00     0.048 A 
HETATM   10  C10 UNL     1     -34.800  14.172  -3.626  1.00 20.00     0.004 A 
HETATM   11  N11 UNL     1     -33.623  17.628  -4.344  1.00 20.00    -0.269 NA
ENDROOT
TORSDOF 0
ENDMDL
MODEL 7
REMARK VINA RESULT:      -4.6     11.664     13.739
REMARK  0 active torsions:
REMARK  status: ('A' for Active; 'I' for Inactive)
ROOT
HETATM    1  C1  UNL     1     -35.623  13.893  -4.256  1.00 20.00     0.012 A 
HETATM    2  C2  UNL     1     -33.684  17.212  -4.655  1.00 20.00     0.006 A 
HETATM    3  C3  UNL     1     -33.284  13.900  -3.691  1.00 20.00     0.101 C 
HETATM    4  C4  UNL     1     -34.425  13.343  -4.467  1.00 20.00     0.016 A 
HETATM    5  C5  UNL     1     -33.455  15.891  -4.740  1.00 20.00     0.035 A 
HETATM    6  C6  UNL     1     -34.361  17.638  -7.129  1.00 20.00     0.015 A 
HETATM    7  C7  UNL     1     -35.047  14.090  -5.551  1.00 20.00     0.017 A 
HETATM    8  C8  UNL     1     -34.642  17.711  -5.656  1.00 20.00     0.015 A 
HETATM    9  C9  UNL     1     -34.237  15.304  -5.926  1.00 20.00     0.048 A 
HETATM   10  C10 UNL     1     -35.047  16.479  -6.453  1.00 20.00     0.004 A 
HETATM   11  N11 UNL     1     -32.799  15.101  -3.828  1.00 20.00    -0.269 NA
ENDROOT
TORSDOF 0
ENDMDL
MODEL 8
REMARK VINA RESULT:      -4.6     12.132     13.766
REMARK  0 active torsions:
REMARK  status: ('A' for Active; 'I' for Inactive)
ROOT
HETATM    1  C1  UNL     1     -35.539  15.517  -3.139  1.00 20.00     0.012 A 
HETATM    2  C2  UNL     1     -34.341  16.495  -6.681  1.00 20.00     0.006 A 
HETATM    3  C3  UNL     1     -33.183  15.886  -3.464  1.00 20.00     0.101 C 
HETATM    4  C4  UNL     1     -34.306  15.015  -3.025  1.00 20.00     0.016 A 
HETATM    5  C5  UNL     1     -33.885  15.827  -5.607  1.00 20.00     0.035 A 
HETATM    6  C6  UNL     1     -35.464  14.502  -7.917  1.00 20.00     0.015 A 
HETATM    7  C7  UNL     1     -35.220  14.407  -3.983  1.00 20.00     0.017 A 
HETATM    8  C8  UNL     1     -35.520  15.872  -7.307  1.00 20.00     0.015 A 
HETATM    9  C9  UNL     1     -34.719  14.553  -5.397  1.00 20.00     0.048 A 
HETATM   10  C10 UNL     1     -35.806  14.643  -6.457  1.00 20.00     0.004 A 
HETATM   11  N11 UNL     1     -32.959  16.260  -4.691  1.00 20.00    -0.269 NA
ENDROOT
TORSDOF 0
ENDMDL
MODEL 9
REMARK VINA RESULT:      -4.6     11.515     13.436
REMARK  0 active torsions:
REMARK  status: ('A' for Active; 'I' for Inactive)
ROOT
HETATM    1  C1  UNL     1     -32.961  14.118  -3.580  1.00 20.00     0.012 A 
HETATM    2  C2  UNL     1     -34.142  16.368  -6.492  1.00 20.00     0.006 A 
HETATM    3  C3  UNL     1     -34.737  13.298  -4.983  1.00 20.00     0.101 C 
HETATM    4  C4  UNL     1     -34.211  13.649  -3.636  1.00 20.00     0.016 A 
HETATM    5  C5  UNL     1     -34.651  15.451  -5.652  1.00 20.00     0.035 A 
HETATM    6  C6  UNL     1     -34.581  18.486  -5.050  1.00 20.00     0.015 A 
HETATM    7  C7  UNL     1     -34.005  15.034  -3.235  1.00 20.00     0.017 A 
HETATM    8  C8  UNL     1     -33.658  17.584  -5.816  1.00 20.00     0.015 A 
HETATM    9  C9  UNL     1     -34.627  15.994  -4.215  1.00 20.00     0.048 A 
HETATM   10  C10 UNL     1     -33.920  17.335  -4.338  1.00 20.00     0.004 A 
HETATM   11  N11 UNL     1     -34.972  14.147  -5.941  1.00 20.00    -0.269 NA
ENDROOT
TORSDOF 0
ENDMDL
