MODEL 1
REMARK VINA RESULT:      -4.4      0.000      0.000
REMARK  2 active torsions:
REMARK  status: ('A' for Active; 'I' for Inactive)
REMARK    1  A    between atoms: C1_1  and  N9_9 
REMARK    2  A    between atoms: C4_4  and  C8_8 
ROOT
HETATM    1  C2  UNL     1     -33.506  15.457  -3.392  1.00 20.00     0.031 C 
HETATM    2  C3  UNL     1     -35.694  16.000  -2.613  1.00 20.00     0.130 C 
HETATM    3  C4  UNL     1     -34.300  16.600  -2.755  1.00 20.00     0.005 C 
HETATM    4  C5  UNL     1     -34.514  14.807  -4.350  1.00 20.00     0.083 C 
HETATM    5  C6  UNL     1     -34.267  13.310  -4.493  1.00 20.00     0.032 C 
HETATM    6  N9  UNL     1     -35.816  15.130  -3.771  1.00 20.00    -0.355 N 
ENDROOT
BRANCH   3   7
HETATM    7  C8  UNL     1     -33.714  17.076  -1.437  1.00 20.00     0.002 C 
HETATM    8  C7  UNL     1     -34.699  16.969  -0.314  1.00 20.00     0.005 C 
ENDBRANCH   3   7
BRANCH   6   9
HETATM    9  C1  UNL     1     -37.029  14.784  -4.323  1.00 20.00     0.351 C 
HETATM   10  O10 UNL     1     -37.919  14.124  -3.797  1.00 20.00    -0.284 OA
ENDBRANCH   6   9
TORSDOF 2
ENDMDL
MODEL 2
REMARK VINA RESULT:      -4.3      1.408      2.273
REMARK  2 active torsions:
REMARK  status: ('A' for Active; 'I' for Inactive)
REMARK    1  A    between atoms: C1_1  and  N9_9 
REMARK    2  A    between atoms: C4_4  and  C8_8 
ROOT
HETATM    1  C2  UNL     1     -35.941  16.319  -2.752  1.00 20.00     0.031 C 
HETATM    2  C3  UNL     1     -33.798  15.352  -3.152  1.00 20.00     0.130 C 
HETATM    3  C4  UNL     1     -34.659  15.907  -2.023  1.00 20.00     0.005 C 
HETATM    4  C5  UNL     1     -36.116  15.230  -3.819  1.00 20.00     0.083 C 
HETATM    5  C6  UNL     1     -36.787  15.777  -5.073  1.00 20.00     0.032 C 
HETATM    6  N9  UNL     1     -34.760  14.737  -4.052  1.00 20.00    -0.355 N 
ENDROOT
BRANCH   3   7
HETATM    7  C8  UNL     1     -34.001  17.053  -1.273  1.00 20.00     0.002 C 
HETATM    8  C7  UNL     1     -34.714  17.368   0.005  1.00 20.00     0.005 C 
ENDBRANCH   3   7
BRANCH   6   9
HETATM    9  C1  UNL     1     -34.433  13.712  -4.911  1.00 20.00     0.351 C 
HETATM   10  O10 UNL     1     -34.791  12.542  -4.832  1.00 20.00    -0.284 OA
ENDBRANCH   6   9
TORSDOF 2
ENDMDL
MODEL 3
REMARK VINA RESULT:      -4.2      1.661      2.067
REMARK  2 active torsions:
REMARK  status: ('A' for Active; 'I' for Inactive)
REMARK    1  A    between atoms: C1_1  and  N9_9 
REMARK    2  A    between atoms: C4_4  and  C8_8 
ROOT
HETATM    1  C2  UNL     1     -34.400  17.169  -3.906  1.00 20.00     0.031 C 
HETATM    2  C3  UNL     1     -34.345  14.952  -3.028  1.00 20.00     0.130 C 
HETATM    3  C4  UNL     1     -34.693  16.380  -2.627  1.00 20.00     0.005 C 
HETATM    4  C5  UNL     1     -34.838  16.216  -5.027  1.00 20.00     0.083 C 
HETATM    5  C6  UNL     1     -33.994  16.400  -6.282  1.00 20.00     0.032 C 
HETATM    6  N9  UNL     1     -34.716  14.886  -4.432  1.00 20.00    -0.355 N 
ENDROOT
BRANCH   3   7
HETATM    7  C8  UNL     1     -33.907  16.875  -1.424  1.00 20.00     0.002 C 
HETATM    8  C7  UNL     1     -34.776  17.040  -0.216  1.00 20.00     0.005 C 
ENDBRANCH   3   7
BRANCH   6   9
HETATM    9  C1  UNL     1     -35.049  13.710  -5.065  1.00 20.00     0.351 C 
HETATM   10  O10 UNL     1     -34.843  12.570  -4.661  1.00 20.00    -0.284 OA
ENDBRANCH   6   9
TORSDOF 2
ENDMDL
MODEL 4
REMARK VINA RESULT:      -4.2      2.352      3.782
REMARK  2 active torsions:
REMARK  status: ('A' for Active; 'I' for Inactive)
REMARK    1  A    between atoms: C1_1  and  N9_9 
REMARK    2  A    between atoms: C4_4  and  C8_8 
ROOT
HETATM    1  C2  UNL     1     -33.717  17.260  -3.991  1.00 20.00     0.031 C 
HETATM    2  C3  UNL     1     -34.269  15.453  -5.448  1.00 20.00     0.130 C 
HETATM    3  C4  UNL     1     -33.513  16.776  -5.430  1.00 20.00     0.005 C 
HETATM    4  C5  UNL     1     -33.669  15.967  -3.165  1.00 20.00     0.083 C 
HETATM    5  C6  UNL     1     -34.560  16.056  -1.932  1.00 20.00     0.032 C 
HETATM    6  N9  UNL     1     -34.079  14.927  -4.106  1.00 20.00    -0.355 N 
ENDROOT
BRANCH   3   7
HETATM    7  C8  UNL     1     -34.007  17.766  -6.471  1.00 20.00     0.002 C 
HETATM    8  C7  UNL     1     -34.651  17.079  -7.635  1.00 20.00     0.005 C 
ENDBRANCH   3   7
BRANCH   6   9
HETATM    9  C1  UNL     1     -34.141  13.583  -3.813  1.00 20.00     0.351 C 
HETATM   10  O10 UNL     1     -34.951  12.770  -4.245  1.00 20.00    -0.284 OA
ENDBRANCH   6   9
TORSDOF 2
ENDMDL
MODEL 5
REMARK VINA RESULT:      -4.1      2.464      3.186
REMARK  2 active torsions:
REMARK  status: ('A' for Active; 'I' for Inactive)
REMARK    1  A    between atoms: C1_1  and  N9_9 
REMARK    2  A    between atoms: C4_4  and  C8_8 
ROOT
HETATM    1  C2  UNL     1     -34.645  16.366  -1.087  1.00 20.00     0.031 C 
HETATM    2  C3  UNL     1     -33.758  18.262  -2.231  1.00 20.00     0.130 C 
HETATM    3  C4  UNL     1     -33.680  17.539  -0.892  1.00 20.00     0.005 C 
HETATM    4  C5  UNL     1     -34.435  15.965  -2.554  1.00 20.00     0.083 C 
HETATM    5  C6  UNL     1     -35.714  15.417  -3.174  1.00 20.00     0.032 C 
HETATM    6  N9  UNL     1     -33.956  17.189  -3.193  1.00 20.00    -0.355 N 
ENDROOT
BRANCH   3   7
HETATM    7  C8  UNL     1     -34.041  18.422   0.290  1.00 20.00     0.002 C 
HETATM    8  C7  UNL     1     -35.069  17.785   1.173  1.00 20.00     0.005 C 
ENDBRANCH   3   7
BRANCH   6   9
HETATM    9  C1  UNL     1     -33.591  17.293  -4.516  1.00 20.00     0.351 C 
HETATM   10  O10 UNL     1     -32.848  16.541  -5.138  1.00 20.00    -0.284 OA
ENDBRANCH   6   9
TORSDOF 2
ENDMDL
MODEL 6
REMARK VINA RESULT:      -4.0      2.109      2.229
REMARK  2 active torsions:
REMARK  status: ('A' for Active; 'I' for Inactive)
REMARK    1  A    between atoms: C1_1  and  N9_9 
REMARK    2  A    between atoms: C4_4  and  C8_8 
ROOT
HETATM    1  C2  UNL     1     -33.916  14.987  -2.980  1.00 20.00     0.031 C 
HETATM    2  C3  UNL     1     -34.539  16.802  -4.398  1.00 20.00     0.130 C 
HETATM    3  C4  UNL     1     -33.630  16.472  -3.220  1.00 20.00     0.005 C 
HETATM    4  C5  UNL     1     -34.112  14.424  -4.395  1.00 20.00     0.083 C 
HETATM    5  C6  UNL     1     -35.104  13.267  -4.405  1.00 20.00     0.032 C 
HETATM    6  N9  UNL     1     -34.551  15.576  -5.179  1.00 20.00    -0.355 N 
ENDROOT
BRANCH   3   7
HETATM    7  C8  UNL     1     -33.890  17.337  -1.999  1.00 20.00     0.002 C 
HETATM    8  C7  UNL     1     -34.611  16.586  -0.923  1.00 20.00     0.005 C 
ENDBRANCH   3   7
BRANCH   6   9
HETATM    9  C1  UNL     1     -34.809  15.552  -6.532  1.00 20.00     0.351 C 
HETATM   10  O10 UNL     1     -34.218  14.898  -7.384  1.00 20.00    -0.284 OA
ENDBRANCH   6   9
TORSDOF 2
ENDMDL
MODEL 7
REMARK VINA RESULT:      -3.8      2.948      4.209
REMARK  2 active torsions:
REMARK  status: ('A' for Active; 'I' for Inactive)
REMARK    1  A    between atoms: C1_1  and  N9_9 
REMARK    2  A    between atoms: C4_4  and  C8_8 
ROOT
HETATM    1  C2  UNL     1     -33.540  15.890  -5.100  1.00 20.00     0.031 C 
HETATM    2  C3  UNL     1     -33.790  16.011  -2.731  1.00 20.00     0.130 C 
HETATM    3  C4  UNL     1     -33.096  15.191  -3.812  1.00 20.00     0.005 C 
HETATM    4  C5  UNL     1     -33.573  17.375  -4.713  1.00 20.00     0.083 C 
HETATM    5  C6  UNL     1     -34.648  18.132  -5.483  1.00 20.00     0.032 C 
HETATM    6  N9  UNL     1     -33.791  17.362  -3.268  1.00 20.00    -0.355 N 
ENDROOT
BRANCH   3   7
HETATM    7  C8  UNL     1     -33.458  13.717  -3.774  1.00 20.00     0.002 C 
HETATM    8  C7  UNL     1     -34.893  13.483  -4.134  1.00 20.00     0.005 C 
ENDBRANCH   3   7
BRANCH   6   9
HETATM    9  C1  UNL     1     -33.848  18.484  -2.472  1.00 20.00     0.351 C 
HETATM   10  O10 UNL     1     -32.932  19.263  -2.228  1.00 20.00    -0.284 OA
ENDBRANCH   6   9
TORSDOF 2
ENDMDL
MODEL 8
REMARK VINA RESULT:      -3.8     11.573     12.338
REMARK  2 active torsions:
REMARK  status: ('A' for Active; 'I' for Inactive)
REMARK    1  A    between atoms: C1_1  and  N9_9 
REMARK    2  A    between atoms: C4_4  and  C8_8 
ROOT
HETATM    1  C2  UNL     1     -34.157   5.413   3.153  1.00 20.00     0.031 C 
HETATM    2  C3  UNL     1     -32.889   6.860   4.563  1.00 20.00     0.130 C 
HETATM    3  C4  UNL     1     -33.398   6.743   3.131  1.00 20.00     0.005 C 
HETATM    4  C5  UNL     1     -34.805   5.389   4.543  1.00 20.00     0.083 C 
HETATM    5  C6  UNL     1     -34.934   3.968   5.078  1.00 20.00     0.032 C 
HETATM    6  N9  UNL     1     -33.939   6.241   5.356  1.00 20.00    -0.355 N 
ENDROOT
BRANCH   3   7
HETATM    7  C8  UNL     1     -32.289   6.784   2.094  1.00 20.00     0.002 C 
HETATM    8  C7  UNL     1     -31.921   8.187   1.722  1.00 20.00     0.005 C 
ENDBRANCH   3   7
BRANCH   6   9
HETATM    9  C1  UNL     1     -34.159   6.550   6.679  1.00 20.00     0.351 C 
HETATM   10  O10 UNL     1     -33.776   7.549   7.278  1.00 20.00    -0.284 OA
ENDBRANCH   6   9
TORSDOF 2
ENDMDL
MODEL 9
REMARK VINA RESULT:      -3.7      2.009      3.907
REMARK  2 active torsions:
REMARK  status: ('A' for Active; 'I' for Inactive)
REMARK    1  A    between atoms: C1_1  and  N9_9 
REMARK    2  A    between atoms: C4_4  and  C8_8 
ROOT
HETATM    1  C2  UNL     1     -36.606  16.139  -3.086  1.00 20.00     0.031 C 
HETATM    2  C3  UNL     1     -35.974  14.047  -4.041  1.00 20.00     0.130 C 
HETATM    3  C4  UNL     1     -36.991  15.170  -4.207  1.00 20.00     0.005 C 
HETATM    4  C5  UNL     1     -35.074  16.055  -3.045  1.00 20.00     0.083 C 
HETATM    5  C6  UNL     1     -34.538  16.275  -1.635  1.00 20.00     0.032 C 
HETATM    6  N9  UNL     1     -34.775  14.730  -3.583  1.00 20.00    -0.355 N 
ENDROOT
BRANCH   3   7
HETATM    7  C8  UNL     1     -38.431  14.694  -4.121  1.00 20.00     0.002 C 
HETATM    8  C7  UNL     1     -39.264  15.584  -3.252  1.00 20.00     0.005 C 
ENDBRANCH   3   7
BRANCH   6   9
HETATM    9  C1  UNL     1     -33.507  14.229  -3.776  1.00 20.00     0.351 C 
HETATM   10  O10 UNL     1     -33.170  13.050  -3.767  1.00 20.00    -0.284 OA
ENDBRANCH   6   9
TORSDOF 2
ENDMDL
