MODEL 1
REMARK VINA RESULT:      -5.0      0.000      0.000
REMARK  1 active torsions:
REMARK  status: ('A' for Active; 'I' for Inactive)
REMARK    1  A    between atoms: C1_1  and  C4_4 
ROOT
HETATM    1  C1  UNL     1     -32.656   7.104   2.827  1.00 20.00    -0.047 C 
HETATM    2  C2  UNL     1     -32.334   8.045   2.155  1.00 20.00    -0.106 C 
HETATM    3  C6  UNL     1     -31.941   9.191   1.336  1.00 20.00     0.112 C 
ENDROOT
BRANCH   1   4
HETATM    4  C4  UNL     1     -33.050   5.956   3.645  1.00 20.00     0.343 C 
HETATM    5  O8  UNL     1     -34.083   5.208   2.989  1.00 20.00    -0.348 OA
HETATM    6  C3  UNL     1     -35.262   5.463   3.754  1.00 20.00     0.203 C 
HETATM    7  C5  UNL     1     -34.743   5.709   5.152  1.00 20.00     0.145 C 
HETATM    8  C7  UNL     1     -34.463   4.423   5.919  1.00 20.00     0.042 C 
HETATM    9  O9  UNL     1     -33.512   6.403   4.928  1.00 20.00    -0.343 OA
ENDBRANCH   1   4
TORSDOF 1
ENDMDL
MODEL 2
REMARK VINA RESULT:      -4.2     11.531     12.454
REMARK  1 active torsions:
REMARK  status: ('A' for Active; 'I' for Inactive)
REMARK    1  A    between atoms: C1_1  and  C4_4 
ROOT
HETATM    1  C1  UNL     1     -34.515  16.029  -1.939  1.00 20.00    -0.047 C 
HETATM    2  C2  UNL     1     -34.672  16.631  -0.912  1.00 20.00    -0.106 C 
HETATM    3  C6  UNL     1     -34.864  17.365   0.338  1.00 20.00     0.112 C 
ENDROOT
BRANCH   1   4
HETATM    4  C4  UNL     1     -34.323  15.295  -3.191  1.00 20.00     0.343 C 
HETATM    5  O8  UNL     1     -33.010  15.538  -3.714  1.00 20.00    -0.348 OA
HETATM    6  C3  UNL     1     -33.219  16.358  -4.863  1.00 20.00     0.203 C 
HETATM    7  C5  UNL     1     -34.587  15.950  -5.358  1.00 20.00     0.145 C 
HETATM    8  C7  UNL     1     -34.562  14.684  -6.205  1.00 20.00     0.042 C 
HETATM    9  O9  UNL     1     -35.311  15.696  -4.151  1.00 20.00    -0.343 OA
ENDBRANCH   1   4
TORSDOF 1
ENDMDL
MODEL 3
REMARK VINA RESULT:      -4.1     10.850     11.604
REMARK  1 active torsions:
REMARK  status: ('A' for Active; 'I' for Inactive)
REMARK    1  A    between atoms: C1_1  and  C4_4 
ROOT
HETATM    1  C1  UNL     1     -34.691  16.226  -1.939  1.00 20.00    -0.047 C 
HETATM    2  C2  UNL     1     -34.754  16.719  -0.846  1.00 20.00    -0.106 C 
HETATM    3  C6  UNL     1     -34.830  17.320   0.484  1.00 20.00     0.112 C 
ENDROOT
BRANCH   1   4
HETATM    4  C4  UNL     1     -34.614  15.625  -3.272  1.00 20.00     0.343 C 
HETATM    5  O8  UNL     1     -35.838  15.844  -3.987  1.00 20.00    -0.348 OA
HETATM    6  C3  UNL     1     -36.463  14.561  -4.043  1.00 20.00     0.203 C 
HETATM    7  C5  UNL     1     -35.305  13.591  -4.034  1.00 20.00     0.145 C 
HETATM    8  C7  UNL     1     -34.674  13.400  -5.408  1.00 20.00     0.042 C 
HETATM    9  O9  UNL     1     -34.359  14.218  -3.163  1.00 20.00    -0.343 OA
ENDBRANCH   1   4
TORSDOF 1
ENDMDL
MODEL 4
REMARK VINA RESULT:      -3.8      1.400      4.443
REMARK  1 active torsions:
REMARK  status: ('A' for Active; 'I' for Inactive)
REMARK    1  A    between atoms: C1_1  and  C4_4 
ROOT
HETATM    1  C1  UNL     1     -33.863   5.616   4.183  1.00 20.00    -0.047 C 
HETATM    2  C2  UNL     1     -34.449   5.141   5.116  1.00 20.00    -0.106 C 
HETATM    3  C6  UNL     1     -35.163   4.563   6.253  1.00 20.00     0.112 C 
ENDROOT
BRANCH   1   4
HETATM    4  C4  UNL     1     -33.147   6.194   3.044  1.00 20.00     0.343 C 
HETATM    5  O8  UNL     1     -31.730   6.083   3.238  1.00 20.00    -0.348 OA
HETATM    6  C3  UNL     1     -31.290   7.418   3.492  1.00 20.00     0.203 C 
HETATM    7  C5  UNL     1     -32.274   8.276   2.732  1.00 20.00     0.145 C 
HETATM    8  C7  UNL     1     -31.942   8.395   1.250  1.00 20.00     0.042 C 
HETATM    9  O9  UNL     1     -33.510   7.573   2.884  1.00 20.00    -0.343 OA
ENDBRANCH   1   4
TORSDOF 1
ENDMDL
MODEL 5
REMARK VINA RESULT:      -3.7      9.857     11.139
REMARK  1 active torsions:
REMARK  status: ('A' for Active; 'I' for Inactive)
REMARK    1  A    between atoms: C1_1  and  C4_4 
ROOT
HETATM    1  C1  UNL     1     -41.947   3.473  -2.609  1.00 20.00    -0.047 C 
HETATM    2  C2  UNL     1     -41.692   2.468  -3.213  1.00 20.00    -0.106 C 
HETATM    3  C6  UNL     1     -41.381   1.243  -3.949  1.00 20.00     0.112 C 
ENDROOT
BRANCH   1   4
HETATM    4  C4  UNL     1     -42.260   4.699  -1.872  1.00 20.00     0.343 C 
HETATM    5  O8  UNL     1     -43.375   5.371  -2.474  1.00 20.00    -0.348 OA
HETATM    6  C3  UNL     1     -42.816   6.532  -3.087  1.00 20.00     0.203 C 
HETATM    7  C5  UNL     1     -41.617   6.857  -2.226  1.00 20.00     0.145 C 
HETATM    8  C7  UNL     1     -41.979   7.635  -0.968  1.00 20.00     0.042 C 
HETATM    9  O9  UNL     1     -41.118   5.568  -1.858  1.00 20.00    -0.343 OA
ENDBRANCH   1   4
TORSDOF 1
ENDMDL
MODEL 6
REMARK VINA RESULT:      -3.6      9.072     10.640
REMARK  1 active torsions:
REMARK  status: ('A' for Active; 'I' for Inactive)
REMARK    1  A    between atoms: C1_1  and  C4_4 
ROOT
HETATM    1  C1  UNL     1     -41.975   3.206  -2.763  1.00 20.00    -0.047 C 
HETATM    2  C2  UNL     1     -41.678   2.224  -3.386  1.00 20.00    -0.106 C 
HETATM    3  C6  UNL     1     -41.316   1.027  -4.144  1.00 20.00     0.112 C 
ENDROOT
BRANCH   1   4
HETATM    4  C4  UNL     1     -42.338   4.404  -2.004  1.00 20.00     0.343 C 
HETATM    5  O8  UNL     1     -41.233   5.317  -1.955  1.00 20.00    -0.348 OA
HETATM    6  C3  UNL     1     -40.775   5.265  -0.604  1.00 20.00     0.203 C 
HETATM    7  C5  UNL     1     -42.017   4.934   0.189  1.00 20.00     0.145 C 
HETATM    8  C7  UNL     1     -42.884   6.154   0.478  1.00 20.00     0.042 C 
HETATM    9  O9  UNL     1     -42.729   4.041  -0.672  1.00 20.00    -0.343 OA
ENDBRANCH   1   4
TORSDOF 1
ENDMDL
MODEL 7
REMARK VINA RESULT:      -3.5      9.493     10.422
REMARK  1 active torsions:
REMARK  status: ('A' for Active; 'I' for Inactive)
REMARK    1  A    between atoms: C1_1  and  C4_4 
ROOT
HETATM    1  C1  UNL     1     -42.253   7.461  -2.769  1.00 20.00    -0.047 C 
HETATM    2  C2  UNL     1     -42.395   8.034  -3.815  1.00 20.00    -0.106 C 
HETATM    3  C6  UNL     1     -42.568   8.733  -5.087  1.00 20.00     0.112 C 
ENDROOT
BRANCH   1   4
HETATM    4  C4  UNL     1     -42.079   6.761  -1.495  1.00 20.00     0.343 C 
HETATM    5  O8  UNL     1     -40.840   6.039  -1.489  1.00 20.00    -0.348 OA
HETATM    6  C3  UNL     1     -41.218   4.664  -1.567  1.00 20.00     0.203 C 
HETATM    7  C5  UNL     1     -42.569   4.619  -0.890  1.00 20.00     0.145 C 
HETATM    8  C7  UNL     1     -42.474   4.559   0.629  1.00 20.00     0.042 C 
HETATM    9  O9  UNL     1     -43.172   5.857  -1.278  1.00 20.00    -0.343 OA
ENDBRANCH   1   4
TORSDOF 1
ENDMDL
MODEL 8
REMARK VINA RESULT:      -3.4      9.497     10.454
REMARK  1 active torsions:
REMARK  status: ('A' for Active; 'I' for Inactive)
REMARK    1  A    between atoms: C1_1  and  C4_4 
ROOT
HETATM    1  C1  UNL     1     -42.413   7.674  -3.351  1.00 20.00    -0.047 C 
HETATM    2  C2  UNL     1     -42.280   8.356  -4.330  1.00 20.00    -0.106 C 
HETATM    3  C6  UNL     1     -42.119   9.187  -5.522  1.00 20.00     0.112 C 
ENDROOT
BRANCH   1   4
HETATM    4  C4  UNL     1     -42.574   6.842  -2.158  1.00 20.00     0.343 C 
HETATM    5  O8  UNL     1     -42.107   7.541  -0.996  1.00 20.00    -0.348 OA
HETATM    6  C3  UNL     1     -40.899   6.876  -0.629  1.00 20.00     0.203 C 
HETATM    7  C5  UNL     1     -41.109   5.455  -1.097  1.00 20.00     0.145 C 
HETATM    8  C7  UNL     1     -41.925   4.618  -0.120  1.00 20.00     0.042 C 
HETATM    9  O9  UNL     1     -41.846   5.615  -2.313  1.00 20.00    -0.343 OA
ENDBRANCH   1   4
TORSDOF 1
ENDMDL
MODEL 9
REMARK VINA RESULT:      -3.3     10.734     12.289
REMARK  1 active torsions:
REMARK  status: ('A' for Active; 'I' for Inactive)
REMARK    1  A    between atoms: C1_1  and  C4_4 
ROOT
HETATM    1  C1  UNL     1     -37.658  14.702  -4.086  1.00 20.00    -0.047 C 
HETATM    2  C2  UNL     1     -38.830  14.705  -4.342  1.00 20.00    -0.106 C 
HETATM    3  C6  UNL     1     -40.259  14.710  -4.654  1.00 20.00     0.112 C 
ENDROOT
BRANCH   1   4
HETATM    4  C4  UNL     1     -36.227  14.697  -3.774  1.00 20.00     0.343 C 
HETATM    5  O8  UNL     1     -35.542  15.678  -4.565  1.00 20.00    -0.348 OA
HETATM    6  C3  UNL     1     -34.782  14.922  -5.508  1.00 20.00     0.203 C 
HETATM    7  C5  UNL     1     -34.484  13.630  -4.784  1.00 20.00     0.145 C 
HETATM    8  C7  UNL     1     -33.296  13.737  -3.836  1.00 20.00     0.042 C 
HETATM    9  O9  UNL     1     -35.674  13.397  -4.025  1.00 20.00    -0.343 OA
ENDBRANCH   1   4
TORSDOF 1
ENDMDL
