MODEL 1
REMARK VINA RESULT:      -4.9      0.000      0.000
REMARK  0 active torsions:
REMARK  status: ('A' for Active; 'I' for Inactive)
ROOT
HETATM    1  C1  UNL     1     -31.993   8.631   1.618  1.00 20.00     0.017 C 
HETATM    2  C2  UNL     1     -32.140   7.685   2.343  1.00 20.00    -0.057 C 
HETATM    3  C3  UNL     1     -32.320   6.534   3.227  1.00 20.00     0.342 C 
HETATM    4  C4  UNL     1     -33.811   6.706   4.934  1.00 20.00     0.150 C 
HETATM    5  C5  UNL     1     -34.145   5.499   4.081  1.00 20.00     0.150 C 
HETATM    6  C6  UNL     1     -33.939   6.474   6.425  1.00 20.00     0.042 C 
HETATM    7  C7  UNL     1     -35.628   5.287   3.851  1.00 20.00     0.042 C 
HETATM    8  O8  UNL     1     -32.445   6.967   4.591  1.00 20.00    -0.343 OA
HETATM    9  O9  UNL     1     -33.491   5.798   2.844  1.00 20.00    -0.343 OA
ENDROOT
TORSDOF 0
ENDMDL
MODEL 2
REMARK VINA RESULT:      -4.0     10.851     11.976
REMARK  0 active torsions:
REMARK  status: ('A' for Active; 'I' for Inactive)
ROOT
HETATM    1  C1  UNL     1     -34.718  16.918  -0.328  1.00 20.00     0.017 C 
HETATM    2  C2  UNL     1     -34.395  16.591  -1.437  1.00 20.00    -0.057 C 
HETATM    3  C3  UNL     1     -34.001  16.191  -2.789  1.00 20.00     0.342 C 
HETATM    4  C4  UNL     1     -35.181  14.539  -3.812  1.00 20.00     0.150 C 
HETATM    5  C5  UNL     1     -35.165  15.776  -4.688  1.00 20.00     0.150 C 
HETATM    6  C6  UNL     1     -34.992  13.237  -4.563  1.00 20.00     0.042 C 
HETATM    7  C7  UNL     1     -36.479  16.067  -5.384  1.00 20.00     0.042 C 
HETATM    8  O8  UNL     1     -34.076  14.763  -2.928  1.00 20.00    -0.343 OA
HETATM    9  O9  UNL     1     -34.858  16.817  -3.755  1.00 20.00    -0.343 OA
ENDROOT
TORSDOF 0
ENDMDL
MODEL 3
REMARK VINA RESULT:      -4.0      9.653     10.329
REMARK  0 active torsions:
REMARK  status: ('A' for Active; 'I' for Inactive)
ROOT
HETATM    1  C1  UNL     1     -41.813   2.656  -3.151  1.00 20.00     0.017 C 
HETATM    2  C2  UNL     1     -41.455   3.468  -2.343  1.00 20.00    -0.057 C 
HETATM    3  C3  UNL     1     -41.020   4.457  -1.357  1.00 20.00     0.342 C 
HETATM    4  C4  UNL     1     -42.264   6.342  -1.098  1.00 20.00     0.150 C 
HETATM    5  C5  UNL     1     -42.105   5.645   0.238  1.00 20.00     0.150 C 
HETATM    6  C6  UNL     1     -42.135   7.850  -1.037  1.00 20.00     0.042 C 
HETATM    7  C7  UNL     1     -43.352   5.648   1.098  1.00 20.00     0.042 C 
HETATM    8  O8  UNL     1     -41.196   5.786  -1.874  1.00 20.00    -0.343 OA
HETATM    9  O9  UNL     1     -41.771   4.306  -0.143  1.00 20.00    -0.343 OA
ENDROOT
TORSDOF 0
ENDMDL
MODEL 4
REMARK VINA RESULT:      -4.0     11.305     12.724
REMARK  0 active torsions:
REMARK  status: ('A' for Active; 'I' for Inactive)
ROOT
HETATM    1  C1  UNL     1     -34.756  16.633  -0.958  1.00 20.00     0.017 C 
HETATM    2  C2  UNL     1     -34.187  16.263  -1.948  1.00 20.00    -0.057 C 
HETATM    3  C3  UNL     1     -33.494  15.811  -3.155  1.00 20.00     0.342 C 
HETATM    4  C4  UNL     1     -34.738  15.318  -4.993  1.00 20.00     0.150 C 
HETATM    5  C5  UNL     1     -33.683  16.346  -5.349  1.00 20.00     0.150 C 
HETATM    6  C6  UNL     1     -34.937  14.237  -6.036  1.00 20.00     0.042 C 
HETATM    7  C7  UNL     1     -34.162  17.435  -6.286  1.00 20.00     0.042 C 
HETATM    8  O8  UNL     1     -34.228  14.747  -3.782  1.00 20.00    -0.343 OA
HETATM    9  O9  UNL     1     -33.345  16.904  -4.074  1.00 20.00    -0.343 OA
ENDROOT
TORSDOF 0
ENDMDL
MODEL 5
REMARK VINA RESULT:      -3.9     11.030     12.266
REMARK  0 active torsions:
REMARK  status: ('A' for Active; 'I' for Inactive)
ROOT
HETATM    1  C1  UNL     1     -34.485  16.734  -0.782  1.00 20.00     0.017 C 
HETATM    2  C2  UNL     1     -34.998  16.472  -1.835  1.00 20.00    -0.057 C 
HETATM    3  C3  UNL     1     -35.623  16.152  -3.119  1.00 20.00     0.342 C 
HETATM    4  C4  UNL     1     -34.274  15.665  -4.883  1.00 20.00     0.150 C 
HETATM    5  C5  UNL     1     -35.261  14.535  -4.665  1.00 20.00     0.150 C 
HETATM    6  C6  UNL     1     -34.045  16.024  -6.337  1.00 20.00     0.042 C 
HETATM    7  C7  UNL     1     -34.675  13.150  -4.844  1.00 20.00     0.042 C 
HETATM    8  O8  UNL     1     -34.889  16.760  -4.194  1.00 20.00    -0.343 OA
HETATM    9  O9  UNL     1     -35.664  14.729  -3.305  1.00 20.00    -0.343 OA
ENDROOT
TORSDOF 0
ENDMDL
MODEL 6
REMARK VINA RESULT:      -3.9      9.288     11.031
REMARK  0 active torsions:
REMARK  status: ('A' for Active; 'I' for Inactive)
ROOT
HETATM    1  C1  UNL     1     -41.231   1.914  -3.798  1.00 20.00     0.017 C 
HETATM    2  C2  UNL     1     -41.784   2.721  -3.103  1.00 20.00    -0.057 C 
HETATM    3  C3  UNL     1     -42.458   3.705  -2.255  1.00 20.00     0.342 C 
HETATM    4  C4  UNL     1     -41.262   5.492  -1.517  1.00 20.00     0.150 C 
HETATM    5  C5  UNL     1     -42.506   5.970  -2.239  1.00 20.00     0.150 C 
HETATM    6  C6  UNL     1     -40.936   6.262  -0.254  1.00 20.00     0.042 C 
HETATM    7  C7  UNL     1     -42.291   7.186  -3.118  1.00 20.00     0.042 C 
HETATM    8  O8  UNL     1     -41.583   4.133  -1.198  1.00 20.00    -0.343 OA
HETATM    9  O9  UNL     1     -42.859   4.838  -3.040  1.00 20.00    -0.343 OA
ENDROOT
TORSDOF 0
ENDMDL
MODEL 7
REMARK VINA RESULT:      -3.8      9.310     10.358
REMARK  0 active torsions:
REMARK  status: ('A' for Active; 'I' for Inactive)
ROOT
HETATM    1  C1  UNL     1     -43.243   8.162  -3.867  1.00 20.00     0.017 C 
HETATM    2  C2  UNL     1     -42.666   7.924  -2.841  1.00 20.00    -0.057 C 
HETATM    3  C3  UNL     1     -41.964   7.634  -1.590  1.00 20.00     0.342 C 
HETATM    4  C4  UNL     1     -42.585   5.795  -0.406  1.00 20.00     0.150 C 
HETATM    5  C5  UNL     1     -41.098   5.740  -0.696  1.00 20.00     0.150 C 
HETATM    6  C6  UNL     1     -42.966   5.358   0.993  1.00 20.00     0.042 C 
HETATM    7  C7  UNL     1     -40.582   4.363  -1.060  1.00 20.00     0.042 C 
HETATM    8  O8  UNL     1     -42.893   7.182  -0.591  1.00 20.00    -0.343 OA
HETATM    9  O9  UNL     1     -40.963   6.629  -1.810  1.00 20.00    -0.343 OA
ENDROOT
TORSDOF 0
ENDMDL
MODEL 8
REMARK VINA RESULT:      -3.8     11.277     12.525
REMARK  0 active torsions:
REMARK  status: ('A' for Active; 'I' for Inactive)
ROOT
HETATM    1  C1  UNL     1     -34.903  14.399  -6.005  1.00 20.00     0.017 C 
HETATM    2  C2  UNL     1     -34.198  14.964  -5.214  1.00 20.00    -0.057 C 
HETATM    3  C3  UNL     1     -33.340  15.652  -4.250  1.00 20.00     0.342 C 
HETATM    4  C4  UNL     1     -34.099  17.580  -3.314  1.00 20.00     0.150 C 
HETATM    5  C5  UNL     1     -33.720  16.596  -2.225  1.00 20.00     0.150 C 
HETATM    6  C6  UNL     1     -33.682  19.010  -3.038  1.00 20.00     0.042 C 
HETATM    7  C7  UNL     1     -34.669  16.572  -1.045  1.00 20.00     0.042 C 
HETATM    8  O8  UNL     1     -33.400  17.073  -4.456  1.00 20.00    -0.343 OA
HETATM    9  O9  UNL     1     -33.754  15.340  -2.912  1.00 20.00    -0.343 OA
ENDROOT
TORSDOF 0
ENDMDL
MODEL 9
REMARK VINA RESULT:      -3.7      8.848     10.713
REMARK  0 active torsions:
REMARK  status: ('A' for Active; 'I' for Inactive)
ROOT
HETATM    1  C1  UNL     1     -41.545   2.086  -3.417  1.00 20.00     0.017 C 
HETATM    2  C2  UNL     1     -41.969   3.106  -2.948  1.00 20.00    -0.057 C 
HETATM    3  C3  UNL     1     -42.485   4.349  -2.376  1.00 20.00     0.342 C 
HETATM    4  C4  UNL     1     -42.424   4.605  -0.118  1.00 20.00     0.150 C 
HETATM    5  C5  UNL     1     -41.715   5.767  -0.785  1.00 20.00     0.150 C 
HETATM    6  C6  UNL     1     -43.298   4.995   1.056  1.00 20.00     0.042 C 
HETATM    7  C7  UNL     1     -40.451   6.216  -0.082  1.00 20.00     0.042 C 
HETATM    8  O8  UNL     1     -43.229   4.075  -1.177  1.00 20.00    -0.343 OA
HETATM    9  O9  UNL     1     -41.401   5.242  -2.079  1.00 20.00    -0.343 OA
ENDROOT
TORSDOF 0
ENDMDL
