MODEL 1
REMARK VINA RESULT:      -4.8      0.000      0.000
REMARK  0 active torsions:
REMARK  status: ('A' for Active; 'I' for Inactive)
ROOT
HETATM    1  C1  UNL     1     -37.224  14.601  -3.700  1.00 20.00     0.095 C 
HETATM    2  C2  UNL     1     -33.453  14.103  -3.794  1.00 20.00     0.005 C 
HETATM    3  C3  UNL     1     -35.156  17.223  -1.371  1.00 20.00     0.032 C 
HETATM    4  C4  UNL     1     -34.926  13.887  -4.110  1.00 20.00     0.051 C 
HETATM    5  C5  UNL     1     -33.075  15.552  -4.061  1.00 20.00     0.036 C 
HETATM    6  C6  UNL     1     -33.822  16.685  -1.876  1.00 20.00     0.037 C 
HETATM    7  C7  UNL     1     -36.093  17.168  -2.573  1.00 20.00     0.275 C 
HETATM    8  C8  UNL     1     -35.821  14.849  -3.309  1.00 20.00     0.329 C 
HETATM    9  C9  UNL     1     -34.019  16.545  -3.384  1.00 20.00     0.224 C 
HETATM   10  N10 UNL     1     -38.327  14.406  -4.005  1.00 20.00    -0.195 NA
HETATM   11  N11 UNL     1     -35.460  16.263  -3.553  1.00 20.00     0.111 N 
ENDROOT
TORSDOF 0
ENDMDL
MODEL 2
REMARK VINA RESULT:      -4.7      2.284      2.903
REMARK  0 active torsions:
REMARK  status: ('A' for Active; 'I' for Inactive)
ROOT
HETATM    1  C1  UNL     1     -34.736  16.333  -6.883  1.00 20.00     0.095 C 
HETATM    2  C2  UNL     1     -34.689  13.383  -4.481  1.00 20.00     0.005 C 
HETATM    3  C3  UNL     1     -34.114  17.379  -2.998  1.00 20.00     0.032 C 
HETATM    4  C4  UNL     1     -34.782  14.150  -5.792  1.00 20.00     0.051 C 
HETATM    5  C5  UNL     1     -33.396  13.738  -3.765  1.00 20.00     0.036 C 
HETATM    6  C6  UNL     1     -34.057  15.917  -2.570  1.00 20.00     0.037 C 
HETATM    7  C7  UNL     1     -33.452  17.421  -4.372  1.00 20.00     0.275 C 
HETATM    8  C8  UNL     1     -34.675  15.667  -5.566  1.00 20.00     0.329 C 
HETATM    9  C9  UNL     1     -33.188  15.247  -3.631  1.00 20.00     0.224 C 
HETATM   10  N10 UNL     1     -34.784  16.856  -7.918  1.00 20.00    -0.195 NA
HETATM   11  N11 UNL     1     -33.424  16.030  -4.863  1.00 20.00     0.111 N 
ENDROOT
TORSDOF 0
ENDMDL
MODEL 3
REMARK VINA RESULT:      -4.6      1.669      2.871
REMARK  0 active torsions:
REMARK  status: ('A' for Active; 'I' for Inactive)
ROOT
HETATM    1  C1  UNL     1     -37.341  14.825  -3.846  1.00 20.00     0.095 C 
HETATM    2  C2  UNL     1     -33.983  16.178  -2.674  1.00 20.00     0.005 C 
HETATM    3  C3  UNL     1     -34.851  15.914  -6.878  1.00 20.00     0.032 C 
HETATM    4  C4  UNL     1     -35.384  15.589  -2.601  1.00 20.00     0.051 C 
HETATM    5  C5  UNL     1     -33.106  15.317  -3.568  1.00 20.00     0.036 C 
HETATM    6  C6  UNL     1     -33.721  16.211  -5.900  1.00 20.00     0.037 C 
HETATM    7  C7  UNL     1     -35.577  14.704  -6.298  1.00 20.00     0.275 C 
HETATM    8  C8  UNL     1     -36.004  15.435  -4.001  1.00 20.00     0.329 C 
HETATM    9  C9  UNL     1     -33.743  15.033  -4.928  1.00 20.00     0.224 C 
HETATM   10  N10 UNL     1     -38.391  14.347  -3.725  1.00 20.00    -0.195 NA
HETATM   11  N11 UNL     1     -35.158  14.605  -4.886  1.00 20.00     0.111 N 
ENDROOT
TORSDOF 0
ENDMDL
MODEL 4
REMARK VINA RESULT:      -4.6      1.678      2.031
REMARK  0 active torsions:
REMARK  status: ('A' for Active; 'I' for Inactive)
ROOT
HETATM    1  C1  UNL     1     -37.227  14.570  -4.163  1.00 20.00     0.095 C 
HETATM    2  C2  UNL     1     -34.579  14.903  -6.876  1.00 20.00     0.005 C 
HETATM    3  C3  UNL     1     -33.642  15.946  -2.810  1.00 20.00     0.032 C 
HETATM    4  C4  UNL     1     -35.925  14.612  -6.228  1.00 20.00     0.051 C 
HETATM    5  C5  UNL     1     -34.144  16.322  -6.547  1.00 20.00     0.036 C 
HETATM    6  C6  UNL     1     -33.082  16.005  -4.226  1.00 20.00     0.037 C 
HETATM    7  C7  UNL     1     -35.108  16.347  -2.940  1.00 20.00     0.275 C 
HETATM    8  C8  UNL     1     -35.879  14.837  -4.707  1.00 20.00     0.329 C 
HETATM    9  C9  UNL     1     -34.205  16.629  -5.051  1.00 20.00     0.224 C 
HETATM   10  N10 UNL     1     -38.285  14.361  -3.735  1.00 20.00    -0.195 NA
HETATM   11  N11 UNL     1     -35.450  16.212  -4.370  1.00 20.00     0.111 N 
ENDROOT
TORSDOF 0
ENDMDL
MODEL 5
REMARK VINA RESULT:      -4.5      2.058      2.927
REMARK  0 active torsions:
REMARK  status: ('A' for Active; 'I' for Inactive)
ROOT
HETATM    1  C1  UNL     1     -33.558  14.414  -3.769  1.00 20.00     0.095 C 
HETATM    2  C2  UNL     1     -33.443  17.908  -5.271  1.00 20.00     0.005 C 
HETATM    3  C3  UNL     1     -33.797  17.403  -1.015  1.00 20.00     0.032 C 
HETATM    4  C4  UNL     1     -33.456  16.388  -5.202  1.00 20.00     0.051 C 
HETATM    5  C5  UNL     1     -34.658  18.468  -4.548  1.00 20.00     0.036 C 
HETATM    6  C6  UNL     1     -33.844  18.464  -2.108  1.00 20.00     0.037 C 
HETATM    7  C7  UNL     1     -34.582  16.218  -1.570  1.00 20.00     0.275 C 
HETATM    8  C8  UNL     1     -33.511  15.891  -3.747  1.00 20.00     0.329 C 
HETATM    9  C9  UNL     1     -34.821  17.901  -3.138  1.00 20.00     0.224 C 
HETATM   10  N10 UNL     1     -33.594  13.254  -3.785  1.00 20.00    -0.195 NA
HETATM   11  N11 UNL     1     -34.683  16.433  -3.027  1.00 20.00     0.111 N 
ENDROOT
TORSDOF 0
ENDMDL
MODEL 6
REMARK VINA RESULT:      -4.5      1.839      3.174
REMARK  0 active torsions:
REMARK  status: ('A' for Active; 'I' for Inactive)
ROOT
HETATM    1  C1  UNL     1     -34.444  16.062  -2.006  1.00 20.00     0.095 C 
HETATM    2  C2  UNL     1     -34.261  13.438  -4.755  1.00 20.00     0.005 C 
HETATM    3  C3  UNL     1     -33.714  17.597  -5.705  1.00 20.00     0.032 C 
HETATM    4  C4  UNL     1     -34.435  14.035  -3.366  1.00 20.00     0.051 C 
HETATM    5  C5  UNL     1     -35.210  14.116  -5.731  1.00 20.00     0.036 C 
HETATM    6  C6  UNL     1     -33.880  16.228  -6.353  1.00 20.00     0.037 C 
HETATM    7  C7  UNL     1     -34.735  17.633  -4.573  1.00 20.00     0.275 C 
HETATM    8  C8  UNL     1     -34.222  15.559  -3.377  1.00 20.00     0.329 C 
HETATM    9  C9  UNL     1     -35.120  15.641  -5.683  1.00 20.00     0.224 C 
HETATM   10  N10 UNL     1     -34.618  16.458  -0.929  1.00 20.00    -0.195 NA
HETATM   11  N11 UNL     1     -35.133  16.233  -4.328  1.00 20.00     0.111 N 
ENDROOT
TORSDOF 0
ENDMDL
MODEL 7
REMARK VINA RESULT:      -4.4      2.122      4.006
REMARK  0 active torsions:
REMARK  status: ('A' for Active; 'I' for Inactive)
ROOT
HETATM    1  C1  UNL     1     -33.748  17.573  -3.986  1.00 20.00     0.095 C 
HETATM    2  C2  UNL     1     -33.550  13.775  -3.864  1.00 20.00     0.005 C 
HETATM    3  C3  UNL     1     -34.984  15.746  -7.408  1.00 20.00     0.032 C 
HETATM    4  C4  UNL     1     -33.445  15.222  -3.404  1.00 20.00     0.051 C 
HETATM    5  C5  UNL     1     -34.959  13.494  -4.361  1.00 20.00     0.036 C 
HETATM    6  C6  UNL     1     -34.832  14.367  -6.777  1.00 20.00     0.037 C 
HETATM    7  C7  UNL     1     -35.482  16.650  -6.284  1.00 20.00     0.275 C 
HETATM    8  C8  UNL     1     -33.842  16.200  -4.523  1.00 20.00     0.329 C 
HETATM    9  C9  UNL     1     -35.443  14.520  -5.385  1.00 20.00     0.224 C 
HETATM   10  N10 UNL     1     -33.674  18.652  -3.565  1.00 20.00    -0.195 NA
HETATM   11  N11 UNL     1     -35.208  15.934  -5.023  1.00 20.00     0.111 N 
ENDROOT
TORSDOF 0
ENDMDL
MODEL 8
REMARK VINA RESULT:      -4.4      1.896      3.831
REMARK  0 active torsions:
REMARK  status: ('A' for Active; 'I' for Inactive)
ROOT
HETATM    1  C1  UNL     1     -34.247  17.113  -6.313  1.00 20.00     0.095 C 
HETATM    2  C2  UNL     1     -33.667  16.713  -2.573  1.00 20.00     0.005 C 
HETATM    3  C3  UNL     1     -34.536  13.270  -5.000  1.00 20.00     0.032 C 
HETATM    4  C4  UNL     1     -33.818  17.394  -3.926  1.00 20.00     0.051 C 
HETATM    5  C5  UNL     1     -34.902  15.878  -2.276  1.00 20.00     0.036 C 
HETATM    6  C6  UNL     1     -34.370  13.708  -3.550  1.00 20.00     0.037 C 
HETATM    7  C7  UNL     1     -35.353  14.375  -5.663  1.00 20.00     0.275 C 
HETATM    8  C8  UNL     1     -34.077  16.372  -5.046  1.00 20.00     0.329 C 
HETATM    9  C9  UNL     1     -35.270  14.935  -3.421  1.00 20.00     0.224 C 
HETATM   10  N10 UNL     1     -34.381  17.695  -7.308  1.00 20.00    -0.195 NA
HETATM   11  N11 UNL     1     -35.272  15.545  -4.767  1.00 20.00     0.111 N 
ENDROOT
TORSDOF 0
ENDMDL
MODEL 9
REMARK VINA RESULT:      -4.4      2.088      3.168
REMARK  0 active torsions:
REMARK  status: ('A' for Active; 'I' for Inactive)
ROOT
HETATM    1  C1  UNL     1     -34.820  13.817  -4.420  1.00 20.00     0.095 C 
HETATM    2  C2  UNL     1     -34.887  16.832  -2.098  1.00 20.00     0.005 C 
HETATM    3  C3  UNL     1     -34.828  17.396  -6.362  1.00 20.00     0.032 C 
HETATM    4  C4  UNL     1     -34.853  15.376  -2.541  1.00 20.00     0.051 C 
HETATM    5  C5  UNL     1     -33.737  17.593  -2.739  1.00 20.00     0.036 C 
HETATM    6  C6  UNL     1     -34.721  18.158  -5.046  1.00 20.00     0.037 C 
HETATM    7  C7  UNL     1     -33.986  16.139  -6.168  1.00 20.00     0.275 C 
HETATM    8  C8  UNL     1     -34.893  15.252  -4.074  1.00 20.00     0.329 C 
HETATM    9  C9  UNL     1     -33.664  17.394  -4.252  1.00 20.00     0.224 C 
HETATM   10  N10 UNL     1     -34.762  12.691  -4.692  1.00 20.00    -0.195 NA
HETATM   11  N11 UNL     1     -33.784  15.994  -4.713  1.00 20.00     0.111 N 
ENDROOT
TORSDOF 0
ENDMDL
