MODEL 1
REMARK VINA RESULT:      -4.1      0.000      0.000
REMARK  2 active torsions:
REMARK  status: ('A' for Active; 'I' for Inactive)
REMARK    1  A    between atoms: C5_5  and  C8_8 
REMARK    2  A    between atoms: C8_8  and  N10_10 
ROOT
HETATM    1  C1  UNL     1     -35.080  13.218  -4.314  1.00 20.00     0.135 A 
HETATM    2  C2  UNL     1     -35.596  14.473  -4.085  1.00 20.00     0.112 A 
HETATM    3  C3  UNL     1     -33.424  14.416  -3.719  1.00 20.00     0.210 A 
HETATM    4  N9  UNL     1     -33.727  13.190  -4.084  1.00 20.00    -0.255 NA
HETATM    5  N10 UNL     1     -34.523  15.229  -3.704  1.00 20.00    -0.338 N 
ENDROOT
BRANCH   5   6
HETATM    6  C8  UNL     1     -34.546  16.675  -3.339  1.00 20.00     0.047 C 
HETATM    7  C6  UNL     1     -33.665  17.565  -4.251  1.00 20.00     0.043 C 
HETATM    8  C7  UNL     1     -35.999  17.188  -3.492  1.00 20.00     0.043 C 
BRANCH   6   9
HETATM    9  C5  UNL     1     -33.966  16.842  -1.935  1.00 20.00    -0.007 C 
HETATM   10  C4  UNL     1     -34.593  16.658  -0.766  1.00 20.00     0.009 C 
ENDBRANCH   6   9
ENDBRANCH   5   6
TORSDOF 2
ENDMDL
MODEL 2
REMARK VINA RESULT:      -3.9      0.488      1.922
REMARK  2 active torsions:
REMARK  status: ('A' for Active; 'I' for Inactive)
REMARK    1  A    between atoms: C5_5  and  C8_8 
REMARK    2  A    between atoms: C8_8  and  N10_10 
ROOT
HETATM    1  C1  UNL     1     -35.116  13.200  -4.430  1.00 20.00     0.135 A 
HETATM    2  C2  UNL     1     -35.687  14.393  -4.051  1.00 20.00     0.112 A 
HETATM    3  C3  UNL     1     -33.544  14.329  -3.545  1.00 20.00     0.210 A 
HETATM    4  N9  UNL     1     -33.782  13.167  -4.111  1.00 20.00    -0.255 NA
HETATM    5  N10 UNL     1     -34.668  15.106  -3.485  1.00 20.00    -0.338 N 
ENDROOT
BRANCH   5   6
HETATM    6  C8  UNL     1     -34.762  16.479  -2.909  1.00 20.00     0.047 C 
HETATM    7  C6  UNL     1     -36.126  17.171  -3.160  1.00 20.00     0.043 C 
HETATM    8  C7  UNL     1     -34.600  16.369  -1.373  1.00 20.00     0.043 C 
BRANCH   6   9
HETATM    9  C5  UNL     1     -33.727  17.374  -3.588  1.00 20.00    -0.007 C 
HETATM   10  C4  UNL     1     -33.674  17.725  -4.880  1.00 20.00     0.009 C 
ENDBRANCH   6   9
ENDBRANCH   5   6
TORSDOF 2
ENDMDL
MODEL 3
REMARK VINA RESULT:      -3.8      1.359      2.318
REMARK  2 active torsions:
REMARK  status: ('A' for Active; 'I' for Inactive)
REMARK    1  A    between atoms: C5_5  and  C8_8 
REMARK    2  A    between atoms: C8_8  and  N10_10 
ROOT
HETATM    1  C1  UNL     1     -37.683  15.566  -4.019  1.00 20.00     0.135 A 
HETATM    2  C2  UNL     1     -36.630  16.444  -3.911  1.00 20.00     0.112 A 
HETATM    3  C3  UNL     1     -35.949  14.351  -3.800  1.00 20.00     0.210 A 
HETATM    4  N9  UNL     1     -37.252  14.265  -3.949  1.00 20.00    -0.255 NA
HETATM    5  N10 UNL     1     -35.525  15.651  -3.771  1.00 20.00    -0.338 N 
ENDROOT
BRANCH   5   6
HETATM    6  C8  UNL     1     -34.116  16.117  -3.615  1.00 20.00     0.047 C 
HETATM    7  C6  UNL     1     -33.076  14.969  -3.588  1.00 20.00     0.043 C 
HETATM    8  C7  UNL     1     -33.764  17.002  -4.835  1.00 20.00     0.043 C 
BRANCH   6   9
HETATM    9  C5  UNL     1     -33.973  16.820  -2.266  1.00 20.00    -0.007 C 
HETATM   10  C4  UNL     1     -34.547  16.482  -1.104  1.00 20.00     0.009 C 
ENDBRANCH   6   9
ENDBRANCH   5   6
TORSDOF 2
ENDMDL
MODEL 4
REMARK VINA RESULT:      -3.8      1.827      3.350
REMARK  2 active torsions:
REMARK  status: ('A' for Active; 'I' for Inactive)
REMARK    1  A    between atoms: C5_5  and  C8_8 
REMARK    2  A    between atoms: C8_8  and  N10_10 
ROOT
HETATM    1  C1  UNL     1     -37.895  15.699  -3.518  1.00 20.00     0.135 A 
HETATM    2  C2  UNL     1     -36.659  16.297  -3.435  1.00 20.00     0.112 A 
HETATM    3  C3  UNL     1     -36.492  14.175  -4.005  1.00 20.00     0.210 A 
HETATM    4  N9  UNL     1     -37.784  14.378  -3.874  1.00 20.00    -0.255 NA
HETATM    5  N10 UNL     1     -35.770  15.307  -3.749  1.00 20.00    -0.338 N 
ENDROOT
BRANCH   5   6
HETATM    6  C8  UNL     1     -34.285  15.438  -3.803  1.00 20.00     0.047 C 
HETATM    7  C6  UNL     1     -33.679  16.203  -2.599  1.00 20.00     0.043 C 
HETATM    8  C7  UNL     1     -33.675  14.015  -3.774  1.00 20.00     0.043 C 
BRANCH   6   9
HETATM    9  C5  UNL     1     -33.904  16.260  -5.033  1.00 20.00    -0.007 C 
HETATM   10  C4  UNL     1     -34.026  15.907  -6.320  1.00 20.00     0.009 C 
ENDBRANCH   6   9
ENDBRANCH   5   6
TORSDOF 2
ENDMDL
MODEL 5
REMARK VINA RESULT:      -3.7     11.505     12.829
REMARK  2 active torsions:
REMARK  status: ('A' for Active; 'I' for Inactive)
REMARK    1  A    between atoms: C5_5  and  C8_8 
REMARK    2  A    between atoms: C8_8  and  N10_10 
ROOT
HETATM    1  C1  UNL     1     -42.752   7.654  -3.403  1.00 20.00     0.135 A 
HETATM    2  C2  UNL     1     -42.005   7.415  -2.273  1.00 20.00     0.112 A 
HETATM    3  C3  UNL     1     -42.963   5.572  -3.011  1.00 20.00     0.210 A 
HETATM    4  N9  UNL     1     -43.345   6.503  -3.857  1.00 20.00    -0.255 NA
HETATM    5  N10 UNL     1     -42.151   6.077  -2.033  1.00 20.00    -0.338 N 
ENDROOT
BRANCH   5   6
HETATM    6  C8  UNL     1     -41.536   5.307  -0.912  1.00 20.00     0.047 C 
HETATM    7  C6  UNL     1     -40.675   4.106  -1.376  1.00 20.00     0.043 C 
HETATM    8  C7  UNL     1     -40.589   6.256  -0.139  1.00 20.00     0.043 C 
BRANCH   6   9
HETATM    9  C5  UNL     1     -42.649   4.698  -0.060  1.00 20.00    -0.007 C 
HETATM   10  C4  UNL     1     -43.194   5.204   1.054  1.00 20.00     0.009 C 
ENDBRANCH   6   9
ENDBRANCH   5   6
TORSDOF 2
ENDMDL
MODEL 6
REMARK VINA RESULT:      -3.7      1.846      3.310
REMARK  2 active torsions:
REMARK  status: ('A' for Active; 'I' for Inactive)
REMARK    1  A    between atoms: C5_5  and  C8_8 
REMARK    2  A    between atoms: C8_8  and  N10_10 
ROOT
HETATM    1  C1  UNL     1     -34.072  17.387  -6.535  1.00 20.00     0.135 A 
HETATM    2  C2  UNL     1     -33.879  17.069  -5.211  1.00 20.00     0.112 A 
HETATM    3  C3  UNL     1     -34.502  15.308  -6.380  1.00 20.00     0.210 A 
HETATM    4  N9  UNL     1     -34.460  16.286  -7.257  1.00 20.00    -0.255 NA
HETATM    5  N10 UNL     1     -34.159  15.734  -5.126  1.00 20.00    -0.338 N 
ENDROOT
BRANCH   5   6
HETATM    6  C8  UNL     1     -34.101  14.895  -3.894  1.00 20.00     0.047 C 
HETATM    7  C6  UNL     1     -34.720  13.485  -4.067  1.00 20.00     0.043 C 
HETATM    8  C7  UNL     1     -32.613  14.680  -3.528  1.00 20.00     0.043 C 
BRANCH   6   9
HETATM    9  C5  UNL     1     -34.928  15.565  -2.798  1.00 20.00    -0.007 C 
HETATM   10  C4  UNL     1     -34.477  16.209  -1.713  1.00 20.00     0.009 C 
ENDBRANCH   6   9
ENDBRANCH   5   6
TORSDOF 2
ENDMDL
MODEL 7
REMARK VINA RESULT:      -3.7      2.028      2.988
REMARK  2 active torsions:
REMARK  status: ('A' for Active; 'I' for Inactive)
REMARK    1  A    between atoms: C5_5  and  C8_8 
REMARK    2  A    between atoms: C8_8  and  N10_10 
ROOT
HETATM    1  C1  UNL     1     -34.389  16.484  -7.116  1.00 20.00     0.135 A 
HETATM    2  C2  UNL     1     -34.406  16.658  -5.752  1.00 20.00     0.112 A 
HETATM    3  C3  UNL     1     -34.642  14.536  -6.297  1.00 20.00     0.210 A 
HETATM    4  N9  UNL     1     -34.536  15.161  -7.449  1.00 20.00    -0.255 NA
HETATM    5  N10 UNL     1     -34.569  15.401  -5.241  1.00 20.00    -0.338 N 
ENDROOT
BRANCH   5   6
HETATM    6  C8  UNL     1     -34.653  15.039  -3.795  1.00 20.00     0.047 C 
HETATM    7  C6  UNL     1     -36.061  15.238  -3.180  1.00 20.00     0.043 C 
HETATM    8  C7  UNL     1     -34.320  13.534  -3.657  1.00 20.00     0.043 C 
BRANCH   6   9
HETATM    9  C5  UNL     1     -33.732  15.962  -2.999  1.00 20.00    -0.007 C 
HETATM   10  C4  UNL     1     -34.023  16.634  -1.876  1.00 20.00     0.009 C 
ENDBRANCH   6   9
ENDBRANCH   5   6
TORSDOF 2
ENDMDL
MODEL 8
REMARK VINA RESULT:      -3.7      2.078      2.694
REMARK  2 active torsions:
REMARK  status: ('A' for Active; 'I' for Inactive)
REMARK    1  A    between atoms: C5_5  and  C8_8 
REMARK    2  A    between atoms: C8_8  and  N10_10 
ROOT
HETATM    1  C1  UNL     1     -33.708  13.425  -3.768  1.00 20.00     0.135 A 
HETATM    2  C2  UNL     1     -33.516  14.740  -4.123  1.00 20.00     0.112 A 
HETATM    3  C3  UNL     1     -35.144  13.819  -5.289  1.00 20.00     0.210 A 
HETATM    4  N9  UNL     1     -34.723  12.858  -4.496  1.00 20.00    -0.255 NA
HETATM    5  N10 UNL     1     -34.443  14.977  -5.100  1.00 20.00    -0.338 N 
ENDROOT
BRANCH   5   6
HETATM    6  C8  UNL     1     -34.652  16.264  -5.826  1.00 20.00     0.047 C 
HETATM    7  C6  UNL     1     -34.593  16.130  -7.368  1.00 20.00     0.043 C 
HETATM    8  C7  UNL     1     -36.069  16.785  -5.483  1.00 20.00     0.043 C 
BRANCH   6   9
HETATM    9  C5  UNL     1     -33.523  17.228  -5.463  1.00 20.00    -0.007 C 
HETATM   10  C4  UNL     1     -33.631  18.427  -4.876  1.00 20.00     0.009 C 
ENDBRANCH   6   9
ENDBRANCH   5   6
TORSDOF 2
ENDMDL
MODEL 9
REMARK VINA RESULT:      -3.6      1.913      2.664
REMARK  2 active torsions:
REMARK  status: ('A' for Active; 'I' for Inactive)
REMARK    1  A    between atoms: C5_5  and  C8_8 
REMARK    2  A    between atoms: C8_8  and  N10_10 
ROOT
HETATM    1  C1  UNL     1     -33.695  13.491  -3.751  1.00 20.00     0.135 A 
HETATM    2  C2  UNL     1     -33.559  14.829  -4.040  1.00 20.00     0.112 A 
HETATM    3  C3  UNL     1     -35.001  13.854  -5.392  1.00 20.00     0.210 A 
HETATM    4  N9  UNL     1     -34.594  12.890  -4.596  1.00 20.00    -0.255 NA
HETATM    5  N10 UNL     1     -34.401  15.046  -5.094  1.00 20.00    -0.338 N 
ENDROOT
BRANCH   5   6
HETATM    6  C8  UNL     1     -34.627  16.346  -5.792  1.00 20.00     0.047 C 
HETATM    7  C6  UNL     1     -33.577  17.432  -5.448  1.00 20.00     0.043 C 
HETATM    8  C7  UNL     1     -34.522  16.099  -7.316  1.00 20.00     0.043 C 
BRANCH   6   9
HETATM    9  C5  UNL     1     -35.967  16.925  -5.340  1.00 20.00    -0.007 C 
HETATM   10  C4  UNL     1     -36.320  17.294  -4.101  1.00 20.00     0.009 C 
ENDBRANCH   6   9
ENDBRANCH   5   6
TORSDOF 2
ENDMDL
