MODEL 1
REMARK VINA RESULT:      -4.5      0.000      0.000
REMARK  1 active torsions:
REMARK  status: ('A' for Active; 'I' for Inactive)
REMARK    1  A    between atoms: C1_1  and  C3_3 
ROOT
HETATM    1  C1  UNL     1     -32.736   6.716   3.565  1.00 20.00    -0.054 C 
HETATM    2  C2  UNL     1     -32.375   7.411   2.656  1.00 20.00     0.007 C 
HETATM    3 CL8  UNL     1     -31.849   8.427   1.327  1.00 20.00    -0.023 Cl
ENDROOT
BRANCH   1   4
HETATM    4  C3  UNL     1     -33.165   5.887   4.649  1.00 20.00     0.236 A 
HETATM    5  C4  UNL     1     -34.574   5.330   4.713  1.00 20.00     0.092 A 
HETATM    6  C5  UNL     1     -34.833   4.130   5.572  1.00 20.00     0.049 C 
HETATM    7  C6  UNL     1     -35.578   5.604   3.636  1.00 20.00     0.049 C 
HETATM    8  O7  UNL     1     -34.189   6.496   5.453  1.00 20.00    -0.357 OA
ENDBRANCH   1   4
TORSDOF 1
ENDMDL
MODEL 2
REMARK VINA RESULT:      -3.7     11.557     11.782
REMARK  1 active torsions:
REMARK  status: ('A' for Active; 'I' for Inactive)
REMARK    1  A    between atoms: C1_1  and  C3_3 
ROOT
HETATM    1  C1  UNL     1     -34.349  15.634  -2.422  1.00 20.00    -0.054 C 
HETATM    2  C2  UNL     1     -34.572  16.263  -1.425  1.00 20.00     0.007 C 
HETATM    3 CL8  UNL     1     -34.898  17.183   0.032  1.00 20.00    -0.023 Cl
ENDROOT
BRANCH   1   4
HETATM    4  C3  UNL     1     -34.084  14.884  -3.611  1.00 20.00     0.236 A 
HETATM    5  C4  UNL     1     -35.201  14.250  -4.417  1.00 20.00     0.092 A 
HETATM    6  C5  UNL     1     -34.942  13.897  -5.849  1.00 20.00     0.049 C 
HETATM    7  C6  UNL     1     -36.638  14.394  -4.018  1.00 20.00     0.049 C 
HETATM    8  O7  UNL     1     -34.418  13.492  -3.485  1.00 20.00    -0.357 OA
ENDBRANCH   1   4
TORSDOF 1
ENDMDL
MODEL 3
REMARK VINA RESULT:      -3.7     11.729     11.961
REMARK  1 active torsions:
REMARK  status: ('A' for Active; 'I' for Inactive)
REMARK    1  A    between atoms: C1_1  and  C3_3 
ROOT
HETATM    1  C1  UNL     1     -34.809  16.007  -1.967  1.00 20.00    -0.054 C 
HETATM    2  C2  UNL     1     -34.532  16.722  -1.044  1.00 20.00     0.007 C 
HETATM    3 CL8  UNL     1     -34.129  17.766   0.306  1.00 20.00    -0.023 Cl
ENDROOT
BRANCH   1   4
HETATM    4  C3  UNL     1     -35.138  15.155  -3.067  1.00 20.00     0.236 A 
HETATM    5  C4  UNL     1     -34.063  14.512  -3.923  1.00 20.00     0.092 A 
HETATM    6  C5  UNL     1     -34.418  13.300  -4.729  1.00 20.00     0.049 C 
HETATM    7  C6  UNL     1     -32.606  14.722  -3.645  1.00 20.00     0.049 C 
HETATM    8  O7  UNL     1     -34.748  15.701  -4.339  1.00 20.00    -0.357 OA
ENDBRANCH   1   4
TORSDOF 1
ENDMDL
MODEL 4
REMARK VINA RESULT:      -3.4     10.099     10.771
REMARK  1 active torsions:
REMARK  status: ('A' for Active; 'I' for Inactive)
REMARK    1  A    between atoms: C1_1  and  C3_3 
ROOT
HETATM    1  C1  UNL     1     -41.622   4.264  -2.003  1.00 20.00    -0.054 C 
HETATM    2  C2  UNL     1     -41.557   3.259  -2.656  1.00 20.00     0.007 C 
HETATM    3 CL8  UNL     1     -41.462   1.792  -3.611  1.00 20.00    -0.023 Cl
ENDROOT
BRANCH   1   4
HETATM    4  C3  UNL     1     -41.699   5.461  -1.224  1.00 20.00     0.236 A 
HETATM    5  C4  UNL     1     -42.209   6.761  -1.814  1.00 20.00     0.092 A 
HETATM    6  C5  UNL     1     -42.707   7.825  -0.884  1.00 20.00     0.049 C 
HETATM    7  C6  UNL     1     -42.675   6.851  -3.235  1.00 20.00     0.049 C 
HETATM    8  O7  UNL     1     -40.808   6.491  -1.683  1.00 20.00    -0.357 OA
ENDBRANCH   1   4
TORSDOF 1
ENDMDL
MODEL 5
REMARK VINA RESULT:      -3.4      1.241      1.633
REMARK  1 active torsions:
REMARK  status: ('A' for Active; 'I' for Inactive)
REMARK    1  A    between atoms: C1_1  and  C3_3 
ROOT
HETATM    1  C1  UNL     1     -33.360   6.444   3.411  1.00 20.00    -0.054 C 
HETATM    2  C2  UNL     1     -32.766   7.256   2.757  1.00 20.00     0.007 C 
HETATM    3 CL8  UNL     1     -31.899   8.442   1.800  1.00 20.00    -0.023 Cl
ENDROOT
BRANCH   1   4
HETATM    4  C3  UNL     1     -34.067   5.477   4.192  1.00 20.00     0.236 A 
HETATM    5  C4  UNL     1     -34.253   5.646   5.688  1.00 20.00     0.092 A 
HETATM    6  C5  UNL     1     -35.360   4.894   6.363  1.00 20.00     0.049 C 
HETATM    7  C6  UNL     1     -33.723   6.843   6.416  1.00 20.00     0.049 C 
HETATM    8  O7  UNL     1     -33.230   4.801   5.145  1.00 20.00    -0.357 OA
ENDBRANCH   1   4
TORSDOF 1
ENDMDL
MODEL 6
REMARK VINA RESULT:      -3.3     11.953     12.970
REMARK  1 active torsions:
REMARK  status: ('A' for Active; 'I' for Inactive)
REMARK    1  A    between atoms: C1_1  and  C3_3 
ROOT
HETATM    1  C1  UNL     1     -34.257  16.560  -1.484  1.00 20.00    -0.054 C 
HETATM    2  C2  UNL     1     -34.671  16.929  -0.420  1.00 20.00     0.007 C 
HETATM    3 CL8  UNL     1     -35.278  17.468   1.134  1.00 20.00    -0.023 Cl
ENDROOT
BRANCH   1   4
HETATM    4  C3  UNL     1     -33.762  16.120  -2.752  1.00 20.00     0.236 A 
HETATM    5  C4  UNL     1     -34.166  16.806  -4.044  1.00 20.00     0.092 A 
HETATM    6  C5  UNL     1     -33.294  16.634  -5.250  1.00 20.00     0.049 C 
HETATM    7  C6  UNL     1     -35.085  17.989  -4.052  1.00 20.00     0.049 C 
HETATM    8  O7  UNL     1     -34.791  15.593  -3.606  1.00 20.00    -0.357 OA
ENDBRANCH   1   4
TORSDOF 1
ENDMDL
MODEL 7
REMARK VINA RESULT:      -3.2      9.773     11.107
REMARK  1 active torsions:
REMARK  status: ('A' for Active; 'I' for Inactive)
REMARK    1  A    between atoms: C1_1  and  C3_3 
ROOT
HETATM    1  C1  UNL     1     -42.151   3.360  -3.028  1.00 20.00    -0.054 C 
HETATM    2  C2  UNL     1     -41.942   2.213  -3.310  1.00 20.00     0.007 C 
HETATM    3 CL8  UNL     1     -41.637   0.536  -3.722  1.00 20.00    -0.023 Cl
ENDROOT
BRANCH   1   4
HETATM    4  C3  UNL     1     -42.400   4.728  -2.693  1.00 20.00     0.236 A 
HETATM    5  C4  UNL     1     -41.635   5.426  -1.584  1.00 20.00     0.092 A 
HETATM    6  C5  UNL     1     -41.584   6.923  -1.581  1.00 20.00     0.049 C 
HETATM    7  C6  UNL     1     -40.569   4.724  -0.801  1.00 20.00     0.049 C 
HETATM    8  O7  UNL     1     -42.950   4.894  -1.375  1.00 20.00    -0.357 OA
ENDBRANCH   1   4
TORSDOF 1
ENDMDL
MODEL 8
REMARK VINA RESULT:      -3.2      9.235     10.385
REMARK  1 active torsions:
REMARK  status: ('A' for Active; 'I' for Inactive)
REMARK    1  A    between atoms: C1_1  and  C3_3 
ROOT
HETATM    1  C1  UNL     1     -42.400   6.752  -2.916  1.00 20.00    -0.054 C 
HETATM    2  C2  UNL     1     -42.377   7.715  -3.631  1.00 20.00     0.007 C 
HETATM    3 CL8  UNL     1     -42.345   9.123  -4.676  1.00 20.00    -0.023 Cl
ENDROOT
BRANCH   1   4
HETATM    4  C3  UNL     1     -42.427   5.604  -2.063  1.00 20.00     0.236 A 
HETATM    5  C4  UNL     1     -41.616   5.546  -0.782  1.00 20.00     0.092 A 
HETATM    6  C5  UNL     1     -42.021   4.571   0.280  1.00 20.00     0.049 C 
HETATM    7  C6  UNL     1     -40.764   6.696  -0.338  1.00 20.00     0.049 C 
HETATM    8  O7  UNL     1     -41.162   4.925  -1.992  1.00 20.00    -0.357 OA
ENDBRANCH   1   4
TORSDOF 1
ENDMDL
MODEL 9
REMARK VINA RESULT:      -3.2     11.997     12.688
REMARK  1 active torsions:
REMARK  status: ('A' for Active; 'I' for Inactive)
REMARK    1  A    between atoms: C1_1  and  C3_3 
ROOT
HETATM    1  C1  UNL     1     -34.541  14.927  -4.884  1.00 20.00    -0.054 C 
HETATM    2  C2  UNL     1     -34.647  14.865  -6.078  1.00 20.00     0.007 C 
HETATM    3 CL8  UNL     1     -34.801  14.773  -7.822  1.00 20.00    -0.023 Cl
ENDROOT
BRANCH   1   4
HETATM    4  C3  UNL     1     -34.415  15.002  -3.462  1.00 20.00     0.236 A 
HETATM    5  C4  UNL     1     -34.228  16.328  -2.749  1.00 20.00     0.092 A 
HETATM    6  C5  UNL     1     -34.567  16.414  -1.293  1.00 20.00     0.049 C 
HETATM    7  C6  UNL     1     -34.185  17.624  -3.499  1.00 20.00     0.049 C 
HETATM    8  O7  UNL     1     -33.122  15.460  -3.033  1.00 20.00    -0.357 OA
ENDBRANCH   1   4
TORSDOF 1
ENDMDL
