MODEL 1
REMARK VINA RESULT:      -5.4      0.000      0.000
REMARK  1 active torsions:
REMARK  status: ('A' for Active; 'I' for Inactive)
REMARK    1  A    between atoms: C7_7  and  C9_9 
ROOT
HETATM    1  C1  UNL     1     -35.014   4.759   5.835  1.00 20.00    -0.004 A 
HETATM    2  C2  UNL     1     -34.191   5.790   6.410  1.00 20.00    -0.004 A 
HETATM    3  C3  UNL     1     -35.249   4.701   4.518  1.00 20.00    -0.017 A 
HETATM    4  C4  UNL     1     -33.664   6.767   5.663  1.00 20.00    -0.020 A 
HETATM    5  C5  UNL     1     -33.708   5.062   2.601  1.00 20.00    -0.021 C 
HETATM    6  C6  UNL     1     -32.552   5.724   2.538  1.00 20.00    -0.017 C 
HETATM    7  C8  UNL     1     -34.689   5.698   3.540  1.00 20.00     0.039 A 
HETATM    8  C9  UNL     1     -32.535   6.930   3.415  1.00 20.00     0.086 C 
HETATM    9  C10 UNL     1     -33.881   6.878   4.171  1.00 20.00     0.034 A 
ENDROOT
BRANCH   8  10
HETATM   10  C7  UNL     1     -32.444   8.125   2.517  1.00 20.00     0.131 C 
HETATM   11  C11 UNL     1     -31.648   7.961   1.251  1.00 20.00     0.091 C 
HETATM   12  O12 UNL     1     -32.996   9.187   2.800  1.00 20.00    -0.298 OA
ENDBRANCH   8  10
TORSDOF 1
ENDMDL
MODEL 2
REMARK VINA RESULT:      -5.1     10.607     12.393
REMARK  1 active torsions:
REMARK  status: ('A' for Active; 'I' for Inactive)
REMARK    1  A    between atoms: C7_7  and  C9_9 
ROOT
HETATM    1  C1  UNL     1     -34.052  18.712  -1.836  1.00 20.00    -0.004 A 
HETATM    2  C2  UNL     1     -34.454  17.660  -0.941  1.00 20.00    -0.004 A 
HETATM    3  C3  UNL     1     -33.739  18.465  -3.115  1.00 20.00    -0.017 A 
HETATM    4  C4  UNL     1     -34.484  16.380  -1.329  1.00 20.00    -0.020 A 
HETATM    5  C5  UNL     1     -34.830  16.964  -4.767  1.00 20.00    -0.021 C 
HETATM    6  C6  UNL     1     -35.623  15.908  -4.580  1.00 20.00    -0.017 C 
HETATM    7  C8  UNL     1     -33.770  17.085  -3.715  1.00 20.00     0.039 A 
HETATM    8  C9  UNL     1     -35.246  15.117  -3.373  1.00 20.00     0.086 C 
HETATM    9  C10 UNL     1     -34.105  15.927  -2.720  1.00 20.00     0.034 A 
ENDROOT
BRANCH   8  10
HETATM   10  C7  UNL     1     -34.778  13.778  -3.853  1.00 20.00     0.131 C 
HETATM   11  C11 UNL     1     -33.301  13.506  -3.764  1.00 20.00     0.091 C 
HETATM   12  O12 UNL     1     -35.563  12.942  -4.298  1.00 20.00    -0.298 OA
ENDBRANCH   8  10
TORSDOF 1
ENDMDL
MODEL 3
REMARK VINA RESULT:      -4.9     10.889     13.708
REMARK  1 active torsions:
REMARK  status: ('A' for Active; 'I' for Inactive)
REMARK    1  A    between atoms: C7_7  and  C9_9 
ROOT
HETATM    1  C1  UNL     1     -34.095  18.364  -6.882  1.00 20.00    -0.004 A 
HETATM    2  C2  UNL     1     -33.687  18.337  -5.502  1.00 20.00    -0.004 A 
HETATM    3  C3  UNL     1     -34.422  17.244  -7.540  1.00 20.00    -0.017 A 
HETATM    4  C4  UNL     1     -33.567  17.188  -4.827  1.00 20.00    -0.020 A 
HETATM    5  C5  UNL     1     -35.755  15.284  -6.795  1.00 20.00    -0.021 C 
HETATM    6  C6  UNL     1     -36.027  14.843  -5.566  1.00 20.00    -0.017 C 
HETATM    7  C8  UNL     1     -34.384  15.880  -6.906  1.00 20.00     0.039 A 
HETATM    8  C9  UNL     1     -34.893  15.054  -4.620  1.00 20.00     0.086 C 
HETATM    9  C10 UNL     1     -33.843  15.834  -5.441  1.00 20.00     0.034 A 
ENDROOT
BRANCH   8  10
HETATM   10  C7  UNL     1     -34.396  13.699  -4.221  1.00 20.00     0.131 C 
HETATM   11  C11 UNL     1     -33.027  13.635  -3.600  1.00 20.00     0.091 C 
HETATM   12  O12 UNL     1     -35.076  12.687  -4.390  1.00 20.00    -0.298 OA
ENDBRANCH   8  10
TORSDOF 1
ENDMDL
MODEL 4
REMARK VINA RESULT:      -4.9     10.910     12.431
REMARK  1 active torsions:
REMARK  status: ('A' for Active; 'I' for Inactive)
REMARK    1  A    between atoms: C7_7  and  C9_9 
ROOT
HETATM    1  C1  UNL     1     -35.169  13.735  -5.653  1.00 20.00    -0.004 A 
HETATM    2  C2  UNL     1     -34.348  13.278  -4.564  1.00 20.00    -0.004 A 
HETATM    3  C3  UNL     1     -35.705  14.963  -5.662  1.00 20.00    -0.017 A 
HETATM    4  C4  UNL     1     -34.122  14.039  -3.486  1.00 20.00    -0.020 A 
HETATM    5  C5  UNL     1     -34.717  17.144  -4.999  1.00 20.00    -0.021 C 
HETATM    6  C6  UNL     1     -33.687  17.415  -4.196  1.00 20.00    -0.017 C 
HETATM    7  C8  UNL     1     -35.506  15.953  -4.547  1.00 20.00     0.039 A 
HETATM    8  C9  UNL     1     -33.589  16.464  -3.052  1.00 20.00     0.086 C 
HETATM    9  C10 UNL     1     -34.701  15.425  -3.315  1.00 20.00     0.034 A 
ENDROOT
BRANCH   8  10
HETATM   10  C7  UNL     1     -33.844  17.251  -1.804  1.00 20.00     0.131 C 
HETATM   11  C11 UNL     1     -34.717  16.605  -0.762  1.00 20.00     0.091 C 
HETATM   12  O12 UNL     1     -33.363  18.371  -1.637  1.00 20.00    -0.298 OA
ENDBRANCH   8  10
TORSDOF 1
ENDMDL
MODEL 5
REMARK VINA RESULT:      -4.9     11.080     12.264
REMARK  1 active torsions:
REMARK  status: ('A' for Active; 'I' for Inactive)
REMARK    1  A    between atoms: C7_7  and  C9_9 
ROOT
HETATM    1  C1  UNL     1     -32.872  14.834  -3.298  1.00 20.00    -0.004 A 
HETATM    2  C2  UNL     1     -33.693  15.882  -2.752  1.00 20.00    -0.004 A 
HETATM    3  C3  UNL     1     -33.397  13.834  -4.018  1.00 20.00    -0.017 A 
HETATM    4  C4  UNL     1     -35.024  15.879  -2.894  1.00 20.00    -0.020 A 
HETATM    5  C5  UNL     1     -35.161  13.877  -5.768  1.00 20.00    -0.021 C 
HETATM    6  C6  UNL     1     -36.117  14.776  -6.005  1.00 20.00    -0.017 C 
HETATM    7  C8  UNL     1     -34.869  13.715  -4.306  1.00 20.00     0.039 A 
HETATM    8  C9  UNL     1     -36.652  15.385  -4.754  1.00 20.00     0.086 C 
HETATM    9  C10 UNL     1     -35.776  14.793  -3.629  1.00 20.00     0.034 A 
ENDROOT
BRANCH   8  10
HETATM   10  C7  UNL     1     -38.082  14.956  -4.633  1.00 20.00     0.131 C 
HETATM   11  C11 UNL     1     -39.016  15.400  -5.726  1.00 20.00     0.091 C 
HETATM   12  O12 UNL     1     -38.473  14.273  -3.688  1.00 20.00    -0.298 OA
ENDBRANCH   8  10
TORSDOF 1
ENDMDL
MODEL 6
REMARK VINA RESULT:      -4.8     11.702     12.753
REMARK  1 active torsions:
REMARK  status: ('A' for Active; 'I' for Inactive)
REMARK    1  A    between atoms: C7_7  and  C9_9 
ROOT
HETATM    1  C1  UNL     1     -32.758  18.926   2.575  1.00 20.00    -0.004 A 
HETATM    2  C2  UNL     1     -31.701  18.975   1.601  1.00 20.00    -0.004 A 
HETATM    3  C3  UNL     1     -34.041  18.791   2.213  1.00 20.00    -0.017 A 
HETATM    4  C4  UNL     1     -31.952  18.940   0.287  1.00 20.00    -0.020 A 
HETATM    5  C5  UNL     1     -35.068  17.346   0.473  1.00 20.00    -0.021 C 
HETATM    6  C6  UNL     1     -34.527  16.781  -0.608  1.00 20.00    -0.017 C 
HETATM    7  C8  UNL     1     -34.482  18.691   0.778  1.00 20.00     0.039 A 
HETATM    8  C9  UNL     1     -33.481  17.638  -1.237  1.00 20.00     0.086 C 
HETATM    9  C10 UNL     1     -33.348  18.848  -0.286  1.00 20.00     0.034 A 
ENDROOT
BRANCH   8  10
HETATM   10  C7  UNL     1     -33.994  18.040  -2.585  1.00 20.00     0.131 C 
HETATM   11  C11 UNL     1     -35.102  17.203  -3.164  1.00 20.00     0.091 C 
HETATM   12  O12 UNL     1     -33.534  19.008  -3.188  1.00 20.00    -0.298 OA
ENDBRANCH   8  10
TORSDOF 1
ENDMDL
MODEL 7
REMARK VINA RESULT:      -4.8     10.941     12.893
REMARK  1 active torsions:
REMARK  status: ('A' for Active; 'I' for Inactive)
REMARK    1  A    between atoms: C7_7  and  C9_9 
ROOT
HETATM    1  C1  UNL     1     -36.662  15.036  -7.620  1.00 20.00    -0.004 A 
HETATM    2  C2  UNL     1     -37.190  16.007  -6.700  1.00 20.00    -0.004 A 
HETATM    3  C3  UNL     1     -35.524  14.376  -7.369  1.00 20.00    -0.017 A 
HETATM    4  C4  UNL     1     -36.544  16.334  -5.574  1.00 20.00    -0.020 A 
HETATM    5  C5  UNL     1     -34.687  13.378  -5.253  1.00 20.00    -0.021 C 
HETATM    6  C6  UNL     1     -35.009  13.647  -3.987  1.00 20.00    -0.017 C 
HETATM    7  C8  UNL     1     -34.705  14.597  -6.126  1.00 20.00     0.039 A 
HETATM    8  C9  UNL     1     -35.301  15.093  -3.766  1.00 20.00     0.086 C 
HETATM    9  C10 UNL     1     -35.220  15.724  -5.174  1.00 20.00     0.034 A 
ENDROOT
BRANCH   8  10
HETATM   10  C7  UNL     1     -34.236  15.621  -2.855  1.00 20.00     0.131 C 
HETATM   11  C11 UNL     1     -34.698  16.261  -1.574  1.00 20.00     0.091 C 
HETATM   12  O12 UNL     1     -33.043  15.535  -3.139  1.00 20.00    -0.298 OA
ENDBRANCH   8  10
TORSDOF 1
ENDMDL
MODEL 8
REMARK VINA RESULT:      -4.7     11.358     12.863
REMARK  1 active torsions:
REMARK  status: ('A' for Active; 'I' for Inactive)
REMARK    1  A    between atoms: C7_7  and  C9_9 
ROOT
HETATM    1  C1  UNL     1     -34.156  17.430  -0.716  1.00 20.00    -0.004 A 
HETATM    2  C2  UNL     1     -33.558  18.432  -1.558  1.00 20.00    -0.004 A 
HETATM    3  C3  UNL     1     -34.768  16.355  -1.229  1.00 20.00    -0.017 A 
HETATM    4  C4  UNL     1     -33.629  18.363  -2.892  1.00 20.00    -0.020 A 
HETATM    5  C5  UNL     1     -34.114  14.900  -3.133  1.00 20.00    -0.021 C 
HETATM    6  C6  UNL     1     -33.306  15.143  -4.166  1.00 20.00    -0.017 C 
HETATM    7  C8  UNL     1     -34.891  16.109  -2.708  1.00 20.00     0.039 A 
HETATM    8  C9  UNL     1     -33.388  16.557  -4.634  1.00 20.00     0.086 C 
HETATM    9  C10 UNL     1     -34.334  17.245  -3.626  1.00 20.00     0.034 A 
ENDROOT
BRANCH   8  10
HETATM   10  C7  UNL     1     -33.966  16.530  -6.015  1.00 20.00     0.131 C 
HETATM   11  C11 UNL     1     -34.437  17.843  -6.578  1.00 20.00     0.091 C 
HETATM   12  O12 UNL     1     -34.050  15.485  -6.659  1.00 20.00    -0.298 OA
ENDBRANCH   8  10
TORSDOF 1
ENDMDL
MODEL 9
REMARK VINA RESULT:      -4.7     11.163     13.189
REMARK  1 active torsions:
REMARK  status: ('A' for Active; 'I' for Inactive)
REMARK    1  A    between atoms: C7_7  and  C9_9 
ROOT
HETATM    1  C1  UNL     1     -34.441  13.239  -4.742  1.00 20.00    -0.004 A 
HETATM    2  C2  UNL     1     -34.982  13.947  -5.871  1.00 20.00    -0.004 A 
HETATM    3  C3  UNL     1     -33.667  13.849  -3.836  1.00 20.00    -0.017 A 
HETATM    4  C4  UNL     1     -34.696  15.235  -6.096  1.00 20.00    -0.020 A 
HETATM    5  C5  UNL     1     -33.888  16.095  -2.796  1.00 20.00    -0.021 C 
HETATM    6  C6  UNL     1     -34.542  17.178  -3.217  1.00 20.00    -0.017 C 
HETATM    7  C8  UNL     1     -33.293  15.304  -3.922  1.00 20.00     0.039 A 
HETATM    8  C9  UNL     1     -34.508  17.326  -4.700  1.00 20.00     0.086 C 
HETATM    9  C10 UNL     1     -33.793  16.051  -5.200  1.00 20.00     0.034 A 
ENDROOT
BRANCH   8  10
HETATM   10  C7  UNL     1     -33.720  18.563  -5.001  1.00 20.00     0.131 C 
HETATM   11  C11 UNL     1     -33.576  18.938  -6.451  1.00 20.00     0.091 C 
HETATM   12  O12 UNL     1     -33.217  19.241  -4.106  1.00 20.00    -0.298 OA
ENDBRANCH   8  10
TORSDOF 1
ENDMDL
