MODEL 1
REMARK VINA RESULT:      -5.1      0.000      0.000
REMARK  1 active torsions:
REMARK  status: ('A' for Active; 'I' for Inactive)
REMARK    1  A    between atoms: C2_2  and  C3_3 
ROOT
HETATM    1  C1  UNL     1     -34.894  15.281  -2.421  1.00 20.00    -0.007 C 
HETATM    2  C2  UNL     1     -34.040  15.057  -3.422  1.00 20.00    -0.012 C 
HETATM    3  C4  UNL     1     -33.668  17.292  -2.762  1.00 20.00     0.022 C 
HETATM    4  C5  UNL     1     -33.312  16.281  -3.870  1.00 20.00     0.019 C 
HETATM    5  C6  UNL     1     -34.898  16.727  -2.006  1.00 20.00    -0.029 C 
HETATM    6  C8  UNL     1     -33.748  16.753  -5.254  1.00 20.00     0.015 C 
HETATM    7  C9  UNL     1     -34.723  16.870  -0.491  1.00 20.00     0.019 C 
HETATM    8  C10 UNL     1     -36.197  17.410  -2.447  1.00 20.00     0.019 C 
ENDROOT
BRANCH   2   9
HETATM    9  C3  UNL     1     -33.842  13.737  -3.997  1.00 20.00     0.151 C 
HETATM   10  C7  UNL     1     -34.874  13.215  -4.974  1.00 20.00     0.096 C 
HETATM   11  O11 UNL     1     -32.858  13.048  -3.695  1.00 20.00    -0.293 OA
ENDBRANCH   2   9
TORSDOF 1
ENDMDL
MODEL 2
REMARK VINA RESULT:      -4.7      2.609      3.230
REMARK  1 active torsions:
REMARK  status: ('A' for Active; 'I' for Inactive)
REMARK    1  A    between atoms: C2_2  and  C3_3 
ROOT
HETATM    1  C1  UNL     1     -36.012  16.163  -3.299  1.00 20.00    -0.007 C 
HETATM    2  C2  UNL     1     -36.419  15.053  -3.919  1.00 20.00    -0.012 C 
HETATM    3  C4  UNL     1     -34.251  14.573  -3.122  1.00 20.00     0.022 C 
HETATM    4  C5  UNL     1     -35.355  14.014  -4.042  1.00 20.00     0.019 C 
HETATM    5  C6  UNL     1     -34.569  16.071  -2.885  1.00 20.00    -0.029 C 
HETATM    6  C8  UNL     1     -34.878  13.824  -5.478  1.00 20.00     0.015 C 
HETATM    7  C9  UNL     1     -34.391  16.442  -1.409  1.00 20.00     0.019 C 
HETATM    8  C10 UNL     1     -33.699  16.981  -3.759  1.00 20.00     0.019 C 
ENDROOT
BRANCH   2   9
HETATM    9  C3  UNL     1     -37.778  14.888  -4.409  1.00 20.00     0.151 C 
HETATM   10  C7  UNL     1     -38.185  15.625  -5.666  1.00 20.00     0.096 C 
HETATM   11  O11 UNL     1     -38.589  14.167  -3.812  1.00 20.00    -0.293 OA
ENDBRANCH   2   9
TORSDOF 1
ENDMDL
MODEL 3
REMARK VINA RESULT:      -4.4      1.967      4.066
REMARK  1 active torsions:
REMARK  status: ('A' for Active; 'I' for Inactive)
REMARK    1  A    between atoms: C2_2  and  C3_3 
ROOT
HETATM    1  C1  UNL     1     -33.646  15.722  -3.115  1.00 20.00    -0.007 C 
HETATM    2  C2  UNL     1     -34.546  16.359  -2.362  1.00 20.00    -0.012 C 
HETATM    3  C4  UNL     1     -35.775  14.790  -3.626  1.00 20.00     0.022 C 
HETATM    4  C5  UNL     1     -35.958  16.002  -2.690  1.00 20.00     0.019 C 
HETATM    5  C6  UNL     1     -34.303  14.804  -4.110  1.00 20.00    -0.029 C 
HETATM    6  C8  UNL     1     -36.715  17.146  -3.358  1.00 20.00     0.015 C 
HETATM    7  C9  UNL     1     -33.694  13.399  -4.054  1.00 20.00     0.019 C 
HETATM    8  C10 UNL     1     -34.178  15.369  -5.528  1.00 20.00     0.019 C 
ENDROOT
BRANCH   2   9
HETATM    9  C3  UNL     1     -34.166  17.295  -1.317  1.00 20.00     0.151 C 
HETATM   10  C7  UNL     1     -34.810  17.155   0.045  1.00 20.00     0.096 C 
HETATM   11  O11 UNL     1     -33.340  18.192  -1.532  1.00 20.00    -0.293 OA
ENDBRANCH   2   9
TORSDOF 1
ENDMDL
MODEL 4
REMARK VINA RESULT:      -4.4      2.411      3.341
REMARK  1 active torsions:
REMARK  status: ('A' for Active; 'I' for Inactive)
REMARK    1  A    between atoms: C2_2  and  C3_3 
ROOT
HETATM    1  C1  UNL     1     -34.567  16.088  -4.800  1.00 20.00    -0.007 C 
HETATM    2  C2  UNL     1     -34.387  14.907  -5.395  1.00 20.00    -0.012 C 
HETATM    3  C4  UNL     1     -34.337  16.504  -7.132  1.00 20.00     0.022 C 
HETATM    4  C5  UNL     1     -34.394  14.982  -6.885  1.00 20.00     0.019 C 
HETATM    5  C6  UNL     1     -34.734  17.197  -5.804  1.00 20.00    -0.029 C 
HETATM    6  C8  UNL     1     -35.631  14.337  -7.503  1.00 20.00     0.015 C 
HETATM    7  C9  UNL     1     -33.798  18.370  -5.496  1.00 20.00     0.019 C 
HETATM    8  C10 UNL     1     -36.187  17.684  -5.830  1.00 20.00     0.019 C 
ENDROOT
BRANCH   2   9
HETATM    9  C3  UNL     1     -34.189  13.678  -4.644  1.00 20.00     0.151 C 
HETATM   10  C7  UNL     1     -33.097  13.642  -3.597  1.00 20.00     0.096 C 
HETATM   11  O11 UNL     1     -34.891  12.680  -4.855  1.00 20.00    -0.293 OA
ENDBRANCH   2   9
TORSDOF 1
ENDMDL
MODEL 5
REMARK VINA RESULT:      -4.4      1.244      2.054
REMARK  1 active torsions:
REMARK  status: ('A' for Active; 'I' for Inactive)
REMARK    1  A    between atoms: C2_2  and  C3_3 
ROOT
HETATM    1  C1  UNL     1     -33.797  15.878  -2.830  1.00 20.00    -0.007 C 
HETATM    2  C2  UNL     1     -34.609  15.351  -3.750  1.00 20.00    -0.012 C 
HETATM    3  C4  UNL     1     -35.702  17.297  -2.984  1.00 20.00     0.022 C 
HETATM    4  C5  UNL     1     -35.931  16.036  -3.842  1.00 20.00     0.019 C 
HETATM    5  C6  UNL     1     -34.442  17.038  -2.120  1.00 20.00    -0.029 C 
HETATM    6  C8  UNL     1     -37.079  15.177  -3.324  1.00 20.00     0.015 C 
HETATM    7  C9  UNL     1     -33.522  18.263  -2.111  1.00 20.00     0.019 C 
HETATM    8  C10 UNL     1     -34.808  16.652  -0.683  1.00 20.00     0.019 C 
ENDROOT
BRANCH   2   9
HETATM    9  C3  UNL     1     -34.217  14.225  -4.582  1.00 20.00     0.151 C 
HETATM   10  C7  UNL     1     -34.585  14.252  -6.050  1.00 20.00     0.096 C 
HETATM   11  O11 UNL     1     -33.601  13.262  -4.106  1.00 20.00    -0.293 OA
ENDBRANCH   2   9
TORSDOF 1
ENDMDL
MODEL 6
REMARK VINA RESULT:      -4.4      2.550      3.906
REMARK  1 active torsions:
REMARK  status: ('A' for Active; 'I' for Inactive)
REMARK    1  A    between atoms: C2_2  and  C3_3 
ROOT
HETATM    1  C1  UNL     1     -35.305  14.936  -3.506  1.00 20.00    -0.007 C 
HETATM    2  C2  UNL     1     -36.361  14.968  -4.322  1.00 20.00    -0.012 C 
HETATM    3  C4  UNL     1     -34.525  14.396  -5.688  1.00 20.00     0.022 C 
HETATM    4  C5  UNL     1     -36.007  14.816  -5.763  1.00 20.00     0.019 C 
HETATM    5  C6  UNL     1     -34.020  14.754  -4.268  1.00 20.00    -0.029 C 
HETATM    6  C8  UNL     1     -36.211  16.100  -6.560  1.00 20.00     0.015 C 
HETATM    7  C9  UNL     1     -33.184  13.612  -3.680  1.00 20.00     0.019 C 
HETATM    8  C10 UNL     1     -33.205  16.051  -4.265  1.00 20.00     0.019 C 
ENDROOT
BRANCH   2   9
HETATM    9  C3  UNL     1     -37.720  15.124  -3.830  1.00 20.00     0.151 C 
HETATM   10  C7  UNL     1     -38.163  16.493  -3.357  1.00 20.00     0.096 C 
HETATM   11  O11 UNL     1     -38.501  14.163  -3.791  1.00 20.00    -0.293 OA
ENDBRANCH   2   9
TORSDOF 1
ENDMDL
MODEL 7
REMARK VINA RESULT:      -4.3      1.364      1.477
REMARK  1 active torsions:
REMARK  status: ('A' for Active; 'I' for Inactive)
REMARK    1  A    between atoms: C2_2  and  C3_3 
ROOT
HETATM    1  C1  UNL     1     -34.816  16.124  -1.699  1.00 20.00    -0.007 C 
HETATM    2  C2  UNL     1     -34.356  15.831  -2.918  1.00 20.00    -0.012 C 
HETATM    3  C4  UNL     1     -33.730  18.072  -2.525  1.00 20.00     0.022 C 
HETATM    4  C5  UNL     1     -33.794  17.009  -3.641  1.00 20.00     0.019 C 
HETATM    5  C6  UNL     1     -34.645  17.583  -1.375  1.00 20.00    -0.029 C 
HETATM    6  C8  UNL     1     -34.660  17.449  -4.817  1.00 20.00     0.015 C 
HETATM    7  C9  UNL     1     -33.965  17.773  -0.015  1.00 20.00     0.019 C 
HETATM    8  C10 UNL     1     -36.000  18.298  -1.383  1.00 20.00     0.019 C 
ENDROOT
BRANCH   2   9
HETATM    9  C3  UNL     1     -34.396  14.485  -3.464  1.00 20.00     0.151 C 
HETATM   10  C7  UNL     1     -33.090  13.740  -3.640  1.00 20.00     0.096 C 
HETATM   11  O11 UNL     1     -35.469  13.956  -3.785  1.00 20.00    -0.293 OA
ENDBRANCH   2   9
TORSDOF 1
ENDMDL
MODEL 8
REMARK VINA RESULT:      -4.3      1.514      2.183
REMARK  1 active torsions:
REMARK  status: ('A' for Active; 'I' for Inactive)
REMARK    1  A    between atoms: C2_2  and  C3_3 
ROOT
HETATM    1  C1  UNL     1     -35.412  16.127  -4.533  1.00 20.00    -0.007 C 
HETATM    2  C2  UNL     1     -34.808  14.939  -4.449  1.00 20.00    -0.012 C 
HETATM    3  C4  UNL     1     -34.352  16.026  -2.405  1.00 20.00     0.022 C 
HETATM    4  C5  UNL     1     -33.953  14.789  -3.235  1.00 20.00     0.019 C 
HETATM    5  C6  UNL     1     -35.064  17.011  -3.366  1.00 20.00    -0.029 C 
HETATM    6  C8  UNL     1     -32.464  14.759  -3.562  1.00 20.00     0.015 C 
HETATM    7  C9  UNL     1     -36.323  17.596  -2.718  1.00 20.00     0.019 C 
HETATM    8  C10 UNL     1     -34.132  18.145  -3.809  1.00 20.00     0.019 C 
ENDROOT
BRANCH   2   9
HETATM    9  C3  UNL     1     -34.991  13.900  -5.449  1.00 20.00     0.151 C 
HETATM   10  C7  UNL     1     -35.271  14.316  -6.877  1.00 20.00     0.096 C 
HETATM   11  O11 UNL     1     -34.925  12.701  -5.145  1.00 20.00    -0.293 OA
ENDBRANCH   2   9
TORSDOF 1
ENDMDL
MODEL 9
REMARK VINA RESULT:      -4.2      2.565      3.080
REMARK  1 active torsions:
REMARK  status: ('A' for Active; 'I' for Inactive)
REMARK    1  A    between atoms: C2_2  and  C3_3 
ROOT
HETATM    1  C1  UNL     1     -36.210  15.399  -4.538  1.00 20.00    -0.007 C 
HETATM    2  C2  UNL     1     -35.079  14.857  -4.994  1.00 20.00    -0.012 C 
HETATM    3  C4  UNL     1     -35.322  16.891  -6.165  1.00 20.00     0.022 C 
HETATM    4  C5  UNL     1     -34.486  15.595  -6.148  1.00 20.00     0.019 C 
HETATM    5  C6  UNL     1     -36.594  16.626  -5.321  1.00 20.00    -0.029 C 
HETATM    6  C8  UNL     1     -34.584  14.819  -7.457  1.00 20.00     0.015 C 
HETATM    7  C9  UNL     1     -36.890  17.807  -4.391  1.00 20.00     0.019 C 
HETATM    8  C10 UNL     1     -37.812  16.341  -6.205  1.00 20.00     0.019 C 
ENDROOT
BRANCH   2   9
HETATM    9  C3  UNL     1     -34.490  13.668  -4.400  1.00 20.00     0.151 C 
HETATM   10  C7  UNL     1     -33.170  13.806  -3.672  1.00 20.00     0.096 C 
HETATM   11  O11 UNL     1     -35.047  12.565  -4.488  1.00 20.00    -0.293 OA
ENDBRANCH   2   9
TORSDOF 1
ENDMDL
