MODEL 1
REMARK VINA RESULT:      -4.3      0.000      0.000
REMARK  0 active torsions:
REMARK  status: ('A' for Active; 'I' for Inactive)
ROOT
HETATM    1  C1  UNL     1     -34.844  13.692  -4.544  1.00 20.00     0.223 C 
HETATM    2  C2  UNL     1     -35.280  16.000  -4.267  1.00 20.00     0.130 C 
HETATM    3  C3  UNL     1     -34.158  14.118  -3.256  1.00 20.00     0.079 C 
HETATM    4  C4  UNL     1     -34.890  15.431  -2.908  1.00 20.00     0.012 C 
HETATM    5  C5  UNL     1     -32.660  14.245  -3.503  1.00 20.00     0.020 C 
HETATM    6  C6  UNL     1     -34.118  16.421  -2.052  1.00 20.00     0.012 C 
HETATM    7  C7  UNL     1     -36.139  14.879  -6.355  1.00 20.00     0.152 C 
HETATM    8  N8  UNL     1     -35.466  14.819  -5.076  1.00 20.00    -0.356 N 
HETATM    9  O9  UNL     1     -34.794  12.566  -5.019  1.00 20.00    -0.273 OA
ENDROOT
TORSDOF 0
ENDMDL
MODEL 2
REMARK VINA RESULT:      -4.3      1.361      1.361
REMARK  0 active torsions:
REMARK  status: ('A' for Active; 'I' for Inactive)
ROOT
HETATM    1  C1  UNL     1     -35.164  14.000  -3.750  1.00 20.00     0.223 C 
HETATM    2  C2  UNL     1     -35.966  16.070  -2.934  1.00 20.00     0.130 C 
HETATM    3  C3  UNL     1     -33.981  14.711  -3.113  1.00 20.00     0.079 C 
HETATM    4  C4  UNL     1     -34.667  15.750  -2.203  1.00 20.00     0.012 C 
HETATM    5  C5  UNL     1     -33.089  15.283  -4.208  1.00 20.00     0.020 C 
HETATM    6  C6  UNL     1     -33.855  16.992  -1.872  1.00 20.00     0.012 C 
HETATM    7  C7  UNL     1     -37.578  14.589  -4.185  1.00 20.00     0.152 C 
HETATM    8  N8  UNL     1     -36.271  14.835  -3.616  1.00 20.00    -0.356 N 
HETATM    9  O9  UNL     1     -35.103  12.916  -4.312  1.00 20.00    -0.273 OA
ENDROOT
TORSDOF 0
ENDMDL
MODEL 3
REMARK VINA RESULT:      -4.0      1.730      2.324
REMARK  0 active torsions:
REMARK  status: ('A' for Active; 'I' for Inactive)
ROOT
HETATM    1  C1  UNL     1     -36.485  14.682  -3.792  1.00 20.00     0.223 C 
HETATM    2  C2  UNL     1     -34.824  16.366  -3.792  1.00 20.00     0.130 C 
HETATM    3  C3  UNL     1     -35.140  13.975  -3.763  1.00 20.00     0.079 C 
HETATM    4  C4  UNL     1     -34.190  15.084  -3.265  1.00 20.00     0.012 C 
HETATM    5  C5  UNL     1     -34.833  13.419  -5.149  1.00 20.00     0.020 C 
HETATM    6  C6  UNL     1     -32.729  14.942  -3.659  1.00 20.00     0.012 C 
HETATM    7  C7  UNL     1     -37.235  17.086  -3.954  1.00 20.00     0.152 C 
HETATM    8  N8  UNL     1     -36.233  16.052  -3.812  1.00 20.00    -0.356 N 
HETATM    9  O9  UNL     1     -37.568  14.116  -3.840  1.00 20.00    -0.273 OA
ENDROOT
TORSDOF 0
ENDMDL
MODEL 4
REMARK VINA RESULT:      -3.9      2.892      3.724
REMARK  0 active torsions:
REMARK  status: ('A' for Active; 'I' for Inactive)
ROOT
HETATM    1  C1  UNL     1     -33.685  17.592  -3.299  1.00 20.00     0.223 C 
HETATM    2  C2  UNL     1     -33.485  16.040  -5.072  1.00 20.00     0.130 C 
HETATM    3  C3  UNL     1     -33.698  16.206  -2.675  1.00 20.00     0.079 C 
HETATM    4  C4  UNL     1     -33.074  15.336  -3.785  1.00 20.00     0.012 C 
HETATM    5  C5  UNL     1     -35.125  15.846  -2.280  1.00 20.00     0.020 C 
HETATM    6  C6  UNL     1     -33.449  13.863  -3.772  1.00 20.00     0.012 C 
HETATM    7  C7  UNL     1     -33.624  18.489  -5.657  1.00 20.00     0.152 C 
HETATM    8  N8  UNL     1     -33.564  17.426  -4.677  1.00 20.00    -0.356 N 
HETATM    9  O9  UNL     1     -33.811  18.637  -2.676  1.00 20.00    -0.273 OA
ENDROOT
TORSDOF 0
ENDMDL
MODEL 5
REMARK VINA RESULT:      -3.9      1.535      3.513
REMARK  0 active torsions:
REMARK  status: ('A' for Active; 'I' for Inactive)
ROOT
HETATM    1  C1  UNL     1     -34.605  13.879  -5.221  1.00 20.00     0.223 C 
HETATM    2  C2  UNL     1     -33.697  16.031  -5.595  1.00 20.00     0.130 C 
HETATM    3  C3  UNL     1     -35.253  14.417  -6.486  1.00 20.00     0.079 C 
HETATM    4  C4  UNL     1     -34.275  15.531  -6.913  1.00 20.00     0.012 C 
HETATM    5  C5  UNL     1     -36.672  14.872  -6.169  1.00 20.00     0.020 C 
HETATM    6  C6  UNL     1     -34.862  16.648  -7.762  1.00 20.00     0.012 C 
HETATM    7  C7  UNL     1     -32.985  14.795  -3.516  1.00 20.00     0.152 C 
HETATM    8  N8  UNL     1     -33.725  14.855  -4.758  1.00 20.00    -0.356 N 
HETATM    9  O9  UNL     1     -34.870  12.802  -4.706  1.00 20.00    -0.273 OA
ENDROOT
TORSDOF 0
ENDMDL
MODEL 6
REMARK VINA RESULT:      -3.8     11.348     12.099
REMARK  0 active torsions:
REMARK  status: ('A' for Active; 'I' for Inactive)
ROOT
HETATM    1  C1  UNL     1     -42.743   6.114  -3.054  1.00 20.00     0.223 C 
HETATM    2  C2  UNL     1     -41.854   4.549  -1.520  1.00 20.00     0.130 C 
HETATM    3  C3  UNL     1     -42.032   6.912  -1.974  1.00 20.00     0.079 C 
HETATM    4  C4  UNL     1     -41.096   5.859  -1.345  1.00 20.00     0.012 C 
HETATM    5  C5  UNL     1     -43.065   7.519  -1.034  1.00 20.00     0.020 C 
HETATM    6  C6  UNL     1     -40.675   6.111   0.095  1.00 20.00     0.012 C 
HETATM    7  C7  UNL     1     -43.232   3.668  -3.439  1.00 20.00     0.152 C 
HETATM    8  N8  UNL     1     -42.607   4.765  -2.732  1.00 20.00    -0.356 N 
HETATM    9  O9  UNL     1     -43.356   6.604  -3.992  1.00 20.00    -0.273 OA
ENDROOT
TORSDOF 0
ENDMDL
MODEL 7
REMARK VINA RESULT:      -3.8      2.158      3.010
REMARK  0 active torsions:
REMARK  status: ('A' for Active; 'I' for Inactive)
ROOT
HETATM    1  C1  UNL     1     -33.517  16.550  -4.293  1.00 20.00     0.223 C 
HETATM    2  C2  UNL     1     -34.765  15.251  -2.761  1.00 20.00     0.130 C 
HETATM    3  C3  UNL     1     -33.679  17.388  -3.035  1.00 20.00     0.079 C 
HETATM    4  C4  UNL     1     -34.028  16.326  -1.971  1.00 20.00     0.012 C 
HETATM    5  C5  UNL     1     -34.740  18.454  -3.274  1.00 20.00     0.020 C 
HETATM    6  C6  UNL     1     -34.814  16.818  -0.767  1.00 20.00     0.012 C 
HETATM    7  C7  UNL     1     -34.349  14.294  -5.056  1.00 20.00     0.152 C 
HETATM    8  N8  UNL     1     -34.166  15.338  -4.072  1.00 20.00    -0.356 N 
HETATM    9  O9  UNL     1     -32.955  16.927  -5.312  1.00 20.00    -0.273 OA
ENDROOT
TORSDOF 0
ENDMDL
MODEL 8
REMARK VINA RESULT:      -3.7      1.623      3.334
REMARK  0 active torsions:
REMARK  status: ('A' for Active; 'I' for Inactive)
ROOT
HETATM    1  C1  UNL     1     -34.828  14.120  -5.459  1.00 20.00     0.223 C 
HETATM    2  C2  UNL     1     -35.139  16.460  -5.320  1.00 20.00     0.130 C 
HETATM    3  C3  UNL     1     -34.535  14.686  -6.839  1.00 20.00     0.079 C 
HETATM    4  C4  UNL     1     -34.268  16.175  -6.538  1.00 20.00     0.012 C 
HETATM    5  C5  UNL     1     -35.714  14.401  -7.760  1.00 20.00     0.020 C 
HETATM    6  C6  UNL     1     -34.517  17.144  -7.682  1.00 20.00     0.012 C 
HETATM    7  C7  UNL     1     -35.634  15.080  -3.269  1.00 20.00     0.152 C 
HETATM    8  N8  UNL     1     -35.172  15.190  -4.636  1.00 20.00    -0.356 N 
HETATM    9  O9  UNL     1     -34.804  12.930  -5.175  1.00 20.00    -0.273 OA
ENDROOT
TORSDOF 0
ENDMDL
MODEL 9
REMARK VINA RESULT:      -3.7      2.696      3.904
REMARK  0 active torsions:
REMARK  status: ('A' for Active; 'I' for Inactive)
ROOT
HETATM    1  C1  UNL     1     -34.409  16.370  -1.938  1.00 20.00     0.223 C 
HETATM    2  C2  UNL     1     -33.663  17.155  -4.040  1.00 20.00     0.130 C 
HETATM    3  C3  UNL     1     -34.676  15.261  -2.942  1.00 20.00     0.079 C 
HETATM    4  C4  UNL     1     -33.736  15.634  -4.108  1.00 20.00     0.012 C 
HETATM    5  C5  UNL     1     -36.161  15.232  -3.277  1.00 20.00     0.020 C 
HETATM    6  C6  UNL     1     -34.138  15.122  -5.482  1.00 20.00     0.012 C 
HETATM    7  C7  UNL     1     -33.521  18.728  -2.076  1.00 20.00     0.152 C 
HETATM    8  N8  UNL     1     -33.830  17.430  -2.633  1.00 20.00    -0.356 N 
HETATM    9  O9  UNL     1     -34.708  16.323  -0.753  1.00 20.00    -0.273 OA
ENDROOT
TORSDOF 0
ENDMDL
