MODEL 1
REMARK VINA RESULT:      -4.2      0.000      0.000
REMARK  1 active torsions:
REMARK  status: ('A' for Active; 'I' for Inactive)
REMARK    1  A    between atoms: C1_1  and  C2_2 
ROOT
HETATM    1  C2  UNL     1     -34.647  14.962  -3.394  1.00 20.00     0.100 A 
HETATM    2  C3  UNL     1     -33.821  15.908  -2.563  1.00 20.00     0.104 A 
HETATM    3  C4  UNL     1     -34.342  16.360  -3.908  1.00 20.00    -0.017 A 
HETATM    4  C5  UNL     1     -35.496  17.328  -3.994  1.00 20.00     0.017 C 
HETATM    5  C6  UNL     1     -33.321  16.548  -5.004  1.00 20.00     0.017 C 
HETATM    6 CL9  UNL     1     -34.467  16.522  -1.064  1.00 20.00    -0.123 Cl
ENDROOT
BRANCH   1   7
HETATM    7  C1  UNL     1     -34.007  13.783  -3.993  1.00 20.00     0.225 C 
HETATM    8  O7  UNL     1     -32.986  13.294  -3.518  1.00 20.00    -0.279 OA
HETATM    9 CL8  UNL     1     -34.862  13.215  -5.395  1.00 20.00    -0.043 Cl
ENDBRANCH   1   7
TORSDOF 1
ENDMDL
MODEL 2
REMARK VINA RESULT:      -4.1      1.893      2.455
REMARK  1 active torsions:
REMARK  status: ('A' for Active; 'I' for Inactive)
REMARK    1  A    between atoms: C1_1  and  C2_2 
ROOT
HETATM    1  C2  UNL     1     -34.236  14.782  -4.323  1.00 20.00     0.100 A 
HETATM    2  C3  UNL     1     -34.621  16.192  -4.687  1.00 20.00     0.104 A 
HETATM    3  C4  UNL     1     -35.156  15.581  -3.412  1.00 20.00    -0.017 A 
HETATM    4  C5  UNL     1     -34.603  16.000  -2.073  1.00 20.00     0.017 C 
HETATM    5  C6  UNL     1     -36.632  15.266  -3.377  1.00 20.00     0.017 C 
HETATM    6 CL9  UNL     1     -33.405  17.444  -4.676  1.00 20.00    -0.123 Cl
ENDROOT
BRANCH   1   7
HETATM    7  C1  UNL     1     -34.755  13.666  -5.124  1.00 20.00     0.225 C 
HETATM    8  O7  UNL     1     -34.808  12.523  -4.678  1.00 20.00    -0.279 OA
HETATM    9 CL8  UNL     1     -35.252  14.174  -6.710  1.00 20.00    -0.043 Cl
ENDBRANCH   1   7
TORSDOF 1
ENDMDL
MODEL 3
REMARK VINA RESULT:      -4.0     11.464     12.526
REMARK  1 active torsions:
REMARK  status: ('A' for Active; 'I' for Inactive)
REMARK    1  A    between atoms: C1_1  and  C2_2 
ROOT
HETATM    1  C2  UNL     1     -33.033   5.816   4.482  1.00 20.00     0.100 A 
HETATM    2  C3  UNL     1     -33.940   6.792   5.183  1.00 20.00     0.104 A 
HETATM    3  C4  UNL     1     -34.494   5.465   4.716  1.00 20.00    -0.017 A 
HETATM    4  C5  UNL     1     -34.788   4.368   5.709  1.00 20.00     0.017 C 
HETATM    5  C6  UNL     1     -35.466   5.503   3.562  1.00 20.00     0.017 C 
HETATM    6 CL9  UNL     1     -33.681   7.147   6.871  1.00 20.00    -0.123 Cl
ENDROOT
BRANCH   1   7
HETATM    7  C1  UNL     1     -32.540   6.131   3.135  1.00 20.00     0.225 C 
HETATM    8  O7  UNL     1     -32.209   5.249   2.348  1.00 20.00    -0.279 OA
HETATM    9 CL8  UNL     1     -32.498   7.842   2.837  1.00 20.00    -0.043 Cl
ENDBRANCH   1   7
TORSDOF 1
ENDMDL
MODEL 4
REMARK VINA RESULT:      -3.9      2.144      2.671
REMARK  1 active torsions:
REMARK  status: ('A' for Active; 'I' for Inactive)
REMARK    1  A    between atoms: C1_1  and  C2_2 
ROOT
HETATM    1  C2  UNL     1     -35.685  15.606  -3.906  1.00 20.00     0.100 A 
HETATM    2  C3  UNL     1     -35.071  15.138  -2.613  1.00 20.00     0.104 A 
HETATM    3  C4  UNL     1     -34.305  14.967  -3.905  1.00 20.00    -0.017 A 
HETATM    4  C5  UNL     1     -33.133  15.863  -4.223  1.00 20.00     0.017 C 
HETATM    5  C6  UNL     1     -34.133  13.556  -4.411  1.00 20.00     0.017 C 
HETATM    6 CL9  UNL     1     -34.607  16.312  -1.408  1.00 20.00    -0.123 Cl
ENDROOT
BRANCH   1   7
HETATM    7  C1  UNL     1     -36.846  14.889  -4.451  1.00 20.00     0.225 C 
HETATM    8  O7  UNL     1     -37.567  14.196  -3.740  1.00 20.00    -0.279 OA
HETATM    9 CL8  UNL     1     -37.036  15.154  -6.158  1.00 20.00    -0.043 Cl
ENDBRANCH   1   7
TORSDOF 1
ENDMDL
MODEL 5
REMARK VINA RESULT:      -3.8      2.758      3.813
REMARK  1 active torsions:
REMARK  status: ('A' for Active; 'I' for Inactive)
REMARK    1  A    between atoms: C1_1  and  C2_2 
ROOT
HETATM    1  C2  UNL     1     -35.997  14.561  -4.656  1.00 20.00     0.100 A 
HETATM    2  C3  UNL     1     -35.006  15.596  -5.118  1.00 20.00     0.104 A 
HETATM    3  C4  UNL     1     -34.733  14.819  -3.851  1.00 20.00    -0.017 A 
HETATM    4  C5  UNL     1     -33.693  13.726  -3.834  1.00 20.00     0.017 C 
HETATM    5  C6  UNL     1     -34.816  15.585  -2.553  1.00 20.00     0.017 C 
HETATM    6 CL9  UNL     1     -34.102  15.325  -6.586  1.00 20.00    -0.123 Cl
ENDROOT
BRANCH   1   7
HETATM    7  C1  UNL     1     -37.309  14.993  -4.157  1.00 20.00     0.225 C 
HETATM    8  O7  UNL     1     -38.051  14.228  -3.548  1.00 20.00    -0.279 OA
HETATM    9 CL8  UNL     1     -37.638  16.657  -4.536  1.00 20.00    -0.043 Cl
ENDBRANCH   1   7
TORSDOF 1
ENDMDL
MODEL 6
REMARK VINA RESULT:      -3.8      2.320      3.153
REMARK  1 active torsions:
REMARK  status: ('A' for Active; 'I' for Inactive)
REMARK    1  A    between atoms: C1_1  and  C2_2 
ROOT
HETATM    1  C2  UNL     1     -35.287  14.061  -4.895  1.00 20.00     0.100 A 
HETATM    2  C3  UNL     1     -36.146  15.289  -5.049  1.00 20.00     0.104 A 
HETATM    3  C4  UNL     1     -35.112  14.967  -6.104  1.00 20.00    -0.017 A 
HETATM    4  C5  UNL     1     -35.534  14.415  -7.443  1.00 20.00     0.017 C 
HETATM    5  C6  UNL     1     -33.916  15.883  -6.186  1.00 20.00     0.017 C 
HETATM    6 CL9  UNL     1     -37.857  15.110  -5.341  1.00 20.00    -0.123 Cl
ENDROOT
BRANCH   1   7
HETATM    7  C1  UNL     1     -34.275  14.021  -3.832  1.00 20.00     0.225 C 
HETATM    8  O7  UNL     1     -33.393  13.167  -3.814  1.00 20.00    -0.279 OA
HETATM    9 CL8  UNL     1     -34.497  15.292  -2.667  1.00 20.00    -0.043 Cl
ENDBRANCH   1   7
TORSDOF 1
ENDMDL
MODEL 7
REMARK VINA RESULT:      -3.8      2.527      2.645
REMARK  1 active torsions:
REMARK  status: ('A' for Active; 'I' for Inactive)
REMARK    1  A    between atoms: C1_1  and  C2_2 
ROOT
HETATM    1  C2  UNL     1     -35.538  14.811  -4.725  1.00 20.00     0.100 A 
HETATM    2  C3  UNL     1     -34.936  16.175  -4.939  1.00 20.00     0.104 A 
HETATM    3  C4  UNL     1     -35.482  15.409  -6.122  1.00 20.00    -0.017 A 
HETATM    4  C5  UNL     1     -36.794  15.809  -6.751  1.00 20.00     0.017 C 
HETATM    5  C6  UNL     1     -34.476  14.889  -7.119  1.00 20.00     0.017 C 
HETATM    6 CL9  UNL     1     -35.741  17.580  -4.292  1.00 20.00    -0.123 Cl
ENDROOT
BRANCH   1   7
HETATM    7  C1  UNL     1     -34.665  13.690  -4.351  1.00 20.00     0.225 C 
HETATM    8  O7  UNL     1     -35.028  12.524  -4.469  1.00 20.00    -0.279 OA
HETATM    9 CL8  UNL     1     -33.128  14.231  -3.747  1.00 20.00    -0.043 Cl
ENDBRANCH   1   7
TORSDOF 1
ENDMDL
MODEL 8
REMARK VINA RESULT:      -3.7      2.177      2.693
REMARK  1 active torsions:
REMARK  status: ('A' for Active; 'I' for Inactive)
REMARK    1  A    between atoms: C1_1  and  C2_2 
ROOT
HETATM    1  C2  UNL     1     -34.981  15.867  -4.089  1.00 20.00     0.100 A 
HETATM    2  C3  UNL     1     -35.923  14.990  -3.307  1.00 20.00     0.104 A 
HETATM    3  C4  UNL     1     -35.504  16.326  -2.737  1.00 20.00    -0.017 A 
HETATM    4  C5  UNL     1     -36.466  17.489  -2.732  1.00 20.00     0.017 C 
HETATM    5  C6  UNL     1     -34.595  16.297  -1.534  1.00 20.00     0.017 C 
HETATM    6 CL9  UNL     1     -37.534  14.704  -3.913  1.00 20.00    -0.123 Cl
ENDROOT
BRANCH   1   7
HETATM    7  C1  UNL     1     -33.582  15.452  -4.254  1.00 20.00     0.225 C 
HETATM    8  O7  UNL     1     -32.723  16.229  -4.660  1.00 20.00    -0.279 OA
HETATM    9 CL8  UNL     1     -33.336  13.789  -3.812  1.00 20.00    -0.043 Cl
ENDBRANCH   1   7
TORSDOF 1
ENDMDL
MODEL 9
REMARK VINA RESULT:      -3.7      2.580      3.488
REMARK  1 active torsions:
REMARK  status: ('A' for Active; 'I' for Inactive)
REMARK    1  A    between atoms: C1_1  and  C2_2 
ROOT
HETATM    1  C2  UNL     1     -35.531  15.670  -4.678  1.00 20.00     0.100 A 
HETATM    2  C3  UNL     1     -34.049  15.903  -4.804  1.00 20.00     0.104 A 
HETATM    3  C4  UNL     1     -34.665  14.676  -5.436  1.00 20.00    -0.017 A 
HETATM    4  C5  UNL     1     -34.852  14.599  -6.931  1.00 20.00     0.017 C 
HETATM    5  C6  UNL     1     -34.328  13.346  -4.807  1.00 20.00     0.017 C 
HETATM    6 CL9  UNL     1     -33.467  17.244  -5.756  1.00 20.00    -0.123 Cl
ENDROOT
BRANCH   1   7
HETATM    7  C1  UNL     1     -36.098  15.329  -3.367  1.00 20.00     0.225 C 
HETATM    8  O7  UNL     1     -37.189  14.777  -3.260  1.00 20.00    -0.279 OA
HETATM    9 CL8  UNL     1     -35.052  15.797  -2.060  1.00 20.00    -0.043 Cl
ENDBRANCH   1   7
TORSDOF 1
ENDMDL
