MODEL 1
REMARK VINA RESULT:      -5.1      0.000      0.000
REMARK  1 active torsions:
REMARK  status: ('A' for Active; 'I' for Inactive)
REMARK    1  A    between atoms: C1_1  and  C8_8 
ROOT
HETATM    1  C2  UNL     1     -34.101  17.307  -2.756  1.00 20.00     0.005 C 
HETATM    2  C3  UNL     1     -34.490  16.055  -1.954  1.00 20.00     0.006 C 
HETATM    3  C4  UNL     1     -32.987  15.405  -3.655  1.00 20.00     0.010 C 
HETATM    4  C5  UNL     1     -34.840  16.243  -4.906  1.00 20.00     0.023 C 
HETATM    5  C6  UNL     1     -33.617  16.723  -4.097  1.00 20.00    -0.013 C 
HETATM    6  C7  UNL     1     -34.272  14.917  -2.968  1.00 20.00     0.003 C 
HETATM    7  C8  UNL     1     -35.303  14.988  -4.129  1.00 20.00     0.036 C 
HETATM    8  C9  UNL     1     -36.765  15.076  -3.694  1.00 20.00     0.025 C 
ENDROOT
BRANCH   7   9
HETATM    9  C1  UNL     1     -35.164  13.741  -4.971  1.00 20.00     0.227 C 
HETATM   10  O10 UNL     1     -35.022  12.633  -4.464  1.00 20.00    -0.279 OA
HETATM   11 CL11 UNL     1     -35.231  14.090  -6.672  1.00 20.00    -0.043 Cl
ENDBRANCH   7   9
TORSDOF 1
ENDMDL
MODEL 2
REMARK VINA RESULT:      -4.7      1.624      2.086
REMARK  1 active torsions:
REMARK  status: ('A' for Active; 'I' for Inactive)
REMARK    1  A    between atoms: C1_1  and  C8_8 
ROOT
HETATM    1  C2  UNL     1     -34.925  17.836  -3.291  1.00 20.00     0.005 C 
HETATM    2  C3  UNL     1     -36.151  16.950  -3.559  1.00 20.00     0.006 C 
HETATM    3  C4  UNL     1     -34.749  15.827  -2.028  1.00 20.00     0.010 C 
HETATM    4  C5  UNL     1     -33.360  15.992  -3.963  1.00 20.00     0.023 C 
HETATM    5  C6  UNL     1     -33.877  16.832  -2.776  1.00 20.00    -0.013 C 
HETATM    6  C7  UNL     1     -35.625  15.536  -3.256  1.00 20.00     0.003 C 
HETATM    7  C8  UNL     1     -34.569  15.088  -4.304  1.00 20.00     0.036 C 
HETATM    8  C9  UNL     1     -35.005  15.221  -5.763  1.00 20.00     0.025 C 
ENDROOT
BRANCH   7   9
HETATM    9  C1  UNL     1     -34.246  13.631  -4.068  1.00 20.00     0.227 C 
HETATM   10  O10 UNL     1     -35.058  12.743  -4.308  1.00 20.00    -0.279 OA
HETATM   11 CL11 UNL     1     -32.641  13.411  -3.440  1.00 20.00    -0.043 Cl
ENDBRANCH   7   9
TORSDOF 1
ENDMDL
MODEL 3
REMARK VINA RESULT:      -4.6      2.581      3.783
REMARK  1 active torsions:
REMARK  status: ('A' for Active; 'I' for Inactive)
REMARK    1  A    between atoms: C1_1  and  C8_8 
ROOT
HETATM    1  C2  UNL     1     -35.060  13.707  -5.743  1.00 20.00     0.005 C 
HETATM    2  C3  UNL     1     -34.935  13.296  -4.268  1.00 20.00     0.006 C 
HETATM    3  C4  UNL     1     -36.163  15.309  -4.371  1.00 20.00     0.010 C 
HETATM    4  C5  UNL     1     -34.049  15.955  -5.274  1.00 20.00     0.023 C 
HETATM    5  C6  UNL     1     -35.348  15.218  -5.659  1.00 20.00    -0.013 C 
HETATM    6  C7  UNL     1     -35.070  14.637  -3.526  1.00 20.00     0.003 C 
HETATM    7  C8  UNL     1     -33.846  15.558  -3.792  1.00 20.00     0.036 C 
HETATM    8  C9  UNL     1     -32.483  14.915  -3.540  1.00 20.00     0.025 C 
ENDROOT
BRANCH   7   9
HETATM    9  C1  UNL     1     -33.944  16.761  -2.885  1.00 20.00     0.227 C 
HETATM   10  O10 UNL     1     -33.644  17.886  -3.270  1.00 20.00    -0.279 OA
HETATM   11 CL11 UNL     1     -34.513  16.339  -1.298  1.00 20.00    -0.043 Cl
ENDBRANCH   7   9
TORSDOF 1
ENDMDL
MODEL 4
REMARK VINA RESULT:      -4.6      2.868      3.791
REMARK  1 active torsions:
REMARK  status: ('A' for Active; 'I' for Inactive)
REMARK    1  A    between atoms: C1_1  and  C8_8 
ROOT
HETATM    1  C2  UNL     1     -34.558  14.127  -5.231  1.00 20.00     0.005 C 
HETATM    2  C3  UNL     1     -33.966  15.463  -5.706  1.00 20.00     0.006 C 
HETATM    3  C4  UNL     1     -32.916  14.870  -3.677  1.00 20.00     0.010 C 
HETATM    4  C5  UNL     1     -35.198  15.118  -3.016  1.00 20.00     0.023 C 
HETATM    5  C6  UNL     1     -34.249  14.128  -3.722  1.00 20.00    -0.013 C 
HETATM    6  C7  UNL     1     -33.478  16.106  -4.396  1.00 20.00     0.003 C 
HETATM    7  C8  UNL     1     -34.670  16.498  -3.478  1.00 20.00     0.036 C 
HETATM    8  C9  UNL     1     -35.752  17.345  -4.146  1.00 20.00     0.025 C 
ENDROOT
BRANCH   7   9
HETATM    9  C1  UNL     1     -34.136  17.298  -2.313  1.00 20.00     0.227 C 
HETATM   10  O10 UNL     1     -33.500  18.334  -2.479  1.00 20.00    -0.279 OA
HETATM   11 CL11 UNL     1     -34.534  16.573  -0.785  1.00 20.00    -0.043 Cl
ENDBRANCH   7   9
TORSDOF 1
ENDMDL
MODEL 5
REMARK VINA RESULT:      -4.6      1.817      2.787
REMARK  1 active torsions:
REMARK  status: ('A' for Active; 'I' for Inactive)
REMARK    1  A    between atoms: C1_1  and  C8_8 
ROOT
HETATM    1  C2  UNL     1     -35.739  17.141  -6.301  1.00 20.00     0.005 C 
HETATM    2  C3  UNL     1     -34.397  17.225  -5.558  1.00 20.00     0.006 C 
HETATM    3  C4  UNL     1     -34.443  15.201  -6.771  1.00 20.00     0.010 C 
HETATM    4  C5  UNL     1     -36.262  14.923  -5.249  1.00 20.00     0.023 C 
HETATM    5  C6  UNL     1     -35.893  15.632  -6.569  1.00 20.00    -0.013 C 
HETATM    6  C7  UNL     1     -33.996  15.747  -5.406  1.00 20.00     0.003 C 
HETATM    7  C8  UNL     1     -34.949  14.998  -4.433  1.00 20.00     0.036 C 
HETATM    8  C9  UNL     1     -35.143  15.666  -3.073  1.00 20.00     0.025 C 
ENDROOT
BRANCH   7   9
HETATM    9  C1  UNL     1     -34.386  13.620  -4.175  1.00 20.00     0.227 C 
HETATM   10  O10 UNL     1     -35.036  12.605  -4.404  1.00 20.00    -0.279 OA
HETATM   11 CL11 UNL     1     -32.770  13.682  -3.541  1.00 20.00    -0.043 Cl
ENDBRANCH   7   9
TORSDOF 1
ENDMDL
MODEL 6
REMARK VINA RESULT:      -4.5      1.730      2.461
REMARK  1 active torsions:
REMARK  status: ('A' for Active; 'I' for Inactive)
REMARK    1  A    between atoms: C1_1  and  C8_8 
ROOT
HETATM    1  C2  UNL     1     -35.531  17.660  -4.533  1.00 20.00     0.005 C 
HETATM    2  C3  UNL     1     -36.504  16.591  -5.051  1.00 20.00     0.006 C 
HETATM    3  C4  UNL     1     -35.561  15.813  -3.032  1.00 20.00     0.010 C 
HETATM    4  C5  UNL     1     -33.647  16.003  -4.447  1.00 20.00     0.023 C 
HETATM    5  C6  UNL     1     -34.605  16.861  -3.595  1.00 20.00    -0.013 C 
HETATM    6  C7  UNL     1     -35.958  15.296  -4.423  1.00 20.00     0.003 C 
HETATM    7  C8  UNL     1     -34.578  14.912  -5.027  1.00 20.00     0.036 C 
HETATM    8  C9  UNL     1     -34.531  14.855  -6.554  1.00 20.00     0.025 C 
ENDROOT
BRANCH   7   9
HETATM    9  C1  UNL     1     -34.197  13.541  -4.520  1.00 20.00     0.227 C 
HETATM   10  O10 UNL     1     -34.846  12.542  -4.811  1.00 20.00    -0.279 OA
HETATM   11 CL11 UNL     1     -32.779  13.586  -3.517  1.00 20.00    -0.043 Cl
ENDBRANCH   7   9
TORSDOF 1
ENDMDL
MODEL 7
REMARK VINA RESULT:      -4.5      1.622      2.580
REMARK  1 active torsions:
REMARK  status: ('A' for Active; 'I' for Inactive)
REMARK    1  A    between atoms: C1_1  and  C8_8 
ROOT
HETATM    1  C2  UNL     1     -32.805  15.082  -3.822  1.00 20.00     0.005 C 
HETATM    2  C3  UNL     1     -33.436  16.243  -4.605  1.00 20.00     0.006 C 
HETATM    3  C4  UNL     1     -34.824  15.759  -2.758  1.00 20.00     0.010 C 
HETATM    4  C5  UNL     1     -34.909  13.724  -4.006  1.00 20.00     0.023 C 
HETATM    5  C6  UNL     1     -33.998  14.505  -3.036  1.00 20.00    -0.013 C 
HETATM    6  C7  UNL     1     -34.928  16.129  -4.246  1.00 20.00     0.003 C 
HETATM    7  C8  UNL     1     -35.560  14.845  -4.853  1.00 20.00     0.036 C 
HETATM    8  C9  UNL     1     -35.330  14.654  -6.351  1.00 20.00     0.025 C 
ENDROOT
BRANCH   7   9
HETATM    9  C1  UNL     1     -37.054  14.896  -4.635  1.00 20.00     0.227 C 
HETATM   10  O10 UNL     1     -37.613  14.170  -3.819  1.00 20.00    -0.279 OA
HETATM   11 CL11 UNL     1     -37.823  16.071  -5.657  1.00 20.00    -0.043 Cl
ENDBRANCH   7   9
TORSDOF 1
ENDMDL
MODEL 8
REMARK VINA RESULT:      -4.5      2.053      3.076
REMARK  1 active torsions:
REMARK  status: ('A' for Active; 'I' for Inactive)
REMARK    1  A    between atoms: C1_1  and  C8_8 
ROOT
HETATM    1  C2  UNL     1     -35.714  15.929  -7.312  1.00 20.00     0.005 C 
HETATM    2  C3  UNL     1     -36.056  16.770  -6.073  1.00 20.00     0.006 C 
HETATM    3  C4  UNL     1     -33.814  16.055  -5.883  1.00 20.00     0.010 C 
HETATM    4  C5  UNL     1     -35.010  13.988  -5.885  1.00 20.00     0.023 C 
HETATM    5  C6  UNL     1     -34.510  15.091  -6.840  1.00 20.00    -0.013 C 
HETATM    6  C7  UNL     1     -35.069  16.242  -5.016  1.00 20.00     0.003 C 
HETATM    7  C8  UNL     1     -35.402  14.778  -4.613  1.00 20.00     0.036 C 
HETATM    8  C9  UNL     1     -36.851  14.533  -4.195  1.00 20.00     0.025 C 
ENDROOT
BRANCH   7   9
HETATM    9  C1  UNL     1     -34.531  14.393  -3.440  1.00 20.00     0.227 C 
HETATM   10  O10 UNL     1     -34.005  13.288  -3.362  1.00 20.00    -0.279 OA
HETATM   11 CL11 UNL     1     -34.391  15.679  -2.280  1.00 20.00    -0.043 Cl
ENDBRANCH   7   9
TORSDOF 1
ENDMDL
MODEL 9
REMARK VINA RESULT:      -4.4      2.268      3.659
REMARK  1 active torsions:
REMARK  status: ('A' for Active; 'I' for Inactive)
REMARK    1  A    between atoms: C1_1  and  C8_8 
ROOT
HETATM    1  C2  UNL     1     -36.509  14.998  -6.337  1.00 20.00     0.005 C 
HETATM    2  C3  UNL     1     -35.122  14.466  -6.728  1.00 20.00     0.006 C 
HETATM    3  C4  UNL     1     -35.589  13.760  -4.524  1.00 20.00     0.010 C 
HETATM    4  C5  UNL     1     -35.576  16.138  -4.305  1.00 20.00     0.023 C 
HETATM    5  C6  UNL     1     -36.467  14.979  -4.798  1.00 20.00    -0.013 C 
HETATM    6  C7  UNL     1     -34.423  14.299  -5.367  1.00 20.00     0.003 C 
HETATM    7  C8  UNL     1     -34.152  15.675  -4.697  1.00 20.00     0.036 C 
HETATM    8  C9  UNL     1     -33.427  16.693  -5.576  1.00 20.00     0.025 C 
ENDROOT
BRANCH   7   9
HETATM    9  C1  UNL     1     -33.294  15.453  -3.474  1.00 20.00     0.227 C 
HETATM   10  O10 UNL     1     -32.284  14.757  -3.512  1.00 20.00    -0.279 OA
HETATM   11 CL11 UNL     1     -33.914  16.285  -2.080  1.00 20.00    -0.043 Cl
ENDBRANCH   7   9
TORSDOF 1
ENDMDL
