MODEL 1
REMARK VINA RESULT:      -4.5      0.000      0.000
REMARK  0 active torsions:
REMARK  status: ('A' for Active; 'I' for Inactive)
ROOT
HETATM    1  C1  UNL     1     -33.724   6.381   4.442  1.00 20.00     0.251 C 
HETATM    2  C2  UNL     1     -34.285   6.445   5.851  1.00 20.00     0.251 C 
HETATM    3  C3  UNL     1     -34.782   5.664   3.627  1.00 20.00     0.271 C 
HETATM    4  C4  UNL     1     -34.660   5.023   6.225  1.00 20.00     0.271 C 
HETATM    5  F5  UNL     1     -32.586   5.631   4.453  1.00 20.00    -0.242 F 
HETATM    6  F6  UNL     1     -33.352   6.924   6.707  1.00 20.00    -0.242 F 
HETATM    7  F7  UNL     1     -34.241   5.170   2.487  1.00 20.00    -0.235 F 
HETATM    8  F8  UNL     1     -33.531   4.320   6.510  1.00 20.00    -0.235 F 
HETATM    9  S9  UNL     1     -35.399   4.346   4.708  1.00 20.00    -0.089 SA
ENDROOT
TORSDOF 0
ENDMDL
MODEL 2
REMARK VINA RESULT:      -4.4      1.551      3.077
REMARK  0 active torsions:
REMARK  status: ('A' for Active; 'I' for Inactive)
ROOT
HETATM    1  C1  UNL     1     -33.622   6.479   4.514  1.00 20.00     0.251 C 
HETATM    2  C2  UNL     1     -33.870   5.171   3.787  1.00 20.00     0.251 C 
HETATM    3  C3  UNL     1     -33.690   6.133   5.988  1.00 20.00     0.271 C 
HETATM    4  C4  UNL     1     -35.163   4.610   4.350  1.00 20.00     0.271 C 
HETATM    5  F5  UNL     1     -34.627   7.349   4.214  1.00 20.00    -0.242 F 
HETATM    6  F6  UNL     1     -33.993   5.388   2.457  1.00 20.00    -0.242 F 
HETATM    7  F7  UNL     1     -33.912   7.249   6.724  1.00 20.00    -0.235 F 
HETATM    8  F8  UNL     1     -36.214   5.304   3.838  1.00 20.00    -0.235 F 
HETATM    9  S9  UNL     1     -35.055   4.948   6.133  1.00 20.00    -0.089 SA
ENDROOT
TORSDOF 0
ENDMDL
MODEL 3
REMARK VINA RESULT:      -4.0     12.518     13.398
REMARK  0 active torsions:
REMARK  status: ('A' for Active; 'I' for Inactive)
ROOT
HETATM    1  C1  UNL     1     -34.143  13.999  -3.527  1.00 20.00     0.251 C 
HETATM    2  C2  UNL     1     -35.456  14.645  -3.930  1.00 20.00     0.251 C 
HETATM    3  C3  UNL     1     -33.136  15.131  -3.501  1.00 20.00     0.271 C 
HETATM    4  C4  UNL     1     -35.179  15.409  -5.211  1.00 20.00     0.271 C 
HETATM    5  F5  UNL     1     -33.780  13.101  -4.485  1.00 20.00    -0.242 F 
HETATM    6  F6  UNL     1     -36.400  13.698  -4.144  1.00 20.00    -0.242 F 
HETATM    7  F7  UNL     1     -31.876  14.641  -3.578  1.00 20.00    -0.235 F 
HETATM    8  F8  UNL     1     -35.082  14.531  -6.246  1.00 20.00    -0.235 F 
HETATM    9  S9  UNL     1     -33.547  16.163  -4.934  1.00 20.00    -0.089 SA
ENDROOT
TORSDOF 0
ENDMDL
MODEL 4
REMARK VINA RESULT:      -4.0      2.113      2.660
REMARK  0 active torsions:
REMARK  status: ('A' for Active; 'I' for Inactive)
ROOT
HETATM    1  C1  UNL     1     -34.648   5.176   3.965  1.00 20.00     0.251 C 
HETATM    2  C2  UNL     1     -34.287   4.193   5.063  1.00 20.00     0.251 C 
HETATM    3  C3  UNL     1     -33.786   6.396   4.226  1.00 20.00     0.271 C 
HETATM    4  C4  UNL     1     -34.451   4.940   6.374  1.00 20.00     0.271 C 
HETATM    5  F5  UNL     1     -35.960   5.522   4.095  1.00 20.00    -0.242 F 
HETATM    6  F6  UNL     1     -35.116   3.123   5.027  1.00 20.00    -0.242 F 
HETATM    7  F7  UNL     1     -34.304   7.480   3.601  1.00 20.00    -0.235 F 
HETATM    8  F8  UNL     1     -35.775   5.057   6.663  1.00 20.00    -0.235 F 
HETATM    9  S9  UNL     1     -33.782   6.595   6.029  1.00 20.00    -0.089 SA
ENDROOT
TORSDOF 0
ENDMDL
MODEL 5
REMARK VINA RESULT:      -4.0      1.769      2.416
REMARK  0 active torsions:
REMARK  status: ('A' for Active; 'I' for Inactive)
ROOT
HETATM    1  C1  UNL     1     -35.149   4.714   4.193  1.00 20.00     0.251 C 
HETATM    2  C2  UNL     1     -34.444   4.727   5.537  1.00 20.00     0.251 C 
HETATM    3  C3  UNL     1     -34.073   5.049   3.178  1.00 20.00     0.271 C 
HETATM    4  C4  UNL     1     -33.737   6.066   5.634  1.00 20.00     0.271 C 
HETATM    5  F5  UNL     1     -36.095   5.694   4.180  1.00 20.00    -0.242 F 
HETATM    6  F6  UNL     1     -35.343   4.599   6.541  1.00 20.00    -0.242 F 
HETATM    7  F7  UNL     1     -34.635   5.485   2.025  1.00 20.00    -0.235 F 
HETATM    8  F8  UNL     1     -34.651   7.039   5.897  1.00 20.00    -0.235 F 
HETATM    9  S9  UNL     1     -33.066   6.335   3.965  1.00 20.00    -0.089 SA
ENDROOT
TORSDOF 0
ENDMDL
MODEL 6
REMARK VINA RESULT:      -4.0     12.604     13.450
REMARK  0 active torsions:
REMARK  status: ('A' for Active; 'I' for Inactive)
ROOT
HETATM    1  C1  UNL     1     -33.907  16.161  -4.550  1.00 20.00     0.251 C 
HETATM    2  C2  UNL     1     -34.387  15.423  -3.313  1.00 20.00     0.251 C 
HETATM    3  C3  UNL     1     -34.658  15.528  -5.704  1.00 20.00     0.271 C 
HETATM    4  C4  UNL     1     -34.189  13.945  -3.595  1.00 20.00     0.271 C 
HETATM    5  F5  UNL     1     -32.572  15.934  -4.709  1.00 20.00    -0.242 F 
HETATM    6  F6  UNL     1     -33.661  15.795  -2.232  1.00 20.00    -0.242 F 
HETATM    7  F7  UNL     1     -34.025  15.786  -6.874  1.00 20.00    -0.235 F 
HETATM    8  F8  UNL     1     -32.868  13.640  -3.488  1.00 20.00    -0.235 F 
HETATM    9  S9  UNL     1     -34.691  13.754  -5.332  1.00 20.00    -0.089 SA
ENDROOT
TORSDOF 0
ENDMDL
MODEL 7
REMARK VINA RESULT:      -4.0     12.528     13.394
REMARK  0 active torsions:
REMARK  status: ('A' for Active; 'I' for Inactive)
ROOT
HETATM    1  C1  UNL     1     -34.226  14.041  -3.428  1.00 20.00     0.251 C 
HETATM    2  C2  UNL     1     -35.190  13.711  -4.553  1.00 20.00     0.251 C 
HETATM    3  C3  UNL     1     -34.682  15.387  -2.898  1.00 20.00     0.271 C 
HETATM    4  C4  UNL     1     -35.182  14.907  -5.486  1.00 20.00     0.271 C 
HETATM    5  F5  UNL     1     -32.971  14.168  -3.945  1.00 20.00    -0.242 F 
HETATM    6  F6  UNL     1     -34.782  12.600  -5.211  1.00 20.00    -0.242 F 
HETATM    7  F7  UNL     1     -33.681  15.982  -2.206  1.00 20.00    -0.235 F 
HETATM    8  F8  UNL     1     -34.037  14.898  -6.219  1.00 20.00    -0.235 F 
HETATM    9  S9  UNL     1     -35.146  16.341  -4.368  1.00 20.00    -0.089 SA
ENDROOT
TORSDOF 0
ENDMDL
MODEL 8
REMARK VINA RESULT:      -3.9      1.622      3.226
REMARK  0 active torsions:
REMARK  status: ('A' for Active; 'I' for Inactive)
ROOT
HETATM    1  C1  UNL     1     -35.170   4.556   4.690  1.00 20.00     0.251 C 
HETATM    2  C2  UNL     1     -34.944   5.702   3.721  1.00 20.00     0.251 C 
HETATM    3  C3  UNL     1     -35.135   5.189   6.067  1.00 20.00     0.271 C 
HETATM    4  C4  UNL     1     -33.676   6.400   4.175  1.00 20.00     0.271 C 
HETATM    5  F5  UNL     1     -34.138   3.673   4.579  1.00 20.00    -0.242 F 
HETATM    6  F6  UNL     1     -34.793   5.230   2.461  1.00 20.00    -0.242 F 
HETATM    7  F7  UNL     1     -34.896   4.247   7.011  1.00 20.00    -0.235 F 
HETATM    8  F8  UNL     1     -32.598   5.649   3.823  1.00 20.00    -0.235 F 
HETATM    9  S9  UNL     1     -33.804   6.418   5.989  1.00 20.00    -0.089 SA
ENDROOT
TORSDOF 0
ENDMDL
MODEL 9
REMARK VINA RESULT:      -3.9      9.051      9.780
REMARK  0 active torsions:
REMARK  status: ('A' for Active; 'I' for Inactive)
ROOT
HETATM    1  C1  UNL     1     -41.111   6.283  -1.026  1.00 20.00     0.251 C 
HETATM    2  C2  UNL     1     -42.528   6.825  -1.029  1.00 20.00     0.251 C 
HETATM    3  C3  UNL     1     -41.237   4.840  -1.471  1.00 20.00     0.271 C 
HETATM    4  C4  UNL     1     -43.352   5.867  -0.188  1.00 20.00     0.271 C 
HETATM    5  F5  UNL     1     -40.628   6.316   0.248  1.00 20.00    -0.242 F 
HETATM    6  F6  UNL     1     -42.559   8.066  -0.490  1.00 20.00    -0.242 F 
HETATM    7  F7  UNL     1     -40.138   4.137  -1.106  1.00 20.00    -0.235 F 
HETATM    8  F8  UNL     1     -43.080   6.077   1.128  1.00 20.00    -0.235 F 
HETATM    9  S9  UNL     1     -42.734   4.222  -0.654  1.00 20.00    -0.089 SA
ENDROOT
TORSDOF 0
ENDMDL
