MODEL 1
REMARK VINA RESULT:      -4.7      0.000      0.000
REMARK  0 active torsions:
REMARK  status: ('A' for Active; 'I' for Inactive)
ROOT
HETATM    1  C1  UNL     1     -34.532  16.654  -0.890  1.00 20.00     0.014 C 
HETATM    2  C2  UNL     1     -34.410  16.409  -2.058  1.00 20.00    -0.081 C 
HETATM    3  C3  UNL     1     -35.496  13.523  -4.151  1.00 20.00     0.035 C 
HETATM    4  C4  UNL     1     -34.416  14.774  -6.005  1.00 20.00     0.035 C 
HETATM    5  C5  UNL     1     -33.431  14.824  -3.718  1.00 20.00     0.053 C 
HETATM    6  C6  UNL     1     -36.289  14.786  -3.783  1.00 20.00     0.274 C 
HETATM    7  C7  UNL     1     -35.329  15.957  -5.640  1.00 20.00     0.274 C 
HETATM    8  C8  UNL     1     -34.258  16.109  -3.495  1.00 20.00     0.300 C 
HETATM    9  C9  UNL     1     -34.142  13.931  -4.749  1.00 20.00    -0.008 C 
HETATM   10  N10 UNL     1     -35.576  16.025  -4.181  1.00 20.00     0.104 N 
ENDROOT
TORSDOF 0
ENDMDL
MODEL 2
REMARK VINA RESULT:      -4.6      1.206      2.272
REMARK  0 active torsions:
REMARK  status: ('A' for Active; 'I' for Inactive)
ROOT
HETATM    1  C1  UNL     1     -34.570  16.785  -0.651  1.00 20.00     0.014 C 
HETATM    2  C2  UNL     1     -34.839  16.199  -1.664  1.00 20.00    -0.081 C 
HETATM    3  C3  UNL     1     -33.253  16.147  -5.036  1.00 20.00     0.035 C 
HETATM    4  C4  UNL     1     -35.073  14.554  -5.600  1.00 20.00     0.035 C 
HETATM    5  C5  UNL     1     -35.507  16.458  -4.053  1.00 20.00     0.053 C 
HETATM    6  C6  UNL     1     -32.908  15.293  -3.806  1.00 20.00     0.274 C 
HETATM    7  C7  UNL     1     -34.591  13.699  -4.415  1.00 20.00     0.274 C 
HETATM    8  C8  UNL     1     -35.169  15.479  -2.908  1.00 20.00     0.300 C 
HETATM    9  C9  UNL     1     -34.756  16.033  -5.327  1.00 20.00    -0.008 C 
HETATM   10  N10 UNL     1     -34.085  14.541  -3.306  1.00 20.00     0.104 N 
ENDROOT
TORSDOF 0
ENDMDL
MODEL 3
REMARK VINA RESULT:      -4.3      1.346      2.067
REMARK  0 active torsions:
REMARK  status: ('A' for Active; 'I' for Inactive)
ROOT
HETATM    1  C1  UNL     1     -34.733  16.965  -0.306  1.00 20.00     0.014 C 
HETATM    2  C2  UNL     1     -34.459  16.511  -1.383  1.00 20.00    -0.081 C 
HETATM    3  C3  UNL     1     -36.018  16.894  -4.746  1.00 20.00     0.035 C 
HETATM    4  C4  UNL     1     -34.211  15.361  -5.490  1.00 20.00     0.035 C 
HETATM    5  C5  UNL     1     -35.263  15.067  -3.251  1.00 20.00     0.053 C 
HETATM    6  C6  UNL     1     -34.962  17.788  -4.077  1.00 20.00     0.274 C 
HETATM    7  C7  UNL     1     -33.213  16.367  -4.891  1.00 20.00     0.274 C 
HETATM    8  C8  UNL     1     -34.122  15.952  -2.706  1.00 20.00     0.300 C 
HETATM    9  C9  UNL     1     -35.539  15.436  -4.719  1.00 20.00    -0.008 C 
HETATM   10  N10 UNL     1     -33.758  17.019  -3.677  1.00 20.00     0.104 N 
ENDROOT
TORSDOF 0
ENDMDL
MODEL 4
REMARK VINA RESULT:      -4.3      1.639      2.407
REMARK  0 active torsions:
REMARK  status: ('A' for Active; 'I' for Inactive)
ROOT
HETATM    1  C1  UNL     1     -33.522  18.761  -5.249  1.00 20.00     0.014 C 
HETATM    2  C2  UNL     1     -33.567  17.561  -5.254  1.00 20.00    -0.081 C 
HETATM    3  C3  UNL     1     -35.506  15.109  -3.226  1.00 20.00     0.035 C 
HETATM    4  C4  UNL     1     -34.321  13.408  -4.593  1.00 20.00     0.035 C 
HETATM    5  C5  UNL     1     -33.156  15.501  -3.909  1.00 20.00     0.053 C 
HETATM    6  C6  UNL     1     -35.931  15.827  -4.516  1.00 20.00     0.274 C 
HETATM    7  C7  UNL     1     -34.881  14.124  -5.835  1.00 20.00     0.274 C 
HETATM    8  C8  UNL     1     -33.621  16.087  -5.259  1.00 20.00     0.300 C 
HETATM    9  C9  UNL     1     -34.152  14.422  -3.450  1.00 20.00    -0.008 C 
HETATM   10  N10 UNL     1     -34.974  15.588  -5.624  1.00 20.00     0.104 N 
ENDROOT
TORSDOF 0
ENDMDL
MODEL 5
REMARK VINA RESULT:      -4.3      1.174      3.590
REMARK  0 active torsions:
REMARK  status: ('A' for Active; 'I' for Inactive)
ROOT
HETATM    1  C1  UNL     1     -35.411  14.401  -7.602  1.00 20.00     0.014 C 
HETATM    2  C2  UNL     1     -35.474  14.763  -6.460  1.00 20.00    -0.081 C 
HETATM    3  C3  UNL     1     -32.897  15.141  -3.795  1.00 20.00     0.035 C 
HETATM    4  C4  UNL     1     -34.806  15.886  -2.392  1.00 20.00     0.035 C 
HETATM    5  C5  UNL     1     -35.120  14.086  -4.084  1.00 20.00     0.053 C 
HETATM    6  C6  UNL     1     -33.312  16.156  -4.871  1.00 20.00     0.274 C 
HETATM    7  C7  UNL     1     -35.086  16.949  -3.468  1.00 20.00     0.274 C 
HETATM    8  C8  UNL     1     -35.553  15.206  -5.055  1.00 20.00     0.300 C 
HETATM    9  C9  UNL     1     -34.146  14.660  -3.042  1.00 20.00    -0.008 C 
HETATM   10  N10 UNL     1     -34.766  16.448  -4.825  1.00 20.00     0.104 N 
ENDROOT
TORSDOF 0
ENDMDL
MODEL 6
REMARK VINA RESULT:      -4.2     11.085     12.282
REMARK  0 active torsions:
REMARK  status: ('A' for Active; 'I' for Inactive)
ROOT
HETATM    1  C1  UNL     1     -43.417   8.585  -3.197  1.00 20.00     0.014 C 
HETATM    2  C2  UNL     1     -42.697   7.702  -2.821  1.00 20.00    -0.081 C 
HETATM    3  C3  UNL     1     -42.595   5.703   0.322  1.00 20.00     0.035 C 
HETATM    4  C4  UNL     1     -40.646   4.587  -0.737  1.00 20.00     0.035 C 
HETATM    5  C5  UNL     1     -41.039   7.021  -1.086  1.00 20.00     0.053 C 
HETATM    6  C6  UNL     1     -43.417   5.439  -0.949  1.00 20.00     0.274 C 
HETATM    7  C7  UNL     1     -41.569   4.266  -1.925  1.00 20.00     0.274 C 
HETATM    8  C8  UNL     1     -41.810   6.616  -2.360  1.00 20.00     0.300 C 
HETATM    9  C9  UNL     1     -41.118   5.881  -0.056  1.00 20.00    -0.008 C 
HETATM   10  N10 UNL     1     -42.557   5.346  -2.154  1.00 20.00     0.104 N 
ENDROOT
TORSDOF 0
ENDMDL
MODEL 7
REMARK VINA RESULT:      -4.2      1.310      2.629
REMARK  0 active torsions:
REMARK  status: ('A' for Active; 'I' for Inactive)
ROOT
HETATM    1  C1  UNL     1     -38.420  14.758  -3.803  1.00 20.00     0.014 C 
HETATM    2  C2  UNL     1     -37.319  15.207  -3.971  1.00 20.00    -0.081 C 
HETATM    3  C3  UNL     1     -33.925  13.678  -3.785  1.00 20.00     0.035 C 
HETATM    4  C4  UNL     1     -33.132  15.958  -4.369  1.00 20.00     0.035 C 
HETATM    5  C5  UNL     1     -35.116  15.660  -2.893  1.00 20.00     0.053 C 
HETATM    6  C6  UNL     1     -34.887  13.723  -4.983  1.00 20.00     0.274 C 
HETATM    7  C7  UNL     1     -34.040  15.876  -5.608  1.00 20.00     0.274 C 
HETATM    8  C8  UNL     1     -35.967  15.758  -4.177  1.00 20.00     0.300 C 
HETATM    9  C9  UNL     1     -33.726  15.100  -3.241  1.00 20.00    -0.008 C 
HETATM   10  N10 UNL     1     -35.278  15.112  -5.327  1.00 20.00     0.104 N 
ENDROOT
TORSDOF 0
ENDMDL
MODEL 8
REMARK VINA RESULT:      -4.2      1.181      3.011
REMARK  0 active torsions:
REMARK  status: ('A' for Active; 'I' for Inactive)
ROOT
HETATM    1  C1  UNL     1     -35.886  17.614  -6.614  1.00 20.00     0.014 C 
HETATM    2  C2  UNL     1     -35.268  16.693  -6.158  1.00 20.00    -0.081 C 
HETATM    3  C3  UNL     1     -34.600  15.599  -2.658  1.00 20.00     0.035 C 
HETATM    4  C4  UNL     1     -33.314  13.767  -3.734  1.00 20.00     0.035 C 
HETATM    5  C5  UNL     1     -33.323  16.048  -4.734  1.00 20.00     0.053 C 
HETATM    6  C6  UNL     1     -35.803  15.257  -3.551  1.00 20.00     0.274 C 
HETATM    7  C7  UNL     1     -34.597  13.420  -4.508  1.00 20.00     0.274 C 
HETATM    8  C8  UNL     1     -34.507  15.560  -5.597  1.00 20.00     0.300 C 
HETATM    9  C9  UNL     1     -33.302  15.269  -3.408  1.00 20.00    -0.008 C 
HETATM   10  N10 UNL     1     -35.383  14.634  -4.830  1.00 20.00     0.104 N 
ENDROOT
TORSDOF 0
ENDMDL
MODEL 9
REMARK VINA RESULT:      -4.2     11.493     13.299
REMARK  0 active torsions:
REMARK  status: ('A' for Active; 'I' for Inactive)
ROOT
HETATM    1  C1  UNL     1     -41.569   2.392  -3.620  1.00 20.00     0.014 C 
HETATM    2  C2  UNL     1     -41.753   3.066  -2.644  1.00 20.00    -0.081 C 
HETATM    3  C3  UNL     1     -41.531   6.738  -2.048  1.00 20.00     0.035 C 
HETATM    4  C4  UNL     1     -42.183   6.154   0.276  1.00 20.00     0.035 C 
HETATM    5  C5  UNL     1     -40.693   4.642  -1.026  1.00 20.00     0.053 C 
HETATM    6  C6  UNL     1     -42.727   5.927  -2.570  1.00 20.00     0.274 C 
HETATM    7  C7  UNL     1     -43.417   5.458  -0.323  1.00 20.00     0.274 C 
HETATM    8  C8  UNL     1     -41.978   3.895  -1.445  1.00 20.00     0.300 C 
HETATM    9  C9  UNL     1     -41.029   6.115  -0.738  1.00 20.00    -0.008 C 
HETATM   10  N10 UNL     1     -43.111   4.841  -1.635  1.00 20.00     0.104 N 
ENDROOT
TORSDOF 0
ENDMDL
