MODEL 1
REMARK VINA RESULT:      -4.9      0.000      0.000
REMARK  1 active torsions:
REMARK  status: ('A' for Active; 'I' for Inactive)
REMARK    1  A    between atoms: C3_3  and  C7_7 
ROOT
HETATM    1  C1  UNL     1     -33.753  17.456  -4.455  1.00 20.00    -0.029 C 
HETATM    2  C2  UNL     1     -33.661  17.455  -3.118  1.00 20.00    -0.026 C 
HETATM    3  C4  UNL     1     -34.072  16.231  -5.259  1.00 20.00     0.039 C 
HETATM    4  C5  UNL     1     -34.582  15.099  -3.063  1.00 20.00     0.020 C 
HETATM    5  C6  UNL     1     -33.900  16.230  -2.272  1.00 20.00     0.004 C 
HETATM    6  C7  UNL     1     -33.955  14.936  -4.448  1.00 20.00     0.059 C 
HETATM    7  C9  UNL     1     -34.727  16.578  -1.033  1.00 20.00     0.014 C 
ENDROOT
BRANCH   6   8
HETATM    8  C3  UNL     1     -34.626  13.821  -5.190  1.00 20.00     0.127 C 
HETATM    9  C8  UNL     1     -35.186  14.151  -6.547  1.00 20.00     0.091 C 
HETATM   10  O10 UNL     1     -34.713  12.690  -4.714  1.00 20.00    -0.298 OA
ENDBRANCH   6   8
TORSDOF 1
ENDMDL
MODEL 2
REMARK VINA RESULT:      -4.7     11.468     12.549
REMARK  1 active torsions:
REMARK  status: ('A' for Active; 'I' for Inactive)
REMARK    1  A    between atoms: C3_3  and  C7_7 
ROOT
HETATM    1  C1  UNL     1     -34.711   4.888   3.012  1.00 20.00    -0.029 C 
HETATM    2  C2  UNL     1     -35.182   4.881   4.267  1.00 20.00    -0.026 C 
HETATM    3  C4  UNL     1     -33.626   5.812   2.545  1.00 20.00     0.039 C 
HETATM    4  C5  UNL     1     -33.313   6.437   4.969  1.00 20.00     0.020 C 
HETATM    5  C6  UNL     1     -34.650   5.779   5.356  1.00 20.00     0.004 C 
HETATM    6  C7  UNL     1     -33.345   6.952   3.530  1.00 20.00     0.059 C 
HETATM    7  C9  UNL     1     -34.497   5.010   6.669  1.00 20.00     0.014 C 
ENDROOT
BRANCH   6   8
HETATM    8  C3  UNL     1     -32.040   7.600   3.184  1.00 20.00     0.127 C 
HETATM    9  C8  UNL     1     -31.939   8.237   1.825  1.00 20.00     0.091 C 
HETATM   10  O10 UNL     1     -31.096   7.611   3.973  1.00 20.00    -0.298 OA
ENDBRANCH   6   8
TORSDOF 1
ENDMDL
MODEL 3
REMARK VINA RESULT:      -4.6      1.308      1.480
REMARK  1 active torsions:
REMARK  status: ('A' for Active; 'I' for Inactive)
REMARK    1  A    between atoms: C3_3  and  C7_7 
ROOT
HETATM    1  C1  UNL     1     -33.708  17.940  -3.631  1.00 20.00    -0.029 C 
HETATM    2  C2  UNL     1     -33.780  18.194  -2.316  1.00 20.00    -0.026 C 
HETATM    3  C4  UNL     1     -33.825  16.563  -4.212  1.00 20.00     0.039 C 
HETATM    4  C5  UNL     1     -34.508  15.804  -1.904  1.00 20.00     0.020 C 
HETATM    5  C6  UNL     1     -34.021  17.126  -1.280  1.00 20.00     0.004 C 
HETATM    6  C7  UNL     1     -33.704  15.457  -3.158  1.00 20.00     0.059 C 
HETATM    7  C9  UNL     1     -35.019  17.607  -0.225  1.00 20.00     0.014 C 
ENDROOT
BRANCH   6   8
HETATM    8  C3  UNL     1     -34.186  14.162  -3.736  1.00 20.00     0.127 C 
HETATM    9  C8  UNL     1     -35.637  14.094  -4.130  1.00 20.00     0.091 C 
HETATM   10  O10 UNL     1     -33.432  13.201  -3.885  1.00 20.00    -0.298 OA
ENDBRANCH   6   8
TORSDOF 1
ENDMDL
MODEL 4
REMARK VINA RESULT:      -4.5     11.786     13.084
REMARK  1 active torsions:
REMARK  status: ('A' for Active; 'I' for Inactive)
REMARK    1  A    between atoms: C3_3  and  C7_7 
ROOT
HETATM    1  C1  UNL     1     -34.451   5.166   2.564  1.00 20.00    -0.029 C 
HETATM    2  C2  UNL     1     -33.332   5.760   2.126  1.00 20.00    -0.026 C 
HETATM    3  C4  UNL     1     -34.877   5.168   4.001  1.00 20.00     0.039 C 
HETATM    4  C5  UNL     1     -33.026   6.837   4.397  1.00 20.00     0.020 C 
HETATM    5  C6  UNL     1     -32.395   6.526   3.026  1.00 20.00     0.004 C 
HETATM    6  C7  UNL     1     -33.765   5.620   4.954  1.00 20.00     0.059 C 
HETATM    7  C9  UNL     1     -31.933   7.820   2.355  1.00 20.00     0.014 C 
ENDROOT
BRANCH   6   8
HETATM    8  C3  UNL     1     -34.355   5.943   6.292  1.00 20.00     0.127 C 
HETATM    9  C8  UNL     1     -33.841   7.180   6.978  1.00 20.00     0.091 C 
HETATM   10  O10 UNL     1     -35.219   5.234   6.805  1.00 20.00    -0.298 OA
ENDBRANCH   6   8
TORSDOF 1
ENDMDL
MODEL 5
REMARK VINA RESULT:      -4.3      2.000      4.367
REMARK  1 active torsions:
REMARK  status: ('A' for Active; 'I' for Inactive)
REMARK    1  A    between atoms: C3_3  and  C7_7 
ROOT
HETATM    1  C1  UNL     1     -35.053  13.523  -4.211  1.00 20.00    -0.029 C 
HETATM    2  C2  UNL     1     -34.797  13.735  -5.510  1.00 20.00    -0.026 C 
HETATM    3  C4  UNL     1     -34.777  14.537  -3.141  1.00 20.00     0.039 C 
HETATM    4  C5  UNL     1     -34.313  16.169  -5.009  1.00 20.00     0.020 C 
HETATM    5  C6  UNL     1     -34.236  15.029  -6.043  1.00 20.00     0.004 C 
HETATM    6  C7  UNL     1     -33.886  15.688  -3.622  1.00 20.00     0.059 C 
HETATM    7  C9  UNL     1     -34.947  15.441  -7.332  1.00 20.00     0.014 C 
ENDROOT
BRANCH   6   8
HETATM    8  C3  UNL     1     -33.956  16.816  -2.640  1.00 20.00     0.127 C 
HETATM    9  C8  UNL     1     -34.523  16.499  -1.283  1.00 20.00     0.091 C 
HETATM   10  O10 UNL     1     -33.567  17.947  -2.929  1.00 20.00    -0.298 OA
ENDBRANCH   6   8
TORSDOF 1
ENDMDL
MODEL 6
REMARK VINA RESULT:      -4.2      1.354      1.722
REMARK  1 active torsions:
REMARK  status: ('A' for Active; 'I' for Inactive)
REMARK    1  A    between atoms: C3_3  and  C7_7 
ROOT
HETATM    1  C1  UNL     1     -33.483  16.392  -2.471  1.00 20.00    -0.029 C 
HETATM    2  C2  UNL     1     -34.624  16.900  -1.985  1.00 20.00    -0.026 C 
HETATM    3  C4  UNL     1     -33.438  15.274  -3.469  1.00 20.00     0.039 C 
HETATM    4  C5  UNL     1     -35.935  15.562  -3.687  1.00 20.00     0.020 C 
HETATM    5  C6  UNL     1     -35.990  16.426  -2.413  1.00 20.00     0.004 C 
HETATM    6  C7  UNL     1     -34.784  14.558  -3.625  1.00 20.00     0.059 C 
HETATM    7  C9  UNL     1     -36.937  17.609  -2.620  1.00 20.00     0.014 C 
ENDROOT
BRANCH   6   8
HETATM    8  C3  UNL     1     -34.762  13.721  -4.867  1.00 20.00     0.127 C 
HETATM    9  C8  UNL     1     -34.705  14.457  -6.178  1.00 20.00     0.091 C 
HETATM   10  O10 UNL     1     -34.788  12.492  -4.818  1.00 20.00    -0.298 OA
ENDBRANCH   6   8
TORSDOF 1
ENDMDL
MODEL 7
REMARK VINA RESULT:      -4.2      2.192      3.059
REMARK  1 active torsions:
REMARK  status: ('A' for Active; 'I' for Inactive)
REMARK    1  A    between atoms: C3_3  and  C7_7 
ROOT
HETATM    1  C1  UNL     1     -33.857  13.869  -3.965  1.00 20.00    -0.029 C 
HETATM    2  C2  UNL     1     -33.288  15.078  -3.853  1.00 20.00    -0.026 C 
HETATM    3  C4  UNL     1     -35.335  13.664  -4.108  1.00 20.00     0.039 C 
HETATM    4  C5  UNL     1     -35.505  16.164  -4.412  1.00 20.00     0.020 C 
HETATM    5  C6  UNL     1     -34.068  16.367  -3.895  1.00 20.00     0.004 C 
HETATM    6  C7  UNL     1     -36.147  14.924  -3.788  1.00 20.00     0.059 C 
HETATM    7  C9  UNL     1     -33.347  17.413  -4.745  1.00 20.00     0.014 C 
ENDROOT
BRANCH   6   8
HETATM    8  C3  UNL     1     -37.547  14.758  -4.296  1.00 20.00     0.127 C 
HETATM    9  C8  UNL     1     -37.853  15.350  -5.645  1.00 20.00     0.091 C 
HETATM   10  O10 UNL     1     -38.403  14.165  -3.642  1.00 20.00    -0.298 OA
ENDBRANCH   6   8
TORSDOF 1
ENDMDL
MODEL 8
REMARK VINA RESULT:      -4.2     11.229     12.709
REMARK  1 active torsions:
REMARK  status: ('A' for Active; 'I' for Inactive)
REMARK    1  A    between atoms: C3_3  and  C7_7 
ROOT
HETATM    1  C1  UNL     1     -40.799   5.795  -0.521  1.00 20.00    -0.029 C 
HETATM    2  C2  UNL     1     -40.955   4.570  -1.042  1.00 20.00    -0.026 C 
HETATM    3  C4  UNL     1     -41.363   7.035  -1.148  1.00 20.00     0.039 C 
HETATM    4  C5  UNL     1     -42.613   5.500  -2.713  1.00 20.00     0.020 C 
HETATM    5  C6  UNL     1     -41.742   4.299  -2.299  1.00 20.00     0.004 C 
HETATM    6  C7  UNL     1     -41.840   6.813  -2.588  1.00 20.00     0.059 C 
HETATM    7  C9  UNL     1     -42.610   3.050  -2.138  1.00 20.00     0.014 C 
ENDROOT
BRANCH   6   8
HETATM    8  C3  UNL     1     -42.704   7.962  -3.010  1.00 20.00     0.127 C 
HETATM    9  C8  UNL     1     -42.657   8.346  -4.464  1.00 20.00     0.091 C 
HETATM   10  O10 UNL     1     -43.417   8.562  -2.207  1.00 20.00    -0.298 OA
ENDBRANCH   6   8
TORSDOF 1
ENDMDL
MODEL 9
REMARK VINA RESULT:      -4.2     12.203     13.314
REMARK  1 active torsions:
REMARK  status: ('A' for Active; 'I' for Inactive)
REMARK    1  A    between atoms: C3_3  and  C7_7 
ROOT
HETATM    1  C1  UNL     1     -35.025   4.315   6.045  1.00 20.00    -0.029 C 
HETATM    2  C2  UNL     1     -34.857   5.417   6.790  1.00 20.00    -0.026 C 
HETATM    3  C4  UNL     1     -34.695   4.250   4.584  1.00 20.00     0.039 C 
HETATM    4  C5  UNL     1     -33.615   6.512   4.875  1.00 20.00     0.020 C 
HETATM    5  C6  UNL     1     -34.287   6.704   6.247  1.00 20.00     0.004 C 
HETATM    6  C7  UNL     1     -34.466   5.631   3.960  1.00 20.00     0.059 C 
HETATM    7  C9  UNL     1     -33.296   7.319   7.236  1.00 20.00     0.014 C 
ENDROOT
BRANCH   6   8
HETATM    8  C3  UNL     1     -33.798   5.473   2.629  1.00 20.00     0.127 C 
HETATM    9  C8  UNL     1     -32.439   6.101   2.474  1.00 20.00     0.091 C 
HETATM   10  O10 UNL     1     -34.333   4.858   1.708  1.00 20.00    -0.298 OA
ENDBRANCH   6   8
TORSDOF 1
ENDMDL
