MODEL 1
REMARK VINA RESULT:      -4.3      0.000      0.000
REMARK  0 active torsions:
REMARK  status: ('A' for Active; 'I' for Inactive)
ROOT
HETATM    1  C1  UNL     1     -34.523  13.798  -4.800  1.00 20.00     0.089 C 
HETATM    2  C2  UNL     1     -34.139  16.027  -3.972  1.00 20.00     0.017 C 
HETATM    3  C3  UNL     1     -34.154  15.154  -4.987  1.00 20.00     0.118 C 
HETATM    4  C4  UNL     1     -34.514  15.640  -2.562  1.00 20.00     0.059 C 
HETATM    5  C5  UNL     1     -33.902  16.771  -1.731  1.00 20.00     0.026 C 
HETATM    6  C6  UNL     1     -33.902  17.983  -2.665  1.00 20.00     0.122 C 
HETATM    7  C7  UNL     1     -33.522  18.187  -5.138  1.00 20.00     0.149 C 
HETATM    8  N8  UNL     1     -34.824  12.687  -4.652  1.00 20.00    -0.192 NA
HETATM    9  N9  UNL     1     -33.795  17.367  -3.979  1.00 20.00    -0.388 N 
ENDROOT
TORSDOF 0
ENDMDL
MODEL 2
REMARK VINA RESULT:      -4.0      2.030      4.162
REMARK  0 active torsions:
REMARK  status: ('A' for Active; 'I' for Inactive)
ROOT
HETATM    1  C1  UNL     1     -34.150  17.051  -1.449  1.00 20.00     0.089 C 
HETATM    2  C2  UNL     1     -34.847  15.345  -3.000  1.00 20.00     0.017 C 
HETATM    3  C3  UNL     1     -35.154  16.316  -2.131  1.00 20.00     0.118 C 
HETATM    4  C4  UNL     1     -33.423  14.962  -3.322  1.00 20.00     0.059 C 
HETATM    5  C5  UNL     1     -33.583  13.570  -3.939  1.00 20.00     0.026 C 
HETATM    6  C6  UNL     1     -34.976  13.583  -4.571  1.00 20.00     0.122 C 
HETATM    7  C7  UNL     1     -37.129  14.652  -3.849  1.00 20.00     0.149 C 
HETATM    8  N8  UNL     1     -33.334  17.655  -0.889  1.00 20.00    -0.192 NA
HETATM    9  N9  UNL     1     -35.693  14.530  -3.732  1.00 20.00    -0.388 N 
ENDROOT
TORSDOF 0
ENDMDL
MODEL 3
REMARK VINA RESULT:      -4.0     11.883     13.252
REMARK  0 active torsions:
REMARK  status: ('A' for Active; 'I' for Inactive)
ROOT
HETATM    1  C1  UNL     1     -32.515   7.198   2.681  1.00 20.00     0.089 C 
HETATM    2  C2  UNL     1     -33.694   6.100   4.470  1.00 20.00     0.017 C 
HETATM    3  C3  UNL     1     -33.397   6.201   3.169  1.00 20.00     0.118 C 
HETATM    4  C4  UNL     1     -33.116   7.028   5.511  1.00 20.00     0.059 C 
HETATM    5  C5  UNL     1     -34.074   6.845   6.691  1.00 20.00     0.026 C 
HETATM    6  C6  UNL     1     -34.605   5.418   6.543  1.00 20.00     0.122 C 
HETATM    7  C7  UNL     1     -35.178   4.050   4.518  1.00 20.00     0.149 C 
HETATM    8  N8  UNL     1     -31.793   8.012   2.276  1.00 20.00    -0.192 NA
HETATM    9  N9  UNL     1     -34.537   5.205   5.106  1.00 20.00    -0.388 N 
ENDROOT
TORSDOF 0
ENDMDL
MODEL 4
REMARK VINA RESULT:      -4.0      1.011      2.201
REMARK  0 active torsions:
REMARK  status: ('A' for Active; 'I' for Inactive)
ROOT
HETATM    1  C1  UNL     1     -34.578  13.574  -4.052  1.00 20.00     0.089 C 
HETATM    2  C2  UNL     1     -34.227  15.787  -3.168  1.00 20.00     0.017 C 
HETATM    3  C3  UNL     1     -34.656  14.529  -3.007  1.00 20.00     0.118 C 
HETATM    4  C4  UNL     1     -33.629  16.282  -4.463  1.00 20.00     0.059 C 
HETATM    5  C5  UNL     1     -33.747  17.802  -4.327  1.00 20.00     0.026 C 
HETATM    6  C6  UNL     1     -33.688  18.063  -2.820  1.00 20.00     0.122 C 
HETATM    7  C7  UNL     1     -34.585  16.771  -0.864  1.00 20.00     0.149 C 
HETATM    8  N8  UNL     1     -34.516  12.789  -4.904  1.00 20.00    -0.192 NA
HETATM    9  N9  UNL     1     -34.242  16.837  -2.267  1.00 20.00    -0.388 N 
ENDROOT
TORSDOF 0
ENDMDL
MODEL 5
REMARK VINA RESULT:      -3.9      2.175      2.678
REMARK  0 active torsions:
REMARK  status: ('A' for Active; 'I' for Inactive)
ROOT
HETATM    1  C1  UNL     1     -37.433  14.970  -3.994  1.00 20.00     0.089 C 
HETATM    2  C2  UNL     1     -35.053  15.341  -3.974  1.00 20.00     0.017 C 
HETATM    3  C3  UNL     1     -36.294  15.788  -4.203  1.00 20.00     0.118 C 
HETATM    4  C4  UNL     1     -34.772  13.943  -3.478  1.00 20.00     0.059 C 
HETATM    5  C5  UNL     1     -33.293  13.757  -3.827  1.00 20.00     0.026 C 
HETATM    6  C6  UNL     1     -32.703  15.168  -3.786  1.00 20.00     0.122 C 
HETATM    7  C7  UNL     1     -33.653  17.396  -4.446  1.00 20.00     0.149 C 
HETATM    8  N8  UNL     1     -38.368  14.303  -3.825  1.00 20.00    -0.192 NA
HETATM    9  N9  UNL     1     -33.846  15.997  -4.138  1.00 20.00    -0.388 N 
ENDROOT
TORSDOF 0
ENDMDL
MODEL 6
REMARK VINA RESULT:      -3.9     11.859     13.104
REMARK  0 active torsions:
REMARK  status: ('A' for Active; 'I' for Inactive)
ROOT
HETATM    1  C1  UNL     1     -43.113   7.769  -3.569  1.00 20.00     0.089 C 
HETATM    2  C2  UNL     1     -42.013   6.041  -2.302  1.00 20.00     0.017 C 
HETATM    3  C3  UNL     1     -42.848   6.405  -3.283  1.00 20.00     0.118 C 
HETATM    4  C4  UNL     1     -41.294   7.044  -1.432  1.00 20.00     0.059 C 
HETATM    5  C5  UNL     1     -40.880   6.202  -0.223  1.00 20.00     0.026 C 
HETATM    6  C6  UNL     1     -40.720   4.783  -0.773  1.00 20.00     0.122 C 
HETATM    7  C7  UNL     1     -41.988   3.521  -2.533  1.00 20.00     0.149 C 
HETATM    8  N8  UNL     1     -43.334   8.882  -3.807  1.00 20.00    -0.192 NA
HETATM    9  N9  UNL     1     -41.658   4.770  -1.885  1.00 20.00    -0.388 N 
ENDROOT
TORSDOF 0
ENDMDL
MODEL 7
REMARK VINA RESULT:      -3.9      1.893      2.220
REMARK  0 active torsions:
REMARK  status: ('A' for Active; 'I' for Inactive)
ROOT
HETATM    1  C1  UNL     1     -35.413  13.665  -4.290  1.00 20.00     0.089 C 
HETATM    2  C2  UNL     1     -35.732  15.723  -3.080  1.00 20.00     0.017 C 
HETATM    3  C3  UNL     1     -36.164  14.825  -3.975  1.00 20.00     0.118 C 
HETATM    4  C4  UNL     1     -34.423  15.570  -2.343  1.00 20.00     0.059 C 
HETATM    5  C5  UNL     1     -34.153  16.992  -1.845  1.00 20.00     0.026 C 
HETATM    6  C6  UNL     1     -35.540  17.615  -1.676  1.00 20.00     0.122 C 
HETATM    7  C7  UNL     1     -37.657  17.364  -3.001  1.00 20.00     0.149 C 
HETATM    8  N8  UNL     1     -34.801  12.714  -4.553  1.00 20.00    -0.192 NA
HETATM    9  N9  UNL     1     -36.327  16.902  -2.670  1.00 20.00    -0.388 N 
ENDROOT
TORSDOF 0
ENDMDL
MODEL 8
REMARK VINA RESULT:      -3.9      0.789      2.223
REMARK  0 active torsions:
REMARK  status: ('A' for Active; 'I' for Inactive)
ROOT
HETATM    1  C1  UNL     1     -34.615  13.858  -3.792  1.00 20.00     0.089 C 
HETATM    2  C2  UNL     1     -34.042  16.192  -3.942  1.00 20.00     0.017 C 
HETATM    3  C3  UNL     1     -34.415  15.135  -3.210  1.00 20.00     0.118 C 
HETATM    4  C4  UNL     1     -33.803  16.106  -5.431  1.00 20.00     0.059 C 
HETATM    5  C5  UNL     1     -33.880  17.572  -5.866  1.00 20.00     0.026 C 
HETATM    6  C6  UNL     1     -33.427  18.366  -4.639  1.00 20.00     0.122 C 
HETATM    7  C7  UNL     1     -33.783  17.992  -2.183  1.00 20.00     0.149 C 
HETATM    8  N8  UNL     1     -34.779  12.810  -4.263  1.00 20.00    -0.192 NA
HETATM    9  N9  UNL     1     -33.819  17.497  -3.540  1.00 20.00    -0.388 N 
ENDROOT
TORSDOF 0
ENDMDL
MODEL 9
REMARK VINA RESULT:      -3.7      1.767      3.950
REMARK  0 active torsions:
REMARK  status: ('A' for Active; 'I' for Inactive)
ROOT
HETATM    1  C1  UNL     1     -34.378  16.841  -0.989  1.00 20.00     0.089 C 
HETATM    2  C2  UNL     1     -34.497  15.957  -3.226  1.00 20.00     0.017 C 
HETATM    3  C3  UNL     1     -34.788  15.856  -1.923  1.00 20.00     0.118 C 
HETATM    4  C4  UNL     1     -33.720  17.118  -3.798  1.00 20.00     0.059 C 
HETATM    5  C5  UNL     1     -33.244  16.570  -5.145  1.00 20.00     0.026 C 
HETATM    6  C6  UNL     1     -34.308  15.546  -5.546  1.00 20.00     0.122 C 
HETATM    7  C7  UNL     1     -35.668  13.930  -4.189  1.00 20.00     0.149 C 
HETATM    8  N8  UNL     1     -34.045  17.644  -0.220  1.00 20.00    -0.192 NA
HETATM    9  N9  UNL     1     -34.805  15.088  -4.258  1.00 20.00    -0.388 N 
ENDROOT
TORSDOF 0
ENDMDL
