MODEL 1
REMARK VINA RESULT:      -4.5      0.000      0.000
REMARK  1 active torsions:
REMARK  status: ('A' for Active; 'I' for Inactive)
REMARK    1  A    between atoms: C3_3  and  C7_7 
ROOT
HETATM    1  C1  UNL     1     -33.877  17.237  -2.951  1.00 20.00     0.006 C 
HETATM    2  C2  UNL     1     -33.996  16.056  -2.330  1.00 20.00     0.007 C 
HETATM    3  C4  UNL     1     -34.813  16.351  -5.069  1.00 20.00     0.054 C 
HETATM    4  C5  UNL     1     -33.557  16.934  -4.393  1.00 20.00     0.244 C 
HETATM    5  C6  UNL     1     -33.764  14.996  -3.378  1.00 20.00     0.255 C 
HETATM    6  C7  UNL     1     -34.978  14.993  -4.329  1.00 20.00     0.094 C 
HETATM    7  N9  UNL     1     -32.782  15.675  -4.270  1.00 20.00     0.100 N 
HETATM    8  H21 UNL     1     -32.704  15.201  -5.170  1.00 20.00     0.317 HD
ENDROOT
BRANCH   6   9
HETATM    9  C3  UNL     1     -34.977  13.832  -5.278  1.00 20.00     0.129 C 
HETATM   10  C8  UNL     1     -35.166  14.150  -6.736  1.00 20.00     0.091 C 
HETATM   11  O10 UNL     1     -34.828  12.677  -4.884  1.00 20.00    -0.298 OA
ENDBRANCH   6   9
TORSDOF 1
ENDMDL
MODEL 2
REMARK VINA RESULT:      -4.4      2.205      3.783
REMARK  1 active torsions:
REMARK  status: ('A' for Active; 'I' for Inactive)
REMARK    1  A    between atoms: C3_3  and  C7_7 
ROOT
HETATM    1  C1  UNL     1     -34.684  13.670  -5.167  1.00 20.00     0.006 C 
HETATM    2  C2  UNL     1     -35.532  13.693  -4.130  1.00 20.00     0.007 C 
HETATM    3  C4  UNL     1     -33.201  15.372  -4.144  1.00 20.00     0.054 C 
HETATM    4  C5  UNL     1     -34.151  15.072  -5.318  1.00 20.00     0.244 C 
HETATM    5  C6  UNL     1     -35.533  15.109  -3.611  1.00 20.00     0.255 C 
HETATM    6  C7  UNL     1     -34.174  15.367  -2.931  1.00 20.00     0.094 C 
HETATM    7  N9  UNL     1     -35.308  15.883  -4.864  1.00 20.00     0.100 N 
HETATM    8  H21 UNL     1     -35.029  16.843  -4.666  1.00 20.00     0.317 HD
ENDROOT
BRANCH   6   9
HETATM    9  C3  UNL     1     -34.133  16.661  -2.173  1.00 20.00     0.129 C 
HETATM   10  C8  UNL     1     -34.642  16.631  -0.758  1.00 20.00     0.091 C 
HETATM   11  O10 UNL     1     -33.703  17.694  -2.682  1.00 20.00    -0.298 OA
ENDBRANCH   6   9
TORSDOF 1
ENDMDL
MODEL 3
REMARK VINA RESULT:      -4.3      2.201      3.805
REMARK  1 active torsions:
REMARK  status: ('A' for Active; 'I' for Inactive)
REMARK    1  A    between atoms: C3_3  and  C7_7 
ROOT
HETATM    1  C1  UNL     1     -34.416  14.420  -5.635  1.00 20.00     0.006 C 
HETATM    2  C2  UNL     1     -34.081  15.692  -5.891  1.00 20.00     0.007 C 
HETATM    3  C4  UNL     1     -34.956  14.916  -3.267  1.00 20.00     0.054 C 
HETATM    4  C5  UNL     1     -34.009  14.148  -4.209  1.00 20.00     0.244 C 
HETATM    5  C6  UNL     1     -33.470  16.237  -4.625  1.00 20.00     0.255 C 
HETATM    6  C7  UNL     1     -34.596  16.395  -3.583  1.00 20.00     0.094 C 
HETATM    7  N9  UNL     1     -32.817  15.020  -4.065  1.00 20.00     0.100 N 
HETATM    8  H21 UNL     1     -32.569  15.145  -3.084  1.00 20.00     0.317 HD
ENDROOT
BRANCH   6   9
HETATM    9  C3  UNL     1     -34.162  17.143  -2.357  1.00 20.00     0.129 C 
HETATM   10  C8  UNL     1     -34.565  16.558  -1.031  1.00 20.00     0.091 C 
HETATM   11  O10 UNL     1     -33.508  18.181  -2.433  1.00 20.00    -0.298 OA
ENDBRANCH   6   9
TORSDOF 1
ENDMDL
MODEL 4
REMARK VINA RESULT:      -4.3      2.277      3.435
REMARK  1 active torsions:
REMARK  status: ('A' for Active; 'I' for Inactive)
REMARK    1  A    between atoms: C3_3  and  C7_7 
ROOT
HETATM    1  C1  UNL     1     -35.952  16.462  -7.363  1.00 20.00     0.006 C 
HETATM    2  C2  UNL     1     -34.619  16.362  -7.268  1.00 20.00     0.007 C 
HETATM    3  C4  UNL     1     -36.319  14.993  -5.400  1.00 20.00     0.054 C 
HETATM    4  C5  UNL     1     -36.515  15.135  -6.922  1.00 20.00     0.244 C 
HETATM    5  C6  UNL     1     -34.330  14.974  -6.756  1.00 20.00     0.255 C 
HETATM    6  C7  UNL     1     -34.771  14.910  -5.279  1.00 20.00     0.094 C 
HETATM    7  N9  UNL     1     -35.450  14.198  -7.358  1.00 20.00     0.100 N 
HETATM    8  H21 UNL     1     -35.557  13.287  -6.913  1.00 20.00     0.317 HD
ENDROOT
BRANCH   6   9
HETATM    9  C3  UNL     1     -34.328  13.655  -4.588  1.00 20.00     0.129 C 
HETATM   10  C8  UNL     1     -33.155  13.776  -3.654  1.00 20.00     0.091 C 
HETATM   11  O10 UNL     1     -34.896  12.581  -4.774  1.00 20.00    -0.298 OA
ENDBRANCH   6   9
TORSDOF 1
ENDMDL
MODEL 5
REMARK VINA RESULT:      -4.3     12.204     13.304
REMARK  1 active torsions:
REMARK  status: ('A' for Active; 'I' for Inactive)
REMARK    1  A    between atoms: C3_3  and  C7_7 
ROOT
HETATM    1  C1  UNL     1     -41.064   7.127  -0.905  1.00 20.00     0.006 C 
HETATM    2  C2  UNL     1     -41.862   7.085  -1.981  1.00 20.00     0.007 C 
HETATM    3  C4  UNL     1     -40.735   4.670  -0.907  1.00 20.00     0.054 C 
HETATM    4  C5  UNL     1     -41.324   5.862  -0.128  1.00 20.00     0.244 C 
HETATM    5  C6  UNL     1     -42.624   5.787  -1.898  1.00 20.00     0.255 C 
HETATM    6  C7  UNL     1     -41.635   4.636  -2.174  1.00 20.00     0.094 C 
HETATM    7  N9  UNL     1     -42.757   5.617  -0.423  1.00 20.00     0.100 N 
HETATM    8  H21 UNL     1     -43.026   4.665  -0.178  1.00 20.00     0.317 HD
ENDROOT
BRANCH   6   9
HETATM    9  C3  UNL     1     -42.312   3.309  -2.348  1.00 20.00     0.129 C 
HETATM   10  C8  UNL     1     -41.669   2.341  -3.303  1.00 20.00     0.091 C 
HETATM   11  O10 UNL     1     -43.341   3.025  -1.737  1.00 20.00    -0.298 OA
ENDBRANCH   6   9
TORSDOF 1
ENDMDL
MODEL 6
REMARK VINA RESULT:      -4.2     11.758     12.792
REMARK  1 active torsions:
REMARK  status: ('A' for Active; 'I' for Inactive)
REMARK    1  A    between atoms: C3_3  and  C7_7 
ROOT
HETATM    1  C1  UNL     1     -35.123   4.467   4.846  1.00 20.00     0.006 C 
HETATM    2  C2  UNL     1     -34.270   5.046   5.702  1.00 20.00     0.007 C 
HETATM    3  C4  UNL     1     -33.904   5.324   2.866  1.00 20.00     0.054 C 
HETATM    4  C5  UNL     1     -35.226   5.384   3.655  1.00 20.00     0.244 C 
HETATM    5  C6  UNL     1     -33.818   6.329   5.051  1.00 20.00     0.255 C 
HETATM    6  C7  UNL     1     -32.901   5.965   3.866  1.00 20.00     0.094 C 
HETATM    7  N9  UNL     1     -35.035   6.715   4.283  1.00 20.00     0.100 N 
HETATM    8  H21 UNL     1     -34.826   7.426   3.582  1.00 20.00     0.317 HD
ENDROOT
BRANCH   6   9
HETATM    9  C3  UNL     1     -32.201   7.154   3.277  1.00 20.00     0.129 C 
HETATM   10  C8  UNL     1     -31.088   7.755   4.091  1.00 20.00     0.091 C 
HETATM   11  O10 UNL     1     -32.522   7.614   2.183  1.00 20.00    -0.298 OA
ENDBRANCH   6   9
TORSDOF 1
ENDMDL
MODEL 7
REMARK VINA RESULT:      -4.2      1.518      1.723
REMARK  1 active torsions:
REMARK  status: ('A' for Active; 'I' for Inactive)
REMARK    1  A    between atoms: C3_3  and  C7_7 
ROOT
HETATM    1  C1  UNL     1     -35.420  17.306  -1.990  1.00 20.00     0.006 C 
HETATM    2  C2  UNL     1     -34.340  16.672  -1.513  1.00 20.00     0.007 C 
HETATM    3  C4  UNL     1     -35.946  15.469  -3.569  1.00 20.00     0.054 C 
HETATM    4  C5  UNL     1     -35.521  16.944  -3.450  1.00 20.00     0.244 C 
HETATM    5  C6  UNL     1     -33.755  15.897  -2.667  1.00 20.00     0.255 C 
HETATM    6  C7  UNL     1     -34.709  14.728  -2.986  1.00 20.00     0.094 C 
HETATM    7  N9  UNL     1     -34.092  16.781  -3.818  1.00 20.00     0.100 N 
HETATM    8  H21 UNL     1     -33.995  16.293  -4.707  1.00 20.00     0.317 HD
ENDROOT
BRANCH   6   9
HETATM    9  C3  UNL     1     -34.130  13.747  -3.962  1.00 20.00     0.129 C 
HETATM   10  C8  UNL     1     -34.888  13.541  -5.244  1.00 20.00     0.091 C 
HETATM   11  O10 UNL     1     -33.086  13.142  -3.725  1.00 20.00    -0.298 OA
ENDBRANCH   6   9
TORSDOF 1
ENDMDL
MODEL 8
REMARK VINA RESULT:      -4.1      1.927      2.619
REMARK  1 active torsions:
REMARK  status: ('A' for Active; 'I' for Inactive)
REMARK    1  A    between atoms: C3_3  and  C7_7 
ROOT
HETATM    1  C1  UNL     1     -32.733  14.881  -3.702  1.00 20.00     0.006 C 
HETATM    2  C2  UNL     1     -33.434  13.740  -3.766  1.00 20.00     0.007 C 
HETATM    3  C4  UNL     1     -34.751  16.231  -3.207  1.00 20.00     0.054 C 
HETATM    4  C5  UNL     1     -33.633  15.968  -4.232  1.00 20.00     0.244 C 
HETATM    5  C6  UNL     1     -34.786  14.100  -4.326  1.00 20.00     0.255 C 
HETATM    6  C7  UNL     1     -35.550  14.898  -3.250  1.00 20.00     0.094 C 
HETATM    7  N9  UNL     1     -34.438  15.228  -5.236  1.00 20.00     0.100 N 
HETATM    8  H21 UNL     1     -35.265  15.759  -5.508  1.00 20.00     0.317 HD
ENDROOT
BRANCH   6   9
HETATM    9  C3  UNL     1     -36.993  15.118  -3.596  1.00 20.00     0.129 C 
HETATM   10  C8  UNL     1     -37.455  16.547  -3.692  1.00 20.00     0.091 C 
HETATM   11  O10 UNL     1     -37.760  14.178  -3.793  1.00 20.00    -0.298 OA
ENDBRANCH   6   9
TORSDOF 1
ENDMDL
MODEL 9
REMARK VINA RESULT:      -4.1     11.489     12.498
REMARK  1 active torsions:
REMARK  status: ('A' for Active; 'I' for Inactive)
REMARK    1  A    between atoms: C3_3  and  C7_7 
ROOT
HETATM    1  C1  UNL     1     -43.417   8.100  -1.627  1.00 20.00     0.006 C 
HETATM    2  C2  UNL     1     -43.231   7.416  -0.490  1.00 20.00     0.007 C 
HETATM    3  C4  UNL     1     -42.647   6.207  -3.030  1.00 20.00     0.054 C 
HETATM    4  C5  UNL     1     -42.341   7.648  -2.581  1.00 20.00     0.244 C 
HETATM    5  C6  UNL     1     -42.041   6.519  -0.721  1.00 20.00     0.255 C 
HETATM    6  C7  UNL     1     -42.465   5.411  -1.706  1.00 20.00     0.094 C 
HETATM    7  N9  UNL     1     -41.224   7.346  -1.652  1.00 20.00     0.100 N 
HETATM    8  H21 UNL     1     -40.503   6.791  -2.112  1.00 20.00     0.317 HD
ENDROOT
BRANCH   6   9
HETATM    9  C3  UNL     1     -41.442   4.322  -1.841  1.00 20.00     0.129 C 
HETATM   10  C8  UNL     1     -41.798   3.168  -2.738  1.00 20.00     0.091 C 
HETATM   11  O10 UNL     1     -40.366   4.371  -1.248  1.00 20.00    -0.298 OA
ENDBRANCH   6   9
TORSDOF 1
ENDMDL
