MODEL 1
REMARK VINA RESULT:      -5.2      0.000      0.000
REMARK  3 active torsions:
REMARK  status: ('A' for Active; 'I' for Inactive)
REMARK    1  A    between atoms: C3_3  and  C8_8 
REMARK    2  A    between atoms: C6_6  and  C9_9 
REMARK    3  A    between atoms: C7_7  and  C10_10 
ROOT
HETATM    1  C5  UNL     1     -32.622  14.291  -3.594  1.00 20.00     0.019 C 
HETATM    2  C8  UNL     1     -34.155  14.131  -3.150  1.00 20.00     0.078 C 
HETATM    3  C9  UNL     1     -33.100  15.632  -4.227  1.00 20.00    -0.001 C 
HETATM    4  C10 UNL     1     -34.053  15.670  -2.946  1.00 20.00     0.010 C 
ENDROOT
BRANCH   2   5
HETATM    5  C3  UNL     1     -35.169  13.577  -4.157  1.00 20.00     0.223 C 
HETATM    6  O11 UNL     1     -34.882  12.666  -4.927  1.00 20.00    -0.279 OA
HETATM    7 CL12 UNL     1     -36.704  14.386  -4.053  1.00 20.00    -0.043 Cl
ENDBRANCH   2   5
BRANCH   4   8
HETATM    8  C7  UNL     1     -34.638  17.079  -3.028  1.00 20.00     0.014 C 
HETATM    9  C2  UNL     1     -33.727  18.122  -2.438  1.00 20.00    -0.025 C 
HETATM   10  C1  UNL     1     -33.721  17.951  -1.105  1.00 20.00    -0.025 C 
HETATM   11  C6  UNL     1     -34.514  16.681  -0.816  1.00 20.00     0.013 C 
HETATM   12  C4  UNL     1     -35.624  16.932  -1.839  1.00 20.00     0.017 C 
ENDBRANCH   4   8
TORSDOF 3
ENDMDL
MODEL 2
REMARK VINA RESULT:      -4.5      1.719      2.494
REMARK  3 active torsions:
REMARK  status: ('A' for Active; 'I' for Inactive)
REMARK    1  A    between atoms: C3_3  and  C8_8 
REMARK    2  A    between atoms: C6_6  and  C9_9 
REMARK    3  A    between atoms: C7_7  and  C10_10 
ROOT
HETATM    1  C5  UNL     1     -36.488  15.048  -5.012  1.00 20.00     0.019 C 
HETATM    2  C8  UNL     1     -34.916  14.918  -4.718  1.00 20.00     0.078 C 
HETATM    3  C9  UNL     1     -36.632  14.986  -3.463  1.00 20.00    -0.001 C 
HETATM    4  C10 UNL     1     -35.269  15.818  -3.499  1.00 20.00     0.010 C 
ENDROOT
BRANCH   2   5
HETATM    5  C3  UNL     1     -34.316  13.530  -4.472  1.00 20.00     0.223 C 
HETATM    6  O11 UNL     1     -34.841  12.512  -4.913  1.00 20.00    -0.279 OA
HETATM    7 CL12 UNL     1     -32.858  13.605  -3.529  1.00 20.00    -0.043 Cl
ENDBRANCH   2   5
BRANCH   4   8
HETATM    8  C7  UNL     1     -35.106  16.223  -2.035  1.00 20.00     0.014 C 
HETATM    9  C2  UNL     1     -35.772  17.535  -1.717  1.00 20.00    -0.025 C 
HETATM   10  C1  UNL     1     -35.058  18.509  -2.307  1.00 20.00    -0.025 C 
HETATM   11  C6  UNL     1     -33.994  17.824  -3.159  1.00 20.00     0.013 C 
HETATM   12  C4  UNL     1     -33.643  16.727  -2.152  1.00 20.00     0.017 C 
ENDBRANCH   4   8
TORSDOF 3
ENDMDL
MODEL 3
REMARK VINA RESULT:      -4.5      1.999      2.638
REMARK  3 active torsions:
REMARK  status: ('A' for Active; 'I' for Inactive)
REMARK    1  A    between atoms: C3_3  and  C8_8 
REMARK    2  A    between atoms: C6_6  and  C9_9 
REMARK    3  A    between atoms: C7_7  and  C10_10 
ROOT
HETATM    1  C5  UNL     1     -35.634  14.271  -4.174  1.00 20.00     0.019 C 
HETATM    2  C8  UNL     1     -35.224  15.741  -4.670  1.00 20.00     0.078 C 
HETATM    3  C9  UNL     1     -34.378  14.391  -3.260  1.00 20.00    -0.001 C 
HETATM    4  C10 UNL     1     -34.827  15.921  -3.177  1.00 20.00     0.010 C 
ENDROOT
BRANCH   2   5
HETATM    5  C3  UNL     1     -34.149  15.889  -5.752  1.00 20.00     0.223 C 
HETATM    6  O11 UNL     1     -33.205  16.664  -5.622  1.00 20.00    -0.279 OA
HETATM    7 CL12 UNL     1     -34.446  14.855  -7.116  1.00 20.00    -0.043 Cl
ENDBRANCH   2   5
BRANCH   4   8
HETATM    8  C7  UNL     1     -33.904  16.463  -2.087  1.00 20.00     0.014 C 
HETATM    9  C2  UNL     1     -34.602  16.628  -0.763  1.00 20.00    -0.025 C 
HETATM   10  C1  UNL     1     -35.456  17.660  -0.877  1.00 20.00    -0.025 C 
HETATM   11  C6  UNL     1     -35.441  18.088  -2.341  1.00 20.00     0.013 C 
HETATM   12  C4  UNL     1     -33.933  17.943  -2.550  1.00 20.00     0.017 C 
ENDBRANCH   4   8
TORSDOF 3
ENDMDL
MODEL 4
REMARK VINA RESULT:      -4.4      1.329      1.806
REMARK  3 active torsions:
REMARK  status: ('A' for Active; 'I' for Inactive)
REMARK    1  A    between atoms: C3_3  and  C8_8 
REMARK    2  A    between atoms: C6_6  and  C9_9 
REMARK    3  A    between atoms: C7_7  and  C10_10 
ROOT
HETATM    1  C5  UNL     1     -33.335  16.638  -4.995  1.00 20.00     0.019 C 
HETATM    2  C8  UNL     1     -33.376  15.494  -3.871  1.00 20.00     0.078 C 
HETATM    3  C9  UNL     1     -34.791  16.940  -4.530  1.00 20.00    -0.001 C 
HETATM    4  C10 UNL     1     -34.203  16.560  -3.095  1.00 20.00     0.010 C 
ENDROOT
BRANCH   2   5
HETATM    5  C3  UNL     1     -34.023  14.145  -4.204  1.00 20.00     0.223 C 
HETATM    6  O11 UNL     1     -34.149  13.263  -3.360  1.00 20.00    -0.279 OA
HETATM    7 CL12 UNL     1     -34.525  14.053  -5.865  1.00 20.00    -0.043 Cl
ENDBRANCH   2   5
BRANCH   4   8
HETATM    8  C7  UNL     1     -35.349  16.958  -2.167  1.00 20.00     0.014 C 
HETATM    9  C2  UNL     1     -35.426  18.445  -1.944  1.00 20.00    -0.025 C 
HETATM   10  C1  UNL     1     -34.378  18.797  -1.180  1.00 20.00    -0.025 C 
HETATM   11  C6  UNL     1     -33.505  17.557  -1.024  1.00 20.00     0.013 C 
HETATM   12  C4  UNL     1     -34.651  16.559  -0.841  1.00 20.00     0.017 C 
ENDBRANCH   4   8
TORSDOF 3
ENDMDL
MODEL 5
REMARK VINA RESULT:      -4.3      2.576      4.382
REMARK  3 active torsions:
REMARK  status: ('A' for Active; 'I' for Inactive)
REMARK    1  A    between atoms: C3_3  and  C8_8 
REMARK    2  A    between atoms: C6_6  and  C9_9 
REMARK    3  A    between atoms: C7_7  and  C10_10 
ROOT
HETATM    1  C5  UNL     1     -36.380  17.035  -2.796  1.00 20.00     0.019 C 
HETATM    2  C8  UNL     1     -35.319  16.184  -1.946  1.00 20.00     0.078 C 
HETATM    3  C9  UNL     1     -35.199  17.233  -3.792  1.00 20.00    -0.001 C 
HETATM    4  C10 UNL     1     -34.839  15.740  -3.357  1.00 20.00     0.010 C 
ENDROOT
BRANCH   2   5
HETATM    5  C3  UNL     1     -34.342  16.920  -1.022  1.00 20.00     0.223 C 
HETATM    6  O11 UNL     1     -33.205  17.210  -1.384  1.00 20.00    -0.279 OA
HETATM    7 CL12 UNL     1     -35.043  17.266   0.530  1.00 20.00    -0.043 Cl
ENDBRANCH   2   5
BRANCH   4   8
HETATM    8  C7  UNL     1     -33.736  15.378  -4.349  1.00 20.00     0.014 C 
HETATM    9  C2  UNL     1     -34.274  14.993  -5.702  1.00 20.00    -0.025 C 
HETATM   10  C1  UNL     1     -34.874  13.797  -5.578  1.00 20.00    -0.025 C 
HETATM   11  C6  UNL     1     -34.874  13.453  -4.092  1.00 20.00     0.013 C 
HETATM   12  C4  UNL     1     -33.459  13.955  -3.797  1.00 20.00     0.017 C 
ENDBRANCH   4   8
TORSDOF 3
ENDMDL
MODEL 6
REMARK VINA RESULT:      -4.3      2.890      4.397
REMARK  3 active torsions:
REMARK  status: ('A' for Active; 'I' for Inactive)
REMARK    1  A    between atoms: C3_3  and  C8_8 
REMARK    2  A    between atoms: C6_6  and  C9_9 
REMARK    3  A    between atoms: C7_7  and  C10_10 
ROOT
HETATM    1  C5  UNL     1     -33.142  15.059  -3.424  1.00 20.00     0.019 C 
HETATM    2  C8  UNL     1     -34.225  16.225  -3.628  1.00 20.00     0.078 C 
HETATM    3  C9  UNL     1     -34.295  14.113  -3.875  1.00 20.00    -0.001 C 
HETATM    4  C10 UNL     1     -34.663  15.339  -4.830  1.00 20.00     0.010 C 
ENDROOT
BRANCH   2   5
HETATM    5  C3  UNL     1     -35.230  16.513  -2.507  1.00 20.00     0.223 C 
HETATM    6  O11 UNL     1     -36.417  16.721  -2.741  1.00 20.00    -0.279 OA
HETATM    7 CL12 UNL     1     -34.481  16.504  -0.939  1.00 20.00    -0.043 Cl
ENDBRANCH   2   5
BRANCH   4   8
HETATM    8  C7  UNL     1     -35.737  14.730  -5.729  1.00 20.00     0.014 C 
HETATM    9  C2  UNL     1     -35.173  14.161  -7.004  1.00 20.00    -0.025 C 
HETATM   10  C1  UNL     1     -34.784  15.191  -7.774  1.00 20.00    -0.025 C 
HETATM   11  C6  UNL     1     -34.946  16.456  -6.937  1.00 20.00     0.013 C 
HETATM   12  C4  UNL     1     -36.279  16.070  -6.292  1.00 20.00     0.017 C 
ENDBRANCH   4   8
TORSDOF 3
ENDMDL
MODEL 7
REMARK VINA RESULT:      -4.3      2.191      2.939
REMARK  3 active torsions:
REMARK  status: ('A' for Active; 'I' for Inactive)
REMARK    1  A    between atoms: C3_3  and  C8_8 
REMARK    2  A    between atoms: C6_6  and  C9_9 
REMARK    3  A    between atoms: C7_7  and  C10_10 
ROOT
HETATM    1  C5  UNL     1     -34.409  15.047  -2.977  1.00 20.00     0.019 C 
HETATM    2  C8  UNL     1     -35.209  14.954  -4.365  1.00 20.00     0.078 C 
HETATM    3  C9  UNL     1     -33.246  15.597  -3.856  1.00 20.00    -0.001 C 
HETATM    4  C10 UNL     1     -34.442  16.272  -4.670  1.00 20.00     0.010 C 
ENDROOT
BRANCH   2   5
HETATM    5  C3  UNL     1     -34.992  13.737  -5.270  1.00 20.00     0.223 C 
HETATM    6  O11 UNL     1     -34.693  12.637  -4.813  1.00 20.00    -0.279 OA
HETATM    7 CL12 UNL     1     -35.217  14.122  -6.950  1.00 20.00    -0.043 Cl
ENDBRANCH   2   5
BRANCH   4   8
HETATM    8  C7  UNL     1     -33.692  17.201  -5.623  1.00 20.00     0.014 C 
HETATM    9  C2  UNL     1     -33.486  18.578  -5.050  1.00 20.00    -0.025 C 
HETATM   10  C1  UNL     1     -34.681  19.192  -5.022  1.00 20.00    -0.025 C 
HETATM   11  C6  UNL     1     -35.721  18.156  -5.435  1.00 20.00     0.013 C 
HETATM   12  C4  UNL     1     -34.895  17.514  -6.551  1.00 20.00     0.017 C 
ENDBRANCH   4   8
TORSDOF 3
ENDMDL
MODEL 8
REMARK VINA RESULT:      -4.3      2.737      3.790
REMARK  3 active torsions:
REMARK  status: ('A' for Active; 'I' for Inactive)
REMARK    1  A    between atoms: C3_3  and  C8_8 
REMARK    2  A    between atoms: C6_6  and  C9_9 
REMARK    3  A    between atoms: C7_7  and  C10_10 
ROOT
HETATM    1  C5  UNL     1     -34.649  15.051  -7.814  1.00 20.00     0.019 C 
HETATM    2  C8  UNL     1     -35.872  14.689  -6.841  1.00 20.00     0.078 C 
HETATM    3  C9  UNL     1     -34.308  16.127  -6.740  1.00 20.00    -0.001 C 
HETATM    4  C10 UNL     1     -34.827  15.003  -5.732  1.00 20.00     0.010 C 
ENDROOT
BRANCH   2   5
HETATM    5  C3  UNL     1     -37.156  15.523  -6.916  1.00 20.00     0.223 C 
HETATM    6  O11 UNL     1     -37.448  16.171  -7.916  1.00 20.00    -0.279 OA
HETATM    7 CL12 UNL     1     -38.088  15.422  -5.452  1.00 20.00    -0.043 Cl
ENDBRANCH   2   5
BRANCH   4   8
HETATM    8  C7  UNL     1     -34.443  15.591  -4.376  1.00 20.00     0.014 C 
HETATM    9  C2  UNL     1     -33.074  15.157  -3.922  1.00 20.00    -0.025 C 
HETATM   10  C1  UNL     1     -33.146  13.855  -3.597  1.00 20.00    -0.025 C 
HETATM   11  C6  UNL     1     -34.539  13.376  -3.989  1.00 20.00     0.013 C 
HETATM   12  C4  UNL     1     -35.292  14.620  -3.514  1.00 20.00     0.017 C 
ENDBRANCH   4   8
TORSDOF 3
ENDMDL
MODEL 9
REMARK VINA RESULT:      -4.2      2.042      2.937
REMARK  3 active torsions:
REMARK  status: ('A' for Active; 'I' for Inactive)
REMARK    1  A    between atoms: C3_3  and  C8_8 
REMARK    2  A    between atoms: C6_6  and  C9_9 
REMARK    3  A    between atoms: C7_7  and  C10_10 
ROOT
HETATM    1  C5  UNL     1     -37.349  15.688  -4.948  1.00 20.00     0.019 C 
HETATM    2  C8  UNL     1     -35.829  15.616  -5.458  1.00 20.00     0.078 C 
HETATM    3  C9  UNL     1     -36.843  14.791  -3.779  1.00 20.00    -0.001 C 
HETATM    4  C10 UNL     1     -35.522  15.674  -3.933  1.00 20.00     0.010 C 
ENDROOT
BRANCH   2   5
HETATM    5  C3  UNL     1     -35.371  14.397  -6.266  1.00 20.00     0.223 C 
HETATM    6  O11 UNL     1     -34.703  13.500  -5.759  1.00 20.00    -0.279 OA
HETATM    7 CL12 UNL     1     -35.906  14.469  -7.918  1.00 20.00    -0.043 Cl
ENDBRANCH   2   5
BRANCH   4   8
HETATM    8  C7  UNL     1     -34.713  15.252  -2.709  1.00 20.00     0.014 C 
HETATM    9  C2  UNL     1     -34.775  16.262  -1.594  1.00 20.00    -0.025 C 
HETATM   10  C1  UNL     1     -34.067  17.338  -1.979  1.00 20.00    -0.025 C 
HETATM   11  C6  UNL     1     -33.659  17.105  -3.430  1.00 20.00     0.013 C 
HETATM   12  C4  UNL     1     -33.319  15.621  -3.279  1.00 20.00     0.017 C 
ENDBRANCH   4   8
TORSDOF 3
ENDMDL
