MODEL 1
REMARK VINA RESULT:      -4.2      0.000      0.000
REMARK  3 active torsions:
REMARK  status: ('A' for Active; 'I' for Inactive)
REMARK    1  A    between atoms: C1_1  and  C3_3 
REMARK    2  A    between atoms: C2_2  and  N8_8 
REMARK    3  A    between atoms: C4_4  and  C5_5 
ROOT
HETATM    1  C1  UNL     1     -33.982   5.866   3.605  1.00 20.00    -0.056 C 
HETATM    2  C2  UNL     1     -33.059   6.577   3.314  1.00 20.00     0.012 C 
ENDROOT
BRANCH   1   3
HETATM    3  C3  UNL     1     -35.075   5.028   3.954  1.00 20.00     0.069 C 
HETATM    4  C4  UNL     1     -35.284   4.651   5.219  1.00 20.00     0.050 C 
BRANCH   4   5
HETATM    5  C5  UNL     1     -34.357   5.121   6.267  1.00 20.00     0.259 C 
HETATM    6  O9  UNL     1     -34.407   6.261   6.713  1.00 20.00    -0.302 OA
ENDBRANCH   4   5
ENDBRANCH   1   3
BRANCH   2   7
HETATM    7  N8  UNL     1     -31.954   7.428   2.967  1.00 20.00    -0.350 N 
HETATM    8  C6  UNL     1     -31.043   7.832   4.028  1.00 20.00     0.159 C 
HETATM    9  C7  UNL     1     -32.114   8.331   1.837  1.00 20.00     0.159 C 
ENDBRANCH   2   7
TORSDOF 3
ENDMDL
MODEL 2
REMARK VINA RESULT:      -4.0     11.793     12.680
REMARK  3 active torsions:
REMARK  status: ('A' for Active; 'I' for Inactive)
REMARK    1  A    between atoms: C1_1  and  C3_3 
REMARK    2  A    between atoms: C2_2  and  N8_8 
REMARK    3  A    between atoms: C4_4  and  C5_5 
ROOT
HETATM    1  C1  UNL     1     -34.233  16.734  -1.366  1.00 20.00    -0.056 C 
HETATM    2  C2  UNL     1     -34.036  16.231  -2.438  1.00 20.00     0.012 C 
ENDROOT
BRANCH   1   3
HETATM    3  C3  UNL     1     -34.472  17.330  -0.098  1.00 20.00     0.069 C 
HETATM    4  C4  UNL     1     -33.731  18.354   0.337  1.00 20.00     0.050 C 
BRANCH   4   5
HETATM    5  C5  UNL     1     -32.649  18.869  -0.523  1.00 20.00     0.259 C 
HETATM    6  O9  UNL     1     -31.580  19.250  -0.061  1.00 20.00    -0.302 OA
ENDBRANCH   4   5
ENDBRANCH   1   3
BRANCH   2   7
HETATM    7  N8  UNL     1     -33.801  15.630  -3.722  1.00 20.00    -0.350 N 
HETATM    8  C6  UNL     1     -33.485  14.210  -3.764  1.00 20.00     0.159 C 
HETATM    9  C7  UNL     1     -33.269  16.470  -4.785  1.00 20.00     0.159 C 
ENDBRANCH   2   7
TORSDOF 3
ENDMDL
MODEL 3
REMARK VINA RESULT:      -3.9     11.531     12.069
REMARK  3 active torsions:
REMARK  status: ('A' for Active; 'I' for Inactive)
REMARK    1  A    between atoms: C1_1  and  C3_3 
REMARK    2  A    between atoms: C2_2  and  N8_8 
REMARK    3  A    between atoms: C4_4  and  C5_5 
ROOT
HETATM    1  C1  UNL     1     -34.234  15.140  -2.934  1.00 20.00    -0.056 C 
HETATM    2  C2  UNL     1     -34.099  16.112  -2.242  1.00 20.00     0.012 C 
ENDROOT
BRANCH   1   3
HETATM    3  C3  UNL     1     -34.399  13.992  -3.755  1.00 20.00     0.069 C 
HETATM    4  C4  UNL     1     -35.582  13.695  -4.302  1.00 20.00     0.050 C 
BRANCH   4   5
HETATM    5  C5  UNL     1     -36.732  14.582  -4.043  1.00 20.00     0.259 C 
HETATM    6  O9  UNL     1     -37.837  14.143  -3.747  1.00 20.00    -0.302 OA
ENDBRANCH   4   5
ENDBRANCH   1   3
BRANCH   2   7
HETATM    7  N8  UNL     1     -33.938  17.276  -1.414  1.00 20.00    -0.350 N 
HETATM    8  C6  UNL     1     -34.603  17.291  -0.120  1.00 20.00     0.159 C 
HETATM    9  C7  UNL     1     -33.709  18.556  -2.069  1.00 20.00     0.159 C 
ENDBRANCH   2   7
TORSDOF 3
ENDMDL
MODEL 4
REMARK VINA RESULT:      -3.7     11.421     11.861
REMARK  3 active torsions:
REMARK  status: ('A' for Active; 'I' for Inactive)
REMARK    1  A    between atoms: C1_1  and  C3_3 
REMARK    2  A    between atoms: C2_2  and  N8_8 
REMARK    3  A    between atoms: C4_4  and  C5_5 
ROOT
HETATM    1  C1  UNL     1     -35.234  15.762  -2.399  1.00 20.00    -0.056 C 
HETATM    2  C2  UNL     1     -34.782  16.417  -1.500  1.00 20.00     0.012 C 
ENDROOT
BRANCH   1   3
HETATM    3  C3  UNL     1     -35.768  14.983  -3.460  1.00 20.00     0.069 C 
HETATM    4  C4  UNL     1     -34.994  14.163  -4.177  1.00 20.00     0.050 C 
BRANCH   4   5
HETATM    5  C5  UNL     1     -33.557  14.071  -3.853  1.00 20.00     0.259 C 
HETATM    6  O9  UNL     1     -33.016  13.001  -3.606  1.00 20.00    -0.302 OA
ENDBRANCH   4   5
ENDBRANCH   1   3
BRANCH   2   7
HETATM    7  N8  UNL     1     -34.242  17.200  -0.423  1.00 20.00    -0.350 N 
HETATM    8  C6  UNL     1     -35.096  17.465   0.726  1.00 20.00     0.159 C 
HETATM    9  C7  UNL     1     -33.215  18.182  -0.739  1.00 20.00     0.159 C 
ENDBRANCH   2   7
TORSDOF 3
ENDMDL
MODEL 5
REMARK VINA RESULT:      -3.6     11.914     12.931
REMARK  3 active torsions:
REMARK  status: ('A' for Active; 'I' for Inactive)
REMARK    1  A    between atoms: C1_1  and  C3_3 
REMARK    2  A    between atoms: C2_2  and  N8_8 
REMARK    3  A    between atoms: C4_4  and  C5_5 
ROOT
HETATM    1  C1  UNL     1     -33.952  16.260  -4.586  1.00 20.00    -0.056 C 
HETATM    2  C2  UNL     1     -33.887  16.704  -3.472  1.00 20.00     0.012 C 
ENDROOT
BRANCH   1   3
HETATM    3  C3  UNL     1     -34.027  15.740  -5.906  1.00 20.00     0.069 C 
HETATM    4  C4  UNL     1     -34.594  14.555  -6.153  1.00 20.00     0.050 C 
BRANCH   4   5
HETATM    5  C5  UNL     1     -35.151  13.780  -5.027  1.00 20.00     0.259 C 
HETATM    6  O9  UNL     1     -34.758  12.652  -4.759  1.00 20.00    -0.302 OA
ENDBRANCH   4   5
ENDBRANCH   1   3
BRANCH   2   7
HETATM    7  N8  UNL     1     -33.809  17.236  -2.139  1.00 20.00    -0.350 N 
HETATM    8  C6  UNL     1     -34.555  16.560  -1.088  1.00 20.00     0.159 C 
HETATM    9  C7  UNL     1     -33.572  18.664  -1.985  1.00 20.00     0.159 C 
ENDBRANCH   2   7
TORSDOF 3
ENDMDL
MODEL 6
REMARK VINA RESULT:      -3.6     11.587     13.440
REMARK  3 active torsions:
REMARK  status: ('A' for Active; 'I' for Inactive)
REMARK    1  A    between atoms: C1_1  and  C3_3 
REMARK    2  A    between atoms: C2_2  and  N8_8 
REMARK    3  A    between atoms: C4_4  and  C5_5 
ROOT
HETATM    1  C1  UNL     1     -33.026  15.926  -4.489  1.00 20.00    -0.056 C 
HETATM    2  C2  UNL     1     -33.366  16.823  -5.211  1.00 20.00     0.012 C 
ENDROOT
BRANCH   1   3
HETATM    3  C3  UNL     1     -32.619  14.866  -3.635  1.00 20.00     0.069 C 
HETATM    4  C4  UNL     1     -33.332  13.740  -3.538  1.00 20.00     0.050 C 
BRANCH   4   5
HETATM    5  C5  UNL     1     -34.564  13.603  -4.338  1.00 20.00     0.259 C 
HETATM    6  O9  UNL     1     -34.848  12.564  -4.921  1.00 20.00    -0.302 OA
ENDBRANCH   4   5
ENDBRANCH   1   3
BRANCH   2   7
HETATM    7  N8  UNL     1     -33.771  17.897  -6.076  1.00 20.00    -0.350 N 
HETATM    8  C6  UNL     1     -33.700  19.255  -5.558  1.00 20.00     0.159 C 
HETATM    9  C7  UNL     1     -34.775  17.616  -7.093  1.00 20.00     0.159 C 
ENDBRANCH   2   7
TORSDOF 3
ENDMDL
MODEL 7
REMARK VINA RESULT:      -3.5     11.167     11.964
REMARK  3 active torsions:
REMARK  status: ('A' for Active; 'I' for Inactive)
REMARK    1  A    between atoms: C1_1  and  C3_3 
REMARK    2  A    between atoms: C2_2  and  N8_8 
REMARK    3  A    between atoms: C4_4  and  C5_5 
ROOT
HETATM    1  C1  UNL     1     -34.062  16.741  -1.617  1.00 20.00    -0.056 C 
HETATM    2  C2  UNL     1     -34.540  15.855  -2.272  1.00 20.00     0.012 C 
ENDROOT
BRANCH   1   3
HETATM    3  C3  UNL     1     -33.492  17.787  -0.842  1.00 20.00     0.069 C 
HETATM    4  C4  UNL     1     -34.006  18.131   0.343  1.00 20.00     0.050 C 
BRANCH   4   5
HETATM    5  C5  UNL     1     -35.186  17.405   0.848  1.00 20.00     0.259 C 
HETATM    6  O9  UNL     1     -35.461  17.364   2.042  1.00 20.00    -0.302 OA
ENDBRANCH   4   5
ENDBRANCH   1   3
BRANCH   2   7
HETATM    7  N8  UNL     1     -35.111  14.795  -3.056  1.00 20.00    -0.350 N 
HETATM    8  C6  UNL     1     -34.203  13.876  -3.727  1.00 20.00     0.159 C 
HETATM    9  C7  UNL     1     -36.414  15.019  -3.665  1.00 20.00     0.159 C 
ENDBRANCH   2   7
TORSDOF 3
ENDMDL
MODEL 8
REMARK VINA RESULT:      -3.5     11.736     12.625
REMARK  3 active torsions:
REMARK  status: ('A' for Active; 'I' for Inactive)
REMARK    1  A    between atoms: C1_1  and  C3_3 
REMARK    2  A    between atoms: C2_2  and  N8_8 
REMARK    3  A    between atoms: C4_4  and  C5_5 
ROOT
HETATM    1  C1  UNL     1     -34.486  14.743  -3.150  1.00 20.00    -0.056 C 
HETATM    2  C2  UNL     1     -34.485  15.788  -2.558  1.00 20.00     0.012 C 
ENDROOT
BRANCH   1   3
HETATM    3  C3  UNL     1     -34.490  13.509  -3.855  1.00 20.00     0.069 C 
HETATM    4  C4  UNL     1     -34.623  13.471  -5.185  1.00 20.00     0.050 C 
BRANCH   4   5
HETATM    5  C5  UNL     1     -34.767  14.738  -5.926  1.00 20.00     0.259 C 
HETATM    6  O9  UNL     1     -34.194  14.936  -6.991  1.00 20.00    -0.302 OA
ENDBRANCH   4   5
ENDBRANCH   1   3
BRANCH   2   7
HETATM    7  N8  UNL     1     -34.484  17.039  -1.850  1.00 20.00    -0.350 N 
HETATM    8  C6  UNL     1     -33.767  18.158  -2.442  1.00 20.00     0.159 C 
HETATM    9  C7  UNL     1     -34.601  17.004  -0.400  1.00 20.00     0.159 C 
ENDBRANCH   2   7
TORSDOF 3
ENDMDL
MODEL 9
REMARK VINA RESULT:      -3.5      2.615      4.736
REMARK  3 active torsions:
REMARK  status: ('A' for Active; 'I' for Inactive)
REMARK    1  A    between atoms: C1_1  and  C3_3 
REMARK    2  A    between atoms: C2_2  and  N8_8 
REMARK    3  A    between atoms: C4_4  and  C5_5 
ROOT
HETATM    1  C1  UNL     1     -32.640   6.854   3.076  1.00 20.00    -0.056 C 
HETATM    2  C2  UNL     1     -33.424   6.492   3.910  1.00 20.00     0.012 C 
ENDROOT
BRANCH   1   3
HETATM    3  C3  UNL     1     -31.710   7.277   2.088  1.00 20.00     0.069 C 
HETATM    4  C4  UNL     1     -31.807   8.481   1.515  1.00 20.00     0.050 C 
BRANCH   4   5
HETATM    5  C5  UNL     1     -32.903   9.381   1.923  1.00 20.00     0.259 C 
HETATM    6  O9  UNL     1     -32.709  10.562   2.186  1.00 20.00    -0.302 OA
ENDBRANCH   4   5
ENDBRANCH   1   3
BRANCH   2   7
HETATM    7  N8  UNL     1     -34.362   6.057   4.909  1.00 20.00    -0.350 N 
HETATM    8  C6  UNL     1     -34.065   6.357   6.301  1.00 20.00     0.159 C 
HETATM    9  C7  UNL     1     -35.159   4.872   4.629  1.00 20.00     0.159 C 
ENDBRANCH   2   7
TORSDOF 3
ENDMDL
