MODEL 1
REMARK VINA RESULT:      -5.0      0.000      0.000
REMARK  2 active torsions:
REMARK  status: ('A' for Active; 'I' for Inactive)
REMARK    1  A    between atoms: C1_1  and  C7_7 
REMARK    2  A    between atoms: C4_4  and  C7_7 
ROOT
HETATM    1  C6  UNL     1     -34.883   5.342   3.424  1.00 20.00     0.018 C 
HETATM    2  C7  UNL     1     -34.217   6.366   4.339  1.00 20.00     0.055 C 
ENDROOT
BRANCH   2   3
HETATM    3  C1  UNL     1     -34.334   5.950   5.802  1.00 20.00     0.127 C 
HETATM    4  C5  UNL     1     -34.863   4.564   6.076  1.00 20.00     0.091 C 
HETATM    5  O8  UNL     1     -34.041   6.706   6.729  1.00 20.00    -0.298 OA
ENDBRANCH   2   3
BRANCH   2   6
HETATM    6  C4  UNL     1     -32.750   6.552   3.968  1.00 20.00    -0.004 A 
HETATM    7  C2  UNL     1     -32.187   5.883   2.745  1.00 20.00     0.006 A 
HETATM    8  C3  UNL     1     -32.372   7.375   2.768  1.00 20.00     0.006 A 
ENDBRANCH   2   6
TORSDOF 2
ENDMDL
MODEL 2
REMARK VINA RESULT:      -4.8      1.525      2.009
REMARK  2 active torsions:
REMARK  status: ('A' for Active; 'I' for Inactive)
REMARK    1  A    between atoms: C1_1  and  C7_7 
REMARK    2  A    between atoms: C4_4  and  C7_7 
ROOT
HETATM    1  C6  UNL     1     -33.820   6.855   6.291  1.00 20.00     0.018 C 
HETATM    2  C7  UNL     1     -33.666   5.915   5.099  1.00 20.00     0.055 C 
ENDROOT
BRANCH   2   3
HETATM    3  C1  UNL     1     -34.927   5.084   4.890  1.00 20.00     0.127 C 
HETATM    4  C5  UNL     1     -35.170   3.958   5.863  1.00 20.00     0.091 C 
HETATM    5  O8  UNL     1     -35.708   5.290   3.959  1.00 20.00    -0.298 OA
ENDBRANCH   2   3
BRANCH   2   6
HETATM    6  C4  UNL     1     -33.342   6.696   3.830  1.00 20.00    -0.004 A 
HETATM    7  C2  UNL     1     -31.956   7.232   3.602  1.00 20.00     0.006 A 
HETATM    8  C3  UNL     1     -32.467   6.089   2.769  1.00 20.00     0.006 A 
ENDBRANCH   2   6
TORSDOF 2
ENDMDL
MODEL 3
REMARK VINA RESULT:      -4.6      1.824      3.723
REMARK  2 active torsions:
REMARK  status: ('A' for Active; 'I' for Inactive)
REMARK    1  A    between atoms: C1_1  and  C7_7 
REMARK    2  A    between atoms: C4_4  and  C7_7 
ROOT
HETATM    1  C6  UNL     1     -33.571   6.701   5.814  1.00 20.00     0.018 C 
HETATM    2  C7  UNL     1     -34.429   6.242   4.639  1.00 20.00     0.055 C 
ENDROOT
BRANCH   2   3
HETATM    3  C1  UNL     1     -33.573   5.988   3.402  1.00 20.00     0.127 C 
HETATM    4  C5  UNL     1     -32.209   6.629   3.375  1.00 20.00     0.091 C 
HETATM    5  O8  UNL     1     -33.972   5.317   2.449  1.00 20.00    -0.298 OA
ENDBRANCH   2   3
BRANCH   2   6
HETATM    6  C4  UNL     1     -35.211   4.983   4.997  1.00 20.00    -0.004 A 
HETATM    7  C2  UNL     1     -34.485   3.718   5.362  1.00 20.00     0.006 A 
HETATM    8  C3  UNL     1     -35.236   4.485   6.415  1.00 20.00     0.006 A 
ENDBRANCH   2   6
TORSDOF 2
ENDMDL
MODEL 4
REMARK VINA RESULT:      -4.4      1.643      3.543
REMARK  2 active torsions:
REMARK  status: ('A' for Active; 'I' for Inactive)
REMARK    1  A    between atoms: C1_1  and  C7_7 
REMARK    2  A    between atoms: C4_4  and  C7_7 
ROOT
HETATM    1  C6  UNL     1     -33.637   6.721   6.266  1.00 20.00     0.018 C 
HETATM    2  C7  UNL     1     -34.367   6.322   4.987  1.00 20.00     0.055 C 
ENDROOT
BRANCH   2   3
HETATM    3  C1  UNL     1     -33.404   6.256   3.805  1.00 20.00     0.127 C 
HETATM    4  C5  UNL     1     -33.857   5.470   2.601  1.00 20.00     0.091 C 
HETATM    5  O8  UNL     1     -32.294   6.790   3.827  1.00 20.00    -0.298 OA
ENDBRANCH   2   3
BRANCH   2   6
HETATM    6  C4  UNL     1     -35.070   4.981   5.158  1.00 20.00    -0.004 A 
HETATM    7  C2  UNL     1     -34.303   3.777   5.633  1.00 20.00     0.006 A 
HETATM    8  C3  UNL     1     -35.318   4.426   6.534  1.00 20.00     0.006 A 
ENDBRANCH   2   6
TORSDOF 2
ENDMDL
MODEL 5
REMARK VINA RESULT:      -4.2      1.648      3.478
REMARK  2 active torsions:
REMARK  status: ('A' for Active; 'I' for Inactive)
REMARK    1  A    between atoms: C1_1  and  C7_7 
REMARK    2  A    between atoms: C4_4  and  C7_7 
ROOT
HETATM    1  C6  UNL     1     -33.665   5.430   2.583  1.00 20.00     0.018 C 
HETATM    2  C7  UNL     1     -33.020   6.022   3.832  1.00 20.00     0.055 C 
ENDROOT
BRANCH   2   3
HETATM    3  C1  UNL     1     -32.132   7.212   3.478  1.00 20.00     0.127 C 
HETATM    4  C5  UNL     1     -32.407   7.899   2.164  1.00 20.00     0.091 C 
HETATM    5  O8  UNL     1     -31.213   7.590   4.205  1.00 20.00    -0.298 OA
ENDBRANCH   2   3
BRANCH   2   6
HETATM    6  C4  UNL     1     -34.080   6.448   4.841  1.00 20.00    -0.004 A 
HETATM    7  C2  UNL     1     -34.662   5.444   5.798  1.00 20.00     0.006 A 
HETATM    8  C3  UNL     1     -33.745   6.524   6.305  1.00 20.00     0.006 A 
ENDBRANCH   2   6
TORSDOF 2
ENDMDL
MODEL 6
REMARK VINA RESULT:      -4.2      1.446      3.422
REMARK  2 active torsions:
REMARK  status: ('A' for Active; 'I' for Inactive)
REMARK    1  A    between atoms: C1_1  and  C7_7 
REMARK    2  A    between atoms: C4_4  and  C7_7 
ROOT
HETATM    1  C6  UNL     1     -35.829   5.619   3.695  1.00 20.00     0.018 C 
HETATM    2  C7  UNL     1     -34.356   5.262   3.872  1.00 20.00     0.055 C 
ENDROOT
BRANCH   2   3
HETATM    3  C1  UNL     1     -33.458   6.433   3.483  1.00 20.00     0.127 C 
HETATM    4  C5  UNL     1     -32.027   6.108   3.137  1.00 20.00     0.091 C 
HETATM    5  O8  UNL     1     -33.858   7.598   3.474  1.00 20.00    -0.298 OA
ENDBRANCH   2   3
BRANCH   2   6
HETATM    6  C4  UNL     1     -34.068   4.842   5.309  1.00 20.00    -0.004 A 
HETATM    7  C2  UNL     1     -34.511   5.708   6.455  1.00 20.00     0.006 A 
HETATM    8  C3  UNL     1     -35.188   4.389   6.204  1.00 20.00     0.006 A 
ENDBRANCH   2   6
TORSDOF 2
ENDMDL
MODEL 7
REMARK VINA RESULT:      -4.0     11.312     12.177
REMARK  2 active torsions:
REMARK  status: ('A' for Active; 'I' for Inactive)
REMARK    1  A    between atoms: C1_1  and  C7_7 
REMARK    2  A    between atoms: C4_4  and  C7_7 
ROOT
HETATM    1  C6  UNL     1     -35.711  15.866  -4.330  1.00 20.00     0.018 C 
HETATM    2  C7  UNL     1     -35.173  15.002  -3.194  1.00 20.00     0.055 C 
ENDROOT
BRANCH   2   3
HETATM    3  C1  UNL     1     -34.511  13.738  -3.735  1.00 20.00     0.127 C 
HETATM    4  C5  UNL     1     -33.007  13.672  -3.661  1.00 20.00     0.091 C 
HETATM    5  O8  UNL     1     -35.157  12.817  -4.236  1.00 20.00    -0.298 OA
ENDBRANCH   2   3
BRANCH   2   6
HETATM    6  C4  UNL     1     -34.180  15.783  -2.341  1.00 20.00    -0.004 A 
HETATM    7  C2  UNL     1     -34.209  17.286  -2.328  1.00 20.00     0.006 A 
HETATM    8  C3  UNL     1     -34.648  16.515  -1.114  1.00 20.00     0.006 A 
ENDBRANCH   2   6
TORSDOF 2
ENDMDL
MODEL 8
REMARK VINA RESULT:      -3.9     12.009     12.513
REMARK  2 active torsions:
REMARK  status: ('A' for Active; 'I' for Inactive)
REMARK    1  A    between atoms: C1_1  and  C7_7 
REMARK    2  A    between atoms: C4_4  and  C7_7 
ROOT
HETATM    1  C6  UNL     1     -37.248  14.735  -4.070  1.00 20.00     0.018 C 
HETATM    2  C7  UNL     1     -35.788  14.452  -3.726  1.00 20.00     0.055 C 
ENDROOT
BRANCH   2   3
HETATM    3  C1  UNL     1     -35.090  13.718  -4.866  1.00 20.00     0.127 C 
HETATM    4  C5  UNL     1     -34.995  14.442  -6.186  1.00 20.00     0.091 C 
HETATM    5  O8  UNL     1     -34.643  12.577  -4.742  1.00 20.00    -0.298 OA
ENDBRANCH   2   3
BRANCH   2   6
HETATM    6  C4  UNL     1     -35.045  15.745  -3.409  1.00 20.00    -0.004 A 
HETATM    7  C2  UNL     1     -34.674  16.078  -1.990  1.00 20.00     0.006 A 
HETATM    8  C3  UNL     1     -33.605  15.705  -2.980  1.00 20.00     0.006 A 
ENDBRANCH   2   6
TORSDOF 2
ENDMDL
MODEL 9
REMARK VINA RESULT:      -3.9     11.673     12.432
REMARK  2 active torsions:
REMARK  status: ('A' for Active; 'I' for Inactive)
REMARK    1  A    between atoms: C1_1  and  C7_7 
REMARK    2  A    between atoms: C4_4  and  C7_7 
ROOT
HETATM    1  C6  UNL     1     -32.639  14.359  -3.534  1.00 20.00     0.018 C 
HETATM    2  C7  UNL     1     -34.021  14.840  -3.965  1.00 20.00     0.055 C 
ENDROOT
BRANCH   2   3
HETATM    3  C1  UNL     1     -34.721  13.794  -4.827  1.00 20.00     0.127 C 
HETATM    4  C5  UNL     1     -35.110  14.211  -6.223  1.00 20.00     0.091 C 
HETATM    5  O8  UNL     1     -34.989  12.666  -4.410  1.00 20.00    -0.298 OA
ENDBRANCH   2   3
BRANCH   2   6
HETATM    6  C4  UNL     1     -34.883  15.174  -2.753  1.00 20.00    -0.004 A 
HETATM    7  C2  UNL     1     -34.471  16.271  -1.810  1.00 20.00     0.006 A 
HETATM    8  C3  UNL     1     -35.662  16.459  -2.709  1.00 20.00     0.006 A 
ENDBRANCH   2   6
TORSDOF 2
ENDMDL
