MODEL 1
REMARK VINA RESULT:      -4.6      0.000      0.000
REMARK  1 active torsions:
REMARK  status: ('A' for Active; 'I' for Inactive)
REMARK    1  A    between atoms: C1_1  and  C7_7 
ROOT
HETATM    1  C2  UNL     1     -35.253  14.424  -7.246  1.00 20.00     0.001 C 
HETATM    2  C3  UNL     1     -36.575  15.003  -3.467  1.00 20.00     0.014 C 
HETATM    3  C4  UNL     1     -36.577  15.171  -7.181  1.00 20.00     0.005 C 
HETATM    4  C5  UNL     1     -34.315  15.295  -6.421  1.00 20.00     0.006 C 
HETATM    5  C6  UNL     1     -37.351  14.810  -4.763  1.00 20.00     0.006 C 
HETATM    6  C7  UNL     1     -35.121  15.071  -3.925  1.00 20.00     0.076 C 
HETATM    7  C8  UNL     1     -36.637  15.722  -5.759  1.00 20.00    -0.010 C 
HETATM    8  C9  UNL     1     -35.174  15.818  -5.269  1.00 20.00     0.002 C 
ENDROOT
BRANCH   6   9
HETATM    9  C1  UNL     1     -34.531  13.693  -3.993  1.00 20.00     0.223 C 
HETATM   10  O10 UNL     1     -35.207  12.715  -4.300  1.00 20.00    -0.279 OA
HETATM   11 CL11 UNL     1     -32.839  13.684  -3.594  1.00 20.00    -0.043 Cl
ENDBRANCH   6   9
TORSDOF 1
ENDMDL
MODEL 2
REMARK VINA RESULT:      -4.6      2.410      3.281
REMARK  1 active torsions:
REMARK  status: ('A' for Active; 'I' for Inactive)
REMARK    1  A    between atoms: C1_1  and  C7_7 
ROOT
HETATM    1  C2  UNL     1     -35.534  13.782  -4.332  1.00 20.00     0.001 C 
HETATM    2  C3  UNL     1     -33.750  17.390  -4.739  1.00 20.00     0.014 C 
HETATM    3  C4  UNL     1     -34.979  14.024  -5.729  1.00 20.00     0.005 C 
HETATM    4  C5  UNL     1     -34.314  13.940  -3.435  1.00 20.00     0.006 C 
HETATM    5  C6  UNL     1     -34.502  16.544  -5.757  1.00 20.00     0.006 C 
HETATM    6  C7  UNL     1     -33.686  16.496  -3.504  1.00 20.00     0.076 C 
HETATM    7  C8  UNL     1     -33.949  15.136  -5.545  1.00 20.00    -0.010 C 
HETATM    8  C9  UNL     1     -33.505  15.075  -4.066  1.00 20.00     0.002 C 
ENDROOT
BRANCH   6   9
HETATM    9  C1  UNL     1     -34.909  16.688  -2.657  1.00 20.00     0.223 C 
HETATM   10  O10 UNL     1     -35.989  17.007  -3.145  1.00 20.00    -0.279 OA
HETATM   11 CL11 UNL     1     -34.590  16.407  -0.971  1.00 20.00    -0.043 Cl
ENDBRANCH   6   9
TORSDOF 1
ENDMDL
MODEL 3
REMARK VINA RESULT:      -4.5      1.850      2.353
REMARK  1 active torsions:
REMARK  status: ('A' for Active; 'I' for Inactive)
REMARK    1  A    between atoms: C1_1  and  C7_7 
ROOT
HETATM    1  C2  UNL     1     -34.038  16.403  -6.412  1.00 20.00     0.001 C 
HETATM    2  C3  UNL     1     -34.981  13.390  -3.882  1.00 20.00     0.014 C 
HETATM    3  C4  UNL     1     -34.740  15.239  -7.098  1.00 20.00     0.005 C 
HETATM    4  C5  UNL     1     -35.029  16.826  -5.335  1.00 20.00     0.006 C 
HETATM    5  C6  UNL     1     -34.618  13.357  -5.361  1.00 20.00     0.006 C 
HETATM    6  C7  UNL     1     -35.050  14.880  -3.562  1.00 20.00     0.076 C 
HETATM    7  C8  UNL     1     -35.440  14.492  -5.966  1.00 20.00    -0.010 C 
HETATM    8  C9  UNL     1     -35.643  15.520  -4.829  1.00 20.00     0.002 C 
ENDROOT
BRANCH   6   9
HETATM    9  C1  UNL     1     -33.695  15.394  -3.171  1.00 20.00     0.223 C 
HETATM   10  O10 UNL     1     -32.666  14.939  -3.662  1.00 20.00    -0.279 OA
HETATM   11 CL11 UNL     1     -33.792  16.660  -1.983  1.00 20.00    -0.043 Cl
ENDBRANCH   6   9
TORSDOF 1
ENDMDL
MODEL 4
REMARK VINA RESULT:      -4.4      2.315      3.686
REMARK  1 active torsions:
REMARK  status: ('A' for Active; 'I' for Inactive)
REMARK    1  A    between atoms: C1_1  and  C7_7 
ROOT
HETATM    1  C2  UNL     1     -35.115  16.765  -2.721  1.00 20.00     0.001 C 
HETATM    2  C3  UNL     1     -34.795  13.385  -4.920  1.00 20.00     0.014 C 
HETATM    3  C4  UNL     1     -33.771  16.067  -2.558  1.00 20.00     0.005 C 
HETATM    4  C5  UNL     1     -35.197  17.028  -4.219  1.00 20.00     0.006 C 
HETATM    5  C6  UNL     1     -34.174  13.749  -3.579  1.00 20.00     0.006 C 
HETATM    6  C7  UNL     1     -35.493  14.671  -5.354  1.00 20.00     0.076 C 
HETATM    7  C8  UNL     1     -33.654  15.170  -3.788  1.00 20.00    -0.010 C 
HETATM    8  C9  UNL     1     -34.563  15.797  -4.870  1.00 20.00     0.002 C 
ENDROOT
BRANCH   6   9
HETATM    9  C1  UNL     1     -36.887  14.721  -4.800  1.00 20.00     0.223 C 
HETATM   10  O10 UNL     1     -37.196  14.120  -3.775  1.00 20.00    -0.279 OA
HETATM   11 CL11 UNL     1     -37.943  15.704  -5.770  1.00 20.00    -0.043 Cl
ENDBRANCH   6   9
TORSDOF 1
ENDMDL
MODEL 5
REMARK VINA RESULT:      -4.4      2.195      3.034
REMARK  1 active torsions:
REMARK  status: ('A' for Active; 'I' for Inactive)
REMARK    1  A    between atoms: C1_1  and  C7_7 
ROOT
HETATM    1  C2  UNL     1     -34.561  15.873  -6.194  1.00 20.00     0.001 C 
HETATM    2  C3  UNL     1     -34.575  15.944  -2.149  1.00 20.00     0.014 C 
HETATM    3  C4  UNL     1     -33.341  16.565  -5.600  1.00 20.00     0.005 C 
HETATM    4  C5  UNL     1     -34.508  14.480  -5.580  1.00 20.00     0.006 C 
HETATM    5  C6  UNL     1     -33.997  16.936  -3.149  1.00 20.00     0.006 C 
HETATM    6  C7  UNL     1     -35.057  14.790  -3.024  1.00 20.00     0.076 C 
HETATM    7  C8  UNL     1     -33.271  16.055  -4.164  1.00 20.00    -0.010 C 
HETATM    8  C9  UNL     1     -34.012  14.697  -4.149  1.00 20.00     0.002 C 
ENDROOT
BRANCH   6   9
HETATM    9  C1  UNL     1     -36.463  15.038  -3.487  1.00 20.00     0.223 C 
HETATM   10  O10 UNL     1     -37.208  14.118  -3.811  1.00 20.00    -0.279 OA
HETATM   11 CL11 UNL     1     -36.860  16.730  -3.496  1.00 20.00    -0.043 Cl
ENDBRANCH   6   9
TORSDOF 1
ENDMDL
MODEL 6
REMARK VINA RESULT:      -4.4      2.083      2.885
REMARK  1 active torsions:
REMARK  status: ('A' for Active; 'I' for Inactive)
REMARK    1  A    between atoms: C1_1  and  C7_7 
ROOT
HETATM    1  C2  UNL     1     -36.268  16.683  -5.203  1.00 20.00     0.001 C 
HETATM    2  C3  UNL     1     -33.839  13.674  -4.017  1.00 20.00     0.014 C 
HETATM    3  C4  UNL     1     -36.582  15.355  -5.879  1.00 20.00     0.005 C 
HETATM    4  C5  UNL     1     -36.406  16.365  -3.720  1.00 20.00     0.006 C 
HETATM    5  C6  UNL     1     -34.526  13.915  -5.354  1.00 20.00     0.006 C 
HETATM    6  C7  UNL     1     -34.387  14.784  -3.125  1.00 20.00     0.076 C 
HETATM    7  C8  UNL     1     -35.952  14.304  -4.970  1.00 20.00    -0.010 C 
HETATM    8  C9  UNL     1     -35.851  14.947  -3.568  1.00 20.00     0.002 C 
ENDROOT
BRANCH   6   9
HETATM    9  C1  UNL     1     -33.547  16.021  -3.256  1.00 20.00     0.223 C 
HETATM   10  O10 UNL     1     -32.909  16.263  -4.277  1.00 20.00    -0.279 OA
HETATM   11 CL11 UNL     1     -33.606  17.007  -1.826  1.00 20.00    -0.043 Cl
ENDBRANCH   6   9
TORSDOF 1
ENDMDL
MODEL 7
REMARK VINA RESULT:      -4.4      2.342      3.410
REMARK  1 active torsions:
REMARK  status: ('A' for Active; 'I' for Inactive)
REMARK    1  A    between atoms: C1_1  and  C7_7 
ROOT
HETATM    1  C2  UNL     1     -34.447  17.962  -4.485  1.00 20.00     0.001 C 
HETATM    2  C3  UNL     1     -34.496  14.032  -3.525  1.00 20.00     0.014 C 
HETATM    3  C4  UNL     1     -34.134  17.697  -3.018  1.00 20.00     0.005 C 
HETATM    4  C5  UNL     1     -33.381  17.162  -5.223  1.00 20.00     0.006 C 
HETATM    5  C6  UNL     1     -34.842  15.255  -2.686  1.00 20.00     0.006 C 
HETATM    6  C7  UNL     1     -33.972  14.627  -4.829  1.00 20.00     0.076 C 
HETATM    7  C8  UNL     1     -33.705  16.233  -2.976  1.00 20.00    -0.010 C 
HETATM    8  C9  UNL     1     -33.203  15.887  -4.397  1.00 20.00     0.002 C 
ENDROOT
BRANCH   6   9
HETATM    9  C1  UNL     1     -35.105  14.875  -5.782  1.00 20.00     0.223 C 
HETATM   10  O10 UNL     1     -36.250  15.075  -5.385  1.00 20.00    -0.279 OA
HETATM   11 CL11 UNL     1     -34.586  14.842  -7.440  1.00 20.00    -0.043 Cl
ENDBRANCH   6   9
TORSDOF 1
ENDMDL
MODEL 8
REMARK VINA RESULT:      -4.4      2.044      2.720
REMARK  1 active torsions:
REMARK  status: ('A' for Active; 'I' for Inactive)
REMARK    1  A    between atoms: C1_1  and  C7_7 
ROOT
HETATM    1  C2  UNL     1     -32.983  16.208  -4.799  1.00 20.00     0.001 C 
HETATM    2  C3  UNL     1     -36.824  15.287  -3.928  1.00 20.00     0.014 C 
HETATM    3  C4  UNL     1     -33.800  17.408  -4.341  1.00 20.00     0.005 C 
HETATM    4  C5  UNL     1     -33.106  15.233  -3.635  1.00 20.00     0.006 C 
HETATM    5  C6  UNL     1     -36.221  16.573  -4.476  1.00 20.00     0.006 C 
HETATM    6  C7  UNL     1     -35.608  14.415  -3.632  1.00 20.00     0.076 C 
HETATM    7  C8  UNL     1     -34.990  16.803  -3.602  1.00 20.00    -0.010 C 
HETATM    8  C9  UNL     1     -34.540  15.401  -3.129  1.00 20.00     0.002 C 
ENDROOT
BRANCH   6   9
HETATM    9  C1  UNL     1     -35.219  13.632  -4.852  1.00 20.00     0.223 C 
HETATM   10  O10 UNL     1     -34.649  12.547  -4.768  1.00 20.00    -0.279 OA
HETATM   11 CL11 UNL     1     -35.669  14.442  -6.323  1.00 20.00    -0.043 Cl
ENDBRANCH   6   9
TORSDOF 1
ENDMDL
MODEL 9
REMARK VINA RESULT:      -4.3      2.283      3.071
REMARK  1 active torsions:
REMARK  status: ('A' for Active; 'I' for Inactive)
REMARK    1  A    between atoms: C1_1  and  C7_7 
ROOT
HETATM    1  C2  UNL     1     -34.645  17.209  -5.671  1.00 20.00     0.001 C 
HETATM    2  C3  UNL     1     -34.632  16.230  -1.746  1.00 20.00     0.014 C 
HETATM    3  C4  UNL     1     -34.165  18.340  -4.770  1.00 20.00     0.005 C 
HETATM    4  C5  UNL     1     -33.683  16.072  -5.351  1.00 20.00     0.006 C 
HETATM    5  C6  UNL     1     -34.861  17.573  -2.424  1.00 20.00     0.006 C 
HETATM    6  C7  UNL     1     -34.257  15.303  -2.899  1.00 20.00     0.076 C 
HETATM    7  C8  UNL     1     -33.754  17.649  -3.474  1.00 20.00    -0.010 C 
HETATM    8  C9  UNL     1     -33.426  16.185  -3.847  1.00 20.00     0.002 C 
ENDROOT
BRANCH   6   9
HETATM    9  C1  UNL     1     -35.490  14.707  -3.511  1.00 20.00     0.223 C 
HETATM   10  O10 UNL     1     -36.581  15.265  -3.440  1.00 20.00    -0.279 OA
HETATM   11 CL11 UNL     1     -35.165  13.190  -4.295  1.00 20.00    -0.043 Cl
ENDBRANCH   6   9
TORSDOF 1
ENDMDL
