MODEL 1
REMARK VINA RESULT:      -4.6      0.000      0.000
REMARK  1 active torsions:
REMARK  status: ('A' for Active; 'I' for Inactive)
REMARK    1  A    between atoms: C6_6  and  C9_9 
ROOT
HETATM    1  C1  UNL     1     -34.462  15.094  -6.208  1.00 20.00     0.119 C 
HETATM    2  C2  UNL     1     -33.307  15.905  -4.206  1.00 20.00     0.043 A 
HETATM    3  C3  UNL     1     -33.387  16.263  -2.865  1.00 20.00     0.012 A 
HETATM    4  C4  UNL     1     -35.708  15.745  -2.922  1.00 20.00     0.125 A 
HETATM    5  C5  UNL     1     -34.465  15.479  -4.835  1.00 20.00     0.136 A 
HETATM    6  C6  UNL     1     -34.608  16.184  -2.203  1.00 20.00    -0.036 A 
HETATM    7  N10 UNL     1     -34.459  14.781  -7.325  1.00 20.00    -0.190 NA
HETATM    8  N11 UNL     1     -35.668  15.389  -4.226  1.00 20.00    -0.249 NA
ENDROOT
BRANCH   6   9
HETATM    9  C9  UNL     1     -34.727  16.560  -0.770  1.00 20.00     0.020 A 
HETATM   10  C7  UNL     1     -35.406  17.858  -0.404  1.00 20.00     0.010 A 
HETATM   11  C8  UNL     1     -33.925  17.724  -0.244  1.00 20.00     0.010 A 
ENDBRANCH   6   9
TORSDOF 1
ENDMDL
MODEL 2
REMARK VINA RESULT:      -4.5      1.759      4.895
REMARK  1 active torsions:
REMARK  status: ('A' for Active; 'I' for Inactive)
REMARK    1  A    between atoms: C6_6  and  C9_9 
ROOT
HETATM    1  C1  UNL     1     -34.726  16.591  -0.997  1.00 20.00     0.119 C 
HETATM    2  C2  UNL     1     -33.472  15.743  -2.923  1.00 20.00     0.043 A 
HETATM    3  C3  UNL     1     -33.506  15.158  -4.185  1.00 20.00     0.012 A 
HETATM    4  C4  UNL     1     -35.881  15.136  -4.052  1.00 20.00     0.125 A 
HETATM    5  C5  UNL     1     -34.679  15.993  -2.291  1.00 20.00     0.136 A 
HETATM    6  C6  UNL     1     -34.730  14.847  -4.767  1.00 20.00    -0.036 A 
HETATM    7  N10 UNL     1     -34.764  17.077   0.055  1.00 20.00    -0.190 NA
HETATM    8  N11 UNL     1     -35.887  15.704  -2.825  1.00 20.00    -0.249 NA
ENDROOT
BRANCH   6   9
HETATM    9  C9  UNL     1     -34.800  14.220  -6.113  1.00 20.00     0.020 A 
HETATM   10  C7  UNL     1     -34.460  15.047  -7.328  1.00 20.00     0.010 A 
HETATM   11  C8  UNL     1     -35.880  14.653  -7.073  1.00 20.00     0.010 A 
ENDBRANCH   6   9
TORSDOF 1
ENDMDL
MODEL 3
REMARK VINA RESULT:      -4.5     13.333     14.147
REMARK  1 active torsions:
REMARK  status: ('A' for Active; 'I' for Inactive)
REMARK    1  A    between atoms: C6_6  and  C9_9 
ROOT
HETATM    1  C1  UNL     1     -42.801   2.083  -4.679  1.00 20.00     0.119 C 
HETATM    2  C2  UNL     1     -41.504   2.928  -2.780  1.00 20.00     0.043 A 
HETATM    3  C3  UNL     1     -41.326   3.925  -1.827  1.00 20.00     0.012 A 
HETATM    4  C4  UNL     1     -43.214   5.053  -2.733  1.00 20.00     0.125 A 
HETATM    5  C5  UNL     1     -42.554   3.063  -3.673  1.00 20.00     0.136 A 
HETATM    6  C6  UNL     1     -42.194   5.011  -1.796  1.00 20.00    -0.036 A 
HETATM    7  N10 UNL     1     -43.002   1.285  -5.496  1.00 20.00    -0.190 NA
HETATM    8  N11 UNL     1     -43.417   4.103  -3.674  1.00 20.00    -0.249 NA
ENDROOT
BRANCH   6   9
HETATM    9  C9  UNL     1     -42.031   6.093  -0.790  1.00 20.00     0.020 A 
HETATM   10  C7  UNL     1     -41.133   7.264  -1.109  1.00 20.00     0.010 A 
HETATM   11  C8  UNL     1     -40.704   6.255  -0.090  1.00 20.00     0.010 A 
ENDBRANCH   6   9
TORSDOF 1
ENDMDL
MODEL 4
REMARK VINA RESULT:      -4.5      0.868      1.408
REMARK  1 active torsions:
REMARK  status: ('A' for Active; 'I' for Inactive)
REMARK    1  A    between atoms: C6_6  and  C9_9 
ROOT
HETATM    1  C1  UNL     1     -34.409  15.192  -6.346  1.00 20.00     0.119 C 
HETATM    2  C2  UNL     1     -35.424  14.880  -4.139  1.00 20.00     0.043 A 
HETATM    3  C3  UNL     1     -35.449  15.233  -2.794  1.00 20.00     0.012 A 
HETATM    4  C4  UNL     1     -33.664  16.748  -3.214  1.00 20.00     0.125 A 
HETATM    5  C5  UNL     1     -34.495  15.501  -4.956  1.00 20.00     0.136 A 
HETATM    6  C6  UNL     1     -34.555  16.185  -2.315  1.00 20.00    -0.036 A 
HETATM    7  N10 UNL     1     -34.339  14.941  -7.476  1.00 20.00    -0.190 NA
HETATM    8  N11 UNL     1     -33.611  16.429  -4.528  1.00 20.00    -0.249 NA
ENDROOT
BRANCH   6   9
HETATM    9  C9  UNL     1     -34.555  16.583  -0.883  1.00 20.00     0.020 A 
HETATM   10  C7  UNL     1     -35.254  17.857  -0.474  1.00 20.00     0.010 A 
HETATM   11  C8  UNL     1     -33.759  17.790  -0.453  1.00 20.00     0.010 A 
ENDBRANCH   6   9
TORSDOF 1
ENDMDL
MODEL 5
REMARK VINA RESULT:      -4.4      1.835      5.143
REMARK  1 active torsions:
REMARK  status: ('A' for Active; 'I' for Inactive)
REMARK    1  A    between atoms: C6_6  and  C9_9 
ROOT
HETATM    1  C1  UNL     1     -34.543  16.446  -1.458  1.00 20.00     0.119 C 
HETATM    2  C2  UNL     1     -35.337  15.057  -3.313  1.00 20.00     0.043 A 
HETATM    3  C3  UNL     1     -35.254  14.739  -4.664  1.00 20.00     0.012 A 
HETATM    4  C4  UNL     1     -33.587  16.419  -4.903  1.00 20.00     0.125 A 
HETATM    5  C5  UNL     1     -34.516  16.063  -2.832  1.00 20.00     0.136 A 
HETATM    6  C6  UNL     1     -34.364  15.428  -5.481  1.00 20.00    -0.036 A 
HETATM    7  N10 UNL     1     -34.565  16.756  -0.341  1.00 20.00    -0.190 NA
HETATM    8  N11 UNL     1     -33.640  16.755  -3.594  1.00 20.00    -0.249 NA
ENDROOT
BRANCH   6   9
HETATM    9  C9  UNL     1     -34.253  15.113  -6.930  1.00 20.00     0.020 A 
HETATM   10  C7  UNL     1     -35.090  15.888  -7.917  1.00 20.00     0.010 A 
HETATM   11  C8  UNL     1     -35.415  14.455  -7.632  1.00 20.00     0.010 A 
ENDBRANCH   6   9
TORSDOF 1
ENDMDL
MODEL 6
REMARK VINA RESULT:      -4.3      1.514      1.666
REMARK  1 active torsions:
REMARK  status: ('A' for Active; 'I' for Inactive)
REMARK    1  A    between atoms: C6_6  and  C9_9 
ROOT
HETATM    1  C1  UNL     1     -34.721  13.559  -4.371  1.00 20.00     0.119 C 
HETATM    2  C2  UNL     1     -33.465  15.306  -3.201  1.00 20.00     0.043 A 
HETATM    3  C3  UNL     1     -33.495  16.422  -2.372  1.00 20.00     0.012 A 
HETATM    4  C4  UNL     1     -35.864  16.228  -2.285  1.00 20.00     0.125 A 
HETATM    5  C5  UNL     1     -34.670  14.708  -3.527  1.00 20.00     0.136 A 
HETATM    6  C6  UNL     1     -34.714  16.898  -1.900  1.00 20.00    -0.036 A 
HETATM    7  N10 UNL     1     -34.762  12.626  -5.058  1.00 20.00    -0.190 NA
HETATM    8  N11 UNL     1     -35.874  15.141  -3.089  1.00 20.00    -0.249 NA
ENDROOT
BRANCH   6   9
HETATM    9  C9  UNL     1     -34.779  18.089  -1.013  1.00 20.00     0.020 A 
HETATM   10  C7  UNL     1     -34.543  17.918   0.467  1.00 20.00     0.010 A 
HETATM   11  C8  UNL     1     -35.920  18.218  -0.035  1.00 20.00     0.010 A 
ENDBRANCH   6   9
TORSDOF 1
ENDMDL
MODEL 7
REMARK VINA RESULT:      -4.3      1.477      2.187
REMARK  1 active torsions:
REMARK  status: ('A' for Active; 'I' for Inactive)
REMARK    1  A    between atoms: C6_6  and  C9_9 
ROOT
HETATM    1  C1  UNL     1     -34.598  15.005  -4.728  1.00 20.00     0.119 C 
HETATM    2  C2  UNL     1     -34.676  15.576  -2.347  1.00 20.00     0.043 A 
HETATM    3  C3  UNL     1     -34.449  16.524  -1.356  1.00 20.00     0.012 A 
HETATM    4  C4  UNL     1     -33.694  18.024  -3.041  1.00 20.00     0.125 A 
HETATM    5  C5  UNL     1     -34.390  15.923  -3.657  1.00 20.00     0.136 A 
HETATM    6  C6  UNL     1     -33.948  17.775  -1.702  1.00 20.00    -0.036 A 
HETATM    7  N10 UNL     1     -34.767  14.258  -5.599  1.00 20.00    -0.190 NA
HETATM    8  N11 UNL     1     -33.903  17.127  -4.031  1.00 20.00    -0.249 NA
ENDROOT
BRANCH   6   9
HETATM    9  C9  UNL     1     -33.693  18.810  -0.666  1.00 20.00     0.020 A 
HETATM   10  C7  UNL     1     -32.399  18.771   0.109  1.00 20.00     0.010 A 
HETATM   11  C8  UNL     1     -33.683  18.411   0.788  1.00 20.00     0.010 A 
ENDBRANCH   6   9
TORSDOF 1
ENDMDL
MODEL 8
REMARK VINA RESULT:      -4.2      4.814      7.476
REMARK  1 active torsions:
REMARK  status: ('A' for Active; 'I' for Inactive)
REMARK    1  A    between atoms: C6_6  and  C9_9 
ROOT
HETATM    1  C1  UNL     1     -33.387  18.620   4.851  1.00 20.00     0.119 C 
HETATM    2  C2  UNL     1     -35.004  17.779   3.215  1.00 20.00     0.043 A 
HETATM    3  C3  UNL     1     -35.333  17.587   1.878  1.00 20.00     0.012 A 
HETATM    4  C4  UNL     1     -33.269  18.606   1.278  1.00 20.00     0.125 A 
HETATM    5  C5  UNL     1     -33.795  18.389   3.504  1.00 20.00     0.136 A 
HETATM    6  C6  UNL     1     -34.454  18.005   0.885  1.00 20.00    -0.036 A 
HETATM    7  N10 UNL     1     -33.055  18.808   5.947  1.00 20.00    -0.190 NA
HETATM    8  N11 UNL     1     -32.915  18.809   2.568  1.00 20.00    -0.249 NA
ENDROOT
BRANCH   6   9
HETATM    9  C9  UNL     1     -34.777  17.815  -0.554  1.00 20.00     0.020 A 
HETATM   10  C7  UNL     1     -34.683  16.433  -1.153  1.00 20.00     0.010 A 
HETATM   11  C8  UNL     1     -33.670  17.472  -1.520  1.00 20.00     0.010 A 
ENDBRANCH   6   9
TORSDOF 1
ENDMDL
MODEL 9
REMARK VINA RESULT:      -4.2      2.390      4.826
REMARK  1 active torsions:
REMARK  status: ('A' for Active; 'I' for Inactive)
REMARK    1  A    between atoms: C6_6  and  C9_9 
ROOT
HETATM    1  C1  UNL     1     -33.268  18.450  -1.150  1.00 20.00     0.119 C 
HETATM    2  C2  UNL     1     -34.525  16.371  -1.464  1.00 20.00     0.043 A 
HETATM    3  C3  UNL     1     -35.053  15.437  -2.348  1.00 20.00     0.012 A 
HETATM    4  C4  UNL     1     -34.178  16.726  -4.147  1.00 20.00     0.125 A 
HETATM    5  C5  UNL     1     -33.838  17.451  -1.993  1.00 20.00     0.136 A 
HETATM    6  C6  UNL     1     -34.880  15.611  -3.718  1.00 20.00    -0.036 A 
HETATM    7  N10 UNL     1     -32.803  19.262  -0.464  1.00 20.00    -0.190 NA
HETATM    8  N11 UNL     1     -33.650  17.654  -3.316  1.00 20.00    -0.249 NA
ENDROOT
BRANCH   6   9
HETATM    9  C9  UNL     1     -35.433  14.631  -4.689  1.00 20.00     0.020 A 
HETATM   10  C7  UNL     1     -34.766  13.286  -4.839  1.00 20.00     0.010 A 
HETATM   11  C8  UNL     1     -34.646  14.301  -5.933  1.00 20.00     0.010 A 
ENDBRANCH   6   9
TORSDOF 1
ENDMDL
