MODEL 1
REMARK VINA RESULT:      -5.0      0.000      0.000
REMARK  1 active torsions:
REMARK  status: ('A' for Active; 'I' for Inactive)
REMARK    1  A    between atoms: C3_3  and  C6_6 
ROOT
HETATM    1  C1  UNL     1     -33.595  17.363  -5.779  1.00 20.00    -0.030 C 
HETATM    2  C2  UNL     1     -33.560  17.011  -4.487  1.00 20.00    -0.026 C 
HETATM    3  C4  UNL     1     -34.201  16.511  -6.852  1.00 20.00     0.032 C 
HETATM    4  C5  UNL     1     -34.133  15.720  -3.959  1.00 20.00     0.018 C 
HETATM    5  C6  UNL     1     -35.109  15.084  -4.978  1.00 20.00     0.098 C 
HETATM    6  C7  UNL     1     -34.533  15.072  -6.403  1.00 20.00    -0.000 C 
HETATM    7  C8  UNL     1     -32.969  14.813  -3.540  1.00 20.00     0.015 C 
HETATM    8  C9  UNL     1     -35.484  14.429  -7.418  1.00 20.00     0.011 C 
ENDROOT
BRANCH   5   9
HETATM    9  C3  UNL     1     -35.486  13.690  -4.500  1.00 20.00     0.178 C 
HETATM   10  O10 UNL     1     -34.675  12.775  -4.814  1.00 20.00    -0.648 OA
HETATM   11  O11 UNL     1     -36.566  13.628  -3.848  1.00 20.00    -0.648 OA
ENDBRANCH   5   9
TORSDOF 1
ENDMDL
MODEL 2
REMARK VINA RESULT:      -4.8      0.840      2.794
REMARK  1 active torsions:
REMARK  status: ('A' for Active; 'I' for Inactive)
REMARK    1  A    between atoms: C3_3  and  C6_6 
ROOT
HETATM    1  C1  UNL     1     -33.658  17.286  -5.682  1.00 20.00    -0.030 C 
HETATM    2  C2  UNL     1     -34.041  16.345  -6.555  1.00 20.00    -0.026 C 
HETATM    3  C4  UNL     1     -33.901  17.193  -4.206  1.00 20.00     0.032 C 
HETATM    4  C5  UNL     1     -34.756  15.079  -6.155  1.00 20.00     0.018 C 
HETATM    5  C6  UNL     1     -34.608  14.808  -4.639  1.00 20.00     0.098 C 
HETATM    6  C7  UNL     1     -34.874  16.067  -3.797  1.00 20.00    -0.000 C 
HETATM    7  C8  UNL     1     -36.206  15.169  -6.648  1.00 20.00     0.015 C 
HETATM    8  C9  UNL     1     -34.748  15.807  -2.293  1.00 20.00     0.011 C 
ENDROOT
BRANCH   5   9
HETATM    9  C3  UNL     1     -35.520  13.655  -4.249  1.00 20.00     0.178 C 
HETATM   10  O10 UNL     1     -36.669  13.988  -3.845  1.00 20.00    -0.648 OA
HETATM   11  O11 UNL     1     -35.009  12.507  -4.381  1.00 20.00    -0.648 OA
ENDBRANCH   5   9
TORSDOF 1
ENDMDL
MODEL 3
REMARK VINA RESULT:      -4.7      1.958      2.597
REMARK  1 active torsions:
REMARK  status: ('A' for Active; 'I' for Inactive)
REMARK    1  A    between atoms: C3_3  and  C6_6 
ROOT
HETATM    1  C1  UNL     1     -35.554  16.971  -2.090  1.00 20.00    -0.030 C 
HETATM    2  C2  UNL     1     -34.491  16.163  -1.987  1.00 20.00    -0.026 C 
HETATM    3  C4  UNL     1     -36.580  16.854  -3.176  1.00 20.00     0.032 C 
HETATM    4  C5  UNL     1     -34.204  15.036  -2.948  1.00 20.00     0.018 C 
HETATM    5  C6  UNL     1     -35.462  14.670  -3.772  1.00 20.00     0.098 C 
HETATM    6  C7  UNL     1     -36.171  15.914  -4.331  1.00 20.00    -0.000 C 
HETATM    7  C8  UNL     1     -32.981  15.423  -3.791  1.00 20.00     0.015 C 
HETATM    8  C9  UNL     1     -37.409  15.563  -5.162  1.00 20.00     0.011 C 
ENDROOT
BRANCH   5   9
HETATM    9  C3  UNL     1     -35.069  13.692  -4.869  1.00 20.00     0.178 C 
HETATM   10  O10 UNL     1     -34.863  14.208  -6.003  1.00 20.00    -0.648 OA
HETATM   11  O11 UNL     1     -35.000  12.486  -4.503  1.00 20.00    -0.648 OA
ENDBRANCH   5   9
TORSDOF 1
ENDMDL
MODEL 4
REMARK VINA RESULT:      -4.7      2.052      3.390
REMARK  1 active torsions:
REMARK  status: ('A' for Active; 'I' for Inactive)
REMARK    1  A    between atoms: C3_3  and  C6_6 
ROOT
HETATM    1  C1  UNL     1     -33.027  14.637  -3.412  1.00 20.00    -0.030 C 
HETATM    2  C2  UNL     1     -33.666  13.696  -4.120  1.00 20.00    -0.026 C 
HETATM    3  C4  UNL     1     -33.691  15.877  -2.896  1.00 20.00     0.032 C 
HETATM    4  C5  UNL     1     -35.130  13.771  -4.474  1.00 20.00     0.018 C 
HETATM    5  C6  UNL     1     -35.868  14.802  -3.588  1.00 20.00     0.098 C 
HETATM    6  C7  UNL     1     -35.098  16.128  -3.478  1.00 20.00    -0.000 C 
HETATM    7  C8  UNL     1     -35.247  14.027  -5.982  1.00 20.00     0.015 C 
HETATM    8  C9  UNL     1     -35.828  17.163  -2.616  1.00 20.00     0.011 C 
ENDROOT
BRANCH   5   9
HETATM    9  C3  UNL     1     -37.277  15.000  -4.125  1.00 20.00     0.178 C 
HETATM   10  O10 UNL     1     -37.420  15.968  -4.921  1.00 20.00    -0.648 OA
HETATM   11  O11 UNL     1     -38.127  14.166  -3.703  1.00 20.00    -0.648 OA
ENDBRANCH   5   9
TORSDOF 1
ENDMDL
MODEL 5
REMARK VINA RESULT:      -4.7      1.216      2.849
REMARK  1 active torsions:
REMARK  status: ('A' for Active; 'I' for Inactive)
REMARK    1  A    between atoms: C3_3  and  C6_6 
ROOT
HETATM    1  C1  UNL     1     -34.558  17.470  -5.671  1.00 20.00    -0.030 C 
HETATM    2  C2  UNL     1     -34.263  16.462  -6.502  1.00 20.00    -0.026 C 
HETATM    3  C4  UNL     1     -34.779  17.290  -4.200  1.00 20.00     0.032 C 
HETATM    4  C5  UNL     1     -34.111  15.030  -6.055  1.00 20.00     0.018 C 
HETATM    5  C6  UNL     1     -33.915  14.940  -4.523  1.00 20.00     0.098 C 
HETATM    6  C7  UNL     1     -34.919  15.818  -3.759  1.00 20.00    -0.000 C 
HETATM    7  C8  UNL     1     -35.305  14.229  -6.593  1.00 20.00     0.015 C 
HETATM    8  C9  UNL     1     -34.745  15.724  -2.239  1.00 20.00     0.011 C 
ENDROOT
BRANCH   5   9
HETATM    9  C3  UNL     1     -33.988  13.481  -4.098  1.00 20.00     0.178 C 
HETATM   10  O10 UNL     1     -35.138  12.962  -4.147  1.00 20.00    -0.648 OA
HETATM   11  O11 UNL     1     -32.885  12.975  -3.750  1.00 20.00    -0.648 OA
ENDBRANCH   5   9
TORSDOF 1
ENDMDL
MODEL 6
REMARK VINA RESULT:      -4.6      1.799      3.117
REMARK  1 active torsions:
REMARK  status: ('A' for Active; 'I' for Inactive)
REMARK    1  A    between atoms: C3_3  and  C6_6 
ROOT
HETATM    1  C1  UNL     1     -35.099  17.064  -2.592  1.00 20.00    -0.030 C 
HETATM    2  C2  UNL     1     -36.141  16.845  -3.405  1.00 20.00    -0.026 C 
HETATM    3  C4  UNL     1     -33.894  16.175  -2.535  1.00 20.00     0.032 C 
HETATM    4  C5  UNL     1     -36.221  15.683  -4.363  1.00 20.00     0.018 C 
HETATM    5  C6  UNL     1     -34.827  15.052  -4.595  1.00 20.00     0.098 C 
HETATM    6  C7  UNL     1     -34.065  14.833  -3.278  1.00 20.00    -0.000 C 
HETATM    7  C8  UNL     1     -37.284  14.705  -3.846  1.00 20.00     0.015 C 
HETATM    8  C9  UNL     1     -32.689  14.194  -3.494  1.00 20.00     0.011 C 
ENDROOT
BRANCH   5   9
HETATM    9  C3  UNL     1     -34.991  13.763  -5.385  1.00 20.00     0.178 C 
HETATM   10  O10 UNL     1     -34.934  12.702  -4.703  1.00 20.00    -0.648 OA
HETATM   11  O11 UNL     1     -35.163  13.920  -6.626  1.00 20.00    -0.648 OA
ENDBRANCH   5   9
TORSDOF 1
ENDMDL
MODEL 7
REMARK VINA RESULT:      -4.5      1.674      1.937
REMARK  1 active torsions:
REMARK  status: ('A' for Active; 'I' for Inactive)
REMARK    1  A    between atoms: C3_3  and  C6_6 
ROOT
HETATM    1  C1  UNL     1     -36.288  17.580  -4.646  1.00 20.00    -0.030 C 
HETATM    2  C2  UNL     1     -36.351  16.938  -3.472  1.00 20.00    -0.026 C 
HETATM    3  C4  UNL     1     -35.550  17.053  -5.838  1.00 20.00     0.032 C 
HETATM    4  C5  UNL     1     -35.694  15.605  -3.215  1.00 20.00     0.018 C 
HETATM    5  C6  UNL     1     -35.324  14.899  -4.541  1.00 20.00     0.098 C 
HETATM    6  C7  UNL     1     -34.633  15.850  -5.531  1.00 20.00    -0.000 C 
HETATM    7  C8  UNL     1     -34.512  15.828  -2.262  1.00 20.00     0.015 C 
HETATM    8  C9  UNL     1     -34.247  15.157  -6.842  1.00 20.00     0.011 C 
ENDROOT
BRANCH   5   9
HETATM    9  C3  UNL     1     -34.475  13.675  -4.232  1.00 20.00     0.178 C 
HETATM   10  O10 UNL     1     -33.270  13.915  -3.940  1.00 20.00    -0.648 OA
HETATM   11  O11 UNL     1     -35.086  12.573  -4.309  1.00 20.00    -0.648 OA
ENDBRANCH   5   9
TORSDOF 1
ENDMDL
MODEL 8
REMARK VINA RESULT:      -4.4      2.759      3.535
REMARK  1 active torsions:
REMARK  status: ('A' for Active; 'I' for Inactive)
REMARK    1  A    between atoms: C3_3  and  C6_6 
ROOT
HETATM    1  C1  UNL     1     -33.513  13.808  -3.825  1.00 20.00    -0.030 C 
HETATM    2  C2  UNL     1     -32.973  15.007  -3.571  1.00 20.00    -0.026 C 
HETATM    3  C4  UNL     1     -34.985  13.583  -3.992  1.00 20.00     0.032 C 
HETATM    4  C5  UNL     1     -33.780  16.272  -3.431  1.00 20.00     0.018 C 
HETATM    5  C6  UNL     1     -35.199  16.099  -4.023  1.00 20.00     0.098 C 
HETATM    6  C7  UNL     1     -35.858  14.785  -3.573  1.00 20.00    -0.000 C 
HETATM    7  C8  UNL     1     -33.753  16.700  -1.957  1.00 20.00     0.015 C 
HETATM    8  C9  UNL     1     -37.271  14.610  -4.140  1.00 20.00     0.011 C 
ENDROOT
BRANCH   5   9
HETATM    9  C3  UNL     1     -36.039  17.315  -3.664  1.00 20.00     0.178 C 
HETATM   10  O10 UNL     1     -36.722  17.206  -2.608  1.00 20.00    -0.648 OA
HETATM   11  O11 UNL     1     -35.946  18.281  -4.473  1.00 20.00    -0.648 OA
ENDBRANCH   5   9
TORSDOF 1
ENDMDL
MODEL 9
REMARK VINA RESULT:      -4.3      2.976      4.099
REMARK  1 active torsions:
REMARK  status: ('A' for Active; 'I' for Inactive)
REMARK    1  A    between atoms: C3_3  and  C6_6 
ROOT
HETATM    1  C1  UNL     1     -35.835  13.621  -4.482  1.00 20.00    -0.030 C 
HETATM    2  C2  UNL     1     -36.621  14.514  -3.866  1.00 20.00    -0.026 C 
HETATM    3  C4  UNL     1     -34.338  13.672  -4.446  1.00 20.00     0.032 C 
HETATM    4  C5  UNL     1     -36.092  15.672  -3.058  1.00 20.00     0.018 C 
HETATM    5  C6  UNL     1     -34.606  15.459  -2.682  1.00 20.00     0.098 C 
HETATM    6  C7  UNL     1     -33.766  14.990  -3.881  1.00 20.00    -0.000 C 
HETATM    7  C8  UNL     1     -36.373  16.967  -3.832  1.00 20.00     0.015 C 
HETATM    8  C9  UNL     1     -32.289  14.791  -3.524  1.00 20.00     0.011 C 
ENDROOT
BRANCH   5   9
HETATM    9  C3  UNL     1     -34.062  16.738  -2.065  1.00 20.00     0.178 C 
HETATM   10  O10 UNL     1     -34.163  16.817  -0.809  1.00 20.00    -0.648 OA
HETATM   11  O11 UNL     1     -33.576  17.560  -2.892  1.00 20.00    -0.648 OA
ENDBRANCH   5   9
TORSDOF 1
ENDMDL
