MODEL 1
REMARK VINA RESULT:      -4.8      0.000      0.000
REMARK  1 active torsions:
REMARK  status: ('A' for Active; 'I' for Inactive)
REMARK    1  A    between atoms: C1_1  and  C6_6 
ROOT
HETATM    1  C2  UNL     1     -34.491   4.252   6.258  1.00 20.00     0.001 C 
HETATM    2  C3  UNL     1     -34.593   5.746   6.510  1.00 20.00     0.001 C 
HETATM    3  C4  UNL     1     -34.828   4.072   4.776  1.00 20.00     0.018 C 
HETATM    4  C5  UNL     1     -34.054   6.348   5.221  1.00 20.00     0.018 C 
HETATM    5  C6  UNL     1     -34.649   5.456   4.121  1.00 20.00     0.032 C 
HETATM    6  C7  UNL     1     -35.990   5.997   3.689  1.00 20.00     0.025 C 
ENDROOT
BRANCH   5   7
HETATM    7  C1  UNL     1     -33.759   5.406   2.882  1.00 20.00     0.227 C 
HETATM    8  O8  UNL     1     -34.140   4.889   1.836  1.00 20.00    -0.279 OA
HETATM    9 CL9  UNL     1     -32.213   6.149   3.157  1.00 20.00    -0.043 Cl
ENDBRANCH   5   7
TORSDOF 1
ENDMDL
MODEL 2
REMARK VINA RESULT:      -4.4     11.992     12.982
REMARK  1 active torsions:
REMARK  status: ('A' for Active; 'I' for Inactive)
REMARK    1  A    between atoms: C1_1  and  C6_6 
ROOT
HETATM    1  C2  UNL     1     -33.715  17.111  -3.810  1.00 20.00     0.001 C 
HETATM    2  C3  UNL     1     -34.077  16.513  -2.462  1.00 20.00     0.001 C 
HETATM    3  C4  UNL     1     -33.263  15.925  -4.666  1.00 20.00     0.018 C 
HETATM    4  C5  UNL     1     -34.704  15.179  -2.837  1.00 20.00     0.018 C 
HETATM    5  C6  UNL     1     -33.813  14.661  -3.976  1.00 20.00     0.032 C 
HETATM    6  C7  UNL     1     -32.675  13.847  -3.411  1.00 20.00     0.025 C 
ENDROOT
BRANCH   5   7
HETATM    7  C1  UNL     1     -34.582  13.758  -4.937  1.00 20.00     0.227 C 
HETATM    8  O8  UNL     1     -34.974  12.644  -4.601  1.00 20.00    -0.279 OA
HETATM    9 CL9  UNL     1     -34.808  14.500  -6.492  1.00 20.00    -0.043 Cl
ENDBRANCH   5   7
TORSDOF 1
ENDMDL
MODEL 3
REMARK VINA RESULT:      -4.2      2.124      3.222
REMARK  1 active torsions:
REMARK  status: ('A' for Active; 'I' for Inactive)
REMARK    1  A    between atoms: C1_1  and  C6_6 
ROOT
HETATM    1  C2  UNL     1     -32.417   6.913   3.714  1.00 20.00     0.001 C 
HETATM    2  C3  UNL     1     -32.702   6.100   2.464  1.00 20.00     0.001 C 
HETATM    3  C4  UNL     1     -33.681   6.790   4.569  1.00 20.00     0.018 C 
HETATM    4  C5  UNL     1     -33.509   4.926   2.997  1.00 20.00     0.018 C 
HETATM    5  C6  UNL     1     -34.446   5.563   4.034  1.00 20.00     0.032 C 
HETATM    6  C7  UNL     1     -35.726   6.006   3.368  1.00 20.00     0.025 C 
ENDROOT
BRANCH   5   7
HETATM    7  C1  UNL     1     -34.826   4.583   5.140  1.00 20.00     0.227 C 
HETATM    8  O8  UNL     1     -35.131   3.420   4.894  1.00 20.00    -0.279 OA
HETATM    9 CL9  UNL     1     -34.766   5.318   6.714  1.00 20.00    -0.043 Cl
ENDBRANCH   5   7
TORSDOF 1
ENDMDL
MODEL 4
REMARK VINA RESULT:      -4.2     12.504     13.727
REMARK  1 active torsions:
REMARK  status: ('A' for Active; 'I' for Inactive)
REMARK    1  A    between atoms: C1_1  and  C6_6 
ROOT
HETATM    1  C2  UNL     1     -33.637  16.906  -5.693  1.00 20.00     0.001 C 
HETATM    2  C3  UNL     1     -34.339  16.363  -6.926  1.00 20.00     0.001 C 
HETATM    3  C4  UNL     1     -34.227  16.122  -4.519  1.00 20.00     0.018 C 
HETATM    4  C5  UNL     1     -34.490  14.882  -6.609  1.00 20.00     0.018 C 
HETATM    5  C6  UNL     1     -34.877  14.862  -5.123  1.00 20.00     0.032 C 
HETATM    6  C7  UNL     1     -36.377  14.937  -4.980  1.00 20.00     0.025 C 
ENDROOT
BRANCH   5   7
HETATM    7  C1  UNL     1     -34.419  13.580  -4.431  1.00 20.00     0.227 C 
HETATM    8  O8  UNL     1     -35.078  12.545  -4.490  1.00 20.00    -0.279 OA
HETATM    9 CL9  UNL     1     -32.911  13.790  -3.595  1.00 20.00    -0.043 Cl
ENDBRANCH   5   7
TORSDOF 1
ENDMDL
MODEL 5
REMARK VINA RESULT:      -4.2     12.408     12.948
REMARK  1 active torsions:
REMARK  status: ('A' for Active; 'I' for Inactive)
REMARK    1  A    between atoms: C1_1  and  C6_6 
ROOT
HETATM    1  C2  UNL     1     -34.906  15.906  -1.948  1.00 20.00     0.001 C 
HETATM    2  C3  UNL     1     -33.571  16.341  -2.527  1.00 20.00     0.001 C 
HETATM    3  C4  UNL     1     -35.742  15.469  -3.153  1.00 20.00     0.018 C 
HETATM    4  C5  UNL     1     -33.354  15.354  -3.665  1.00 20.00     0.018 C 
HETATM    5  C6  UNL     1     -34.744  15.215  -4.301  1.00 20.00     0.032 C 
HETATM    6  C7  UNL     1     -34.925  16.256  -5.378  1.00 20.00     0.025 C 
ENDROOT
BRANCH   5   7
HETATM    7  C1  UNL     1     -34.940  13.849  -4.954  1.00 20.00     0.227 C 
HETATM    8  O8  UNL     1     -34.932  12.813  -4.295  1.00 20.00    -0.279 OA
HETATM    9 CL9  UNL     1     -35.163  13.971  -6.673  1.00 20.00    -0.043 Cl
ENDBRANCH   5   7
TORSDOF 1
ENDMDL
MODEL 6
REMARK VINA RESULT:      -4.1      1.370      1.398
REMARK  1 active torsions:
REMARK  status: ('A' for Active; 'I' for Inactive)
REMARK    1  A    between atoms: C1_1  and  C6_6 
ROOT
HETATM    1  C2  UNL     1     -34.861   4.279   5.496  1.00 20.00     0.001 C 
HETATM    2  C3  UNL     1     -34.742   5.523   6.360  1.00 20.00     0.001 C 
HETATM    3  C4  UNL     1     -34.646   4.767   4.061  1.00 20.00     0.018 C 
HETATM    4  C5  UNL     1     -33.647   6.318   5.664  1.00 20.00     0.018 C 
HETATM    5  C6  UNL     1     -33.956   6.141   4.171  1.00 20.00     0.032 C 
HETATM    6  C7  UNL     1     -34.894   7.227   3.706  1.00 20.00     0.025 C 
ENDROOT
BRANCH   5   7
HETATM    7  C1  UNL     1     -32.697   6.233   3.313  1.00 20.00     0.227 C 
HETATM    8  O8  UNL     1     -31.960   5.265   3.143  1.00 20.00    -0.279 OA
HETATM    9 CL9  UNL     1     -32.472   7.823   2.648  1.00 20.00    -0.043 Cl
ENDBRANCH   5   7
TORSDOF 1
ENDMDL
MODEL 7
REMARK VINA RESULT:      -4.0     12.271     13.254
REMARK  1 active torsions:
REMARK  status: ('A' for Active; 'I' for Inactive)
REMARK    1  A    between atoms: C1_1  and  C6_6 
ROOT
HETATM    1  C2  UNL     1     -33.410  16.178  -4.880  1.00 20.00     0.001 C 
HETATM    2  C3  UNL     1     -33.051  15.492  -3.573  1.00 20.00     0.001 C 
HETATM    3  C4  UNL     1     -34.667  15.459  -5.377  1.00 20.00     0.018 C 
HETATM    4  C5  UNL     1     -34.411  15.190  -2.961  1.00 20.00     0.018 C 
HETATM    5  C6  UNL     1     -35.258  14.729  -4.155  1.00 20.00     0.032 C 
HETATM    6  C7  UNL     1     -35.126  13.236  -4.335  1.00 20.00     0.025 C 
ENDROOT
BRANCH   5   7
HETATM    7  C1  UNL     1     -36.741  15.031  -3.954  1.00 20.00     0.227 C 
HETATM    8  O8  UNL     1     -37.562  14.137  -3.770  1.00 20.00    -0.279 OA
HETATM    9 CL9  UNL     1     -37.076  16.735  -4.021  1.00 20.00    -0.043 Cl
ENDBRANCH   5   7
TORSDOF 1
ENDMDL
MODEL 8
REMARK VINA RESULT:      -4.0     12.559     13.330
REMARK  1 active torsions:
REMARK  status: ('A' for Active; 'I' for Inactive)
REMARK    1  A    between atoms: C1_1  and  C6_6 
ROOT
HETATM    1  C2  UNL     1     -34.713  13.515  -4.195  1.00 20.00     0.001 C 
HETATM    2  C3  UNL     1     -33.317  13.702  -3.628  1.00 20.00     0.001 C 
HETATM    3  C4  UNL     1     -35.493  14.757  -3.755  1.00 20.00     0.018 C 
HETATM    4  C5  UNL     1     -33.089  15.200  -3.767  1.00 20.00     0.018 C 
HETATM    5  C6  UNL     1     -34.439  15.816  -3.373  1.00 20.00     0.032 C 
HETATM    6  C7  UNL     1     -34.478  16.066  -1.886  1.00 20.00     0.025 C 
ENDROOT
BRANCH   5   7
HETATM    7  C1  UNL     1     -34.679  17.155  -4.065  1.00 20.00     0.227 C 
HETATM    8  O8  UNL     1     -35.627  17.875  -3.764  1.00 20.00    -0.279 OA
HETATM    9 CL9  UNL     1     -33.477  17.492  -5.273  1.00 20.00    -0.043 Cl
ENDBRANCH   5   7
TORSDOF 1
ENDMDL
MODEL 9
REMARK VINA RESULT:      -4.0     12.140     12.993
REMARK  1 active torsions:
REMARK  status: ('A' for Active; 'I' for Inactive)
REMARK    1  A    between atoms: C1_1  and  C6_6 
ROOT
HETATM    1  C2  UNL     1     -33.418  13.656  -3.765  1.00 20.00     0.001 C 
HETATM    2  C3  UNL     1     -34.642  13.303  -4.592  1.00 20.00     0.001 C 
HETATM    3  C4  UNL     1     -33.517  15.165  -3.528  1.00 20.00     0.018 C 
HETATM    4  C5  UNL     1     -35.716  14.217  -4.020  1.00 20.00     0.018 C 
HETATM    5  C6  UNL     1     -34.985  15.549  -3.799  1.00 20.00     0.032 C 
HETATM    6  C7  UNL     1     -35.072  16.399  -5.042  1.00 20.00     0.025 C 
ENDROOT
BRANCH   5   7
HETATM    7  C1  UNL     1     -35.599  16.354  -2.656  1.00 20.00     0.227 C 
HETATM    8  O8  UNL     1     -36.666  16.947  -2.786  1.00 20.00    -0.279 OA
HETATM    9 CL9  UNL     1     -34.617  16.309  -1.223  1.00 20.00    -0.043 Cl
ENDBRANCH   5   7
TORSDOF 1
ENDMDL
