MODEL 1
REMARK VINA RESULT:      -4.6      0.000      0.000
REMARK  5 active torsions:
REMARK  status: ('A' for Active; 'I' for Inactive)
REMARK    1  A    between atoms: C1_1  and  C5_5 
REMARK    2  A    between atoms: C2_2  and  C9_9 
REMARK    3  A    between atoms: C3_3  and  C6_6 
REMARK    4  A    between atoms: C9_9  and  C11_11 
REMARK    5  A    between atoms: C10_10  and  C11_11 
ROOT
HETATM    1  C4  UNL     1     -35.614  14.411  -6.725  1.00 20.00     0.022 A 
HETATM    2  C5  UNL     1     -35.349  15.602  -5.876  1.00 20.00     0.020 A 
HETATM    3  C6  UNL     1     -34.398  14.454  -5.841  1.00 20.00     0.063 A 
ENDROOT
BRANCH   2   4
HETATM    4  C1  UNL     1     -36.257  15.840  -4.715  1.00 20.00    -0.025 C 
HETATM    5  C2  UNL     1     -35.989  16.701  -3.723  1.00 20.00    -0.030 C 
BRANCH   5   6
HETATM    6  C9  UNL     1     -34.743  17.536  -3.655  1.00 20.00     0.027 C 
BRANCH   6   7
HETATM    7  C11 UNL     1     -33.897  17.249  -2.410  1.00 20.00     0.003 C 
BRANCH   7   8
HETATM    8  C10 UNL     1     -34.623  16.381  -1.378  1.00 20.00    -0.004 C 
HETATM    9  C8  UNL     1     -34.793  17.117  -0.058  1.00 20.00     0.005 C 
ENDBRANCH   7   8
ENDBRANCH   6   7
ENDBRANCH   5   6
ENDBRANCH   2   4
BRANCH   3  10
HETATM   10  C3  UNL     1     -34.306  13.536  -4.699  1.00 20.00     0.128 C 
HETATM   11  C7  UNL     1     -33.241  13.829  -3.679  1.00 20.00     0.091 C 
HETATM   12  O12 UNL     1     -35.066  12.576  -4.582  1.00 20.00    -0.298 OA
ENDBRANCH   3  10
TORSDOF 5
ENDMDL
MODEL 2
REMARK VINA RESULT:      -4.5     10.496     12.145
REMARK  5 active torsions:
REMARK  status: ('A' for Active; 'I' for Inactive)
REMARK    1  A    between atoms: C1_1  and  C5_5 
REMARK    2  A    between atoms: C2_2  and  C9_9 
REMARK    3  A    between atoms: C3_3  and  C6_6 
REMARK    4  A    between atoms: C9_9  and  C11_11 
REMARK    5  A    between atoms: C10_10  and  C11_11 
ROOT
HETATM    1  C4  UNL     1     -34.948   6.739   3.762  1.00 20.00     0.022 A 
HETATM    2  C5  UNL     1     -34.235   5.701   2.973  1.00 20.00     0.020 A 
HETATM    3  C6  UNL     1     -35.267   5.283   3.962  1.00 20.00     0.063 A 
ENDROOT
BRANCH   2   4
HETATM    4  C1  UNL     1     -32.791   5.474   3.274  1.00 20.00    -0.025 C 
HETATM    5  C2  UNL     1     -31.851   6.427   3.189  1.00 20.00    -0.030 C 
BRANCH   5   6
HETATM    6  C9  UNL     1     -32.134   7.844   2.782  1.00 20.00     0.027 C 
BRANCH   6   7
HETATM    7  C11 UNL     1     -31.850   8.109   1.299  1.00 20.00     0.003 C 
BRANCH   7   8
HETATM    8  C10 UNL     1     -32.258   9.515   0.852  1.00 20.00    -0.004 C 
HETATM    9  C8  UNL     1     -32.846  10.314   2.005  1.00 20.00     0.005 C 
ENDBRANCH   7   8
ENDBRANCH   6   7
ENDBRANCH   5   6
ENDBRANCH   2   4
BRANCH   3  10
HETATM   10  C3  UNL     1     -34.926   4.641   5.238  1.00 20.00     0.128 C 
HETATM   11  C7  UNL     1     -34.613   5.553   6.392  1.00 20.00     0.091 C 
HETATM   12  O12 UNL     1     -34.901   3.417   5.357  1.00 20.00    -0.298 OA
ENDBRANCH   3  10
TORSDOF 5
ENDMDL
MODEL 3
REMARK VINA RESULT:      -4.5      1.715      3.009
REMARK  5 active torsions:
REMARK  status: ('A' for Active; 'I' for Inactive)
REMARK    1  A    between atoms: C1_1  and  C5_5 
REMARK    2  A    between atoms: C2_2  and  C9_9 
REMARK    3  A    between atoms: C3_3  and  C6_6 
REMARK    4  A    between atoms: C9_9  and  C11_11 
REMARK    5  A    between atoms: C10_10  and  C11_11 
ROOT
HETATM    1  C4  UNL     1     -33.392  16.328  -4.360  1.00 20.00     0.022 A 
HETATM    2  C5  UNL     1     -33.356  15.874  -2.945  1.00 20.00     0.020 A 
HETATM    3  C6  UNL     1     -33.159  14.878  -4.037  1.00 20.00     0.063 A 
ENDROOT
BRANCH   2   4
HETATM    4  C1  UNL     1     -34.638  15.885  -2.182  1.00 20.00    -0.025 C 
HETATM    5  C2  UNL     1     -34.870  16.676  -1.124  1.00 20.00    -0.030 C 
BRANCH   5   6
HETATM    6  C9  UNL     1     -33.869  17.651  -0.575  1.00 20.00     0.027 C 
BRANCH   6   7
HETATM    7  C11 UNL     1     -34.192  18.100   0.854  1.00 20.00     0.003 C 
BRANCH   7   8
HETATM    8  C10 UNL     1     -33.034  18.843   1.526  1.00 20.00    -0.004 C 
HETATM    9  C8  UNL     1     -31.844  18.977   0.588  1.00 20.00     0.005 C 
ENDBRANCH   7   8
ENDBRANCH   6   7
ENDBRANCH   5   6
ENDBRANCH   2   4
BRANCH   3  10
HETATM   10  C3  UNL     1     -34.181  13.888  -4.399  1.00 20.00     0.128 C 
HETATM   11  C7  UNL     1     -34.894  14.097  -5.706  1.00 20.00     0.091 C 
HETATM   12  O12 UNL     1     -34.439  12.932  -3.668  1.00 20.00    -0.298 OA
ENDBRANCH   3  10
TORSDOF 5
ENDMDL
MODEL 4
REMARK VINA RESULT:      -4.4     10.464     12.119
REMARK  5 active torsions:
REMARK  status: ('A' for Active; 'I' for Inactive)
REMARK    1  A    between atoms: C1_1  and  C5_5 
REMARK    2  A    between atoms: C2_2  and  C9_9 
REMARK    3  A    between atoms: C3_3  and  C6_6 
REMARK    4  A    between atoms: C9_9  and  C11_11 
REMARK    5  A    between atoms: C10_10  and  C11_11 
ROOT
HETATM    1  C4  UNL     1     -31.906   7.470   3.866  1.00 20.00     0.022 A 
HETATM    2  C5  UNL     1     -32.566   6.493   2.961  1.00 20.00     0.020 A 
HETATM    3  C6  UNL     1     -31.686   7.546   2.380  1.00 20.00     0.063 A 
ENDROOT
BRANCH   2   4
HETATM    4  C1  UNL     1     -34.046   6.595   2.794  1.00 20.00    -0.025 C 
HETATM    5  C2  UNL     1     -34.918   5.717   3.311  1.00 20.00    -0.030 C 
BRANCH   5   6
HETATM    6  C9  UNL     1     -34.516   4.522   4.125  1.00 20.00     0.027 C 
BRANCH   6   7
HETATM    7  C11 UNL     1     -35.188   4.482   5.502  1.00 20.00     0.003 C 
BRANCH   7   8
HETATM    8  C10 UNL     1     -34.284   4.996   6.625  1.00 20.00    -0.004 C 
HETATM    9  C8  UNL     1     -34.112   6.506   6.551  1.00 20.00     0.005 C 
ENDBRANCH   7   8
ENDBRANCH   6   7
ENDBRANCH   5   6
ENDBRANCH   2   4
BRANCH   3  10
HETATM   10  C3  UNL     1     -32.213   8.695   1.633  1.00 20.00     0.128 C 
HETATM   11  C7  UNL     1     -32.170   8.604   0.133  1.00 20.00     0.091 C 
HETATM   12  O12 UNL     1     -32.670   9.682   2.208  1.00 20.00    -0.298 OA
ENDBRANCH   3  10
TORSDOF 5
ENDMDL
MODEL 5
REMARK VINA RESULT:      -4.4      1.653      2.876
REMARK  5 active torsions:
REMARK  status: ('A' for Active; 'I' for Inactive)
REMARK    1  A    between atoms: C1_1  and  C5_5 
REMARK    2  A    between atoms: C2_2  and  C9_9 
REMARK    3  A    between atoms: C3_3  and  C6_6 
REMARK    4  A    between atoms: C9_9  and  C11_11 
REMARK    5  A    between atoms: C10_10  and  C11_11 
ROOT
HETATM    1  C4  UNL     1     -34.506  13.261  -4.690  1.00 20.00     0.022 A 
HETATM    2  C5  UNL     1     -34.408  14.067  -3.445  1.00 20.00     0.020 A 
HETATM    3  C6  UNL     1     -35.709  13.994  -4.167  1.00 20.00     0.063 A 
ENDROOT
BRANCH   2   4
HETATM    4  C1  UNL     1     -33.607  15.325  -3.496  1.00 20.00    -0.025 C 
HETATM    5  C2  UNL     1     -33.695  16.304  -2.583  1.00 20.00    -0.030 C 
BRANCH   5   6
HETATM    6  C9  UNL     1     -34.609  16.256  -1.394  1.00 20.00     0.027 C 
BRANCH   6   7
HETATM    7  C11 UNL     1     -34.381  17.414  -0.417  1.00 20.00     0.003 C 
BRANCH   7   8
HETATM    8  C10 UNL     1     -33.250  18.350  -0.849  1.00 20.00    -0.004 C 
HETATM    9  C8  UNL     1     -32.412  18.793   0.341  1.00 20.00     0.005 C 
ENDBRANCH   7   8
ENDBRANCH   6   7
ENDBRANCH   5   6
ENDBRANCH   2   4
BRANCH   3  10
HETATM   10  C3  UNL     1     -36.254  15.123  -4.933  1.00 20.00     0.128 C 
HETATM   11  C7  UNL     1     -37.157  16.070  -4.194  1.00 20.00     0.091 C 
HETATM   12  O12 UNL     1     -35.981  15.285  -6.122  1.00 20.00    -0.298 OA
ENDBRANCH   3  10
TORSDOF 5
ENDMDL
MODEL 6
REMARK VINA RESULT:      -4.3      2.171      4.850
REMARK  5 active torsions:
REMARK  status: ('A' for Active; 'I' for Inactive)
REMARK    1  A    between atoms: C1_1  and  C5_5 
REMARK    2  A    between atoms: C2_2  and  C9_9 
REMARK    3  A    between atoms: C3_3  and  C6_6 
REMARK    4  A    between atoms: C9_9  and  C11_11 
REMARK    5  A    between atoms: C10_10  and  C11_11 
ROOT
HETATM    1  C4  UNL     1     -34.585  16.824  -1.182  1.00 20.00     0.022 A 
HETATM    2  C5  UNL     1     -34.766  15.671  -2.102  1.00 20.00     0.020 A 
HETATM    3  C6  UNL     1     -33.690  16.664  -2.379  1.00 20.00     0.063 A 
ENDROOT
BRANCH   2   4
HETATM    4  C1  UNL     1     -35.990  15.654  -2.957  1.00 20.00    -0.025 C 
HETATM    5  C2  UNL     1     -36.252  14.703  -3.866  1.00 20.00    -0.030 C 
BRANCH   5   6
HETATM    6  C9  UNL     1     -35.349  13.534  -4.136  1.00 20.00     0.027 C 
BRANCH   6   7
HETATM    7  C11 UNL     1     -34.639  13.627  -5.491  1.00 20.00     0.003 C 
BRANCH   7   8
HETATM    8  C10 UNL     1     -35.484  14.317  -6.565  1.00 20.00    -0.004 C 
HETATM    9  C8  UNL     1     -34.608  14.999  -7.605  1.00 20.00     0.005 C 
ENDBRANCH   7   8
ENDBRANCH   6   7
ENDBRANCH   5   6
ENDBRANCH   2   4
BRANCH   3  10
HETATM   10  C3  UNL     1     -33.774  17.638  -3.476  1.00 20.00     0.128 C 
HETATM   11  C7  UNL     1     -33.412  17.144  -4.849  1.00 20.00     0.091 C 
HETATM   12  O12 UNL     1     -34.126  18.800  -3.279  1.00 20.00    -0.298 OA
ENDBRANCH   3  10
TORSDOF 5
ENDMDL
MODEL 7
REMARK VINA RESULT:      -4.3      1.408      2.444
REMARK  5 active torsions:
REMARK  status: ('A' for Active; 'I' for Inactive)
REMARK    1  A    between atoms: C1_1  and  C5_5 
REMARK    2  A    between atoms: C2_2  and  C9_9 
REMARK    3  A    between atoms: C3_3  and  C6_6 
REMARK    4  A    between atoms: C9_9  and  C11_11 
REMARK    5  A    between atoms: C10_10  and  C11_11 
ROOT
HETATM    1  C4  UNL     1     -33.000  13.726  -3.700  1.00 20.00     0.022 A 
HETATM    2  C5  UNL     1     -33.346  15.125  -3.338  1.00 20.00     0.020 A 
HETATM    3  C6  UNL     1     -34.431  14.110  -3.447  1.00 20.00     0.063 A 
ENDROOT
BRANCH   2   4
HETATM    4  C1  UNL     1     -33.206  16.169  -4.396  1.00 20.00    -0.025 C 
HETATM    5  C2  UNL     1     -33.734  17.398  -4.307  1.00 20.00    -0.030 C 
BRANCH   5   6
HETATM    6  C9  UNL     1     -34.533  17.880  -3.130  1.00 20.00     0.027 C 
BRANCH   6   7
HETATM    7  C11 UNL     1     -33.678  18.601  -2.082  1.00 20.00     0.003 C 
BRANCH   7   8
HETATM    8  C10 UNL     1     -33.487  17.786  -0.800  1.00 20.00    -0.004 C 
HETATM    9  C8  UNL     1     -34.700  16.914  -0.513  1.00 20.00     0.005 C 
ENDBRANCH   7   8
ENDBRANCH   6   7
ENDBRANCH   5   6
ENDBRANCH   2   4
BRANCH   3  10
HETATM   10  C3  UNL     1     -35.389  14.090  -4.560  1.00 20.00     0.128 C 
HETATM   11  C7  UNL     1     -36.724  14.737  -4.316  1.00 20.00     0.091 C 
HETATM   12  O12 UNL     1     -35.109  13.572  -5.640  1.00 20.00    -0.298 OA
ENDBRANCH   3  10
TORSDOF 5
ENDMDL
MODEL 8
REMARK VINA RESULT:      -4.1      1.349      2.790
REMARK  5 active torsions:
REMARK  status: ('A' for Active; 'I' for Inactive)
REMARK    1  A    between atoms: C1_1  and  C5_5 
REMARK    2  A    between atoms: C2_2  and  C9_9 
REMARK    3  A    between atoms: C3_3  and  C6_6 
REMARK    4  A    between atoms: C9_9  and  C11_11 
REMARK    5  A    between atoms: C10_10  and  C11_11 
ROOT
HETATM    1  C4  UNL     1     -33.010  15.659  -4.301  1.00 20.00     0.022 A 
HETATM    2  C5  UNL     1     -33.466  15.223  -2.955  1.00 20.00     0.020 A 
HETATM    3  C6  UNL     1     -33.366  14.219  -4.052  1.00 20.00     0.063 A 
ENDROOT
BRANCH   2   4
HETATM    4  C1  UNL     1     -34.811  15.682  -2.499  1.00 20.00    -0.025 C 
HETATM    5  C2  UNL     1     -35.000  16.618  -1.557  1.00 20.00    -0.030 C 
BRANCH   5   6
HETATM    6  C9  UNL     1     -33.883  17.324  -0.845  1.00 20.00     0.027 C 
BRANCH   6   7
HETATM    7  C11 UNL     1     -33.627  18.735  -1.384  1.00 20.00     0.003 C 
BRANCH   7   8
HETATM    8  C10 UNL     1     -34.485  19.076  -2.605  1.00 20.00    -0.004 C 
HETATM    9  C8  UNL     1     -33.629  19.261  -3.849  1.00 20.00     0.005 C 
ENDBRANCH   7   8
ENDBRANCH   6   7
ENDBRANCH   5   6
ENDBRANCH   2   4
BRANCH   3  10
HETATM   10  C3  UNL     1     -34.546  13.646  -4.711  1.00 20.00     0.128 C 
HETATM   11  C7  UNL     1     -34.979  14.286  -6.001  1.00 20.00     0.091 C 
HETATM   12  O12 UNL     1     -35.149  12.687  -4.232  1.00 20.00    -0.298 OA
ENDBRANCH   3  10
TORSDOF 5
ENDMDL
MODEL 9
REMARK VINA RESULT:      -4.1      2.438      5.305
REMARK  5 active torsions:
REMARK  status: ('A' for Active; 'I' for Inactive)
REMARK    1  A    between atoms: C1_1  and  C5_5 
REMARK    2  A    between atoms: C2_2  and  C9_9 
REMARK    3  A    between atoms: C3_3  and  C6_6 
REMARK    4  A    between atoms: C9_9  and  C11_11 
REMARK    5  A    between atoms: C10_10  and  C11_11 
ROOT
HETATM    1  C4  UNL     1     -35.550  17.137  -2.239  1.00 20.00     0.022 A 
HETATM    2  C5  UNL     1     -34.532  16.103  -1.916  1.00 20.00     0.020 A 
HETATM    3  C6  UNL     1     -34.588  17.352  -1.104  1.00 20.00     0.063 A 
ENDROOT
BRANCH   2   4
HETATM    4  C1  UNL     1     -33.415  15.907  -2.887  1.00 20.00    -0.025 C 
HETATM    5  C2  UNL     1     -33.297  14.832  -3.680  1.00 20.00    -0.030 C 
BRANCH   5   6
HETATM    6  C9  UNL     1     -34.274  13.693  -3.695  1.00 20.00     0.027 C 
BRANCH   6   7
HETATM    7  C11 UNL     1     -34.757  13.336  -5.104  1.00 20.00     0.003 C 
BRANCH   7   8
HETATM    8  C10 UNL     1     -35.390  14.520  -5.840  1.00 20.00    -0.004 C 
HETATM    9  C8  UNL     1     -34.612  14.869  -7.099  1.00 20.00     0.005 C 
ENDBRANCH   7   8
ENDBRANCH   6   7
ENDBRANCH   5   6
ENDBRANCH   2   4
BRANCH   3  10
HETATM   10  C3  UNL     1     -33.577  18.411  -1.210  1.00 20.00     0.128 C 
HETATM   11  C7  UNL     1     -32.631  18.563  -0.050  1.00 20.00     0.091 C 
HETATM   12  O12 UNL     1     -33.506  19.138  -2.200  1.00 20.00    -0.298 OA
ENDBRANCH   3  10
TORSDOF 5
ENDMDL
