MODEL 1
REMARK VINA RESULT:      -4.3      0.000      0.000
REMARK  1 active torsions:
REMARK  status: ('A' for Active; 'I' for Inactive)
REMARK    1  A    between atoms: C8_8  and  N10_10 
ROOT
HETATM    1  C1  UNL     1     -37.620  14.947  -4.283  1.00 20.00     0.089 C 
HETATM    2  C8  UNL     1     -36.545  15.779  -4.822  1.00 20.00     0.396 C 
HETATM    3  N9  UNL     1     -38.475  14.290  -3.855  1.00 20.00    -0.195 NA
ENDROOT
BRANCH   2   4
HETATM    4  N10 UNL     1     -35.274  15.074  -4.780  1.00 20.00     0.110 N 
HETATM    5  C5  UNL     1     -34.112  15.924  -5.167  1.00 20.00     0.283 C 
HETATM    6  C6  UNL     1     -33.087  15.602  -4.059  1.00 20.00     0.038 C 
HETATM    7  C2  UNL     1     -33.574  16.265  -2.789  1.00 20.00    -0.022 C 
HETATM    8  C4  UNL     1     -33.465  14.159  -3.730  1.00 20.00     0.050 C 
HETATM    9  C3  UNL     1     -34.690  15.617  -2.422  1.00 20.00     0.005 C 
HETATM   10  C7  UNL     1     -34.922  14.526  -3.446  1.00 20.00     0.247 C 
ENDBRANCH   2   4
TORSDOF 1
ENDMDL
MODEL 2
REMARK VINA RESULT:      -4.2      2.043      3.462
REMARK  1 active torsions:
REMARK  status: ('A' for Active; 'I' for Inactive)
REMARK    1  A    between atoms: C8_8  and  N10_10 
ROOT
HETATM    1  C1  UNL     1     -34.400  16.659  -1.188  1.00 20.00     0.089 C 
HETATM    2  C8  UNL     1     -33.932  16.239  -2.508  1.00 20.00     0.396 C 
HETATM    3  N9  UNL     1     -34.768  16.994  -0.140  1.00 20.00    -0.195 NA
ENDROOT
BRANCH   2   4
HETATM    4  N10 UNL     1     -34.572  14.998  -2.913  1.00 20.00     0.110 N 
HETATM    5  C5  UNL     1     -36.015  15.159  -3.254  1.00 20.00     0.283 C 
HETATM    6  C6  UNL     1     -36.127  14.381  -4.582  1.00 20.00     0.038 C 
HETATM    7  C2  UNL     1     -35.442  15.208  -5.648  1.00 20.00    -0.022 C 
HETATM    8  C4  UNL     1     -35.050  13.317  -4.381  1.00 20.00     0.050 C 
HETATM    9  C3  UNL     1     -34.132  15.200  -5.355  1.00 20.00     0.005 C 
HETATM   10  C7  UNL     1     -33.965  14.359  -4.107  1.00 20.00     0.247 C 
ENDBRANCH   2   4
TORSDOF 1
ENDMDL
MODEL 3
REMARK VINA RESULT:      -4.2      1.943      3.146
REMARK  1 active torsions:
REMARK  status: ('A' for Active; 'I' for Inactive)
REMARK    1  A    between atoms: C8_8  and  N10_10 
ROOT
HETATM    1  C1  UNL     1     -34.272  13.655  -4.179  1.00 20.00     0.089 C 
HETATM    2  C8  UNL     1     -33.542  14.830  -3.705  1.00 20.00     0.396 C 
HETATM    3  N9  UNL     1     -34.848  12.721  -4.555  1.00 20.00    -0.195 NA
ENDROOT
BRANCH   2   4
HETATM    4  N10 UNL     1     -34.393  16.008  -3.719  1.00 20.00     0.110 N 
HETATM    5  C5  UNL     1     -35.712  15.794  -3.057  1.00 20.00     0.283 C 
HETATM    6  C6  UNL     1     -35.840  17.049  -2.168  1.00 20.00     0.038 C 
HETATM    7  C2  UNL     1     -34.866  16.890  -1.021  1.00 20.00    -0.022 C 
HETATM    8  C4  UNL     1     -35.062  18.068  -2.998  1.00 20.00     0.050 C 
HETATM    9  C3  UNL     1     -33.636  16.969  -1.550  1.00 20.00     0.005 C 
HETATM   10  C7  UNL     1     -33.810  17.192  -3.039  1.00 20.00     0.247 C 
ENDBRANCH   2   4
TORSDOF 1
ENDMDL
MODEL 4
REMARK VINA RESULT:      -4.1      0.977      1.734
REMARK  1 active torsions:
REMARK  status: ('A' for Active; 'I' for Inactive)
REMARK    1  A    between atoms: C8_8  and  N10_10 
ROOT
HETATM    1  C1  UNL     1     -37.621  14.634  -3.810  1.00 20.00     0.089 C 
HETATM    2  C8  UNL     1     -36.298  14.276  -4.319  1.00 20.00     0.396 C 
HETATM    3  N9  UNL     1     -38.672  14.918  -3.410  1.00 20.00    -0.195 NA
ENDROOT
BRANCH   2   4
HETATM    4  N10 UNL     1     -35.257  14.702  -3.398  1.00 20.00     0.110 N 
HETATM    5  C5  UNL     1     -33.919  14.117  -3.705  1.00 20.00     0.283 C 
HETATM    6  C6  UNL     1     -32.994  15.348  -3.610  1.00 20.00     0.038 C 
HETATM    7  C2  UNL     1     -33.263  16.209  -4.824  1.00 20.00    -0.022 C 
HETATM    8  C4  UNL     1     -33.731  16.180  -2.563  1.00 20.00     0.050 C 
HETATM    9  C3  UNL     1     -34.503  16.701  -4.677  1.00 20.00     0.005 C 
HETATM   10  C7  UNL     1     -35.035  16.169  -3.362  1.00 20.00     0.247 C 
ENDBRANCH   2   4
TORSDOF 1
ENDMDL
MODEL 5
REMARK VINA RESULT:      -4.1     10.403     11.739
REMARK  1 active torsions:
REMARK  status: ('A' for Active; 'I' for Inactive)
REMARK    1  A    between atoms: C8_8  and  N10_10 
ROOT
HETATM    1  C1  UNL     1     -42.539   7.855  -3.829  1.00 20.00     0.089 C 
HETATM    2  C8  UNL     1     -42.916   6.858  -2.827  1.00 20.00     0.396 C 
HETATM    3  N9  UNL     1     -42.243   8.645  -4.624  1.00 20.00    -0.195 NA
ENDROOT
BRANCH   2   4
HETATM    4  N10 UNL     1     -41.737   6.224  -2.259  1.00 20.00     0.110 N 
HETATM    5  C5  UNL     1     -41.164   6.970  -1.102  1.00 20.00     0.283 C 
HETATM    6  C6  UNL     1     -40.928   5.845  -0.072  1.00 20.00     0.038 C 
HETATM    7  C2  UNL     1     -42.284   5.420   0.449  1.00 20.00    -0.022 C 
HETATM    8  C4  UNL     1     -40.651   4.663  -0.997  1.00 20.00     0.050 C 
HETATM    9  C3  UNL     1     -42.916   4.822  -0.572  1.00 20.00     0.005 C 
HETATM   10  C7  UNL     1     -41.967   4.848  -1.753  1.00 20.00     0.247 C 
ENDBRANCH   2   4
TORSDOF 1
ENDMDL
MODEL 6
REMARK VINA RESULT:      -4.1      1.823      3.241
REMARK  1 active torsions:
REMARK  status: ('A' for Active; 'I' for Inactive)
REMARK    1  A    between atoms: C8_8  and  N10_10 
ROOT
HETATM    1  C1  UNL     1     -34.246  16.455  -1.665  1.00 20.00     0.089 C 
HETATM    2  C8  UNL     1     -33.675  16.180  -2.983  1.00 20.00     0.396 C 
HETATM    3  N9  UNL     1     -34.696  16.673  -0.619  1.00 20.00    -0.195 NA
ENDROOT
BRANCH   2   4
HETATM    4  N10 UNL     1     -34.723  16.017  -3.977  1.00 20.00     0.110 N 
HETATM    5  C5  UNL     1     -34.201  15.831  -5.362  1.00 20.00     0.283 C 
HETATM    6  C6  UNL     1     -35.038  14.638  -5.870  1.00 20.00     0.038 C 
HETATM    7  C2  UNL     1     -34.534  13.400  -5.159  1.00 20.00    -0.022 C 
HETATM    8  C4  UNL     1     -36.334  14.845  -5.091  1.00 20.00     0.050 C 
HETATM    9  C3  UNL     1     -34.877  13.534  -3.869  1.00 20.00     0.005 C 
HETATM   10  C7  UNL     1     -35.613  14.852  -3.743  1.00 20.00     0.247 C 
ENDBRANCH   2   4
TORSDOF 1
ENDMDL
MODEL 7
REMARK VINA RESULT:      -4.1      1.947      3.170
REMARK  1 active torsions:
REMARK  status: ('A' for Active; 'I' for Inactive)
REMARK    1  A    between atoms: C8_8  and  N10_10 
ROOT
HETATM    1  C1  UNL     1     -34.895  16.670  -1.422  1.00 20.00     0.089 C 
HETATM    2  C8  UNL     1     -35.551  16.262  -2.664  1.00 20.00     0.396 C 
HETATM    3  N9  UNL     1     -34.375  16.996  -0.437  1.00 20.00    -0.195 NA
ENDROOT
BRANCH   2   4
HETATM    4  N10 UNL     1     -35.108  14.939  -3.073  1.00 20.00     0.110 N 
HETATM    5  C5  UNL     1     -35.996  14.306  -4.091  1.00 20.00     0.283 C 
HETATM    6  C6  UNL     1     -34.981  13.775  -5.125  1.00 20.00     0.038 C 
HETATM    7  C2  UNL     1     -34.429  14.971  -5.869  1.00 20.00    -0.022 C 
HETATM    8  C4  UNL     1     -33.782  13.482  -4.226  1.00 20.00     0.050 C 
HETATM    9  C3  UNL     1     -33.689  15.661  -4.987  1.00 20.00     0.005 C 
HETATM   10  C7  UNL     1     -33.751  14.908  -3.675  1.00 20.00     0.247 C 
ENDBRANCH   2   4
TORSDOF 1
ENDMDL
MODEL 8
REMARK VINA RESULT:      -4.0      0.878      1.841
REMARK  1 active torsions:
REMARK  status: ('A' for Active; 'I' for Inactive)
REMARK    1  A    between atoms: C8_8  and  N10_10 
ROOT
HETATM    1  C1  UNL     1     -37.632  14.899  -4.427  1.00 20.00     0.089 C 
HETATM    2  C8  UNL     1     -36.761  15.569  -5.392  1.00 20.00     0.396 C 
HETATM    3  N9  UNL     1     -38.326  14.368  -3.664  1.00 20.00    -0.195 NA
ENDROOT
BRANCH   2   4
HETATM    4  N10 UNL     1     -35.510  15.970  -4.769  1.00 20.00     0.110 N 
HETATM    5  C5  UNL     1     -35.483  15.744  -3.295  1.00 20.00     0.283 C 
HETATM    6  C6  UNL     1     -34.110  15.071  -3.092  1.00 20.00     0.038 C 
HETATM    7  C2  UNL     1     -34.212  13.664  -3.640  1.00 20.00    -0.022 C 
HETATM    8  C4  UNL     1     -33.309  15.707  -4.226  1.00 20.00     0.050 C 
HETATM    9  C3  UNL     1     -34.343  13.780  -4.970  1.00 20.00     0.005 C 
HETATM   10  C7  UNL     1     -34.314  15.261  -5.288  1.00 20.00     0.247 C 
ENDBRANCH   2   4
TORSDOF 1
ENDMDL
MODEL 9
REMARK VINA RESULT:      -4.0     11.548     13.073
REMARK  1 active torsions:
REMARK  status: ('A' for Active; 'I' for Inactive)
REMARK    1  A    between atoms: C8_8  and  N10_10 
ROOT
HETATM    1  C1  UNL     1     -41.695   2.551  -3.217  1.00 20.00     0.089 C 
HETATM    2  C8  UNL     1     -42.518   3.396  -2.351  1.00 20.00     0.396 C 
HETATM    3  N9  UNL     1     -41.044   1.879  -3.902  1.00 20.00    -0.195 NA
ENDROOT
BRANCH   2   4
HETATM    4  N10 UNL     1     -41.858   4.664  -2.087  1.00 20.00     0.110 N 
HETATM    5  C5  UNL     1     -42.805   5.811  -1.973  1.00 20.00     0.283 C 
HETATM    6  C6  UNL     1     -42.299   6.526  -0.702  1.00 20.00     0.038 C 
HETATM    7  C2  UNL     1     -42.681   5.664   0.482  1.00 20.00    -0.022 C 
HETATM    8  C4  UNL     1     -40.810   6.198  -0.762  1.00 20.00     0.050 C 
HETATM    9  C3  UNL     1     -41.938   4.550   0.398  1.00 20.00     0.005 C 
HETATM   10  C7  UNL     1     -41.067   4.692  -0.832  1.00 20.00     0.247 C 
ENDBRANCH   2   4
TORSDOF 1
ENDMDL
