MODEL 1
REMARK VINA RESULT:      -4.0      0.000      0.000
REMARK  2 active torsions:
REMARK  status: ('A' for Active; 'I' for Inactive)
REMARK    1  A    between atoms: C1_1  and  C8_8 
REMARK    2  A    between atoms: C3_3  and  C8_8 
ROOT
HETATM    1  C2  UNL     1     -34.457  17.204  -4.734  1.00 20.00     0.153 A 
HETATM    2  C3  UNL     1     -35.082  15.871  -5.097  1.00 20.00     0.093 A 
HETATM    3  C5  UNL     1     -33.616  17.997  -5.671  1.00 20.00     0.042 C 
HETATM    4  C6  UNL     1     -34.887  15.259  -6.449  1.00 20.00     0.049 C 
HETATM    5  O10 UNL     1     -35.835  17.094  -5.112  1.00 20.00    -0.369 OA
ENDROOT
BRANCH   2   6
HETATM    6  C8  UNL     1     -35.469  14.938  -3.992  1.00 20.00     0.087 C 
HETATM    7  C7  UNL     1     -36.960  14.569  -4.054  1.00 20.00     0.021 C 
BRANCH   6   8
HETATM    8  C1  UNL     1     -34.613  13.664  -4.026  1.00 20.00     0.129 C 
HETATM    9  C4  UNL     1     -33.163  13.814  -3.640  1.00 20.00     0.091 C 
HETATM   10  O9  UNL     1     -35.056  12.576  -4.393  1.00 20.00    -0.298 OA
ENDBRANCH   6   8
ENDBRANCH   2   6
TORSDOF 2
ENDMDL
MODEL 2
REMARK VINA RESULT:      -3.9      2.089      2.589
REMARK  2 active torsions:
REMARK  status: ('A' for Active; 'I' for Inactive)
REMARK    1  A    between atoms: C1_1  and  C8_8 
REMARK    2  A    between atoms: C3_3  and  C8_8 
ROOT
HETATM    1  C2  UNL     1     -34.624  16.387  -1.461  1.00 20.00     0.153 A 
HETATM    2  C3  UNL     1     -34.688  15.951  -2.912  1.00 20.00     0.093 A 
HETATM    3  C5  UNL     1     -33.685  17.426  -0.958  1.00 20.00     0.042 C 
HETATM    4  C6  UNL     1     -33.791  16.552  -3.949  1.00 20.00     0.049 C 
HETATM    5  O10 UNL     1     -35.635  16.875  -2.352  1.00 20.00    -0.369 OA
ENDROOT
BRANCH   2   6
HETATM    6  C8  UNL     1     -35.271  14.610  -3.231  1.00 20.00     0.087 C 
HETATM    7  C7  UNL     1     -36.635  14.731  -3.927  1.00 20.00     0.021 C 
BRANCH   6   8
HETATM    8  C1  UNL     1     -34.309  13.789  -4.102  1.00 20.00     0.129 C 
HETATM    9  C4  UNL     1     -34.725  13.555  -5.533  1.00 20.00     0.091 C 
HETATM   10  O9  UNL     1     -33.270  13.298  -3.662  1.00 20.00    -0.298 OA
ENDBRANCH   6   8
ENDBRANCH   2   6
TORSDOF 2
ENDMDL
MODEL 3
REMARK VINA RESULT:      -3.7      1.404      2.504
REMARK  2 active torsions:
REMARK  status: ('A' for Active; 'I' for Inactive)
REMARK    1  A    between atoms: C1_1  and  C8_8 
REMARK    2  A    between atoms: C3_3  and  C8_8 
ROOT
HETATM    1  C2  UNL     1     -34.561  17.266  -4.598  1.00 20.00     0.153 A 
HETATM    2  C3  UNL     1     -34.543  15.912  -3.914  1.00 20.00     0.093 A 
HETATM    3  C5  UNL     1     -35.635  18.274  -4.391  1.00 20.00     0.042 C 
HETATM    4  C6  UNL     1     -35.627  15.500  -2.969  1.00 20.00     0.049 C 
HETATM    5  O10 UNL     1     -33.746  17.013  -3.446  1.00 20.00    -0.369 OA
ENDROOT
BRANCH   2   6
HETATM    6  C8  UNL     1     -33.742  14.809  -4.533  1.00 20.00     0.087 C 
HETATM    7  C7  UNL     1     -32.845  14.108  -3.501  1.00 20.00     0.021 C 
BRANCH   6   8
HETATM    8  C1  UNL     1     -34.659  13.783  -5.214  1.00 20.00     0.129 C 
HETATM    9  C4  UNL     1     -35.340  14.224  -6.485  1.00 20.00     0.091 C 
HETATM   10  O9  UNL     1     -34.877  12.669  -4.738  1.00 20.00    -0.298 OA
ENDBRANCH   6   8
ENDBRANCH   2   6
TORSDOF 2
ENDMDL
MODEL 4
REMARK VINA RESULT:      -3.7      1.596      2.741
REMARK  2 active torsions:
REMARK  status: ('A' for Active; 'I' for Inactive)
REMARK    1  A    between atoms: C1_1  and  C8_8 
REMARK    2  A    between atoms: C3_3  and  C8_8 
ROOT
HETATM    1  C2  UNL     1     -34.447  16.795  -2.937  1.00 20.00     0.153 A 
HETATM    2  C3  UNL     1     -34.070  15.712  -3.929  1.00 20.00     0.093 A 
HETATM    3  C5  UNL     1     -33.782  16.965  -1.617  1.00 20.00     0.042 C 
HETATM    4  C6  UNL     1     -32.983  14.726  -3.634  1.00 20.00     0.049 C 
HETATM    5  O10 UNL     1     -33.610  17.065  -4.069  1.00 20.00    -0.369 OA
ENDROOT
BRANCH   2   6
HETATM    6  C8  UNL     1     -35.075  15.307  -4.963  1.00 20.00     0.087 C 
HETATM    7  C7  UNL     1     -34.400  14.842  -6.262  1.00 20.00     0.021 C 
BRANCH   6   8
HETATM    8  C1  UNL     1     -35.997  14.202  -4.426  1.00 20.00     0.129 C 
HETATM    9  C4  UNL     1     -37.348  14.637  -3.915  1.00 20.00     0.091 C 
HETATM   10  O9  UNL     1     -35.652  13.022  -4.364  1.00 20.00    -0.298 OA
ENDBRANCH   6   8
ENDBRANCH   2   6
TORSDOF 2
ENDMDL
MODEL 5
REMARK VINA RESULT:      -3.7      1.298      2.667
REMARK  2 active torsions:
REMARK  status: ('A' for Active; 'I' for Inactive)
REMARK    1  A    between atoms: C1_1  and  C8_8 
REMARK    2  A    between atoms: C3_3  and  C8_8 
ROOT
HETATM    1  C2  UNL     1     -36.935  15.463  -5.998  1.00 20.00     0.153 A 
HETATM    2  C3  UNL     1     -35.897  15.433  -4.892  1.00 20.00     0.093 A 
HETATM    3  C5  UNL     1     -38.400  15.407  -5.747  1.00 20.00     0.042 C 
HETATM    4  C6  UNL     1     -36.292  15.343  -3.452  1.00 20.00     0.049 C 
HETATM    5  O10 UNL     1     -36.293  16.657  -5.532  1.00 20.00    -0.369 OA
ENDROOT
BRANCH   2   6
HETATM    6  C8  UNL     1     -34.504  14.999  -5.230  1.00 20.00     0.087 C 
HETATM    7  C7  UNL     1     -33.467  16.067  -4.851  1.00 20.00     0.021 C 
BRANCH   6   8
HETATM    8  C1  UNL     1     -34.163  13.670  -4.542  1.00 20.00     0.129 C 
HETATM    9  C4  UNL     1     -33.023  13.691  -3.556  1.00 20.00     0.091 C 
HETATM   10  O9  UNL     1     -34.748  12.618  -4.804  1.00 20.00    -0.298 OA
ENDBRANCH   6   8
ENDBRANCH   2   6
TORSDOF 2
ENDMDL
MODEL 6
REMARK VINA RESULT:      -3.7      1.957      3.143
REMARK  2 active torsions:
REMARK  status: ('A' for Active; 'I' for Inactive)
REMARK    1  A    between atoms: C1_1  and  C8_8 
REMARK    2  A    between atoms: C3_3  and  C8_8 
ROOT
HETATM    1  C2  UNL     1     -37.111  15.392  -3.433  1.00 20.00     0.153 A 
HETATM    2  C3  UNL     1     -35.956  14.824  -4.237  1.00 20.00     0.093 A 
HETATM    3  C5  UNL     1     -38.198  16.213  -4.028  1.00 20.00     0.042 C 
HETATM    4  C6  UNL     1     -35.839  15.063  -5.710  1.00 20.00     0.049 C 
HETATM    5  O10 UNL     1     -37.089  14.024  -3.862  1.00 20.00    -0.369 OA
ENDROOT
BRANCH   2   6
HETATM    6  C8  UNL     1     -34.695  14.458  -3.518  1.00 20.00     0.087 C 
HETATM    7  C7  UNL     1     -33.946  13.318  -4.226  1.00 20.00     0.021 C 
BRANCH   6   8
HETATM    8  C1  UNL     1     -33.775  15.678  -3.371  1.00 20.00     0.129 C 
HETATM    9  C4  UNL     1     -33.942  16.505  -2.121  1.00 20.00     0.091 C 
HETATM   10  O9  UNL     1     -32.968  16.009  -4.240  1.00 20.00    -0.298 OA
ENDBRANCH   6   8
ENDBRANCH   2   6
TORSDOF 2
ENDMDL
MODEL 7
REMARK VINA RESULT:      -3.7      1.751      2.784
REMARK  2 active torsions:
REMARK  status: ('A' for Active; 'I' for Inactive)
REMARK    1  A    between atoms: C1_1  and  C8_8 
REMARK    2  A    between atoms: C3_3  and  C8_8 
ROOT
HETATM    1  C2  UNL     1     -33.961  16.908  -4.768  1.00 20.00     0.153 A 
HETATM    2  C3  UNL     1     -34.541  15.756  -3.971  1.00 20.00     0.093 A 
HETATM    3  C5  UNL     1     -33.587  18.216  -4.165  1.00 20.00     0.042 C 
HETATM    4  C6  UNL     1     -34.777  15.866  -2.497  1.00 20.00     0.049 C 
HETATM    5  O10 UNL     1     -33.155  15.801  -4.346  1.00 20.00    -0.369 OA
ENDROOT
BRANCH   2   6
HETATM    6  C8  UNL     1     -35.328  14.709  -4.695  1.00 20.00     0.087 C 
HETATM    7  C7  UNL     1     -34.899  13.290  -4.288  1.00 20.00     0.021 C 
BRANCH   6   8
HETATM    8  C1  UNL     1     -36.833  14.891  -4.454  1.00 20.00     0.129 C 
HETATM    9  C4  UNL     1     -37.480  16.093  -5.094  1.00 20.00     0.091 C 
HETATM   10  O9  UNL     1     -37.487  14.131  -3.738  1.00 20.00    -0.298 OA
ENDBRANCH   6   8
ENDBRANCH   2   6
TORSDOF 2
ENDMDL
MODEL 8
REMARK VINA RESULT:      -3.6      2.513      3.348
REMARK  2 active torsions:
REMARK  status: ('A' for Active; 'I' for Inactive)
REMARK    1  A    between atoms: C1_1  and  C8_8 
REMARK    2  A    between atoms: C3_3  and  C8_8 
ROOT
HETATM    1  C2  UNL     1     -33.769  16.910  -1.650  1.00 20.00     0.153 A 
HETATM    2  C3  UNL     1     -34.642  16.336  -2.749  1.00 20.00     0.093 A 
HETATM    3  C5  UNL     1     -33.982  18.256  -1.053  1.00 20.00     0.042 C 
HETATM    4  C6  UNL     1     -35.796  17.105  -3.312  1.00 20.00     0.049 C 
HETATM    5  O10 UNL     1     -34.805  15.960  -1.372  1.00 20.00    -0.369 OA
ENDROOT
BRANCH   2   6
HETATM    6  C8  UNL     1     -34.085  15.245  -3.610  1.00 20.00     0.087 C 
HETATM    7  C7  UNL     1     -35.067  14.071  -3.749  1.00 20.00     0.021 C 
BRANCH   6   8
HETATM    8  C1  UNL     1     -33.710  15.782  -4.998  1.00 20.00     0.129 C 
HETATM    9  C4  UNL     1     -34.390  15.137  -6.180  1.00 20.00     0.091 C 
HETATM   10  O9  UNL     1     -32.863  16.660  -5.163  1.00 20.00    -0.298 OA
ENDBRANCH   6   8
ENDBRANCH   2   6
TORSDOF 2
ENDMDL
MODEL 9
REMARK VINA RESULT:      -3.5      1.916      2.343
REMARK  2 active torsions:
REMARK  status: ('A' for Active; 'I' for Inactive)
REMARK    1  A    between atoms: C1_1  and  C8_8 
REMARK    2  A    between atoms: C3_3  and  C8_8 
ROOT
HETATM    1  C2  UNL     1     -36.447  16.298  -5.186  1.00 20.00     0.153 A 
HETATM    2  C3  UNL     1     -35.152  15.520  -5.314  1.00 20.00     0.093 A 
HETATM    3  C5  UNL     1     -36.732  17.547  -5.942  1.00 20.00     0.042 C 
HETATM    4  C6  UNL     1     -34.056  15.972  -6.229  1.00 20.00     0.049 C 
HETATM    5  O10 UNL     1     -36.352  15.117  -5.993  1.00 20.00    -0.369 OA
ENDROOT
BRANCH   2   6
HETATM    6  C8  UNL     1     -34.754  14.604  -4.199  1.00 20.00     0.087 C 
HETATM    7  C7  UNL     1     -34.432  13.191  -4.710  1.00 20.00     0.021 C 
BRANCH   6   8
HETATM    8  C1  UNL     1     -33.551  15.169  -3.430  1.00 20.00     0.129 C 
HETATM    9  C4  UNL     1     -33.826  16.320  -2.495  1.00 20.00     0.091 C 
HETATM   10  O9  UNL     1     -32.405  14.750  -3.589  1.00 20.00    -0.298 OA
ENDBRANCH   6   8
ENDBRANCH   2   6
TORSDOF 2
ENDMDL
