MODEL 1
REMARK VINA RESULT:      -5.2      0.000      0.000
REMARK  1 active torsions:
REMARK  status: ('A' for Active; 'I' for Inactive)
REMARK    1  A    between atoms: C3_3  and  C9_9 
ROOT
HETATM    1  C1  UNL     1     -35.589  15.370  -6.259  1.00 20.00    -0.030 C 
HETATM    2  C2  UNL     1     -34.329  15.059  -5.917  1.00 20.00    -0.026 C 
HETATM    3  C4  UNL     1     -36.775  14.983  -5.418  1.00 20.00     0.031 C 
HETATM    4  C5  UNL     1     -33.473  15.189  -3.565  1.00 20.00     0.022 C 
HETATM    5  C6  UNL     1     -35.212  13.478  -4.187  1.00 20.00     0.013 C 
HETATM    6  C7  UNL     1     -35.956  15.661  -3.104  1.00 20.00     0.018 C 
HETATM    7  C8  UNL     1     -33.986  14.257  -4.680  1.00 20.00     0.009 C 
HETATM    8  C9  UNL     1     -34.544  15.539  -2.518  1.00 20.00     0.073 C 
HETATM    9  C10 UNL     1     -36.364  14.477  -4.016  1.00 20.00    -0.010 C 
ENDROOT
BRANCH   8  10
HETATM   10  C3  UNL     1     -34.183  16.820  -1.829  1.00 20.00     0.223 C 
HETATM   11  O11 UNL     1     -33.547  17.702  -2.399  1.00 20.00    -0.279 OA
HETATM   12 CL12 UNL     1     -34.766  16.871  -0.193  1.00 20.00    -0.043 Cl
ENDBRANCH   8  10
TORSDOF 1
ENDMDL
MODEL 2
REMARK VINA RESULT:      -5.1      1.207      1.445
REMARK  1 active torsions:
REMARK  status: ('A' for Active; 'I' for Inactive)
REMARK    1  A    between atoms: C3_3  and  C9_9 
ROOT
HETATM    1  C1  UNL     1     -34.350  15.622  -5.982  1.00 20.00    -0.030 C 
HETATM    2  C2  UNL     1     -33.309  15.976  -5.212  1.00 20.00    -0.026 C 
HETATM    3  C4  UNL     1     -35.346  14.574  -5.564  1.00 20.00     0.031 C 
HETATM    4  C5  UNL     1     -33.471  16.249  -2.726  1.00 20.00     0.022 C 
HETATM    5  C6  UNL     1     -33.724  13.971  -3.768  1.00 20.00     0.013 C 
HETATM    6  C7  UNL     1     -35.816  15.296  -3.168  1.00 20.00     0.018 C 
HETATM    7  C8  UNL     1     -33.017  15.329  -3.875  1.00 20.00     0.009 C 
HETATM    8  C9  UNL     1     -34.836  15.860  -2.131  1.00 20.00     0.073 C 
HETATM    9  C10 UNL     1     -35.211  14.194  -4.072  1.00 20.00    -0.010 C 
ENDROOT
BRANCH   8  10
HETATM   10  C3  UNL     1     -35.456  17.047  -1.460  1.00 20.00     0.223 C 
HETATM   11  O11 UNL     1     -36.271  17.762  -2.036  1.00 20.00    -0.279 OA
HETATM   12 CL12 UNL     1     -34.883  17.253   0.167  1.00 20.00    -0.043 Cl
ENDBRANCH   8  10
TORSDOF 1
ENDMDL
MODEL 3
REMARK VINA RESULT:      -5.1      2.804      4.199
REMARK  1 active torsions:
REMARK  status: ('A' for Active; 'I' for Inactive)
REMARK    1  A    between atoms: C3_3  and  C9_9 
ROOT
HETATM    1  C1  UNL     1     -35.024  18.387  -3.497  1.00 20.00    -0.030 C 
HETATM    2  C2  UNL     1     -36.112  17.628  -3.291  1.00 20.00    -0.026 C 
HETATM    3  C4  UNL     1     -33.670  18.027  -2.949  1.00 20.00     0.031 C 
HETATM    4  C5  UNL     1     -36.073  15.123  -3.364  1.00 20.00     0.022 C 
HETATM    5  C6  UNL     1     -34.861  16.355  -1.533  1.00 20.00     0.013 C 
HETATM    6  C7  UNL     1     -33.549  15.559  -3.567  1.00 20.00     0.018 C 
HETATM    7  C8  UNL     1     -36.088  16.366  -2.454  1.00 20.00     0.009 C 
HETATM    8  C9  UNL     1     -34.672  14.515  -3.548  1.00 20.00     0.073 C 
HETATM    9  C10 UNL     1     -33.619  16.581  -2.404  1.00 20.00    -0.010 C 
ENDROOT
BRANCH   8  10
HETATM   10  C3  UNL     1     -34.625  13.717  -4.815  1.00 20.00     0.223 C 
HETATM   11  O11 UNL     1     -34.739  12.495  -4.814  1.00 20.00    -0.279 OA
HETATM   12 CL12 UNL     1     -34.398  14.723  -6.214  1.00 20.00    -0.043 Cl
ENDBRANCH   8  10
TORSDOF 1
ENDMDL
MODEL 4
REMARK VINA RESULT:      -5.0      1.336      2.576
REMARK  1 active torsions:
REMARK  status: ('A' for Active; 'I' for Inactive)
REMARK    1  A    between atoms: C3_3  and  C9_9 
ROOT
HETATM    1  C1  UNL     1     -34.794  13.383  -4.085  1.00 20.00    -0.030 C 
HETATM    2  C2  UNL     1     -35.697  14.221  -4.617  1.00 20.00    -0.026 C 
HETATM    3  C4  UNL     1     -33.380  13.801  -3.784  1.00 20.00     0.031 C 
HETATM    4  C5  UNL     1     -35.906  16.625  -3.941  1.00 20.00     0.022 C 
HETATM    5  C6  UNL     1     -33.853  15.827  -5.160  1.00 20.00     0.013 C 
HETATM    6  C7  UNL     1     -33.783  16.031  -2.621  1.00 20.00     0.018 C 
HETATM    7  C8  UNL     1     -35.368  15.647  -5.004  1.00 20.00     0.009 C 
HETATM    8  C9  UNL     1     -34.833  17.101  -2.947  1.00 20.00     0.073 C 
HETATM    9  C10 UNL     1     -33.187  15.333  -3.869  1.00 20.00    -0.010 C 
ENDROOT
BRANCH   8  10
HETATM   10  C3  UNL     1     -35.482  17.558  -1.676  1.00 20.00     0.223 C 
HETATM   11  O11 UNL     1     -36.423  18.345  -1.679  1.00 20.00    -0.279 OA
HETATM   12 CL12 UNL     1     -34.746  16.846  -0.272  1.00 20.00    -0.043 Cl
ENDBRANCH   8  10
TORSDOF 1
ENDMDL
MODEL 5
REMARK VINA RESULT:      -5.0      2.522      3.447
REMARK  1 active torsions:
REMARK  status: ('A' for Active; 'I' for Inactive)
REMARK    1  A    between atoms: C3_3  and  C9_9 
ROOT
HETATM    1  C1  UNL     1     -33.540  17.537  -4.812  1.00 20.00    -0.030 C 
HETATM    2  C2  UNL     1     -33.727  17.334  -3.499  1.00 20.00    -0.026 C 
HETATM    3  C4  UNL     1     -33.523  16.411  -5.811  1.00 20.00     0.031 C 
HETATM    4  C5  UNL     1     -35.379  15.687  -2.585  1.00 20.00     0.022 C 
HETATM    5  C6  UNL     1     -33.356  14.882  -3.848  1.00 20.00     0.013 C 
HETATM    6  C7  UNL     1     -35.577  15.096  -5.078  1.00 20.00     0.018 C 
HETATM    7  C8  UNL     1     -33.894  15.956  -2.895  1.00 20.00     0.009 C 
HETATM    8  C9  UNL     1     -36.084  14.833  -3.654  1.00 20.00     0.073 C 
HETATM    9  C10 UNL     1     -34.034  15.082  -5.210  1.00 20.00    -0.010 C 
ENDROOT
BRANCH   8  10
HETATM   10  C3  UNL     1     -37.562  15.073  -3.604  1.00 20.00     0.223 C 
HETATM   11  O11 UNL     1     -38.369  14.160  -3.743  1.00 20.00    -0.279 OA
HETATM   12 CL12 UNL     1     -37.945  16.747  -3.335  1.00 20.00    -0.043 Cl
ENDBRANCH   8  10
TORSDOF 1
ENDMDL
MODEL 6
REMARK VINA RESULT:      -4.9      2.991      4.299
REMARK  1 active torsions:
REMARK  status: ('A' for Active; 'I' for Inactive)
REMARK    1  A    between atoms: C3_3  and  C9_9 
ROOT
HETATM    1  C1  UNL     1     -35.081  15.884  -2.476  1.00 20.00    -0.030 C 
HETATM    2  C2  UNL     1     -35.672  14.822  -3.046  1.00 20.00    -0.026 C 
HETATM    3  C4  UNL     1     -33.653  16.265  -2.760  1.00 20.00     0.031 C 
HETATM    4  C5  UNL     1     -35.341  14.192  -5.449  1.00 20.00     0.022 C 
HETATM    5  C6  UNL     1     -33.429  14.018  -3.820  1.00 20.00     0.013 C 
HETATM    6  C7  UNL     1     -33.611  16.085  -5.300  1.00 20.00     0.018 C 
HETATM    7  C8  UNL     1     -34.948  13.886  -3.991  1.00 20.00     0.009 C 
HETATM    8  C9  UNL     1     -34.308  15.053  -6.195  1.00 20.00     0.073 C 
HETATM    9  C10 UNL     1     -33.069  15.502  -3.971  1.00 20.00    -0.010 C 
ENDROOT
BRANCH   8  10
HETATM   10  C3  UNL     1     -34.965  15.758  -7.342  1.00 20.00     0.223 C 
HETATM   11  O11 UNL     1     -34.526  16.814  -7.788  1.00 20.00    -0.279 OA
HETATM   12 CL12 UNL     1     -36.367  14.907  -7.917  1.00 20.00    -0.043 Cl
ENDBRANCH   8  10
TORSDOF 1
ENDMDL
MODEL 7
REMARK VINA RESULT:      -4.9      2.713      3.287
REMARK  1 active torsions:
REMARK  status: ('A' for Active; 'I' for Inactive)
REMARK    1  A    between atoms: C3_3  and  C9_9 
ROOT
HETATM    1  C1  UNL     1     -35.102  13.364  -4.345  1.00 20.00    -0.030 C 
HETATM    2  C2  UNL     1     -33.839  13.774  -4.147  1.00 20.00    -0.026 C 
HETATM    3  C4  UNL     1     -36.293  14.182  -3.925  1.00 20.00     0.031 C 
HETATM    4  C5  UNL     1     -33.097  16.144  -4.480  1.00 20.00     0.022 C 
HETATM    5  C6  UNL     1     -34.685  15.566  -2.614  1.00 20.00     0.013 C 
HETATM    6  C7  UNL     1     -35.624  16.479  -4.800  1.00 20.00     0.018 C 
HETATM    7  C8  UNL     1     -33.495  15.073  -3.448  1.00 20.00     0.009 C 
HETATM    8  C9  UNL     1     -34.233  17.125  -4.816  1.00 20.00     0.073 C 
HETATM    9  C10 UNL     1     -35.909  15.629  -3.537  1.00 20.00    -0.010 C 
ENDROOT
BRANCH   8  10
HETATM   10  C3  UNL     1     -33.992  17.744  -6.159  1.00 20.00     0.223 C 
HETATM   11  O11 UNL     1     -33.487  18.856  -6.277  1.00 20.00    -0.279 OA
HETATM   12 CL12 UNL     1     -34.506  16.710  -7.458  1.00 20.00    -0.043 Cl
ENDBRANCH   8  10
TORSDOF 1
ENDMDL
MODEL 8
REMARK VINA RESULT:      -4.8      2.526      3.473
REMARK  1 active torsions:
REMARK  status: ('A' for Active; 'I' for Inactive)
REMARK    1  A    between atoms: C3_3  and  C9_9 
ROOT
HETATM    1  C1  UNL     1     -32.979  15.726  -4.039  1.00 20.00    -0.030 C 
HETATM    2  C2  UNL     1     -33.418  14.464  -3.915  1.00 20.00    -0.026 C 
HETATM    3  C4  UNL     1     -33.441  16.639  -5.143  1.00 20.00     0.031 C 
HETATM    4  C5  UNL     1     -35.803  13.796  -4.295  1.00 20.00     0.022 C 
HETATM    5  C6  UNL     1     -34.391  14.599  -6.219  1.00 20.00     0.013 C 
HETATM    6  C7  UNL     1     -35.956  16.244  -5.062  1.00 20.00     0.018 C 
HETATM    7  C8  UNL     1     -34.383  13.828  -4.892  1.00 20.00     0.009 C 
HETATM    8  C9  UNL     1     -36.708  14.932  -4.804  1.00 20.00     0.073 C 
HETATM    9  C10 UNL     1     -34.665  16.075  -5.901  1.00 20.00    -0.010 C 
ENDROOT
BRANCH   8  10
HETATM   10  C3  UNL     1     -37.812  15.181  -3.822  1.00 20.00     0.223 C 
HETATM   11  O11 UNL     1     -38.665  14.333  -3.580  1.00 20.00    -0.279 OA
HETATM   12 CL12 UNL     1     -37.712  16.764  -3.113  1.00 20.00    -0.043 Cl
ENDBRANCH   8  10
TORSDOF 1
ENDMDL
MODEL 9
REMARK VINA RESULT:      -4.8      3.153      4.418
REMARK  1 active torsions:
REMARK  status: ('A' for Active; 'I' for Inactive)
REMARK    1  A    between atoms: C3_3  and  C9_9 
ROOT
HETATM    1  C1  UNL     1     -35.009  16.210  -2.621  1.00 20.00    -0.030 C 
HETATM    2  C2  UNL     1     -35.488  14.998  -2.940  1.00 20.00    -0.026 C 
HETATM    3  C4  UNL     1     -33.659  16.693  -3.079  1.00 20.00     0.031 C 
HETATM    4  C5  UNL     1     -35.208  13.962  -5.204  1.00 20.00     0.022 C 
HETATM    5  C6  UNL     1     -33.206  14.326  -3.723  1.00 20.00     0.013 C 
HETATM    6  C7  UNL     1     -33.729  16.036  -5.538  1.00 20.00     0.018 C 
HETATM    7  C8  UNL     1     -34.702  13.989  -3.750  1.00 20.00     0.009 C 
HETATM    8  C9  UNL     1     -34.335  14.778  -6.173  1.00 20.00     0.073 C 
HETATM    9  C10 UNL     1     -33.047  15.785  -4.171  1.00 20.00    -0.010 C 
ENDROOT
BRANCH   8  10
HETATM   10  C3  UNL     1     -35.138  15.170  -7.376  1.00 20.00     0.223 C 
HETATM   11  O11 UNL     1     -35.913  14.388  -7.918  1.00 20.00    -0.279 OA
HETATM   12 CL12 UNL     1     -34.828  16.809  -7.864  1.00 20.00    -0.043 Cl
ENDBRANCH   8  10
TORSDOF 1
ENDMDL
