MODEL 1
REMARK VINA RESULT:      -4.6      0.000      0.000
REMARK  0 active torsions:
REMARK  status: ('A' for Active; 'I' for Inactive)
ROOT
HETATM    1  C1  UNL     1     -33.284   6.102   3.770  1.00 20.00     0.007 C 
HETATM    2  C2  UNL     1     -34.034   6.440   5.919  1.00 20.00     0.226 C 
HETATM    3  C3  UNL     1     -32.450   6.199   2.731  1.00 20.00     0.038 C 
HETATM    4  C4  UNL     1     -34.545   5.284   3.846  1.00 20.00     0.043 C 
HETATM    5  C5  UNL     1     -34.916   5.341   5.349  1.00 20.00     0.083 C 
HETATM    6  C6  UNL     1     -35.653   5.884   2.981  1.00 20.00     0.017 C 
HETATM    7  C7  UNL     1     -34.612   4.030   6.066  1.00 20.00     0.020 C 
HETATM    8  N8  UNL     1     -33.099   6.759   4.951  1.00 20.00    -0.331 N 
HETATM    9  O9  UNL     1     -34.120   6.903   7.046  1.00 20.00    -0.273 OA
HETATM   10  H20 UNL     1     -32.343   7.419   5.098  1.00 20.00     0.168 HD
ENDROOT
TORSDOF 0
ENDMDL
MODEL 2
REMARK VINA RESULT:      -4.6     12.316     13.056
REMARK  0 active torsions:
REMARK  status: ('A' for Active; 'I' for Inactive)
ROOT
HETATM    1  C1  UNL     1     -34.001  15.919  -4.693  1.00 20.00     0.007 C 
HETATM    2  C2  UNL     1     -34.739  13.746  -4.526  1.00 20.00     0.226 C 
HETATM    3  C3  UNL     1     -33.348  16.957  -5.224  1.00 20.00     0.038 C 
HETATM    4  C4  UNL     1     -34.933  15.943  -3.513  1.00 20.00     0.043 C 
HETATM    5  C5  UNL     1     -35.588  14.539  -3.547  1.00 20.00     0.083 C 
HETATM    6  C6  UNL     1     -34.173  16.164  -2.205  1.00 20.00     0.017 C 
HETATM    7  C7  UNL     1     -37.026  14.589  -4.054  1.00 20.00     0.020 C 
HETATM    8  N8  UNL     1     -33.906  14.644  -5.169  1.00 20.00    -0.331 N 
HETATM    9  O9  UNL     1     -34.830  12.544  -4.730  1.00 20.00    -0.273 OA
HETATM   10  H20 UNL     1     -33.280  14.386  -5.924  1.00 20.00     0.168 HD
ENDROOT
TORSDOF 0
ENDMDL
MODEL 3
REMARK VINA RESULT:      -4.4      1.698      3.107
REMARK  0 active torsions:
REMARK  status: ('A' for Active; 'I' for Inactive)
ROOT
HETATM    1  C1  UNL     1     -33.866   6.436   5.756  1.00 20.00     0.007 C 
HETATM    2  C2  UNL     1     -33.530   5.956   3.531  1.00 20.00     0.226 C 
HETATM    3  C3  UNL     1     -33.686   7.075   6.916  1.00 20.00     0.038 C 
HETATM    4  C4  UNL     1     -34.894   5.380   5.454  1.00 20.00     0.043 C 
HETATM    5  C5  UNL     1     -34.807   5.227   3.915  1.00 20.00     0.083 C 
HETATM    6  C6  UNL     1     -34.566   4.063   6.158  1.00 20.00     0.017 C 
HETATM    7  C7  UNL     1     -35.990   5.878   3.206  1.00 20.00     0.020 C 
HETATM    8  N8  UNL     1     -33.109   6.662   4.644  1.00 20.00    -0.331 N 
HETATM    9  O9  UNL     1     -33.016   5.948   2.423  1.00 20.00    -0.273 OA
HETATM   10  H20 UNL     1     -32.313   7.290   4.642  1.00 20.00     0.168 HD
ENDROOT
TORSDOF 0
ENDMDL
MODEL 4
REMARK VINA RESULT:      -4.3     11.828     12.777
REMARK  0 active torsions:
REMARK  status: ('A' for Active; 'I' for Inactive)
ROOT
HETATM    1  C1  UNL     1     -34.703  16.179  -2.141  1.00 20.00     0.007 C 
HETATM    2  C2  UNL     1     -36.006  14.822  -3.465  1.00 20.00     0.226 C 
HETATM    3  C3  UNL     1     -34.375  16.890  -1.058  1.00 20.00     0.038 C 
HETATM    4  C4  UNL     1     -33.839  15.907  -3.342  1.00 20.00     0.043 C 
HETATM    5  C5  UNL     1     -34.632  14.824  -4.114  1.00 20.00     0.083 C 
HETATM    6  C6  UNL     1     -33.651  17.164  -4.192  1.00 20.00     0.017 C 
HETATM    7  C7  UNL     1     -34.005  13.441  -3.968  1.00 20.00     0.020 C 
HETATM    8  N8  UNL     1     -35.917  15.582  -2.313  1.00 20.00    -0.331 N 
HETATM    9  O9  UNL     1     -36.982  14.211  -3.875  1.00 20.00    -0.273 OA
HETATM   10  H20 UNL     1     -36.680  15.690  -1.652  1.00 20.00     0.168 HD
ENDROOT
TORSDOF 0
ENDMDL
MODEL 5
REMARK VINA RESULT:      -4.2     12.493     13.460
REMARK  0 active torsions:
REMARK  status: ('A' for Active; 'I' for Inactive)
ROOT
HETATM    1  C1  UNL     1     -35.740  16.677  -3.233  1.00 20.00     0.007 C 
HETATM    2  C2  UNL     1     -33.727  16.398  -4.310  1.00 20.00     0.226 C 
HETATM    3  C3  UNL     1     -37.002  17.087  -3.074  1.00 20.00     0.038 C 
HETATM    4  C4  UNL     1     -34.947  15.805  -2.298  1.00 20.00     0.043 C 
HETATM    5  C5  UNL     1     -33.689  15.445  -3.127  1.00 20.00     0.083 C 
HETATM    6  C6  UNL     1     -34.569  16.555  -1.020  1.00 20.00     0.017 C 
HETATM    7  C7  UNL     1     -33.730  14.008  -3.637  1.00 20.00     0.020 C 
HETATM    8  N8  UNL     1     -34.968  17.008  -4.307  1.00 20.00    -0.331 N 
HETATM    9  O9  UNL     1     -32.833  16.544  -5.131  1.00 20.00    -0.273 OA
HETATM   10  H20 UNL     1     -35.282  17.644  -5.032  1.00 20.00     0.168 HD
ENDROOT
TORSDOF 0
ENDMDL
MODEL 6
REMARK VINA RESULT:      -4.2     12.140     13.132
REMARK  0 active torsions:
REMARK  status: ('A' for Active; 'I' for Inactive)
ROOT
HETATM    1  C1  UNL     1     -34.528  15.555  -3.182  1.00 20.00     0.007 C 
HETATM    2  C2  UNL     1     -34.819  13.674  -4.474  1.00 20.00     0.226 C 
HETATM    3  C3  UNL     1     -34.054  16.290  -2.172  1.00 20.00     0.038 C 
HETATM    4  C4  UNL     1     -35.357  16.037  -4.341  1.00 20.00     0.043 C 
HETATM    5  C5  UNL     1     -35.358  14.825  -5.306  1.00 20.00     0.083 C 
HETATM    6  C6  UNL     1     -36.778  16.393  -3.902  1.00 20.00     0.017 C 
HETATM    7  C7  UNL     1     -34.446  15.048  -6.508  1.00 20.00     0.020 C 
HETATM    8  N8  UNL     1     -34.316  14.213  -3.303  1.00 20.00    -0.331 N 
HETATM    9  O9  UNL     1     -34.796  12.501  -4.817  1.00 20.00    -0.273 OA
HETATM   10  H20 UNL     1     -33.834  13.668  -2.597  1.00 20.00     0.168 HD
ENDROOT
TORSDOF 0
ENDMDL
MODEL 7
REMARK VINA RESULT:      -4.2     11.887     12.829
REMARK  0 active torsions:
REMARK  status: ('A' for Active; 'I' for Inactive)
ROOT
HETATM    1  C1  UNL     1     -34.521  14.304  -3.677  1.00 20.00     0.007 C 
HETATM    2  C2  UNL     1     -36.809  14.493  -3.813  1.00 20.00     0.226 C 
HETATM    3  C3  UNL     1     -33.330  13.706  -3.770  1.00 20.00     0.038 C 
HETATM    4  C4  UNL     1     -34.785  15.750  -3.355  1.00 20.00     0.043 C 
HETATM    5  C5  UNL     1     -36.294  15.914  -3.665  1.00 20.00     0.083 C 
HETATM    6  C6  UNL     1     -34.486  16.059  -1.888  1.00 20.00     0.017 C 
HETATM    7  C7  UNL     1     -36.533  16.674  -4.965  1.00 20.00     0.020 C 
HETATM    8  N8  UNL     1     -35.707  13.659  -3.867  1.00 20.00    -0.331 N 
HETATM    9  O9  UNL     1     -37.985  14.173  -3.916  1.00 20.00    -0.273 OA
HETATM   10  H20 UNL     1     -35.767  12.660  -4.031  1.00 20.00     0.168 HD
ENDROOT
TORSDOF 0
ENDMDL
MODEL 8
REMARK VINA RESULT:      -4.1     12.651     13.610
REMARK  0 active torsions:
REMARK  status: ('A' for Active; 'I' for Inactive)
ROOT
HETATM    1  C1  UNL     1     -34.433  15.813  -5.929  1.00 20.00     0.007 C 
HETATM    2  C2  UNL     1     -34.738  13.767  -4.924  1.00 20.00     0.226 C 
HETATM    3  C3  UNL     1     -34.188  16.667  -6.927  1.00 20.00     0.038 C 
HETATM    4  C4  UNL     1     -34.830  16.158  -4.520  1.00 20.00     0.043 C 
HETATM    5  C5  UNL     1     -35.245  14.790  -3.922  1.00 20.00     0.083 C 
HETATM    6  C6  UNL     1     -33.662  16.768  -3.744  1.00 20.00     0.017 C 
HETATM    7  C7  UNL     1     -36.758  14.658  -3.788  1.00 20.00     0.020 C 
HETATM    8  N8  UNL     1     -34.353  14.458  -6.058  1.00 20.00    -0.331 N 
HETATM    9  O9  UNL     1     -34.732  12.556  -4.758  1.00 20.00    -0.273 OA
HETATM   10  H20 UNL     1     -34.037  14.006  -6.910  1.00 20.00     0.168 HD
ENDROOT
TORSDOF 0
ENDMDL
MODEL 9
REMARK VINA RESULT:      -4.0     11.766     12.730
REMARK  0 active torsions:
REMARK  status: ('A' for Active; 'I' for Inactive)
ROOT
HETATM    1  C1  UNL     1     -36.372  15.102  -3.564  1.00 20.00     0.007 C 
HETATM    2  C2  UNL     1     -34.819  15.989  -2.118  1.00 20.00     0.226 C 
HETATM    3  C3  UNL     1     -37.588  14.837  -4.049  1.00 20.00     0.038 C 
HETATM    4  C4  UNL     1     -35.051  14.764  -4.200  1.00 20.00     0.043 C 
HETATM    5  C5  UNL     1     -34.030  15.552  -3.341  1.00 20.00     0.083 C 
HETATM    6  C6  UNL     1     -34.772  13.262  -4.147  1.00 20.00     0.017 C 
HETATM    7  C7  UNL     1     -33.502  16.786  -4.065  1.00 20.00     0.020 C 
HETATM    8  N8  UNL     1     -36.154  15.738  -2.378  1.00 20.00    -0.331 N 
HETATM    9  O9  UNL     1     -34.345  16.513  -1.120  1.00 20.00    -0.273 OA
HETATM   10  H20 UNL     1     -36.906  15.999  -1.749  1.00 20.00     0.168 HD
ENDROOT
TORSDOF 0
ENDMDL
