MODEL 1
REMARK VINA RESULT:      -5.0      0.000      0.000
REMARK  4 active torsions:
REMARK  status: ('A' for Active; 'I' for Inactive)
REMARK    1  A    between atoms: C1_1  and  C4_4 
REMARK    2  A    between atoms: C5_5  and  C8_8 
REMARK    3  A    between atoms: C8_8  and  C10_10 
REMARK    4  A    between atoms: C9_9  and  C10_10 
ROOT
HETATM    1  C2  UNL     1     -34.374   4.969   2.812  1.00 20.00     0.016 C 
HETATM    2  C3  UNL     1     -34.960   6.772   3.827  1.00 20.00     0.016 C 
HETATM    3  C4  UNL     1     -35.277   5.273   4.027  1.00 20.00     0.055 C 
HETATM    4  C5  UNL     1     -33.753   6.378   2.945  1.00 20.00    -0.013 C 
ENDROOT
BRANCH   4   5
HETATM    5  C8  UNL     1     -32.388   6.449   3.610  1.00 20.00     0.005 C 
BRANCH   5   6
HETATM    6  C10 UNL     1     -31.619   7.706   3.193  1.00 20.00     0.000 C 
BRANCH   6   7
HETATM    7  C9  UNL     1     -31.955   8.120   1.762  1.00 20.00    -0.005 C 
HETATM    8  C7  UNL     1     -32.410   9.569   1.693  1.00 20.00     0.005 C 
ENDBRANCH   6   7
ENDBRANCH   5   6
ENDBRANCH   4   5
BRANCH   3   9
HETATM    9  C1  UNL     1     -34.822   4.692   5.323  1.00 20.00     0.127 C 
HETATM   10  C6  UNL     1     -34.473   5.667   6.415  1.00 20.00     0.091 C 
HETATM   11  O11 UNL     1     -34.738   3.477   5.492  1.00 20.00    -0.298 OA
ENDBRANCH   3   9
TORSDOF 4
ENDMDL
MODEL 2
REMARK VINA RESULT:      -4.8     11.295     12.036
REMARK  4 active torsions:
REMARK  status: ('A' for Active; 'I' for Inactive)
REMARK    1  A    between atoms: C1_1  and  C4_4 
REMARK    2  A    between atoms: C5_5  and  C8_8 
REMARK    3  A    between atoms: C8_8  and  C10_10 
REMARK    4  A    between atoms: C9_9  and  C10_10 
ROOT
HETATM    1  C2  UNL     1     -33.105  15.070  -3.522  1.00 20.00     0.016 C 
HETATM    2  C3  UNL     1     -34.608  16.406  -4.283  1.00 20.00     0.016 C 
HETATM    3  C4  UNL     1     -34.197  14.952  -4.608  1.00 20.00     0.055 C 
HETATM    4  C5  UNL     1     -33.836  16.305  -2.949  1.00 20.00    -0.013 C 
ENDROOT
BRANCH   4   5
HETATM    5  C8  UNL     1     -34.676  16.069  -1.705  1.00 20.00     0.005 C 
BRANCH   5   6
HETATM    6  C10 UNL     1     -34.335  17.064  -0.592  1.00 20.00     0.000 C 
BRANCH   6   7
HETATM    7  C9  UNL     1     -33.471  18.212  -1.113  1.00 20.00    -0.005 C 
HETATM    8  C7  UNL     1     -32.516  18.719  -0.044  1.00 20.00     0.005 C 
ENDBRANCH   6   7
ENDBRANCH   5   6
ENDBRANCH   4   5
BRANCH   3   9
HETATM    9  C1  UNL     1     -35.243  13.921  -4.352  1.00 20.00     0.127 C 
HETATM   10  C6  UNL     1     -36.655  14.416  -4.191  1.00 20.00     0.091 C 
HETATM   11  O11 UNL     1     -34.966  12.725  -4.280  1.00 20.00    -0.298 OA
ENDBRANCH   3   9
TORSDOF 4
ENDMDL
MODEL 3
REMARK VINA RESULT:      -4.5     11.462     12.450
REMARK  4 active torsions:
REMARK  status: ('A' for Active; 'I' for Inactive)
REMARK    1  A    between atoms: C1_1  and  C4_4 
REMARK    2  A    between atoms: C5_5  and  C8_8 
REMARK    3  A    between atoms: C8_8  and  C10_10 
REMARK    4  A    between atoms: C9_9  and  C10_10 
ROOT
HETATM    1  C2  UNL     1     -35.869  14.395  -3.802  1.00 20.00     0.016 C 
HETATM    2  C3  UNL     1     -33.886  13.677  -4.217  1.00 20.00     0.016 C 
HETATM    3  C4  UNL     1     -35.206  13.717  -5.020  1.00 20.00     0.055 C 
HETATM    4  C5  UNL     1     -34.466  14.732  -3.249  1.00 20.00    -0.013 C 
ENDROOT
BRANCH   4   5
HETATM    5  C8  UNL     1     -33.991  16.162  -3.453  1.00 20.00     0.005 C 
BRANCH   5   6
HETATM    6  C10 UNL     1     -33.729  16.867  -2.120  1.00 20.00     0.000 C 
BRANCH   6   7
HETATM    7  C9  UNL     1     -34.740  16.446  -1.055  1.00 20.00    -0.005 C 
HETATM    8  C7  UNL     1     -34.693  17.369   0.153  1.00 20.00     0.005 C 
ENDBRANCH   6   7
ENDBRANCH   5   6
ENDBRANCH   4   5
BRANCH   3   9
HETATM    9  C1  UNL     1     -35.170  14.536  -6.266  1.00 20.00     0.127 C 
HETATM   10  C6  UNL     1     -36.494  15.011  -6.801  1.00 20.00     0.091 C 
HETATM   11  O11 UNL     1     -34.111  14.812  -6.827  1.00 20.00    -0.298 OA
ENDBRANCH   3   9
TORSDOF 4
ENDMDL
MODEL 4
REMARK VINA RESULT:      -4.3      2.240      4.979
REMARK  4 active torsions:
REMARK  status: ('A' for Active; 'I' for Inactive)
REMARK    1  A    between atoms: C1_1  and  C4_4 
REMARK    2  A    between atoms: C5_5  and  C8_8 
REMARK    3  A    between atoms: C8_8  and  C10_10 
REMARK    4  A    between atoms: C9_9  and  C10_10 
ROOT
HETATM    1  C2  UNL     1     -32.122   5.985   2.659  1.00 20.00     0.016 C 
HETATM    2  C3  UNL     1     -32.385   7.339   4.309  1.00 20.00     0.016 C 
HETATM    3  C4  UNL     1     -31.666   7.433   2.944  1.00 20.00     0.055 C 
HETATM    4  C5  UNL     1     -33.167   6.112   3.789  1.00 20.00    -0.013 C 
ENDROOT
BRANCH   4   5
HETATM    5  C8  UNL     1     -34.600   6.369   3.351  1.00 20.00     0.005 C 
BRANCH   5   6
HETATM    6  C10 UNL     1     -35.570   5.351   3.958  1.00 20.00     0.000 C 
BRANCH   6   7
HETATM    7  C9  UNL     1     -34.843   4.355   4.861  1.00 20.00    -0.005 C 
HETATM    8  C7  UNL     1     -35.062   4.675   6.331  1.00 20.00     0.005 C 
ENDBRANCH   6   7
ENDBRANCH   5   6
ENDBRANCH   4   5
BRANCH   3   9
HETATM    9  C1  UNL     1     -32.202   8.466   2.011  1.00 20.00     0.127 C 
HETATM   10  C6  UNL     1     -31.767   8.369   0.574  1.00 20.00     0.091 C 
HETATM   11  O11 UNL     1     -32.964   9.351   2.396  1.00 20.00    -0.298 OA
ENDBRANCH   3   9
TORSDOF 4
ENDMDL
MODEL 5
REMARK VINA RESULT:      -4.2     10.846     12.543
REMARK  4 active torsions:
REMARK  status: ('A' for Active; 'I' for Inactive)
REMARK    1  A    between atoms: C1_1  and  C4_4 
REMARK    2  A    between atoms: C5_5  and  C8_8 
REMARK    3  A    between atoms: C8_8  and  C10_10 
REMARK    4  A    between atoms: C9_9  and  C10_10 
ROOT
HETATM    1  C2  UNL     1     -34.003  15.876  -5.584  1.00 20.00     0.016 C 
HETATM    2  C3  UNL     1     -35.957  15.053  -5.938  1.00 20.00     0.016 C 
HETATM    3  C4  UNL     1     -34.546  14.444  -5.780  1.00 20.00     0.055 C 
HETATM    4  C5  UNL     1     -35.441  16.363  -5.300  1.00 20.00    -0.013 C 
ENDROOT
BRANCH   4   5
HETATM    5  C8  UNL     1     -35.799  16.581  -3.839  1.00 20.00     0.005 C 
BRANCH   5   6
HETATM    6  C10 UNL     1     -35.145  17.848  -3.279  1.00 20.00     0.000 C 
BRANCH   6   7
HETATM    7  C9  UNL     1     -34.094  17.516  -2.222  1.00 20.00    -0.005 C 
HETATM    8  C7  UNL     1     -34.574  16.417  -1.287  1.00 20.00     0.005 C 
ENDBRANCH   6   7
ENDBRANCH   5   6
ENDBRANCH   4   5
BRANCH   3   9
HETATM    9  C1  UNL     1     -34.373  13.530  -4.614  1.00 20.00     0.127 C 
HETATM   10  C6  UNL     1     -33.221  13.824  -3.691  1.00 20.00     0.091 C 
HETATM   11  O11 UNL     1     -35.135  12.586  -4.415  1.00 20.00    -0.298 OA
ENDBRANCH   3   9
TORSDOF 4
ENDMDL
MODEL 6
REMARK VINA RESULT:      -4.2     11.274     12.614
REMARK  4 active torsions:
REMARK  status: ('A' for Active; 'I' for Inactive)
REMARK    1  A    between atoms: C1_1  and  C4_4 
REMARK    2  A    between atoms: C5_5  and  C8_8 
REMARK    3  A    between atoms: C8_8  and  C10_10 
REMARK    4  A    between atoms: C9_9  and  C10_10 
ROOT
HETATM    1  C2  UNL     1     -34.619  13.906  -3.717  1.00 20.00     0.016 C 
HETATM    2  C3  UNL     1     -33.238  15.503  -4.121  1.00 20.00     0.016 C 
HETATM    3  C4  UNL     1     -34.170  14.639  -5.000  1.00 20.00     0.055 C 
HETATM    4  C5  UNL     1     -34.038  15.064  -2.875  1.00 20.00    -0.013 C 
ENDROOT
BRANCH   4   5
HETATM    5  C8  UNL     1     -35.042  16.070  -2.336  1.00 20.00     0.005 C 
BRANCH   5   6
HETATM    6  C10 UNL     1     -34.655  16.564  -0.939  1.00 20.00     0.000 C 
BRANCH   6   7
HETATM    7  C9  UNL     1     -33.567  17.635  -1.006  1.00 20.00    -0.005 C 
HETATM    8  C7  UNL     1     -33.445  18.387   0.310  1.00 20.00     0.005 C 
ENDBRANCH   6   7
ENDBRANCH   5   6
ENDBRANCH   4   5
BRANCH   3   9
HETATM    9  C1  UNL     1     -35.243  15.386  -5.717  1.00 20.00     0.127 C 
HETATM   10  C6  UNL     1     -34.805  16.543  -6.574  1.00 20.00     0.091 C 
HETATM   11  O11 UNL     1     -36.428  15.070  -5.617  1.00 20.00    -0.298 OA
ENDBRANCH   3   9
TORSDOF 4
ENDMDL
MODEL 7
REMARK VINA RESULT:      -4.1     10.949     12.934
REMARK  4 active torsions:
REMARK  status: ('A' for Active; 'I' for Inactive)
REMARK    1  A    between atoms: C1_1  and  C4_4 
REMARK    2  A    between atoms: C5_5  and  C8_8 
REMARK    3  A    between atoms: C8_8  and  C10_10 
REMARK    4  A    between atoms: C9_9  and  C10_10 
ROOT
HETATM    1  C2  UNL     1     -35.451  15.950  -3.880  1.00 20.00     0.016 C 
HETATM    2  C3  UNL     1     -33.650  15.979  -2.706  1.00 20.00     0.016 C 
HETATM    3  C4  UNL     1     -34.662  14.878  -3.096  1.00 20.00     0.055 C 
HETATM    4  C5  UNL     1     -34.207  16.866  -3.842  1.00 20.00    -0.013 C 
ENDROOT
BRANCH   4   5
HETATM    5  C8  UNL     1     -33.377  16.924  -5.114  1.00 20.00     0.005 C 
BRANCH   5   6
HETATM    6  C10 UNL     1     -33.659  18.197  -5.917  1.00 20.00     0.000 C 
BRANCH   6   7
HETATM    7  C9  UNL     1     -34.703  17.952  -7.006  1.00 20.00    -0.005 C 
HETATM    8  C7  UNL     1     -34.645  16.523  -7.521  1.00 20.00     0.005 C 
ENDBRANCH   6   7
ENDBRANCH   5   6
ENDBRANCH   4   5
BRANCH   3   9
HETATM    9  C1  UNL     1     -34.107  13.764  -3.918  1.00 20.00     0.127 C 
HETATM   10  C6  UNL     1     -34.883  13.382  -5.150  1.00 20.00     0.091 C 
HETATM   11  O11 UNL     1     -33.066  13.189  -3.607  1.00 20.00    -0.298 OA
ENDBRANCH   3   9
TORSDOF 4
ENDMDL
MODEL 8
REMARK VINA RESULT:      -4.0     11.258     12.896
REMARK  4 active torsions:
REMARK  status: ('A' for Active; 'I' for Inactive)
REMARK    1  A    between atoms: C1_1  and  C4_4 
REMARK    2  A    between atoms: C5_5  and  C8_8 
REMARK    3  A    between atoms: C8_8  and  C10_10 
REMARK    4  A    between atoms: C9_9  and  C10_10 
ROOT
HETATM    1  C2  UNL     1     -34.531  13.191  -4.829  1.00 20.00     0.016 C 
HETATM    2  C3  UNL     1     -35.863  14.863  -4.599  1.00 20.00     0.016 C 
HETATM    3  C4  UNL     1     -34.812  14.192  -3.687  1.00 20.00     0.055 C 
HETATM    4  C5  UNL     1     -35.232  14.151  -5.816  1.00 20.00    -0.013 C 
ENDROOT
BRANCH   4   5
HETATM    5  C8  UNL     1     -34.320  14.998  -6.689  1.00 20.00     0.005 C 
BRANCH   5   6
HETATM    6  C10 UNL     1     -35.093  15.681  -7.821  1.00 20.00     0.000 C 
BRANCH   6   7
HETATM    7  C9  UNL     1     -35.172  17.192  -7.614  1.00 20.00    -0.005 C 
HETATM    8  C7  UNL     1     -34.217  17.655  -6.525  1.00 20.00     0.005 C 
ENDBRANCH   6   7
ENDBRANCH   5   6
ENDBRANCH   4   5
BRANCH   3   9
HETATM    9  C1  UNL     1     -33.660  15.056  -3.297  1.00 20.00     0.127 C 
HETATM   10  C6  UNL     1     -33.981  16.288  -2.496  1.00 20.00     0.091 C 
HETATM   11  O11 UNL     1     -32.505  14.773  -3.613  1.00 20.00    -0.298 OA
ENDBRANCH   3   9
TORSDOF 4
ENDMDL
MODEL 9
REMARK VINA RESULT:      -3.9      9.638     10.506
REMARK  4 active torsions:
REMARK  status: ('A' for Active; 'I' for Inactive)
REMARK    1  A    between atoms: C1_1  and  C4_4 
REMARK    2  A    between atoms: C5_5  and  C8_8 
REMARK    3  A    between atoms: C8_8  and  C10_10 
REMARK    4  A    between atoms: C9_9  and  C10_10 
ROOT
HETATM    1  C2  UNL     1     -43.106   6.671  -0.680  1.00 20.00     0.016 C 
HETATM    2  C3  UNL     1     -41.033   7.219  -0.832  1.00 20.00     0.016 C 
HETATM    3  C4  UNL     1     -41.781   5.974  -0.303  1.00 20.00     0.055 C 
HETATM    4  C5  UNL     1     -42.316   7.646  -1.580  1.00 20.00    -0.013 C 
ENDROOT
BRANCH   4   5
HETATM    5  C8  UNL     1     -42.349   7.358  -3.072  1.00 20.00     0.005 C 
BRANCH   5   6
HETATM    6  C10 UNL     1     -42.859   8.561  -3.870  1.00 20.00     0.000 C 
BRANCH   6   7
HETATM    7  C9  UNL     1     -41.966   8.853  -5.075  1.00 20.00    -0.005 C 
HETATM    8  C7  UNL     1     -41.964  10.334  -5.420  1.00 20.00     0.005 C 
ENDBRANCH   6   7
ENDBRANCH   5   6
ENDBRANCH   4   5
BRANCH   3   9
HETATM    9  C1  UNL     1     -41.498   4.703  -1.030  1.00 20.00     0.127 C 
HETATM   10  C6  UNL     1     -42.689   3.878  -1.437  1.00 20.00     0.091 C 
HETATM   11  O11 UNL     1     -40.349   4.348  -1.287  1.00 20.00    -0.298 OA
ENDBRANCH   3   9
TORSDOF 4
ENDMDL
