MODEL 1
REMARK VINA RESULT:      -4.6      0.000      0.000
REMARK  2 active torsions:
REMARK  status: ('A' for Active; 'I' for Inactive)
REMARK    1  A    between atoms: C2_2  and  C7_7 
REMARK    2  A    between atoms: C6_6  and  C7_7 
ROOT
HETATM    1  C1  UNL     1     -34.580   4.825   5.770  1.00 20.00     0.064 C 
HETATM    2  C4  UNL     1     -33.810   7.037   6.523  1.00 20.00     0.026 C 
HETATM    3  C6  UNL     1     -33.680   5.953   5.450  1.00 20.00     0.099 C 
HETATM    4  N8  UNL     1     -35.286   3.939   6.022  1.00 20.00    -0.197 NA
ENDROOT
BRANCH   3   5
HETATM    5  C7  UNL     1     -33.936   6.462   4.012  1.00 20.00     0.068 C 
HETATM    6  C5  UNL     1     -34.979   5.652   3.236  1.00 20.00     0.019 C 
BRANCH   5   7
HETATM    7  C2  UNL     1     -32.626   6.531   3.224  1.00 20.00     0.128 C 
HETATM    8  C3  UNL     1     -32.273   7.857   2.599  1.00 20.00     0.091 C 
HETATM    9  O9  UNL     1     -31.892   5.552   3.076  1.00 20.00    -0.298 OA
ENDBRANCH   5   7
ENDBRANCH   3   5
TORSDOF 2
ENDMDL
MODEL 2
REMARK VINA RESULT:      -4.4     11.772     12.259
REMARK  2 active torsions:
REMARK  status: ('A' for Active; 'I' for Inactive)
REMARK    1  A    between atoms: C2_2  and  C7_7 
REMARK    2  A    between atoms: C6_6  and  C7_7 
ROOT
HETATM    1  C1  UNL     1     -34.773  16.119  -1.873  1.00 20.00     0.064 C 
HETATM    2  C4  UNL     1     -36.553  15.183  -3.288  1.00 20.00     0.026 C 
HETATM    3  C6  UNL     1     -35.072  15.557  -3.206  1.00 20.00     0.099 C 
HETATM    4  N8  UNL     1     -34.537  16.562  -0.826  1.00 20.00    -0.197 NA
ENDROOT
BRANCH   3   5
HETATM    5  C7  UNL     1     -34.112  14.388  -3.531  1.00 20.00     0.068 C 
HETATM    6  C5  UNL     1     -32.635  14.788  -3.595  1.00 20.00     0.019 C 
BRANCH   5   7
HETATM    7  C2  UNL     1     -34.529  13.694  -4.830  1.00 20.00     0.128 C 
HETATM    8  C3  UNL     1     -34.518  14.529  -6.085  1.00 20.00     0.091 C 
HETATM    9  O9  UNL     1     -34.885  12.515  -4.863  1.00 20.00    -0.298 OA
ENDBRANCH   5   7
ENDBRANCH   3   5
TORSDOF 2
ENDMDL
MODEL 3
REMARK VINA RESULT:      -4.3     12.027     12.668
REMARK  2 active torsions:
REMARK  status: ('A' for Active; 'I' for Inactive)
REMARK    1  A    between atoms: C2_2  and  C7_7 
REMARK    2  A    between atoms: C6_6  and  C7_7 
ROOT
HETATM    1  C1  UNL     1     -33.794  16.708  -4.040  1.00 20.00     0.064 C 
HETATM    2  C4  UNL     1     -34.319  16.531  -1.643  1.00 20.00     0.026 C 
HETATM    3  C6  UNL     1     -34.560  15.941  -3.035  1.00 20.00     0.099 C 
HETATM    4  N8  UNL     1     -33.194  17.310  -4.831  1.00 20.00    -0.197 NA
ENDROOT
BRANCH   3   5
HETATM    5  C7  UNL     1     -34.237  14.432  -3.140  1.00 20.00     0.068 C 
HETATM    6  C5  UNL     1     -32.814  14.126  -3.618  1.00 20.00     0.019 C 
BRANCH   5   7
HETATM    7  C2  UNL     1     -35.259  13.723  -4.031  1.00 20.00     0.128 C 
HETATM    8  C3  UNL     1     -36.617  14.367  -4.159  1.00 20.00     0.091 C 
HETATM    9  O9  UNL     1     -35.010  12.663  -4.606  1.00 20.00    -0.298 OA
ENDBRANCH   5   7
ENDBRANCH   3   5
TORSDOF 2
ENDMDL
MODEL 4
REMARK VINA RESULT:      -4.3      2.739      4.153
REMARK  2 active torsions:
REMARK  status: ('A' for Active; 'I' for Inactive)
REMARK    1  A    between atoms: C2_2  and  C7_7 
REMARK    2  A    between atoms: C6_6  and  C7_7 
ROOT
HETATM    1  C1  UNL     1     -32.429   7.220   2.904  1.00 20.00     0.064 C 
HETATM    2  C4  UNL     1     -33.545   5.085   2.405  1.00 20.00     0.026 C 
HETATM    3  C6  UNL     1     -33.005   6.000   3.507  1.00 20.00     0.099 C 
HETATM    4  N8  UNL     1     -31.976   8.178   2.431  1.00 20.00    -0.197 NA
ENDROOT
BRANCH   3   5
HETATM    5  C7  UNL     1     -34.052   6.367   4.585  1.00 20.00     0.068 C 
HETATM    6  C5  UNL     1     -33.452   6.701   5.954  1.00 20.00     0.019 C 
BRANCH   5   7
HETATM    7  C2  UNL     1     -35.096   5.257   4.721  1.00 20.00     0.128 C 
HETATM    8  C3  UNL     1     -34.838   4.200   5.766  1.00 20.00     0.091 C 
HETATM    9  O9  UNL     1     -36.096   5.200   4.004  1.00 20.00    -0.298 OA
ENDBRANCH   5   7
ENDBRANCH   3   5
TORSDOF 2
ENDMDL
MODEL 5
REMARK VINA RESULT:      -4.2     11.578     12.949
REMARK  2 active torsions:
REMARK  status: ('A' for Active; 'I' for Inactive)
REMARK    1  A    between atoms: C2_2  and  C7_7 
REMARK    2  A    between atoms: C6_6  and  C7_7 
ROOT
HETATM    1  C1  UNL     1     -36.938  14.916  -4.146  1.00 20.00     0.064 C 
HETATM    2  C4  UNL     1     -36.237  16.978  -5.290  1.00 20.00     0.026 C 
HETATM    3  C6  UNL     1     -35.767  15.695  -4.600  1.00 20.00     0.099 C 
HETATM    4  N8  UNL     1     -37.857  14.304  -3.787  1.00 20.00    -0.197 NA
ENDROOT
BRANCH   3   5
HETATM    5  C7  UNL     1     -34.836  14.820  -5.472  1.00 20.00     0.068 C 
HETATM    6  C5  UNL     1     -35.456  14.376  -6.801  1.00 20.00     0.019 C 
BRANCH   5   7
HETATM    7  C2  UNL     1     -34.347  13.603  -4.684  1.00 20.00     0.128 C 
HETATM    8  C3  UNL     1     -33.262  13.841  -3.664  1.00 20.00     0.091 C 
HETATM    9  O9  UNL     1     -34.789  12.470  -4.877  1.00 20.00    -0.298 OA
ENDBRANCH   5   7
ENDBRANCH   3   5
TORSDOF 2
ENDMDL
MODEL 6
REMARK VINA RESULT:      -4.2     12.081     12.563
REMARK  2 active torsions:
REMARK  status: ('A' for Active; 'I' for Inactive)
REMARK    1  A    between atoms: C2_2  and  C7_7 
REMARK    2  A    between atoms: C6_6  and  C7_7 
ROOT
HETATM    1  C1  UNL     1     -36.022  15.946  -3.145  1.00 20.00     0.064 C 
HETATM    2  C4  UNL     1     -34.183  16.476  -1.599  1.00 20.00     0.026 C 
HETATM    3  C6  UNL     1     -34.773  15.429  -2.547  1.00 20.00     0.099 C 
HETATM    4  N8  UNL     1     -37.003  16.350  -3.615  1.00 20.00    -0.197 NA
ENDROOT
BRANCH   3   5
HETATM    5  C7  UNL     1     -33.794  14.962  -3.650  1.00 20.00     0.068 C 
HETATM    6  C5  UNL     1     -33.218  16.098  -4.500  1.00 20.00     0.019 C 
BRANCH   5   7
HETATM    7  C2  UNL     1     -34.454  13.912  -4.547  1.00 20.00     0.128 C 
HETATM    8  C3  UNL     1     -34.673  14.287  -5.991  1.00 20.00     0.091 C 
HETATM    9  O9  UNL     1     -34.818  12.815  -4.120  1.00 20.00    -0.298 OA
ENDBRANCH   5   7
ENDBRANCH   3   5
TORSDOF 2
ENDMDL
MODEL 7
REMARK VINA RESULT:      -4.2     11.945     12.784
REMARK  2 active torsions:
REMARK  status: ('A' for Active; 'I' for Inactive)
REMARK    1  A    between atoms: C2_2  and  C7_7 
REMARK    2  A    between atoms: C6_6  and  C7_7 
ROOT
HETATM    1  C1  UNL     1     -35.099  13.723  -4.106  1.00 20.00     0.064 C 
HETATM    2  C4  UNL     1     -36.216  15.889  -4.444  1.00 20.00     0.026 C 
HETATM    3  C6  UNL     1     -35.503  14.979  -3.441  1.00 20.00     0.099 C 
HETATM    4  N8  UNL     1     -34.782  12.736  -4.628  1.00 20.00    -0.197 NA
ENDROOT
BRANCH   3   5
HETATM    5  C7  UNL     1     -34.290  15.643  -2.746  1.00 20.00     0.068 C 
HETATM    6  C5  UNL     1     -34.632  16.361  -1.438  1.00 20.00     0.019 C 
BRANCH   5   7
HETATM    7  C2  UNL     1     -33.578  16.599  -3.705  1.00 20.00     0.128 C 
HETATM    8  C3  UNL     1     -33.832  18.073  -3.514  1.00 20.00     0.091 C 
HETATM    9  O9  UNL     1     -32.846  16.200  -4.612  1.00 20.00    -0.298 OA
ENDBRANCH   5   7
ENDBRANCH   3   5
TORSDOF 2
ENDMDL
MODEL 8
REMARK VINA RESULT:      -4.2     12.101     12.488
REMARK  2 active torsions:
REMARK  status: ('A' for Active; 'I' for Inactive)
REMARK    1  A    between atoms: C2_2  and  C7_7 
REMARK    2  A    between atoms: C6_6  and  C7_7 
ROOT
HETATM    1  C1  UNL     1     -34.420  13.614  -4.411  1.00 20.00     0.064 C 
HETATM    2  C4  UNL     1     -32.374  14.661  -3.533  1.00 20.00     0.026 C 
HETATM    3  C6  UNL     1     -33.837  14.882  -3.924  1.00 20.00     0.099 C 
HETATM    4  N8  UNL     1     -34.879  12.619  -4.794  1.00 20.00    -0.197 NA
ENDROOT
BRANCH   3   5
HETATM    5  C7  UNL     1     -34.705  15.480  -2.791  1.00 20.00     0.068 C 
HETATM    6  C5  UNL     1     -36.197  15.570  -3.124  1.00 20.00     0.019 C 
BRANCH   5   7
HETATM    7  C2  UNL     1     -34.172  16.853  -2.373  1.00 20.00     0.128 C 
HETATM    8  C3  UNL     1     -34.077  17.126  -0.893  1.00 20.00     0.091 C 
HETATM    9  O9  UNL     1     -33.855  17.715  -3.193  1.00 20.00    -0.298 OA
ENDBRANCH   5   7
ENDBRANCH   3   5
TORSDOF 2
ENDMDL
MODEL 9
REMARK VINA RESULT:      -4.0     12.206     13.137
REMARK  2 active torsions:
REMARK  status: ('A' for Active; 'I' for Inactive)
REMARK    1  A    between atoms: C2_2  and  C7_7 
REMARK    2  A    between atoms: C6_6  and  C7_7 
ROOT
HETATM    1  C1  UNL     1     -34.930  13.720  -4.938  1.00 20.00     0.064 C 
HETATM    2  C4  UNL     1     -34.315  15.290  -6.729  1.00 20.00     0.026 C 
HETATM    3  C6  UNL     1     -34.940  15.143  -5.340  1.00 20.00     0.099 C 
HETATM    4  N8  UNL     1     -34.924  12.604  -4.622  1.00 20.00    -0.197 NA
ENDROOT
BRANCH   3   5
HETATM    5  C7  UNL     1     -34.271  16.020  -4.256  1.00 20.00     0.068 C 
HETATM    6  C5  UNL     1     -32.940  15.468  -3.736  1.00 20.00     0.019 C 
BRANCH   5   7
HETATM    7  C2  UNL     1     -35.234  16.264  -3.091  1.00 20.00     0.128 C 
HETATM    8  C3  UNL     1     -34.650  16.221  -1.702  1.00 20.00     0.091 C 
HETATM    9  O9  UNL     1     -36.437  16.464  -3.261  1.00 20.00    -0.298 OA
ENDBRANCH   5   7
ENDBRANCH   3   5
TORSDOF 2
ENDMDL
