MODEL 1
REMARK VINA RESULT:      -3.9      0.000      0.000
REMARK  4 active torsions:
REMARK  status: ('A' for Active; 'I' for Inactive)
REMARK    1  A    between atoms: C1_1  and  C7_7 
REMARK    2  A    between atoms: C6_6  and  O10_10 
REMARK    3  A    between atoms: C7_7  and  C8_8 
REMARK    4  A    between atoms: C7_7  and  O10_10 
ROOT
HETATM    1  C7  UNL     1     -35.182  14.994  -3.084  1.00 20.00     0.193 C 
ENDROOT
BRANCH   1   2
HETATM    2  C1  UNL     1     -34.507  13.773  -3.704  1.00 20.00     0.152 C 
HETATM    3  C2  UNL     1     -33.002  13.710  -3.640  1.00 20.00     0.093 C 
HETATM    4  O9  UNL     1     -35.153  12.868  -4.234  1.00 20.00    -0.296 OA
ENDBRANCH   1   2
BRANCH   1   5
HETATM    5  C8  UNL     1     -34.168  16.007  -2.520  1.00 20.00     0.014 C 
HETATM    6  C4  UNL     1     -33.967  17.213  -3.444  1.00 20.00     0.012 C 
HETATM    7  C5  UNL     1     -34.609  16.495  -1.137  1.00 20.00     0.012 C 
ENDBRANCH   1   5
BRANCH   1   8
HETATM    8  O10 UNL     1     -35.997  15.615  -4.066  1.00 20.00    -0.378 OA
BRANCH   8   9
HETATM    9  C6  UNL     1     -37.314  15.846  -3.581  1.00 20.00     0.164 C 
HETATM   10  C3  UNL     1     -38.221  14.739  -4.075  1.00 20.00     0.033 C 
ENDBRANCH   8   9
ENDBRANCH   1   8
TORSDOF 4
ENDMDL
MODEL 2
REMARK VINA RESULT:      -3.9      1.948      3.347
REMARK  4 active torsions:
REMARK  status: ('A' for Active; 'I' for Inactive)
REMARK    1  A    between atoms: C1_1  and  C7_7 
REMARK    2  A    between atoms: C6_6  and  O10_10 
REMARK    3  A    between atoms: C7_7  and  C8_8 
REMARK    4  A    between atoms: C7_7  and  O10_10 
ROOT
HETATM    1  C7  UNL     1     -35.433  14.878  -4.602  1.00 20.00     0.193 C 
ENDROOT
BRANCH   1   2
HETATM    2  C1  UNL     1     -36.911  15.043  -4.259  1.00 20.00     0.152 C 
HETATM    3  C2  UNL     1     -37.543  16.380  -4.551  1.00 20.00     0.093 C 
HETATM    4  O9  UNL     1     -37.573  14.129  -3.767  1.00 20.00    -0.296 OA
ENDBRANCH   1   2
BRANCH   1   5
HETATM    5  C8  UNL     1     -34.568  14.575  -3.364  1.00 20.00     0.014 C 
HETATM    6  C4  UNL     1     -33.304  13.782  -3.712  1.00 20.00     0.012 C 
HETATM    7  C5  UNL     1     -34.173  15.874  -2.654  1.00 20.00     0.012 C 
ENDBRANCH   1   5
BRANCH   1   8
HETATM    8  O10 UNL     1     -35.298  13.837  -5.558  1.00 20.00    -0.378 OA
BRANCH   8   9
HETATM    9  C6  UNL     1     -35.296  14.345  -6.886  1.00 20.00     0.164 C 
HETATM   10  C3  UNL     1     -34.285  15.468  -6.983  1.00 20.00     0.033 C 
ENDBRANCH   8   9
ENDBRANCH   1   8
TORSDOF 4
ENDMDL
MODEL 3
REMARK VINA RESULT:      -3.8      2.236      3.083
REMARK  4 active torsions:
REMARK  status: ('A' for Active; 'I' for Inactive)
REMARK    1  A    between atoms: C1_1  and  C7_7 
REMARK    2  A    between atoms: C6_6  and  O10_10 
REMARK    3  A    between atoms: C7_7  and  C8_8 
REMARK    4  A    between atoms: C7_7  and  O10_10 
ROOT
HETATM    1  C7  UNL     1     -35.021  14.845  -5.217  1.00 20.00     0.193 C 
ENDROOT
BRANCH   1   2
HETATM    2  C1  UNL     1     -34.389  13.605  -4.590  1.00 20.00     0.152 C 
HETATM    3  C2  UNL     1     -33.214  13.819  -3.669  1.00 20.00     0.093 C 
HETATM    4  O9  UNL     1     -34.812  12.471  -4.815  1.00 20.00    -0.296 OA
ENDBRANCH   1   2
BRANCH   1   5
HETATM    5  C8  UNL     1     -34.543  15.086  -6.661  1.00 20.00     0.014 C 
HETATM    6  C4  UNL     1     -35.487  14.475  -7.701  1.00 20.00     0.012 C 
HETATM    7  C5  UNL     1     -34.390  16.586  -6.932  1.00 20.00     0.012 C 
ENDBRANCH   1   5
BRANCH   1   8
HETATM    8  O10 UNL     1     -36.433  14.704  -5.188  1.00 20.00    -0.378 OA
BRANCH   8   9
HETATM    9  C6  UNL     1     -36.969  15.071  -3.923  1.00 20.00     0.164 C 
HETATM   10  C3  UNL     1     -36.525  16.480  -3.591  1.00 20.00     0.033 C 
ENDBRANCH   8   9
ENDBRANCH   1   8
TORSDOF 4
ENDMDL
MODEL 4
REMARK VINA RESULT:      -3.8      1.129      3.138
REMARK  4 active torsions:
REMARK  status: ('A' for Active; 'I' for Inactive)
REMARK    1  A    between atoms: C1_1  and  C7_7 
REMARK    2  A    between atoms: C6_6  and  O10_10 
REMARK    3  A    between atoms: C7_7  and  C8_8 
REMARK    4  A    between atoms: C7_7  and  O10_10 
ROOT
HETATM    1  C7  UNL     1     -35.401  15.017  -4.065  1.00 20.00     0.193 C 
ENDROOT
BRANCH   1   2
HETATM    2  C1  UNL     1     -34.598  13.720  -4.070  1.00 20.00     0.152 C 
HETATM    3  C2  UNL     1     -33.151  13.802  -3.656  1.00 20.00     0.093 C 
HETATM    4  O9  UNL     1     -35.099  12.642  -4.392  1.00 20.00    -0.296 OA
ENDBRANCH   1   2
BRANCH   1   5
HETATM    5  C8  UNL     1     -36.714  14.903  -4.863  1.00 20.00     0.014 C 
HETATM    6  C4  UNL     1     -37.944  14.784  -3.957  1.00 20.00     0.012 C 
HETATM    7  C5  UNL     1     -36.883  16.109  -5.793  1.00 20.00     0.012 C 
ENDBRANCH   1   5
BRANCH   1   8
HETATM    8  O10 UNL     1     -35.679  15.380  -2.721  1.00 20.00    -0.378 OA
BRANCH   8   9
HETATM    9  C6  UNL     1     -35.121  16.646  -2.396  1.00 20.00     0.164 C 
HETATM   10  C3  UNL     1     -34.598  16.605  -0.976  1.00 20.00     0.033 C 
ENDBRANCH   8   9
ENDBRANCH   1   8
TORSDOF 4
ENDMDL
MODEL 5
REMARK VINA RESULT:      -3.8      2.091      3.538
REMARK  4 active torsions:
REMARK  status: ('A' for Active; 'I' for Inactive)
REMARK    1  A    between atoms: C1_1  and  C7_7 
REMARK    2  A    between atoms: C6_6  and  O10_10 
REMARK    3  A    between atoms: C7_7  and  C8_8 
REMARK    4  A    between atoms: C7_7  and  O10_10 
ROOT
HETATM    1  C7  UNL     1     -34.579  15.200  -4.848  1.00 20.00     0.193 C 
ENDROOT
BRANCH   1   2
HETATM    2  C1  UNL     1     -35.501  14.082  -4.371  1.00 20.00     0.152 C 
HETATM    3  C2  UNL     1     -36.917  14.459  -4.017  1.00 20.00     0.093 C 
HETATM    4  O9  UNL     1     -35.120  12.915  -4.280  1.00 20.00    -0.296 OA
ENDBRANCH   1   2
BRANCH   1   5
HETATM    5  C8  UNL     1     -34.964  15.731  -6.242  1.00 20.00     0.014 C 
HETATM    6  C4  UNL     1     -34.341  17.099  -6.541  1.00 20.00     0.012 C 
HETATM    7  C5  UNL     1     -34.550  14.735  -7.329  1.00 20.00     0.012 C 
ENDBRANCH   1   5
BRANCH   1   8
HETATM    8  O10 UNL     1     -34.609  16.255  -3.899  1.00 20.00    -0.378 OA
BRANCH   8   9
HETATM    9  C6  UNL     1     -33.770  15.980  -2.785  1.00 20.00     0.164 C 
HETATM   10  C3  UNL     1     -34.518  16.310  -1.511  1.00 20.00     0.033 C 
ENDBRANCH   8   9
ENDBRANCH   1   8
TORSDOF 4
ENDMDL
MODEL 6
REMARK VINA RESULT:      -3.8      2.301      3.841
REMARK  4 active torsions:
REMARK  status: ('A' for Active; 'I' for Inactive)
REMARK    1  A    between atoms: C1_1  and  C7_7 
REMARK    2  A    between atoms: C6_6  and  O10_10 
REMARK    3  A    between atoms: C7_7  and  C8_8 
REMARK    4  A    between atoms: C7_7  and  O10_10 
ROOT
HETATM    1  C7  UNL     1     -34.367  14.740  -5.488  1.00 20.00     0.193 C 
ENDROOT
BRANCH   1   2
HETATM    2  C1  UNL     1     -34.240  13.603  -4.477  1.00 20.00     0.152 C 
HETATM    3  C2  UNL     1     -33.047  13.628  -3.556  1.00 20.00     0.093 C 
HETATM    4  O9  UNL     1     -35.073  12.699  -4.403  1.00 20.00    -0.296 OA
ENDBRANCH   1   2
BRANCH   1   5
HETATM    5  C8  UNL     1     -35.515  14.515  -6.489  1.00 20.00     0.014 C 
HETATM    6  C4  UNL     1     -36.747  15.370  -6.171  1.00 20.00     0.012 C 
HETATM    7  C5  UNL     1     -35.048  14.811  -7.918  1.00 20.00     0.012 C 
ENDBRANCH   1   5
BRANCH   1   8
HETATM    8  O10 UNL     1     -34.563  15.958  -4.786  1.00 20.00    -0.378 OA
BRANCH   8   9
HETATM    9  C6  UNL     1     -33.484  16.860  -4.993  1.00 20.00     0.164 C 
HETATM   10  C3  UNL     1     -33.887  17.878  -6.038  1.00 20.00     0.033 C 
ENDBRANCH   8   9
ENDBRANCH   1   8
TORSDOF 4
ENDMDL
MODEL 7
REMARK VINA RESULT:      -3.8      1.535      2.563
REMARK  4 active torsions:
REMARK  status: ('A' for Active; 'I' for Inactive)
REMARK    1  A    between atoms: C1_1  and  C7_7 
REMARK    2  A    between atoms: C6_6  and  O10_10 
REMARK    3  A    between atoms: C7_7  and  C8_8 
REMARK    4  A    between atoms: C7_7  and  O10_10 
ROOT
HETATM    1  C7  UNL     1     -34.623  15.220  -4.012  1.00 20.00     0.193 C 
ENDROOT
BRANCH   1   2
HETATM    2  C1  UNL     1     -34.237  13.745  -3.935  1.00 20.00     0.152 C 
HETATM    3  C2  UNL     1     -32.838  13.421  -3.475  1.00 20.00     0.093 C 
HETATM    4  O9  UNL     1     -35.026  12.847  -4.230  1.00 20.00    -0.296 OA
ENDBRANCH   1   2
BRANCH   1   5
HETATM    5  C8  UNL     1     -35.502  15.663  -2.827  1.00 20.00     0.014 C 
HETATM    6  C4  UNL     1     -34.684  16.275  -1.686  1.00 20.00     0.012 C 
HETATM    7  C5  UNL     1     -36.560  16.669  -3.291  1.00 20.00     0.012 C 
ENDBRANCH   1   5
BRANCH   1   8
HETATM    8  O10 UNL     1     -33.439  16.002  -4.059  1.00 20.00    -0.378 OA
BRANCH   8   9
HETATM    9  C6  UNL     1     -33.415  16.843  -5.205  1.00 20.00     0.164 C 
HETATM   10  C3  UNL     1     -34.151  16.157  -6.336  1.00 20.00     0.033 C 
ENDBRANCH   8   9
ENDBRANCH   1   8
TORSDOF 4
ENDMDL
MODEL 8
REMARK VINA RESULT:      -3.7      1.194      1.790
REMARK  4 active torsions:
REMARK  status: ('A' for Active; 'I' for Inactive)
REMARK    1  A    between atoms: C1_1  and  C7_7 
REMARK    2  A    between atoms: C6_6  and  O10_10 
REMARK    3  A    between atoms: C7_7  and  C8_8 
REMARK    4  A    between atoms: C7_7  and  O10_10 
ROOT
HETATM    1  C7  UNL     1     -35.206  14.696  -3.758  1.00 20.00     0.193 C 
ENDROOT
BRANCH   1   2
HETATM    2  C1  UNL     1     -34.976  13.760  -4.941  1.00 20.00     0.152 C 
HETATM    3  C2  UNL     1     -34.908  14.384  -6.312  1.00 20.00     0.093 C 
HETATM    4  O9  UNL     1     -34.844  12.544  -4.797  1.00 20.00    -0.296 OA
ENDBRANCH   1   2
BRANCH   1   5
HETATM    5  C8  UNL     1     -33.991  15.598  -3.471  1.00 20.00     0.014 C 
HETATM    6  C4  UNL     1     -34.101  16.321  -2.125  1.00 20.00     0.012 C 
HETATM    7  C5  UNL     1     -32.696  14.780  -3.504  1.00 20.00     0.012 C 
ENDBRANCH   1   5
BRANCH   1   8
HETATM    8  O10 UNL     1     -36.353  15.492  -4.019  1.00 20.00    -0.378 OA
BRANCH   8   9
HETATM    9  C6  UNL     1     -37.554  14.787  -3.732  1.00 20.00     0.164 C 
HETATM   10  C3  UNL     1     -38.560  15.060  -4.830  1.00 20.00     0.033 C 
ENDBRANCH   8   9
ENDBRANCH   1   8
TORSDOF 4
ENDMDL
MODEL 9
REMARK VINA RESULT:      -3.7      1.439      3.093
REMARK  4 active torsions:
REMARK  status: ('A' for Active; 'I' for Inactive)
REMARK    1  A    between atoms: C1_1  and  C7_7 
REMARK    2  A    between atoms: C6_6  and  O10_10 
REMARK    3  A    between atoms: C7_7  and  C8_8 
REMARK    4  A    between atoms: C7_7  and  O10_10 
ROOT
HETATM    1  C7  UNL     1     -35.363  15.407  -3.544  1.00 20.00     0.193 C 
ENDROOT
BRANCH   1   2
HETATM    2  C1  UNL     1     -36.686  15.008  -4.191  1.00 20.00     0.152 C 
HETATM    3  C2  UNL     1     -37.072  15.715  -5.466  1.00 20.00     0.093 C 
HETATM    4  O9  UNL     1     -37.417  14.144  -3.706  1.00 20.00    -0.296 OA
ENDBRANCH   1   2
BRANCH   1   5
HETATM    5  C8  UNL     1     -34.142  14.976  -4.379  1.00 20.00     0.014 C 
HETATM    6  C4  UNL     1     -33.094  16.087  -4.503  1.00 20.00     0.012 C 
HETATM    7  C5  UNL     1     -33.491  13.728  -3.774  1.00 20.00     0.012 C 
ENDBRANCH   1   5
BRANCH   1   8
HETATM    8  O10 UNL     1     -35.351  16.813  -3.354  1.00 20.00    -0.378 OA
BRANCH   8   9
HETATM    9  C6  UNL     1     -35.657  17.161  -2.010  1.00 20.00     0.164 C 
HETATM   10  C3  UNL     1     -34.634  16.528  -1.091  1.00 20.00     0.033 C 
ENDBRANCH   8   9
ENDBRANCH   1   8
TORSDOF 4
ENDMDL
