MODEL 1
REMARK VINA RESULT:      -4.6      0.000      0.000
REMARK  1 active torsions:
REMARK  status: ('A' for Active; 'I' for Inactive)
REMARK    1  A    between atoms: C2_2  and  C6_6 
ROOT
HETATM    1  C1  UNL     1     -34.111  16.757  -3.648  1.00 20.00    -0.067 C 
HETATM    2  C3  UNL     1     -34.080  17.175  -2.376  1.00 20.00    -0.085 C 
HETATM    3  C4  UNL     1     -33.576  17.553  -4.808  1.00 20.00     0.036 C 
HETATM    4  C5  UNL     1     -33.663  16.580  -5.982  1.00 20.00     0.009 C 
HETATM    5  C6  UNL     1     -34.719  15.462  -4.121  1.00 20.00     0.080 C 
HETATM    6  C7  UNL     1     -34.859  15.692  -5.631  1.00 20.00    -0.004 C 
HETATM    7  C8  UNL     1     -34.627  16.343  -1.252  1.00 20.00     0.043 C 
HETATM    8  C9  UNL     1     -33.497  18.503  -1.989  1.00 20.00     0.043 C 
HETATM    9  C10 UNL     1     -34.943  14.434  -6.482  1.00 20.00     0.011 C 
ENDROOT
BRANCH   5  10
HETATM   10  C2  UNL     1     -33.773  14.359  -3.748  1.00 20.00     0.240 C 
HETATM   11  O11 UNL     1     -34.141  13.251  -3.370  1.00 20.00    -0.306 OA
ENDBRANCH   5  10
TORSDOF 1
ENDMDL
MODEL 2
REMARK VINA RESULT:      -4.6      1.813      2.401
REMARK  1 active torsions:
REMARK  status: ('A' for Active; 'I' for Inactive)
REMARK    1  A    between atoms: C2_2  and  C6_6 
ROOT
HETATM    1  C1  UNL     1     -35.074  15.672  -3.352  1.00 20.00    -0.067 C 
HETATM    2  C3  UNL     1     -35.382  16.504  -2.349  1.00 20.00    -0.085 C 
HETATM    3  C4  UNL     1     -33.993  14.629  -3.278  1.00 20.00     0.036 C 
HETATM    4  C5  UNL     1     -34.172  13.832  -4.568  1.00 20.00     0.009 C 
HETATM    5  C6  UNL     1     -35.722  15.677  -4.713  1.00 20.00     0.080 C 
HETATM    6  C7  UNL     1     -34.735  14.858  -5.554  1.00 20.00    -0.004 C 
HETATM    7  C8  UNL     1     -36.472  17.529  -2.471  1.00 20.00     0.043 C 
HETATM    8  C9  UNL     1     -34.656  16.468  -1.035  1.00 20.00     0.043 C 
HETATM    9  C10 UNL     1     -35.311  14.228  -6.814  1.00 20.00     0.011 C 
ENDROOT
BRANCH   5  10
HETATM   10  C2  UNL     1     -37.079  15.051  -4.567  1.00 20.00     0.240 C 
HETATM   11  O11 UNL     1     -37.317  14.125  -3.799  1.00 20.00    -0.306 OA
ENDBRANCH   5  10
TORSDOF 1
ENDMDL
MODEL 3
REMARK VINA RESULT:      -4.5      1.424      3.771
REMARK  1 active torsions:
REMARK  status: ('A' for Active; 'I' for Inactive)
REMARK    1  A    between atoms: C2_2  and  C6_6 
ROOT
HETATM    1  C1  UNL     1     -34.360  15.791  -4.593  1.00 20.00    -0.067 C 
HETATM    2  C3  UNL     1     -34.529  15.065  -5.705  1.00 20.00    -0.085 C 
HETATM    3  C4  UNL     1     -33.634  17.108  -4.550  1.00 20.00     0.036 C 
HETATM    4  C5  UNL     1     -33.887  17.613  -3.132  1.00 20.00     0.009 C 
HETATM    5  C6  UNL     1     -34.824  15.390  -3.216  1.00 20.00     0.080 C 
HETATM    6  C7  UNL     1     -34.023  16.331  -2.307  1.00 20.00    -0.004 C 
HETATM    7  C8  UNL     1     -35.262  13.755  -5.697  1.00 20.00     0.043 C 
HETATM    8  C9  UNL     1     -33.994  15.512  -7.035  1.00 20.00     0.043 C 
HETATM    9  C10 UNL     1     -34.610  16.564  -0.923  1.00 20.00     0.011 C 
ENDROOT
BRANCH   5  10
HETATM   10  C2  UNL     1     -36.310  15.596  -3.165  1.00 20.00     0.240 C 
HETATM   11  O11 UNL     1     -37.123  14.681  -3.242  1.00 20.00    -0.306 OA
ENDBRANCH   5  10
TORSDOF 1
ENDMDL
MODEL 4
REMARK VINA RESULT:      -4.5      1.664      4.300
REMARK  1 active torsions:
REMARK  status: ('A' for Active; 'I' for Inactive)
REMARK    1  A    between atoms: C2_2  and  C6_6 
ROOT
HETATM    1  C1  UNL     1     -35.097  15.246  -5.456  1.00 20.00    -0.067 C 
HETATM    2  C3  UNL     1     -35.334  15.505  -6.748  1.00 20.00    -0.085 C 
HETATM    3  C4  UNL     1     -34.948  13.860  -4.890  1.00 20.00     0.036 C 
HETATM    4  C5  UNL     1     -34.500  14.105  -3.451  1.00 20.00     0.009 C 
HETATM    5  C6  UNL     1     -34.988  16.284  -4.368  1.00 20.00     0.080 C 
HETATM    6  C7  UNL     1     -35.142  15.446  -3.093  1.00 20.00    -0.004 C 
HETATM    7  C8  UNL     1     -35.475  16.908  -7.265  1.00 20.00     0.043 C 
HETATM    8  C9  UNL     1     -35.477  14.411  -7.766  1.00 20.00     0.043 C 
HETATM    9  C10 UNL     1     -34.572  16.067  -1.826  1.00 20.00     0.011 C 
ENDROOT
BRANCH   5  10
HETATM   10  C2  UNL     1     -33.650  16.948  -4.514  1.00 20.00     0.240 C 
HETATM   11  O11 UNL     1     -32.642  16.362  -4.895  1.00 20.00    -0.306 OA
ENDBRANCH   5  10
TORSDOF 1
ENDMDL
MODEL 5
REMARK VINA RESULT:      -4.3      1.987      2.421
REMARK  1 active torsions:
REMARK  status: ('A' for Active; 'I' for Inactive)
REMARK    1  A    between atoms: C2_2  and  C6_6 
ROOT
HETATM    1  C1  UNL     1     -35.438  16.131  -2.729  1.00 20.00    -0.067 C 
HETATM    2  C3  UNL     1     -35.308  17.030  -1.744  1.00 20.00    -0.085 C 
HETATM    3  C4  UNL     1     -36.618  16.070  -3.660  1.00 20.00     0.036 C 
HETATM    4  C5  UNL     1     -36.203  15.030  -4.699  1.00 20.00     0.009 C 
HETATM    5  C6  UNL     1     -34.460  15.025  -3.029  1.00 20.00     0.080 C 
HETATM    6  C7  UNL     1     -35.282  14.087  -3.922  1.00 20.00    -0.004 C 
HETATM    7  C8  UNL     1     -34.109  17.051  -0.840  1.00 20.00     0.043 C 
HETATM    8  C9  UNL     1     -36.352  18.075  -1.478  1.00 20.00     0.043 C 
HETATM    9  C10 UNL     1     -34.475  13.160  -4.819  1.00 20.00     0.011 C 
ENDROOT
BRANCH   5  10
HETATM   10  C2  UNL     1     -33.275  15.646  -3.709  1.00 20.00     0.240 C 
HETATM   11  O11 UNL     1     -33.354  16.614  -4.457  1.00 20.00    -0.306 OA
ENDBRANCH   5  10
TORSDOF 1
ENDMDL
MODEL 6
REMARK VINA RESULT:      -4.3      2.091      2.890
REMARK  1 active torsions:
REMARK  status: ('A' for Active; 'I' for Inactive)
REMARK    1  A    between atoms: C2_2  and  C6_6 
ROOT
HETATM    1  C1  UNL     1     -34.964  15.214  -4.752  1.00 20.00    -0.067 C 
HETATM    2  C3  UNL     1     -34.217  15.353  -3.650  1.00 20.00    -0.085 C 
HETATM    3  C4  UNL     1     -34.418  14.801  -6.092  1.00 20.00     0.036 C 
HETATM    4  C5  UNL     1     -35.669  14.598  -6.943  1.00 20.00     0.009 C 
HETATM    5  C6  UNL     1     -36.444  15.488  -4.837  1.00 20.00     0.080 C 
HETATM    6  C7  UNL     1     -36.678  15.585  -6.350  1.00 20.00    -0.004 C 
HETATM    7  C8  UNL     1     -34.809  15.767  -2.334  1.00 20.00     0.043 C 
HETATM    8  C9  UNL     1     -32.736  15.105  -3.657  1.00 20.00     0.043 C 
HETATM    9  C10 UNL     1     -38.106  15.336  -6.811  1.00 20.00     0.011 C 
ENDROOT
BRANCH   5  10
HETATM   10  C2  UNL     1     -37.152  14.344  -4.173  1.00 20.00     0.240 C 
HETATM   11  O11 UNL     1     -38.133  14.484  -3.451  1.00 20.00    -0.306 OA
ENDBRANCH   5  10
TORSDOF 1
ENDMDL
MODEL 7
REMARK VINA RESULT:      -4.2      2.118      2.747
REMARK  1 active torsions:
REMARK  status: ('A' for Active; 'I' for Inactive)
REMARK    1  A    between atoms: C2_2  and  C6_6 
ROOT
HETATM    1  C1  UNL     1     -34.945  15.700  -3.593  1.00 20.00    -0.067 C 
HETATM    2  C3  UNL     1     -35.119  16.601  -2.618  1.00 20.00    -0.085 C 
HETATM    3  C4  UNL     1     -34.249  14.379  -3.402  1.00 20.00     0.036 C 
HETATM    4  C5  UNL     1     -34.485  13.654  -4.725  1.00 20.00     0.009 C 
HETATM    5  C6  UNL     1     -35.372  15.878  -5.027  1.00 20.00     0.080 C 
HETATM    6  C7  UNL     1     -34.574  14.786  -5.750  1.00 20.00    -0.004 C 
HETATM    7  C8  UNL     1     -35.822  17.906  -2.858  1.00 20.00     0.043 C 
HETATM    8  C9  UNL     1     -34.622  16.368  -1.221  1.00 20.00     0.043 C 
HETATM    9  C10 UNL     1     -35.138  14.340  -7.091  1.00 20.00     0.011 C 
ENDROOT
BRANCH   5  10
HETATM   10  C2  UNL     1     -36.860  15.695  -5.079  1.00 20.00     0.240 C 
HETATM   11  O11 UNL     1     -37.622  16.492  -5.618  1.00 20.00    -0.306 OA
ENDBRANCH   5  10
TORSDOF 1
ENDMDL
MODEL 8
REMARK VINA RESULT:      -4.2      1.740      4.344
REMARK  1 active torsions:
REMARK  status: ('A' for Active; 'I' for Inactive)
REMARK    1  A    between atoms: C2_2  and  C6_6 
ROOT
HETATM    1  C1  UNL     1     -35.953  15.137  -5.600  1.00 20.00    -0.067 C 
HETATM    2  C3  UNL     1     -35.841  14.950  -6.921  1.00 20.00    -0.085 C 
HETATM    3  C4  UNL     1     -37.265  15.288  -4.879  1.00 20.00     0.036 C 
HETATM    4  C5  UNL     1     -36.870  15.274  -3.405  1.00 20.00     0.009 C 
HETATM    5  C6  UNL     1     -34.797  15.269  -4.642  1.00 20.00     0.080 C 
HETATM    6  C7  UNL     1     -35.462  15.874  -3.399  1.00 20.00    -0.004 C 
HETATM    7  C8  UNL     1     -34.507  14.804  -7.594  1.00 20.00     0.043 C 
HETATM    8  C9  UNL     1     -37.043  14.875  -7.818  1.00 20.00     0.043 C 
HETATM    9  C10 UNL     1     -34.722  15.659  -2.088  1.00 20.00     0.011 C 
ENDROOT
BRANCH   5  10
HETATM   10  C2  UNL     1     -34.227  13.896  -4.433  1.00 20.00     0.240 C 
HETATM   11  O11 UNL     1     -34.901  12.872  -4.468  1.00 20.00    -0.306 OA
ENDBRANCH   5  10
TORSDOF 1
ENDMDL
MODEL 9
REMARK VINA RESULT:      -4.1      3.896      5.742
REMARK  1 active torsions:
REMARK  status: ('A' for Active; 'I' for Inactive)
REMARK    1  A    between atoms: C2_2  and  C6_6 
ROOT
HETATM    1  C1  UNL     1     -34.414  18.213   1.417  1.00 20.00    -0.067 C 
HETATM    2  C3  UNL     1     -34.065  18.519   2.673  1.00 20.00    -0.085 C 
HETATM    3  C4  UNL     1     -35.837  18.149   0.931  1.00 20.00     0.036 C 
HETATM    4  C5  UNL     1     -35.694  17.964  -0.577  1.00 20.00     0.009 C 
HETATM    5  C6  UNL     1     -33.455  17.844   0.315  1.00 20.00     0.080 C 
HETATM    6  C7  UNL     1     -34.377  17.201  -0.728  1.00 20.00    -0.004 C 
HETATM    7  C8  UNL     1     -32.629  18.570   3.110  1.00 20.00     0.043 C 
HETATM    8  C9  UNL     1     -35.086  18.830   3.729  1.00 20.00     0.043 C 
HETATM    9  C10 UNL     1     -33.848  17.188  -2.154  1.00 20.00     0.011 C 
ENDROOT
BRANCH   5  10
HETATM   10  C2  UNL     1     -32.790  19.109  -0.144  1.00 20.00     0.240 C 
HETATM   11  O11 UNL     1     -31.573  19.263  -0.169  1.00 20.00    -0.306 OA
ENDBRANCH   5  10
TORSDOF 1
ENDMDL
