MODEL 1
REMARK VINA RESULT:      -4.7      0.000      0.000
REMARK  0 active torsions:
REMARK  status: ('A' for Active; 'I' for Inactive)
ROOT
HETATM    1  C1  UNL     1     -34.420  16.625  -1.097  1.00 20.00     0.015 C 
HETATM    2  C2  UNL     1     -34.340  16.151  -2.196  1.00 20.00    -0.076 C 
HETATM    3  C3  UNL     1     -35.502  14.085  -5.109  1.00 20.00     0.004 C 
HETATM    4  C4  UNL     1     -34.518  14.499  -6.195  1.00 20.00     0.003 C 
HETATM    5  C5  UNL     1     -34.888  14.237  -3.719  1.00 20.00     0.055 C 
HETATM    6  C6  UNL     1     -34.197  15.989  -6.099  1.00 20.00     0.042 C 
HETATM    7  C7  UNL     1     -34.246  15.583  -3.511  1.00 20.00     0.154 A 
HETATM    8  C8  UNL     1     -33.854  16.450  -4.708  1.00 20.00     0.102 A 
HETATM    9  C9  UNL     1     -33.598  17.921  -4.555  1.00 20.00     0.050 C 
HETATM   10  O10 UNL     1     -32.898  15.634  -4.028  1.00 20.00    -0.350 OA
ENDROOT
TORSDOF 0
ENDMDL
MODEL 2
REMARK VINA RESULT:      -4.6      1.173      1.196
REMARK  0 active torsions:
REMARK  status: ('A' for Active; 'I' for Inactive)
ROOT
HETATM    1  C1  UNL     1     -34.443  16.640  -0.989  1.00 20.00     0.015 C 
HETATM    2  C2  UNL     1     -34.472  16.127  -2.073  1.00 20.00    -0.076 C 
HETATM    3  C3  UNL     1     -34.961  13.297  -4.493  1.00 20.00     0.004 C 
HETATM    4  C4  UNL     1     -34.944  14.027  -5.831  1.00 20.00     0.003 C 
HETATM    5  C5  UNL     1     -34.150  14.052  -3.442  1.00 20.00     0.055 C 
HETATM    6  C6  UNL     1     -35.651  15.376  -5.724  1.00 20.00     0.042 C 
HETATM    7  C7  UNL     1     -34.507  15.513  -3.370  1.00 20.00     0.154 A 
HETATM    8  C8  UNL     1     -35.222  16.196  -4.536  1.00 20.00     0.102 A 
HETATM    9  C9  UNL     1     -35.940  17.501  -4.355  1.00 20.00     0.050 C 
HETATM   10  O10 UNL     1     -33.807  16.298  -4.361  1.00 20.00    -0.350 OA
ENDROOT
TORSDOF 0
ENDMDL
MODEL 3
REMARK VINA RESULT:      -4.6     11.643     13.103
REMARK  0 active torsions:
REMARK  status: ('A' for Active; 'I' for Inactive)
ROOT
HETATM    1  C1  UNL     1     -32.102   8.082   2.252  1.00 20.00     0.015 C 
HETATM    2  C2  UNL     1     -32.603   7.352   3.062  1.00 20.00    -0.076 C 
HETATM    3  C3  UNL     1     -34.252   6.505   6.328  1.00 20.00     0.004 C 
HETATM    4  C4  UNL     1     -34.706   5.072   6.083  1.00 20.00     0.003 C 
HETATM    5  C5  UNL     1     -33.029   6.850   5.481  1.00 20.00     0.055 C 
HETATM    6  C6  UNL     1     -35.195   4.893   4.648  1.00 20.00     0.042 C 
HETATM    7  C7  UNL     1     -33.203   6.480   4.031  1.00 20.00     0.154 A 
HETATM    8  C8  UNL     1     -34.262   5.460   3.611  1.00 20.00     0.102 A 
HETATM    9  C9  UNL     1     -34.736   5.367   2.190  1.00 20.00     0.050 C 
HETATM   10  O10 UNL     1     -32.891   5.092   3.778  1.00 20.00    -0.350 OA
ENDROOT
TORSDOF 0
ENDMDL
MODEL 4
REMARK VINA RESULT:      -4.4     12.219     13.593
REMARK  0 active torsions:
REMARK  status: ('A' for Active; 'I' for Inactive)
ROOT
HETATM    1  C1  UNL     1     -31.832   7.452   2.984  1.00 20.00     0.015 C 
HETATM    2  C2  UNL     1     -32.684   6.834   3.561  1.00 20.00    -0.076 C 
HETATM    3  C3  UNL     1     -34.572   3.744   4.553  1.00 20.00     0.004 C 
HETATM    4  C4  UNL     1     -35.442   4.264   5.690  1.00 20.00     0.003 C 
HETATM    5  C5  UNL     1     -34.226   4.858   3.568  1.00 20.00     0.055 C 
HETATM    6  C6  UNL     1     -34.678   5.277   6.540  1.00 20.00     0.042 C 
HETATM    7  C7  UNL     1     -33.703   6.096   4.250  1.00 20.00     0.154 A 
HETATM    8  C8  UNL     1     -33.968   6.334   5.737  1.00 20.00     0.102 A 
HETATM    9  C9  UNL     1     -33.148   7.310   6.528  1.00 20.00     0.050 C 
HETATM   10  O10 UNL     1     -34.766   6.951   4.725  1.00 20.00    -0.350 OA
ENDROOT
TORSDOF 0
ENDMDL
MODEL 5
REMARK VINA RESULT:      -4.4      1.029      3.936
REMARK  0 active torsions:
REMARK  status: ('A' for Active; 'I' for Inactive)
ROOT
HETATM    1  C1  UNL     1     -34.747  14.815  -7.562  1.00 20.00     0.015 C 
HETATM    2  C2  UNL     1     -34.473  15.116  -6.434  1.00 20.00    -0.076 C 
HETATM    3  C3  UNL     1     -33.717  17.497  -3.629  1.00 20.00     0.004 C 
HETATM    4  C4  UNL     1     -33.767  16.574  -2.418  1.00 20.00     0.003 C 
HETATM    5  C5  UNL     1     -33.331  16.730  -4.892  1.00 20.00     0.055 C 
HETATM    6  C6  UNL     1     -34.878  15.538  -2.569  1.00 20.00     0.042 C 
HETATM    7  C7  UNL     1     -34.145  15.477  -5.084  1.00 20.00     0.154 A 
HETATM    8  C8  UNL     1     -34.889  14.847  -3.906  1.00 20.00     0.102 A 
HETATM    9  C9  UNL     1     -36.006  13.869  -4.123  1.00 20.00     0.050 C 
HETATM   10  O10 UNL     1     -33.617  14.360  -4.337  1.00 20.00    -0.350 OA
ENDROOT
TORSDOF 0
ENDMDL
MODEL 6
REMARK VINA RESULT:      -4.4      1.549      1.810
REMARK  0 active torsions:
REMARK  status: ('A' for Active; 'I' for Inactive)
ROOT
HETATM    1  C1  UNL     1     -34.539  16.628  -0.870  1.00 20.00     0.015 C 
HETATM    2  C2  UNL     1     -34.819  16.115  -1.917  1.00 20.00    -0.076 C 
HETATM    3  C3  UNL     1     -36.612  15.837  -5.205  1.00 20.00     0.004 C 
HETATM    4  C4  UNL     1     -35.856  14.697  -5.875  1.00 20.00     0.003 C 
HETATM    5  C5  UNL     1     -36.553  15.720  -3.684  1.00 20.00     0.055 C 
HETATM    6  C6  UNL     1     -34.363  14.774  -5.561  1.00 20.00     0.042 C 
HETATM    7  C7  UNL     1     -35.154  15.501  -3.171  1.00 20.00     0.154 A 
HETATM    8  C8  UNL     1     -34.058  14.981  -4.101  1.00 20.00     0.102 A 
HETATM    9  C9  UNL     1     -32.606  15.132  -3.756  1.00 20.00     0.050 C 
HETATM   10  O10 UNL     1     -34.765  14.111  -3.215  1.00 20.00    -0.350 OA
ENDROOT
TORSDOF 0
ENDMDL
MODEL 7
REMARK VINA RESULT:      -4.3      1.617      3.648
REMARK  0 active torsions:
REMARK  status: ('A' for Active; 'I' for Inactive)
ROOT
HETATM    1  C1  UNL     1     -34.085  13.784  -3.670  1.00 20.00     0.015 C 
HETATM    2  C2  UNL     1     -34.213  14.904  -3.260  1.00 20.00    -0.076 C 
HETATM    3  C3  UNL     1     -33.885  17.669  -0.739  1.00 20.00     0.004 C 
HETATM    4  C4  UNL     1     -34.260  18.890  -1.569  1.00 20.00     0.003 C 
HETATM    5  C5  UNL     1     -34.552  16.407  -1.282  1.00 20.00     0.055 C 
HETATM    6  C6  UNL     1     -33.713  18.772  -2.990  1.00 20.00     0.042 C 
HETATM    7  C7  UNL     1     -34.366  16.243  -2.768  1.00 20.00     0.154 A 
HETATM    8  C8  UNL     1     -33.989  17.442  -3.639  1.00 20.00     0.102 A 
HETATM    9  C9  UNL     1     -33.410  17.257  -5.012  1.00 20.00     0.050 C 
HETATM   10  O10 UNL     1     -35.341  16.992  -3.528  1.00 20.00    -0.350 OA
ENDROOT
TORSDOF 0
ENDMDL
MODEL 8
REMARK VINA RESULT:      -4.3      1.051      2.977
REMARK  0 active torsions:
REMARK  status: ('A' for Active; 'I' for Inactive)
ROOT
HETATM    1  C1  UNL     1     -34.737  13.269  -4.183  1.00 20.00     0.015 C 
HETATM    2  C2  UNL     1     -34.394  14.357  -4.554  1.00 20.00    -0.076 C 
HETATM    3  C3  UNL     1     -34.577  17.447  -6.680  1.00 20.00     0.004 C 
HETATM    4  C4  UNL     1     -33.613  18.378  -5.957  1.00 20.00     0.003 C 
HETATM    5  C5  UNL     1     -34.207  15.984  -6.452  1.00 20.00     0.055 C 
HETATM    6  C6  UNL     1     -33.721  18.206  -4.443  1.00 20.00     0.042 C 
HETATM    7  C7  UNL     1     -33.984  15.658  -4.999  1.00 20.00     0.154 A 
HETATM    8  C8  UNL     1     -33.693  16.770  -3.990  1.00 20.00     0.102 A 
HETATM    9  C9  UNL     1     -33.865  16.551  -2.516  1.00 20.00     0.050 C 
HETATM   10  O10 UNL     1     -32.646  15.984  -4.563  1.00 20.00    -0.350 OA
ENDROOT
TORSDOF 0
ENDMDL
MODEL 9
REMARK VINA RESULT:      -4.2      1.246      2.545
REMARK  0 active torsions:
REMARK  status: ('A' for Active; 'I' for Inactive)
ROOT
HETATM    1  C1  UNL     1     -34.603  16.411  -1.137  1.00 20.00     0.015 C 
HETATM    2  C2  UNL     1     -34.646  16.388  -2.336  1.00 20.00    -0.076 C 
HETATM    3  C3  UNL     1     -33.606  17.387  -5.803  1.00 20.00     0.004 C 
HETATM    4  C4  UNL     1     -34.333  16.355  -6.654  1.00 20.00     0.003 C 
HETATM    5  C5  UNL     1     -34.341  17.636  -4.488  1.00 20.00     0.055 C 
HETATM    6  C6  UNL     1     -34.333  14.988  -5.972  1.00 20.00     0.042 C 
HETATM    7  C7  UNL     1     -34.697  16.361  -3.769  1.00 20.00     0.154 A 
HETATM    8  C8  UNL     1     -34.739  15.031  -4.523  1.00 20.00     0.102 A 
HETATM    9  C9  UNL     1     -34.686  13.720  -3.795  1.00 20.00     0.050 C 
HETATM   10  O10 UNL     1     -35.926  15.781  -4.258  1.00 20.00    -0.350 OA
ENDROOT
TORSDOF 0
ENDMDL
