MODEL 1
REMARK VINA RESULT:      -5.1      0.000      0.000
REMARK  0 active torsions:
REMARK  status: ('A' for Active; 'I' for Inactive)
ROOT
HETATM    1  C1  UNL     1     -34.555  14.591  -5.905  1.00 20.00     0.057 C 
HETATM    2  C2  UNL     1     -34.051  17.779  -4.106  1.00 20.00    -0.019 C 
HETATM    3  C3  UNL     1     -34.073  16.494  -4.484  1.00 20.00    -0.051 C 
HETATM    4  C4  UNL     1     -34.344  15.913  -5.780  1.00 20.00    -0.052 C 
HETATM    5  C5  UNL     1     -34.604  13.697  -4.714  1.00 20.00     0.150 C 
HETATM    6  C6  UNL     1     -33.730  17.916  -2.651  1.00 20.00     0.028 C 
HETATM    7  C7  UNL     1     -34.584  14.331  -3.336  1.00 20.00     0.092 C 
HETATM    8  C8  UNL     1     -33.934  16.493  -2.127  1.00 20.00     0.013 C 
HETATM    9  C9  UNL     1     -33.725  15.585  -3.340  1.00 20.00     0.026 C 
HETATM   10  C10 UNL     1     -34.359  16.817  -6.980  1.00 20.00     0.049 C 
HETATM   11  O11 UNL     1     -34.732  12.483  -4.866  1.00 20.00    -0.293 OA
ENDROOT
TORSDOF 0
ENDMDL
MODEL 2
REMARK VINA RESULT:      -5.1      0.606      2.843
REMARK  0 active torsions:
REMARK  status: ('A' for Active; 'I' for Inactive)
ROOT
HETATM    1  C1  UNL     1     -34.436  14.539  -3.270  1.00 20.00     0.057 C 
HETATM    2  C2  UNL     1     -33.721  17.787  -4.880  1.00 20.00    -0.019 C 
HETATM    3  C3  UNL     1     -34.179  16.567  -4.573  1.00 20.00    -0.051 C 
HETATM    4  C4  UNL     1     -34.139  15.850  -3.318  1.00 20.00    -0.052 C 
HETATM    5  C5  UNL     1     -34.731  13.765  -4.509  1.00 20.00     0.150 C 
HETATM    6  C6  UNL     1     -33.974  18.122  -6.316  1.00 20.00     0.028 C 
HETATM    7  C7  UNL     1     -34.519  14.442  -5.849  1.00 20.00     0.092 C 
HETATM    8  C8  UNL     1     -34.319  16.760  -6.922  1.00 20.00     0.013 C 
HETATM    9  C9  UNL     1     -34.847  15.924  -5.755  1.00 20.00     0.026 C 
HETATM   10  C10 UNL     1     -33.781  16.609  -2.072  1.00 20.00     0.049 C 
HETATM   11  O11 UNL     1     -35.066  12.584  -4.427  1.00 20.00    -0.293 OA
ENDROOT
TORSDOF 0
ENDMDL
MODEL 3
REMARK VINA RESULT:      -5.0      1.221      2.207
REMARK  0 active torsions:
REMARK  status: ('A' for Active; 'I' for Inactive)
ROOT
HETATM    1  C1  UNL     1     -34.733  13.767  -5.571  1.00 20.00     0.057 C 
HETATM    2  C2  UNL     1     -34.510  17.209  -6.896  1.00 20.00    -0.019 C 
HETATM    3  C3  UNL     1     -34.324  16.064  -6.226  1.00 20.00    -0.051 C 
HETATM    4  C4  UNL     1     -34.835  14.738  -6.495  1.00 20.00    -0.052 C 
HETATM    5  C5  UNL     1     -34.173  14.039  -4.217  1.00 20.00     0.150 C 
HETATM    6  C6  UNL     1     -33.790  18.347  -6.245  1.00 20.00     0.028 C 
HETATM    7  C7  UNL     1     -33.879  15.477  -3.835  1.00 20.00     0.092 C 
HETATM    8  C8  UNL     1     -33.450  17.784  -4.864  1.00 20.00     0.013 C 
HETATM    9  C9  UNL     1     -33.413  16.265  -5.049  1.00 20.00     0.026 C 
HETATM   10  C10 UNL     1     -35.458  14.471  -7.836  1.00 20.00     0.049 C 
HETATM   11  O11 UNL     1     -34.030  13.115  -3.418  1.00 20.00    -0.293 OA
ENDROOT
TORSDOF 0
ENDMDL
MODEL 4
REMARK VINA RESULT:      -4.9     12.019     13.841
REMARK  0 active torsions:
REMARK  status: ('A' for Active; 'I' for Inactive)
ROOT
HETATM    1  C1  UNL     1     -34.573   5.535   6.604  1.00 20.00     0.057 C 
HETATM    2  C2  UNL     1     -32.497   7.274   4.090  1.00 20.00    -0.019 C 
HETATM    3  C3  UNL     1     -33.429   6.550   4.724  1.00 20.00    -0.051 C 
HETATM    4  C4  UNL     1     -33.771   6.504   6.129  1.00 20.00    -0.052 C 
HETATM    5  C5  UNL     1     -35.064   4.434   5.728  1.00 20.00     0.150 C 
HETATM    6  C6  UNL     1     -32.490   6.992   2.621  1.00 20.00     0.028 C 
HETATM    7  C7  UNL     1     -34.501   4.326   4.324  1.00 20.00     0.092 C 
HETATM    8  C8  UNL     1     -33.309   5.704   2.523  1.00 20.00     0.013 C 
HETATM    9  C9  UNL     1     -34.212   5.707   3.759  1.00 20.00     0.026 C 
HETATM   10  C10 UNL     1     -33.229   7.575   7.032  1.00 20.00     0.049 C 
HETATM   11  O11 UNL     1     -35.850   3.601   6.176  1.00 20.00    -0.293 OA
ENDROOT
TORSDOF 0
ENDMDL
MODEL 5
REMARK VINA RESULT:      -4.7      2.189      4.264
REMARK  0 active torsions:
REMARK  status: ('A' for Active; 'I' for Inactive)
ROOT
HETATM    1  C1  UNL     1     -33.890  17.786  -3.266  1.00 20.00     0.057 C 
HETATM    2  C2  UNL     1     -34.948  14.253  -3.496  1.00 20.00    -0.019 C 
HETATM    3  C3  UNL     1     -34.391  15.454  -3.698  1.00 20.00    -0.051 C 
HETATM    4  C4  UNL     1     -34.266  16.582  -2.801  1.00 20.00    -0.052 C 
HETATM    5  C5  UNL     1     -33.673  18.023  -4.721  1.00 20.00     0.150 C 
HETATM    6  C6  UNL     1     -34.857  13.395  -4.718  1.00 20.00     0.028 C 
HETATM    7  C7  UNL     1     -34.055  16.925  -5.694  1.00 20.00     0.092 C 
HETATM    8  C8  UNL     1     -34.494  14.403  -5.810  1.00 20.00     0.013 C 
HETATM    9  C9  UNL     1     -33.806  15.557  -5.078  1.00 20.00     0.026 C 
HETATM   10  C10 UNL     1     -34.543  16.367  -1.340  1.00 20.00     0.049 C 
HETATM   11  O11 UNL     1     -33.264  19.117  -5.108  1.00 20.00    -0.293 OA
ENDROOT
TORSDOF 0
ENDMDL
MODEL 6
REMARK VINA RESULT:      -4.7      1.842      2.378
REMARK  0 active torsions:
REMARK  status: ('A' for Active; 'I' for Inactive)
ROOT
HETATM    1  C1  UNL     1     -36.472  14.147  -4.197  1.00 20.00     0.057 C 
HETATM    2  C2  UNL     1     -35.941  17.159  -2.124  1.00 20.00    -0.019 C 
HETATM    3  C3  UNL     1     -35.803  16.117  -2.953  1.00 20.00    -0.051 C 
HETATM    4  C4  UNL     1     -36.811  15.298  -3.590  1.00 20.00    -0.052 C 
HETATM    5  C5  UNL     1     -35.074  13.633  -4.161  1.00 20.00     0.150 C 
HETATM    6  C6  UNL     1     -34.612  17.700  -1.699  1.00 20.00     0.028 C 
HETATM    7  C7  UNL     1     -34.067  14.344  -3.278  1.00 20.00     0.092 C 
HETATM    8  C8  UNL     1     -33.649  16.582  -2.103  1.00 20.00     0.013 C 
HETATM    9  C9  UNL     1     -34.355  15.837  -3.238  1.00 20.00     0.026 C 
HETATM   10  C10 UNL     1     -38.234  15.778  -3.577  1.00 20.00     0.049 C 
HETATM   11  O11 UNL     1     -34.782  12.612  -4.783  1.00 20.00    -0.293 OA
ENDROOT
TORSDOF 0
ENDMDL
MODEL 7
REMARK VINA RESULT:      -4.7      2.295      2.779
REMARK  0 active torsions:
REMARK  status: ('A' for Active; 'I' for Inactive)
ROOT
HETATM    1  C1  UNL     1     -35.859  13.910  -3.972  1.00 20.00     0.057 C 
HETATM    2  C2  UNL     1     -33.455  16.364  -2.612  1.00 20.00    -0.019 C 
HETATM    3  C3  UNL     1     -34.540  15.628  -2.885  1.00 20.00    -0.051 C 
HETATM    4  C4  UNL     1     -34.655  14.371  -3.590  1.00 20.00    -0.052 C 
HETATM    5  C5  UNL     1     -37.099  14.710  -3.762  1.00 20.00     0.150 C 
HETATM    6  C6  UNL     1     -33.811  17.608  -1.861  1.00 20.00     0.028 C 
HETATM    7  C7  UNL     1     -36.960  16.137  -3.265  1.00 20.00     0.092 C 
HETATM    8  C8  UNL     1     -35.326  17.694  -2.054  1.00 20.00     0.013 C 
HETATM    9  C9  UNL     1     -35.779  16.256  -2.314  1.00 20.00     0.026 C 
HETATM   10  C10 UNL     1     -33.403  13.586  -3.862  1.00 20.00     0.049 C 
HETATM   11  O11 UNL     1     -38.192  14.233  -4.061  1.00 20.00    -0.293 OA
ENDROOT
TORSDOF 0
ENDMDL
MODEL 8
REMARK VINA RESULT:      -4.6      2.315      3.525
REMARK  0 active torsions:
REMARK  status: ('A' for Active; 'I' for Inactive)
ROOT
HETATM    1  C1  UNL     1     -34.590  16.691  -7.254  1.00 20.00     0.057 C 
HETATM    2  C2  UNL     1     -34.559  13.676  -5.118  1.00 20.00    -0.019 C 
HETATM    3  C3  UNL     1     -34.575  14.929  -5.590  1.00 20.00    -0.051 C 
HETATM    4  C4  UNL     1     -34.861  15.417  -6.921  1.00 20.00    -0.052 C 
HETATM    5  C5  UNL     1     -33.912  17.615  -6.301  1.00 20.00     0.150 C 
HETATM    6  C6  UNL     1     -34.199  13.640  -3.667  1.00 20.00     0.028 C 
HETATM    7  C7  UNL     1     -33.373  17.044  -5.004  1.00 20.00     0.092 C 
HETATM    8  C8  UNL     1     -33.630  15.041  -3.428  1.00 20.00     0.013 C 
HETATM    9  C9  UNL     1     -34.269  15.921  -4.504  1.00 20.00     0.026 C 
HETATM   10  C10 UNL     1     -35.487  14.473  -7.908  1.00 20.00     0.049 C 
HETATM   11  O11 UNL     1     -33.739  18.793  -6.611  1.00 20.00    -0.293 OA
ENDROOT
TORSDOF 0
ENDMDL
MODEL 9
REMARK VINA RESULT:      -4.6      2.011      2.975
REMARK  0 active torsions:
REMARK  status: ('A' for Active; 'I' for Inactive)
ROOT
HETATM    1  C1  UNL     1     -35.646  13.958  -3.804  1.00 20.00     0.057 C 
HETATM    2  C2  UNL     1     -33.270  16.462  -5.120  1.00 20.00    -0.019 C 
HETATM    3  C3  UNL     1     -34.330  15.831  -4.599  1.00 20.00    -0.051 C 
HETATM    4  C4  UNL     1     -34.440  14.495  -4.057  1.00 20.00    -0.052 C 
HETATM    5  C5  UNL     1     -36.904  14.677  -4.150  1.00 20.00     0.150 C 
HETATM    6  C6  UNL     1     -33.622  17.845  -5.570  1.00 20.00     0.028 C 
HETATM    7  C7  UNL     1     -36.803  15.958  -4.956  1.00 20.00     0.092 C 
HETATM    8  C8  UNL     1     -35.152  17.813  -5.586  1.00 20.00     0.013 C 
HETATM    9  C9  UNL     1     -35.540  16.720  -4.587  1.00 20.00     0.026 C 
HETATM   10  C10 UNL     1     -33.176  13.737  -3.763  1.00 20.00     0.049 C 
HETATM   11  O11 UNL     1     -37.991  14.190  -3.844  1.00 20.00    -0.293 OA
ENDROOT
TORSDOF 0
ENDMDL
