MODEL 1
REMARK VINA RESULT:      -4.7      0.000      0.000
REMARK  2 active torsions:
REMARK  status: ('A' for Active; 'I' for Inactive)
REMARK    1  A    between atoms: C3_3  and  C4_4 
REMARK    2  A    between atoms: C3_3  and  O10_10 
ROOT
HETATM    1  C1  UNL     1     -33.036   6.552   3.801  1.00 20.00    -0.065 A 
HETATM    2  C2  UNL     1     -32.015   7.297   3.437  1.00 20.00    -0.027 C 
HETATM    3  C4  UNL     1     -33.554   5.657   4.765  1.00 20.00     0.122 A 
HETATM    4  C5  UNL     1     -34.338   6.117   3.481  1.00 20.00     0.029 A 
HETATM    5  C6  UNL     1     -31.970   8.144   2.195  1.00 20.00     0.036 C 
HETATM    6  C7  UNL     1     -34.581   5.158   2.371  1.00 20.00     0.016 C 
ENDROOT
BRANCH   3   7
HETATM    7  C3  UNL     1     -33.899   6.248   6.058  1.00 20.00     0.267 C 
HETATM    8  O9  UNL     1     -33.328   7.214   6.545  1.00 20.00    -0.265 OA
BRANCH   7   9
HETATM    9  O10 UNL     1     -34.938   5.558   6.610  1.00 20.00    -0.326 OA
HETATM   10  C8  UNL     1     -35.101   4.215   6.141  1.00 20.00     0.213 C 
ENDBRANCH   7   9
ENDBRANCH   3   7
TORSDOF 2
ENDMDL
MODEL 2
REMARK VINA RESULT:      -4.5     11.563     12.528
REMARK  2 active torsions:
REMARK  status: ('A' for Active; 'I' for Inactive)
REMARK    1  A    between atoms: C3_3  and  C4_4 
REMARK    2  A    between atoms: C3_3  and  O10_10 
ROOT
HETATM    1  C1  UNL     1     -34.984  15.701  -2.853  1.00 20.00    -0.065 A 
HETATM    2  C2  UNL     1     -34.182  16.218  -1.948  1.00 20.00    -0.027 C 
HETATM    3  C4  UNL     1     -35.086  15.109  -4.132  1.00 20.00     0.122 A 
HETATM    4  C5  UNL     1     -36.315  15.375  -3.187  1.00 20.00     0.029 A 
HETATM    5  C6  UNL     1     -34.628  16.758  -0.616  1.00 20.00     0.036 C 
HETATM    6  C7  UNL     1     -37.306  16.429  -3.528  1.00 20.00     0.016 C 
ENDROOT
BRANCH   3   7
HETATM    7  C3  UNL     1     -34.558  13.750  -4.247  1.00 20.00     0.267 C 
HETATM    8  O9  UNL     1     -33.912  13.189  -3.372  1.00 20.00    -0.265 OA
BRANCH   7   9
HETATM    9  O10 UNL     1     -34.900  13.229  -5.460  1.00 20.00    -0.326 OA
HETATM   10  C8  UNL     1     -35.100  14.188  -6.505  1.00 20.00     0.213 C 
ENDBRANCH   7   9
ENDBRANCH   3   7
TORSDOF 2
ENDMDL
MODEL 3
REMARK VINA RESULT:      -4.5      2.021      4.057
REMARK  2 active torsions:
REMARK  status: ('A' for Active; 'I' for Inactive)
REMARK    1  A    between atoms: C3_3  and  C4_4 
REMARK    2  A    between atoms: C3_3  and  O10_10 
ROOT
HETATM    1  C1  UNL     1     -34.224   5.955   4.729  1.00 20.00    -0.065 A 
HETATM    2  C2  UNL     1     -34.178   5.667   6.011  1.00 20.00    -0.027 C 
HETATM    3  C4  UNL     1     -33.752   6.797   3.696  1.00 20.00     0.122 A 
HETATM    4  C5  UNL     1     -34.782   5.628   3.476  1.00 20.00     0.029 A 
HETATM    5  C6  UNL     1     -34.954   4.559   6.669  1.00 20.00     0.036 C 
HETATM    6  C7  UNL     1     -36.202   5.933   3.160  1.00 20.00     0.016 C 
ENDROOT
BRANCH   3   7
HETATM    7  C3  UNL     1     -32.357   6.598   3.303  1.00 20.00     0.267 C 
HETATM    8  O9  UNL     1     -31.823   5.502   3.199  1.00 20.00    -0.265 OA
BRANCH   7   9
HETATM    9  O10 UNL     1     -31.770   7.809   3.079  1.00 20.00    -0.326 OA
HETATM   10  C8  UNL     1     -32.092   8.424   1.827  1.00 20.00     0.213 C 
ENDBRANCH   7   9
ENDBRANCH   3   7
TORSDOF 2
ENDMDL
MODEL 4
REMARK VINA RESULT:      -4.4     11.864     12.519
REMARK  2 active torsions:
REMARK  status: ('A' for Active; 'I' for Inactive)
REMARK    1  A    between atoms: C3_3  and  C4_4 
REMARK    2  A    between atoms: C3_3  and  O10_10 
ROOT
HETATM    1  C1  UNL     1     -34.572  15.540  -2.664  1.00 20.00    -0.065 A 
HETATM    2  C2  UNL     1     -34.756  16.253  -1.575  1.00 20.00    -0.027 C 
HETATM    3  C4  UNL     1     -35.075  14.515  -3.497  1.00 20.00     0.122 A 
HETATM    4  C5  UNL     1     -33.736  15.293  -3.772  1.00 20.00     0.029 A 
HETATM    5  C6  UNL     1     -33.825  17.329  -1.087  1.00 20.00     0.036 C 
HETATM    6  C7  UNL     1     -32.427  14.606  -3.614  1.00 20.00     0.016 C 
ENDROOT
BRANCH   3   7
HETATM    7  C3  UNL     1     -36.268  14.856  -4.273  1.00 20.00     0.267 C 
HETATM    8  O9  UNL     1     -36.279  15.660  -5.195  1.00 20.00    -0.265 OA
BRANCH   7   9
HETATM    9  O10 UNL     1     -37.333  14.144  -3.806  1.00 20.00    -0.326 OA
HETATM   10  C8  UNL     1     -38.564  14.872  -3.713  1.00 20.00     0.213 C 
ENDBRANCH   7   9
ENDBRANCH   3   7
TORSDOF 2
ENDMDL
MODEL 5
REMARK VINA RESULT:      -4.3      2.092      4.111
REMARK  2 active torsions:
REMARK  status: ('A' for Active; 'I' for Inactive)
REMARK    1  A    between atoms: C3_3  and  C4_4 
REMARK    2  A    between atoms: C3_3  and  O10_10 
ROOT
HETATM    1  C1  UNL     1     -33.651   6.423   4.238  1.00 20.00    -0.065 A 
HETATM    2  C2  UNL     1     -33.931   6.469   5.522  1.00 20.00    -0.027 C 
HETATM    3  C4  UNL     1     -33.286   7.159   3.088  1.00 20.00     0.122 A 
HETATM    4  C5  UNL     1     -33.521   5.603   3.098  1.00 20.00     0.029 A 
HETATM    5  C6  UNL     1     -34.293   5.276   6.364  1.00 20.00     0.036 C 
HETATM    6  C7  UNL     1     -34.712   5.022   2.424  1.00 20.00     0.016 C 
ENDROOT
BRANCH   3   7
HETATM    7  C3  UNL     1     -31.916   7.670   3.070  1.00 20.00     0.267 C 
HETATM    8  O9  UNL     1     -31.169   7.665   4.039  1.00 20.00    -0.265 OA
BRANCH   7   9
HETATM    9  O10 UNL     1     -31.622   8.140   1.824  1.00 20.00    -0.326 OA
HETATM   10  C8  UNL     1     -32.340   9.313   1.425  1.00 20.00     0.213 C 
ENDBRANCH   7   9
ENDBRANCH   3   7
TORSDOF 2
ENDMDL
MODEL 6
REMARK VINA RESULT:      -4.3     11.540     12.696
REMARK  2 active torsions:
REMARK  status: ('A' for Active; 'I' for Inactive)
REMARK    1  A    between atoms: C3_3  and  C4_4 
REMARK    2  A    between atoms: C3_3  and  O10_10 
ROOT
HETATM    1  C1  UNL     1     -34.142  16.763  -3.260  1.00 20.00    -0.065 A 
HETATM    2  C2  UNL     1     -34.159  17.669  -4.213  1.00 20.00    -0.027 C 
HETATM    3  C4  UNL     1     -34.397  15.416  -2.915  1.00 20.00     0.122 A 
HETATM    4  C5  UNL     1     -33.861  16.496  -1.904  1.00 20.00     0.029 A 
HETATM    5  C6  UNL     1     -33.745  19.104  -4.038  1.00 20.00     0.036 C 
HETATM    6  C7  UNL     1     -34.740  17.005  -0.818  1.00 20.00     0.016 C 
ENDROOT
BRANCH   3   7
HETATM    7  C3  UNL     1     -33.464  14.433  -3.465  1.00 20.00     0.267 C 
HETATM    8  O9  UNL     1     -32.268  14.636  -3.623  1.00 20.00    -0.265 OA
BRANCH   7   9
HETATM    9  O10 UNL     1     -34.137  13.284  -3.761  1.00 20.00    -0.326 OA
HETATM   10  C8  UNL     1     -35.422  13.464  -4.367  1.00 20.00     0.213 C 
ENDBRANCH   7   9
ENDBRANCH   3   7
TORSDOF 2
ENDMDL
MODEL 7
REMARK VINA RESULT:      -4.2     11.587     13.255
REMARK  2 active torsions:
REMARK  status: ('A' for Active; 'I' for Inactive)
REMARK    1  A    between atoms: C3_3  and  C4_4 
REMARK    2  A    between atoms: C3_3  and  O10_10 
ROOT
HETATM    1  C1  UNL     1     -35.867  14.983  -5.515  1.00 20.00    -0.065 A 
HETATM    2  C2  UNL     1     -37.147  15.167  -5.278  1.00 20.00    -0.027 C 
HETATM    3  C4  UNL     1     -34.587  14.767  -4.955  1.00 20.00     0.122 A 
HETATM    4  C5  UNL     1     -34.864  14.875  -6.500  1.00 20.00     0.029 A 
HETATM    5  C6  UNL     1     -38.195  15.366  -6.338  1.00 20.00     0.036 C 
HETATM    6  C7  UNL     1     -34.398  16.064  -7.261  1.00 20.00     0.016 C 
ENDROOT
BRANCH   3   7
HETATM    7  C3  UNL     1     -34.368  13.448  -4.363  1.00 20.00     0.267 C 
HETATM    8  O9  UNL     1     -35.178  12.532  -4.409  1.00 20.00    -0.265 OA
BRANCH   7   9
HETATM    9  O10 UNL     1     -33.141  13.415  -3.767  1.00 20.00    -0.326 OA
HETATM   10  C8  UNL     1     -32.509  14.688  -3.593  1.00 20.00     0.213 C 
ENDBRANCH   7   9
ENDBRANCH   3   7
TORSDOF 2
ENDMDL
MODEL 8
REMARK VINA RESULT:      -4.1     11.917     12.804
REMARK  2 active torsions:
REMARK  status: ('A' for Active; 'I' for Inactive)
REMARK    1  A    between atoms: C3_3  and  C4_4 
REMARK    2  A    between atoms: C3_3  and  O10_10 
ROOT
HETATM    1  C1  UNL     1     -35.520  16.293  -2.568  1.00 20.00    -0.065 A 
HETATM    2  C2  UNL     1     -34.619  16.217  -1.612  1.00 20.00    -0.027 C 
HETATM    3  C4  UNL     1     -35.930  15.821  -3.835  1.00 20.00     0.122 A 
HETATM    4  C5  UNL     1     -36.712  16.905  -3.005  1.00 20.00     0.029 A 
HETATM    5  C6  UNL     1     -34.652  17.017  -0.338  1.00 20.00     0.036 C 
HETATM    6  C7  UNL     1     -36.733  18.321  -3.457  1.00 20.00     0.016 C 
ENDROOT
BRANCH   3   7
HETATM    7  C3  UNL     1     -36.437  14.449  -3.867  1.00 20.00     0.267 C 
HETATM    8  O9  UNL     1     -37.625  14.157  -3.869  1.00 20.00    -0.265 OA
BRANCH   7   9
HETATM    9  O10 UNL     1     -35.388  13.577  -3.894  1.00 20.00    -0.326 OA
HETATM   10  C8  UNL     1     -34.768  13.403  -5.173  1.00 20.00     0.213 C 
ENDBRANCH   7   9
ENDBRANCH   3   7
TORSDOF 2
ENDMDL
MODEL 9
REMARK VINA RESULT:      -4.1     11.490     12.725
REMARK  2 active torsions:
REMARK  status: ('A' for Active; 'I' for Inactive)
REMARK    1  A    between atoms: C3_3  and  C4_4 
REMARK    2  A    between atoms: C3_3  and  O10_10 
ROOT
HETATM    1  C1  UNL     1     -34.040  15.630  -4.539  1.00 20.00    -0.065 A 
HETATM    2  C2  UNL     1     -33.647  16.217  -5.649  1.00 20.00    -0.027 C 
HETATM    3  C4  UNL     1     -33.783  15.422  -3.165  1.00 20.00     0.122 A 
HETATM    4  C5  UNL     1     -34.996  14.785  -3.939  1.00 20.00     0.029 A 
HETATM    5  C6  UNL     1     -34.348  16.101  -6.974  1.00 20.00     0.036 C 
HETATM    6  C7  UNL     1     -35.021  13.325  -4.218  1.00 20.00     0.016 C 
ENDROOT
BRANCH   3   7
HETATM    7  C3  UNL     1     -34.022  16.573  -2.294  1.00 20.00     0.267 C 
HETATM    8  O9  UNL     1     -33.692  17.719  -2.567  1.00 20.00    -0.265 OA
BRANCH   7   9
HETATM    9  O10 UNL     1     -34.655  16.161  -1.159  1.00 20.00    -0.326 OA
HETATM   10  C8  UNL     1     -34.752  17.141  -0.120  1.00 20.00     0.213 C 
ENDBRANCH   7   9
ENDBRANCH   3   7
TORSDOF 2
ENDMDL
