MODEL 1
REMARK VINA RESULT:      -5.0      0.000      0.000
REMARK  1 active torsions:
REMARK  status: ('A' for Active; 'I' for Inactive)
REMARK    1  A    between atoms: C4_4  and  C5_5 
ROOT
HETATM    1  C1  UNL     1     -33.428  13.691  -3.799  1.00 20.00    -0.022 C 
HETATM    2  C2  UNL     1     -34.340  13.311  -4.715  1.00 20.00    -0.021 C 
HETATM    3  C3  UNL     1     -35.001  15.383  -2.925  1.00 20.00    -0.006 C 
HETATM    4  C4  UNL     1     -35.903  15.000  -3.848  1.00 20.00     0.009 C 
HETATM    5  C6  UNL     1     -33.364  15.991  -4.656  1.00 20.00     0.013 C 
HETATM    6  C7  UNL     1     -34.421  15.548  -5.720  1.00 20.00     0.014 C 
HETATM    7  C8  UNL     1     -33.557  15.148  -3.364  1.00 20.00     0.031 C 
HETATM    8  C9  UNL     1     -35.308  14.419  -5.122  1.00 20.00     0.045 C 
ENDROOT
BRANCH   4   9
HETATM    9  C5  UNL     1     -37.335  15.147  -3.639  1.00 20.00     0.248 C 
HETATM   10  O10 UNL     1     -38.071  14.154  -3.741  1.00 20.00    -0.274 OA
HETATM   11 CL11 UNL     1     -37.932  16.751  -3.250  1.00 20.00    -0.039 Cl
ENDBRANCH   4   9
TORSDOF 1
ENDMDL
MODEL 2
REMARK VINA RESULT:      -4.8      2.399      3.285
REMARK  1 active torsions:
REMARK  status: ('A' for Active; 'I' for Inactive)
REMARK    1  A    between atoms: C4_4  and  C5_5 
ROOT
HETATM    1  C1  UNL     1     -35.255  15.011  -5.620  1.00 20.00    -0.022 C 
HETATM    2  C2  UNL     1     -34.034  15.569  -5.496  1.00 20.00    -0.021 C 
HETATM    3  C3  UNL     1     -35.689  15.416  -3.222  1.00 20.00    -0.006 C 
HETATM    4  C4  UNL     1     -34.465  15.966  -3.108  1.00 20.00     0.009 C 
HETATM    5  C6  UNL     1     -34.747  13.269  -3.965  1.00 20.00     0.013 C 
HETATM    6  C7  UNL     1     -33.330  13.916  -3.824  1.00 20.00     0.014 C 
HETATM    7  C8  UNL     1     -35.777  14.374  -4.336  1.00 20.00     0.031 C 
HETATM    8  C9  UNL     1     -33.435  15.444  -4.098  1.00 20.00     0.045 C 
ENDROOT
BRANCH   4   9
HETATM    9  C5  UNL     1     -34.159  16.971  -2.103  1.00 20.00     0.248 C 
HETATM   10  O10 UNL     1     -33.552  18.001  -2.436  1.00 20.00    -0.274 OA
HETATM   11 CL11 UNL     1     -34.681  16.651  -0.458  1.00 20.00    -0.039 Cl
ENDBRANCH   4   9
TORSDOF 1
ENDMDL
MODEL 3
REMARK VINA RESULT:      -4.8      2.664      3.729
REMARK  1 active torsions:
REMARK  status: ('A' for Active; 'I' for Inactive)
REMARK    1  A    between atoms: C4_4  and  C5_5 
ROOT
HETATM    1  C1  UNL     1     -35.252  17.772  -3.756  1.00 20.00    -0.022 C 
HETATM    2  C2  UNL     1     -36.040  16.747  -3.375  1.00 20.00    -0.021 C 
HETATM    3  C3  UNL     1     -33.340  16.225  -3.987  1.00 20.00    -0.006 C 
HETATM    4  C4  UNL     1     -34.134  15.209  -3.599  1.00 20.00     0.009 C 
HETATM    5  C6  UNL     1     -33.709  17.430  -1.875  1.00 20.00     0.013 C 
HETATM    6  C7  UNL     1     -34.626  16.242  -1.433  1.00 20.00     0.014 C 
HETATM    7  C8  UNL     1     -33.776  17.576  -3.422  1.00 20.00     0.031 C 
HETATM    8  C9  UNL     1     -35.287  15.609  -2.691  1.00 20.00     0.045 C 
ENDROOT
BRANCH   4   9
HETATM    9  C5  UNL     1     -33.891  13.836  -4.013  1.00 20.00     0.248 C 
HETATM   10  O10 UNL     1     -32.984  13.187  -3.468  1.00 20.00    -0.274 OA
HETATM   11 CL11 UNL     1     -34.917  13.181  -5.277  1.00 20.00    -0.039 Cl
ENDBRANCH   4   9
TORSDOF 1
ENDMDL
MODEL 4
REMARK VINA RESULT:      -4.7      2.540      3.333
REMARK  1 active torsions:
REMARK  status: ('A' for Active; 'I' for Inactive)
REMARK    1  A    between atoms: C4_4  and  C5_5 
ROOT
HETATM    1  C1  UNL     1     -34.655  15.596  -2.788  1.00 20.00    -0.022 C 
HETATM    2  C2  UNL     1     -35.655  15.006  -3.472  1.00 20.00    -0.021 C 
HETATM    3  C3  UNL     1     -33.425  15.972  -4.896  1.00 20.00    -0.006 C 
HETATM    4  C4  UNL     1     -34.426  15.376  -5.570  1.00 20.00     0.009 C 
HETATM    5  C6  UNL     1     -33.005  13.950  -3.563  1.00 20.00     0.013 C 
HETATM    6  C7  UNL     1     -34.167  13.265  -4.355  1.00 20.00     0.014 C 
HETATM    7  C8  UNL     1     -33.290  15.475  -3.459  1.00 20.00     0.031 C 
HETATM    8  C9  UNL     1     -35.208  14.343  -4.772  1.00 20.00     0.045 C 
ENDROOT
BRANCH   4   9
HETATM    9  C5  UNL     1     -34.721  15.693  -6.959  1.00 20.00     0.248 C 
HETATM   10  O10 UNL     1     -34.408  16.806  -7.409  1.00 20.00    -0.274 OA
HETATM   11 CL11 UNL     1     -35.514  14.455  -7.917  1.00 20.00    -0.039 Cl
ENDBRANCH   4   9
TORSDOF 1
ENDMDL
MODEL 5
REMARK VINA RESULT:      -4.6     11.838     12.894
REMARK  1 active torsions:
REMARK  status: ('A' for Active; 'I' for Inactive)
REMARK    1  A    between atoms: C4_4  and  C5_5 
ROOT
HETATM    1  C1  UNL     1     -41.117   6.739  -1.132  1.00 20.00    -0.022 C 
HETATM    2  C2  UNL     1     -42.348   6.746  -1.679  1.00 20.00    -0.021 C 
HETATM    3  C3  UNL     1     -40.910   4.325  -1.610  1.00 20.00    -0.006 C 
HETATM    4  C4  UNL     1     -42.143   4.341  -2.150  1.00 20.00     0.009 C 
HETATM    5  C6  UNL     1     -41.761   5.087   0.567  1.00 20.00     0.013 C 
HETATM    6  C7  UNL     1     -43.191   5.097  -0.068  1.00 20.00     0.014 C 
HETATM    7  C8  UNL     1     -40.711   5.394  -0.538  1.00 20.00     0.031 C 
HETATM    8  C9  UNL     1     -43.073   5.406  -1.588  1.00 20.00     0.045 C 
ENDROOT
BRANCH   4   9
HETATM    9  C5  UNL     1     -42.549   3.399  -3.180  1.00 20.00     0.248 C 
HETATM   10  O10 UNL     1     -43.411   3.734  -4.008  1.00 20.00    -0.274 OA
HETATM   11 CL11 UNL     1     -41.778   1.822  -3.181  1.00 20.00    -0.039 Cl
ENDBRANCH   4   9
TORSDOF 1
ENDMDL
MODEL 6
REMARK VINA RESULT:      -4.6      2.289      3.092
REMARK  1 active torsions:
REMARK  status: ('A' for Active; 'I' for Inactive)
REMARK    1  A    between atoms: C4_4  and  C5_5 
ROOT
HETATM    1  C1  UNL     1     -34.717  16.320  -1.759  1.00 20.00    -0.022 C 
HETATM    2  C2  UNL     1     -33.637  16.031  -2.510  1.00 20.00    -0.021 C 
HETATM    3  C3  UNL     1     -36.173  15.202  -3.411  1.00 20.00    -0.006 C 
HETATM    4  C4  UNL     1     -35.088  14.923  -4.157  1.00 20.00     0.009 C 
HETATM    5  C6  UNL     1     -35.760  17.621  -3.563  1.00 20.00     0.013 C 
HETATM    6  C7  UNL     1     -34.504  17.286  -4.433  1.00 20.00     0.014 C 
HETATM    7  C8  UNL     1     -36.009  16.458  -2.559  1.00 20.00     0.031 C 
HETATM    8  C9  UNL     1     -33.935  15.904  -4.001  1.00 20.00     0.045 C 
ENDROOT
BRANCH   4   9
HETATM    9  C5  UNL     1     -35.036  13.777  -5.051  1.00 20.00     0.248 C 
HETATM   10  O10 UNL     1     -34.886  12.640  -4.576  1.00 20.00    -0.274 OA
HETATM   11 CL11 UNL     1     -35.193  14.088  -6.771  1.00 20.00    -0.039 Cl
ENDBRANCH   4   9
TORSDOF 1
ENDMDL
MODEL 7
REMARK VINA RESULT:      -4.6      0.734      1.106
REMARK  1 active torsions:
REMARK  status: ('A' for Active; 'I' for Inactive)
REMARK    1  A    between atoms: C4_4  and  C5_5 
ROOT
HETATM    1  C1  UNL     1     -33.354  14.811  -3.743  1.00 20.00    -0.022 C 
HETATM    2  C2  UNL     1     -34.144  13.721  -3.683  1.00 20.00    -0.021 C 
HETATM    3  C3  UNL     1     -35.334  16.235  -4.132  1.00 20.00    -0.006 C 
HETATM    4  C4  UNL     1     -36.115  15.139  -4.077  1.00 20.00     0.009 C 
HETATM    5  C6  UNL     1     -34.063  15.336  -6.035  1.00 20.00     0.013 C 
HETATM    6  C7  UNL     1     -34.978  14.070  -5.965  1.00 20.00     0.014 C 
HETATM    7  C8  UNL     1     -33.914  15.936  -4.607  1.00 20.00     0.031 C 
HETATM    8  C9  UNL     1     -35.431  13.845  -4.494  1.00 20.00     0.045 C 
ENDROOT
BRANCH   4   9
HETATM    9  C5  UNL     1     -37.507  15.200  -3.661  1.00 20.00     0.248 C 
HETATM   10  O10 UNL     1     -38.196  14.168  -3.684  1.00 20.00    -0.274 OA
HETATM   11 CL11 UNL     1     -38.127  16.760  -3.148  1.00 20.00    -0.039 Cl
ENDBRANCH   4   9
TORSDOF 1
ENDMDL
MODEL 8
REMARK VINA RESULT:      -4.6      2.412      2.984
REMARK  1 active torsions:
REMARK  status: ('A' for Active; 'I' for Inactive)
REMARK    1  A    between atoms: C4_4  and  C5_5 
ROOT
HETATM    1  C1  UNL     1     -35.426  13.511  -4.199  1.00 20.00    -0.022 C 
HETATM    2  C2  UNL     1     -36.307  14.466  -3.840  1.00 20.00    -0.021 C 
HETATM    3  C3  UNL     1     -33.553  14.995  -3.574  1.00 20.00    -0.006 C 
HETATM    4  C4  UNL     1     -34.441  15.944  -3.223  1.00 20.00     0.009 C 
HETATM    5  C6  UNL     1     -34.381  14.956  -5.888  1.00 20.00     0.013 C 
HETATM    6  C7  UNL     1     -35.406  16.062  -5.472  1.00 20.00     0.014 C 
HETATM    7  C8  UNL     1     -34.076  14.055  -4.658  1.00 20.00     0.031 C 
HETATM    8  C9  UNL     1     -35.766  15.887  -3.968  1.00 20.00     0.045 C 
ENDROOT
BRANCH   4   9
HETATM    9  C5  UNL     1     -34.141  16.950  -2.217  1.00 20.00     0.248 C 
HETATM   10  O10 UNL     1     -33.533  17.980  -2.547  1.00 20.00    -0.274 OA
HETATM   11 CL11 UNL     1     -34.671  16.631  -0.574  1.00 20.00    -0.039 Cl
ENDBRANCH   4   9
TORSDOF 1
ENDMDL
MODEL 9
REMARK VINA RESULT:      -4.5      2.603      3.783
REMARK  1 active torsions:
REMARK  status: ('A' for Active; 'I' for Inactive)
REMARK    1  A    between atoms: C4_4  and  C5_5 
ROOT
HETATM    1  C1  UNL     1     -35.810  17.123  -6.465  1.00 20.00    -0.022 C 
HETATM    2  C2  UNL     1     -34.513  16.764  -6.537  1.00 20.00    -0.021 C 
HETATM    3  C3  UNL     1     -36.355  14.967  -5.391  1.00 20.00    -0.006 C 
HETATM    4  C4  UNL     1     -35.058  14.615  -5.472  1.00 20.00     0.009 C 
HETATM    5  C6  UNL     1     -36.529  15.213  -7.831  1.00 20.00     0.013 C 
HETATM    6  C7  UNL     1     -35.023  14.798  -7.915  1.00 20.00     0.014 C 
HETATM    7  C8  UNL     1     -36.780  15.947  -6.483  1.00 20.00     0.031 C 
HETATM    8  C9  UNL     1     -34.293  15.256  -6.620  1.00 20.00     0.045 C 
ENDROOT
BRANCH   4   9
HETATM    9  C5  UNL     1     -34.449  13.683  -4.537  1.00 20.00     0.248 C 
HETATM   10  O10 UNL     1     -34.968  12.568  -4.363  1.00 20.00    -0.274 OA
HETATM   11 CL11 UNL     1     -32.997  14.209  -3.704  1.00 20.00    -0.039 Cl
ENDBRANCH   4   9
TORSDOF 1
ENDMDL
