MODEL 1
REMARK VINA RESULT:      -4.7      0.000      0.000
REMARK  3 active torsions:
REMARK  status: ('A' for Active; 'I' for Inactive)
REMARK    1  A    between atoms: C7_7  and  C8_8 
REMARK    2  A    between atoms: C8_8  and  C9_9 
REMARK    3  A    between atoms: C9_9  and  N10_10 
ROOT
HETATM    1  C1  UNL     1     -32.169   8.942   1.066  1.00 20.00     0.012 C 
HETATM    2  C3  UNL     1     -31.961   8.329   2.076  1.00 20.00    -0.117 C 
HETATM    3  C7  UNL     1     -31.702   7.582   3.316  1.00 20.00     0.096 C 
ENDROOT
BRANCH   3   4
HETATM    4  C8  UNL     1     -32.562   6.316   3.425  1.00 20.00     0.061 C 
BRANCH   4   5
HETATM    5  C9  UNL     1     -33.969   6.545   4.008  1.00 20.00     0.300 C 
HETATM    6  C4  UNL     1     -33.952   6.546   5.481  1.00 20.00    -0.081 C 
HETATM    7  C2  UNL     1     -33.939   6.553   6.681  1.00 20.00     0.014 C 
BRANCH   5   8
HETATM    8  N10 UNL     1     -34.857   5.481   3.534  1.00 20.00     0.095 N 
HETATM    9  C5  UNL     1     -35.066   4.487   4.586  1.00 20.00     0.310 C 
HETATM   10  C6  UNL     1     -34.302   4.851   2.337  1.00 20.00     0.310 C 
ENDBRANCH   5   8
ENDBRANCH   4   5
ENDBRANCH   3   4
TORSDOF 3
ENDMDL
MODEL 2
REMARK VINA RESULT:      -4.6     10.474     11.891
REMARK  3 active torsions:
REMARK  status: ('A' for Active; 'I' for Inactive)
REMARK    1  A    between atoms: C7_7  and  C8_8 
REMARK    2  A    between atoms: C8_8  and  C9_9 
REMARK    3  A    between atoms: C9_9  and  N10_10 
ROOT
HETATM    1  C1  UNL     1     -34.499  15.179  -7.356  1.00 20.00     0.012 C 
HETATM    2  C3  UNL     1     -34.064  15.905  -6.506  1.00 20.00    -0.117 C 
HETATM    3  C7  UNL     1     -33.530  16.800  -5.468  1.00 20.00     0.096 C 
ENDROOT
BRANCH   3   4
HETATM    4  C8  UNL     1     -33.251  16.065  -4.151  1.00 20.00     0.061 C 
BRANCH   4   5
HETATM    5  C9  UNL     1     -34.511  15.620  -3.386  1.00 20.00     0.300 C 
HETATM    6  C4  UNL     1     -34.542  16.178  -2.022  1.00 20.00    -0.081 C 
HETATM    7  C2  UNL     1     -34.573  16.636  -0.913  1.00 20.00     0.014 C 
BRANCH   5   8
HETATM    8  N10 UNL     1     -34.527  14.157  -3.312  1.00 20.00     0.095 N 
HETATM    9  C5  UNL     1     -33.229  13.614  -3.709  1.00 20.00     0.310 C 
HETATM   10  C6  UNL     1     -35.590  13.616  -4.157  1.00 20.00     0.310 C 
ENDBRANCH   5   8
ENDBRANCH   4   5
ENDBRANCH   3   4
TORSDOF 3
ENDMDL
MODEL 3
REMARK VINA RESULT:      -4.5     10.975     11.847
REMARK  3 active torsions:
REMARK  status: ('A' for Active; 'I' for Inactive)
REMARK    1  A    between atoms: C7_7  and  C8_8 
REMARK    2  A    between atoms: C8_8  and  C9_9 
REMARK    3  A    between atoms: C9_9  and  N10_10 
ROOT
HETATM    1  C1  UNL     1     -34.879  17.713   0.884  1.00 20.00     0.012 C 
HETATM    2  C3  UNL     1     -34.467  17.341  -0.180  1.00 20.00    -0.117 C 
HETATM    3  C7  UNL     1     -33.957  16.889  -1.483  1.00 20.00     0.096 C 
ENDROOT
BRANCH   3   4
HETATM    4  C8  UNL     1     -34.853  15.819  -2.121  1.00 20.00     0.061 C 
BRANCH   4   5
HETATM    5  C9  UNL     1     -34.174  14.992  -3.229  1.00 20.00     0.300 C 
HETATM    6  C4  UNL     1     -33.688  15.849  -4.325  1.00 20.00    -0.081 C 
HETATM    7  C2  UNL     1     -33.287  16.546  -5.216  1.00 20.00     0.014 C 
BRANCH   5   8
HETATM    8  N10 UNL     1     -35.141  14.028  -3.759  1.00 20.00     0.095 N 
HETATM    9  C5  UNL     1     -34.551  13.270  -4.862  1.00 20.00     0.310 C 
HETATM   10  C6  UNL     1     -36.354  14.713  -4.200  1.00 20.00     0.310 C 
ENDBRANCH   5   8
ENDBRANCH   4   5
ENDBRANCH   3   4
TORSDOF 3
ENDMDL
MODEL 4
REMARK VINA RESULT:      -4.5     11.099     11.891
REMARK  3 active torsions:
REMARK  status: ('A' for Active; 'I' for Inactive)
REMARK    1  A    between atoms: C7_7  and  C8_8 
REMARK    2  A    between atoms: C8_8  and  C9_9 
REMARK    3  A    between atoms: C9_9  and  N10_10 
ROOT
HETATM    1  C1  UNL     1     -34.759  17.011  -0.245  1.00 20.00     0.012 C 
HETATM    2  C3  UNL     1     -34.359  16.627  -1.309  1.00 20.00    -0.117 C 
HETATM    3  C7  UNL     1     -33.864  16.162  -2.613  1.00 20.00     0.096 C 
ENDROOT
BRANCH   3   4
HETATM    4  C8  UNL     1     -34.649  14.953  -3.137  1.00 20.00     0.061 C 
BRANCH   4   5
HETATM    5  C9  UNL     1     -35.590  15.262  -4.317  1.00 20.00     0.300 C 
HETATM    6  C4  UNL     1     -37.005  15.111  -3.935  1.00 20.00    -0.081 C 
HETATM    7  C2  UNL     1     -38.159  14.994  -3.625  1.00 20.00     0.014 C 
BRANCH   5   8
HETATM    8  N10 UNL     1     -35.284  14.346  -5.418  1.00 20.00     0.095 N 
HETATM    9  C5  UNL     1     -34.614  13.149  -4.913  1.00 20.00     0.310 C 
HETATM   10  C6  UNL     1     -34.455  15.013  -6.420  1.00 20.00     0.310 C 
ENDBRANCH   5   8
ENDBRANCH   4   5
ENDBRANCH   3   4
TORSDOF 3
ENDMDL
MODEL 5
REMARK VINA RESULT:      -4.5      1.339      2.299
REMARK  3 active torsions:
REMARK  status: ('A' for Active; 'I' for Inactive)
REMARK    1  A    between atoms: C7_7  and  C8_8 
REMARK    2  A    between atoms: C8_8  and  C9_9 
REMARK    3  A    between atoms: C9_9  and  N10_10 
ROOT
HETATM    1  C1  UNL     1     -32.179   9.151   1.543  1.00 20.00     0.012 C 
HETATM    2  C3  UNL     1     -32.110   8.108   2.132  1.00 20.00    -0.117 C 
HETATM    3  C7  UNL     1     -32.020   6.826   2.848  1.00 20.00     0.096 C 
ENDROOT
BRANCH   3   4
HETATM    4  C8  UNL     1     -32.891   6.802   4.111  1.00 20.00     0.061 C 
BRANCH   4   5
HETATM    5  C9  UNL     1     -33.758   5.538   4.267  1.00 20.00     0.300 C 
HETATM    6  C4  UNL     1     -35.103   5.730   3.697  1.00 20.00    -0.081 C 
HETATM    7  C2  UNL     1     -36.197   5.882   3.229  1.00 20.00     0.014 C 
BRANCH   5   8
HETATM    8  N10 UNL     1     -33.876   5.219   5.692  1.00 20.00     0.095 N 
HETATM    9  C5  UNL     1     -34.908   4.206   5.902  1.00 20.00     0.310 C 
HETATM   10  C6  UNL     1     -34.176   6.425   6.461  1.00 20.00     0.310 C 
ENDBRANCH   5   8
ENDBRANCH   4   5
ENDBRANCH   3   4
TORSDOF 3
ENDMDL
MODEL 6
REMARK VINA RESULT:      -4.4     10.856     12.608
REMARK  3 active torsions:
REMARK  status: ('A' for Active; 'I' for Inactive)
REMARK    1  A    between atoms: C7_7  and  C8_8 
REMARK    2  A    between atoms: C8_8  and  C9_9 
REMARK    3  A    between atoms: C9_9  and  N10_10 
ROOT
HETATM    1  C1  UNL     1     -34.433  17.828   0.583  1.00 20.00     0.012 C 
HETATM    2  C3  UNL     1     -34.551  17.117  -0.377  1.00 20.00    -0.117 C 
HETATM    3  C7  UNL     1     -34.700  16.242  -1.549  1.00 20.00     0.096 C 
ENDROOT
BRANCH   3   4
HETATM    4  C8  UNL     1     -33.965  16.786  -2.781  1.00 20.00     0.061 C 
BRANCH   4   5
HETATM    5  C9  UNL     1     -34.243  16.016  -4.086  1.00 20.00     0.300 C 
HETATM    6  C4  UNL     1     -33.863  14.598  -3.969  1.00 20.00    -0.081 C 
HETATM    7  C2  UNL     1     -33.559  13.440  -3.876  1.00 20.00     0.014 C 
BRANCH   5   8
HETATM    8  N10 UNL     1     -33.480  16.636  -5.172  1.00 20.00     0.095 N 
HETATM    9  C5  UNL     1     -33.532  18.093  -5.062  1.00 20.00     0.310 C 
HETATM   10  C6  UNL     1     -33.996  16.201  -6.469  1.00 20.00     0.310 C 
ENDBRANCH   5   8
ENDBRANCH   4   5
ENDBRANCH   3   4
TORSDOF 3
ENDMDL
MODEL 7
REMARK VINA RESULT:      -4.3     10.761     11.854
REMARK  3 active torsions:
REMARK  status: ('A' for Active; 'I' for Inactive)
REMARK    1  A    between atoms: C7_7  and  C8_8 
REMARK    2  A    between atoms: C8_8  and  C9_9 
REMARK    3  A    between atoms: C9_9  and  N10_10 
ROOT
HETATM    1  C1  UNL     1     -35.145  17.514   0.848  1.00 20.00     0.012 C 
HETATM    2  C3  UNL     1     -34.732  17.106  -0.202  1.00 20.00    -0.117 C 
HETATM    3  C7  UNL     1     -34.221  16.606  -1.487  1.00 20.00     0.096 C 
ENDROOT
BRANCH   3   4
HETATM    4  C8  UNL     1     -35.316  16.523  -2.558  1.00 20.00     0.061 C 
BRANCH   4   5
HETATM    5  C9  UNL     1     -35.626  15.095  -3.048  1.00 20.00     0.300 C 
HETATM    6  C4  UNL     1     -34.402  14.384  -3.455  1.00 20.00    -0.081 C 
HETATM    7  C2  UNL     1     -33.406  13.800  -3.782  1.00 20.00     0.014 C 
BRANCH   5   8
HETATM    8  N10 UNL     1     -36.543  15.176  -4.188  1.00 20.00     0.095 N 
HETATM    9  C5  UNL     1     -36.347  16.431  -4.910  1.00 20.00     0.310 C 
HETATM   10  C6  UNL     1     -37.928  15.054  -3.737  1.00 20.00     0.310 C 
ENDBRANCH   5   8
ENDBRANCH   4   5
ENDBRANCH   3   4
TORSDOF 3
ENDMDL
MODEL 8
REMARK VINA RESULT:      -4.3     11.081     12.462
REMARK  3 active torsions:
REMARK  status: ('A' for Active; 'I' for Inactive)
REMARK    1  A    between atoms: C7_7  and  C8_8 
REMARK    2  A    between atoms: C8_8  and  C9_9 
REMARK    3  A    between atoms: C9_9  and  N10_10 
ROOT
HETATM    1  C1  UNL     1     -33.168  18.539   0.110  1.00 20.00     0.012 C 
HETATM    2  C3  UNL     1     -33.798  17.657  -0.405  1.00 20.00    -0.117 C 
HETATM    3  C7  UNL     1     -34.574  16.576  -1.031  1.00 20.00     0.096 C 
ENDROOT
BRANCH   3   4
HETATM    4  C8  UNL     1     -33.999  16.158  -2.391  1.00 20.00     0.061 C 
BRANCH   4   5
HETATM    5  C9  UNL     1     -35.057  15.891  -3.479  1.00 20.00     0.300 C 
HETATM    6  C4  UNL     1     -35.060  14.478  -3.897  1.00 20.00    -0.081 C 
HETATM    7  C2  UNL     1     -35.068  13.327  -4.235  1.00 20.00     0.014 C 
BRANCH   5   8
HETATM    8  N10 UNL     1     -34.767  16.739  -4.638  1.00 20.00     0.095 N 
HETATM    9  C5  UNL     1     -33.337  16.717  -4.939  1.00 20.00     0.310 C 
HETATM   10  C6  UNL     1     -35.218  18.108  -4.392  1.00 20.00     0.310 C 
ENDBRANCH   5   8
ENDBRANCH   4   5
ENDBRANCH   3   4
TORSDOF 3
ENDMDL
MODEL 9
REMARK VINA RESULT:      -4.2     11.049     11.999
REMARK  3 active torsions:
REMARK  status: ('A' for Active; 'I' for Inactive)
REMARK    1  A    between atoms: C7_7  and  C8_8 
REMARK    2  A    between atoms: C8_8  and  C9_9 
REMARK    3  A    between atoms: C9_9  and  N10_10 
ROOT
HETATM    1  C1  UNL     1     -34.790  14.824  -6.971  1.00 20.00     0.012 C 
HETATM    2  C3  UNL     1     -34.513  14.390  -5.887  1.00 20.00    -0.117 C 
HETATM    3  C7  UNL     1     -34.168  13.855  -4.561  1.00 20.00     0.096 C 
ENDROOT
BRANCH   3   4
HETATM    4  C8  UNL     1     -35.192  14.246  -3.489  1.00 20.00     0.061 C 
BRANCH   4   5
HETATM    5  C9  UNL     1     -35.387  15.764  -3.313  1.00 20.00     0.300 C 
HETATM    6  C4  UNL     1     -34.936  16.218  -1.986  1.00 20.00    -0.081 C 
HETATM    7  C2  UNL     1     -34.564  16.591  -0.908  1.00 20.00     0.014 C 
BRANCH   5   8
HETATM    8  N10 UNL     1     -36.808  16.081  -3.477  1.00 20.00     0.095 N 
HETATM    9  C5  UNL     1     -37.572  14.864  -3.749  1.00 20.00     0.310 C 
HETATM   10  C6  UNL     1     -36.993  17.053  -4.553  1.00 20.00     0.310 C 
ENDBRANCH   5   8
ENDBRANCH   4   5
ENDBRANCH   3   4
TORSDOF 3
ENDMDL
