MODEL 1
REMARK VINA RESULT:      -4.0      0.000      0.000
REMARK  2 active torsions:
REMARK  status: ('A' for Active; 'I' for Inactive)
REMARK    1  A    between atoms: C1_1  and  C6_6 
REMARK    2  A    between atoms: C1_1  and  O10_10 
ROOT
HETATM    1  C2  UNL     1     -35.552  16.581  -2.307  1.00 20.00     0.006 C 
HETATM    2  C3  UNL     1     -34.077  16.260  -2.029  1.00 20.00     0.036 C 
HETATM    3  C4  UNL     1     -36.021  15.485  -3.277  1.00 20.00     0.052 C 
HETATM    4  C5  UNL     1     -33.602  15.558  -3.262  1.00 20.00     0.168 A 
HETATM    5  C6  UNL     1     -34.784  15.069  -4.023  1.00 20.00     0.174 A 
HETATM    6  O9  UNL     1     -33.972  16.156  -4.508  1.00 20.00    -0.358 OA
ENDROOT
BRANCH   5   7
HETATM    7  C1  UNL     1     -34.719  13.874  -4.857  1.00 20.00     0.296 C 
HETATM    8  O8  UNL     1     -34.928  12.740  -4.446  1.00 20.00    -0.262 OA
BRANCH   7   9
HETATM    9  O10 UNL     1     -34.395  14.226  -6.134  1.00 20.00    -0.324 OA
HETATM   10  C7  UNL     1     -35.500  14.353  -7.034  1.00 20.00     0.213 C 
ENDBRANCH   7   9
ENDBRANCH   5   7
TORSDOF 2
ENDMDL
MODEL 2
REMARK VINA RESULT:      -4.0     11.584     12.314
REMARK  2 active torsions:
REMARK  status: ('A' for Active; 'I' for Inactive)
REMARK    1  A    between atoms: C1_1  and  C6_6 
REMARK    2  A    between atoms: C1_1  and  O10_10 
ROOT
HETATM    1  C2  UNL     1     -35.480   4.663   4.912  1.00 20.00     0.006 C 
HETATM    2  C3  UNL     1     -34.596   5.064   6.102  1.00 20.00     0.036 C 
HETATM    3  C4  UNL     1     -34.646   5.001   3.666  1.00 20.00     0.052 C 
HETATM    4  C5  UNL     1     -33.735   6.171   5.579  1.00 20.00     0.168 A 
HETATM    5  C6  UNL     1     -33.750   6.130   4.091  1.00 20.00     0.174 A 
HETATM    6  O9  UNL     1     -34.405   7.184   4.823  1.00 20.00    -0.358 OA
ENDROOT
BRANCH   5   7
HETATM    7  C1  UNL     1     -32.613   6.588   3.300  1.00 20.00     0.296 C 
HETATM    8  O8  UNL     1     -31.616   5.913   3.079  1.00 20.00    -0.262 OA
BRANCH   7   9
HETATM    9  O10 UNL     1     -32.844   7.858   2.862  1.00 20.00    -0.324 OA
HETATM   10  C7  UNL     1     -31.973   8.317   1.823  1.00 20.00     0.213 C 
ENDBRANCH   7   9
ENDBRANCH   5   7
TORSDOF 2
ENDMDL
MODEL 3
REMARK VINA RESULT:      -3.9      2.142      3.149
REMARK  2 active torsions:
REMARK  status: ('A' for Active; 'I' for Inactive)
REMARK    1  A    between atoms: C1_1  and  C6_6 
REMARK    2  A    between atoms: C1_1  and  O10_10 
ROOT
HETATM    1  C2  UNL     1     -33.420  13.745  -3.716  1.00 20.00     0.006 C 
HETATM    2  C3  UNL     1     -33.337  15.265  -3.920  1.00 20.00     0.036 C 
HETATM    3  C4  UNL     1     -34.824  13.355  -4.207  1.00 20.00     0.052 C 
HETATM    4  C5  UNL     1     -34.752  15.741  -3.806  1.00 20.00     0.168 A 
HETATM    5  C6  UNL     1     -35.666  14.582  -3.994  1.00 20.00     0.174 A 
HETATM    6  O9  UNL     1     -35.506  15.214  -2.710  1.00 20.00    -0.358 OA
ENDROOT
BRANCH   5   7
HETATM    7  C1  UNL     1     -37.001  14.741  -4.562  1.00 20.00     0.296 C 
HETATM    8  O8  UNL     1     -37.221  15.201  -5.674  1.00 20.00    -0.262 OA
BRANCH   7   9
HETATM    9  O10 UNL     1     -37.932  14.304  -3.667  1.00 20.00    -0.324 OA
HETATM   10  C7  UNL     1     -39.039  15.185  -3.452  1.00 20.00     0.213 C 
ENDBRANCH   7   9
ENDBRANCH   5   7
TORSDOF 2
ENDMDL
MODEL 4
REMARK VINA RESULT:      -3.9     11.847     12.903
REMARK  2 active torsions:
REMARK  status: ('A' for Active; 'I' for Inactive)
REMARK    1  A    between atoms: C1_1  and  C6_6 
REMARK    2  A    between atoms: C1_1  and  O10_10 
ROOT
HETATM    1  C2  UNL     1     -40.718   5.997  -0.265  1.00 20.00     0.006 C 
HETATM    2  C3  UNL     1     -41.143   7.017  -1.331  1.00 20.00     0.036 C 
HETATM    3  C4  UNL     1     -40.912   4.624  -0.931  1.00 20.00     0.052 C 
HETATM    4  C5  UNL     1     -42.152   6.295  -2.168  1.00 20.00     0.168 A 
HETATM    5  C6  UNL     1     -42.007   4.832  -1.939  1.00 20.00     0.174 A 
HETATM    6  O9  UNL     1     -43.151   5.560  -1.454  1.00 20.00    -0.358 OA
ENDROOT
BRANCH   5   7
HETATM    7  C1  UNL     1     -42.332   3.857  -2.975  1.00 20.00     0.296 C 
HETATM    8  O8  UNL     1     -43.326   3.919  -3.686  1.00 20.00    -0.262 OA
BRANCH   7   9
HETATM    9  O10 UNL     1     -41.367   2.894  -3.015  1.00 20.00    -0.324 OA
HETATM   10  C7  UNL     1     -41.788   1.624  -3.523  1.00 20.00     0.213 C 
ENDBRANCH   7   9
ENDBRANCH   5   7
TORSDOF 2
ENDMDL
MODEL 5
REMARK VINA RESULT:      -3.8      1.611      2.187
REMARK  2 active torsions:
REMARK  status: ('A' for Active; 'I' for Inactive)
REMARK    1  A    between atoms: C1_1  and  C6_6 
REMARK    2  A    between atoms: C1_1  and  O10_10 
ROOT
HETATM    1  C2  UNL     1     -33.372  17.091  -4.971  1.00 20.00     0.006 C 
HETATM    2  C3  UNL     1     -33.654  17.026  -3.463  1.00 20.00     0.036 C 
HETATM    3  C4  UNL     1     -34.228  15.971  -5.584  1.00 20.00     0.052 C 
HETATM    4  C5  UNL     1     -34.002  15.593  -3.204  1.00 20.00     0.168 A 
HETATM    5  C6  UNL     1     -34.368  14.947  -4.493  1.00 20.00     0.174 A 
HETATM    6  O9  UNL     1     -33.145  14.618  -3.806  1.00 20.00    -0.358 OA
ENDROOT
BRANCH   5   7
HETATM    7  C1  UNL     1     -35.318  13.841  -4.554  1.00 20.00     0.296 C 
HETATM    8  O8  UNL     1     -35.039  12.682  -4.277  1.00 20.00    -0.262 OA
BRANCH   7   9
HETATM    9  O10 UNL     1     -36.533  14.306  -4.962  1.00 20.00    -0.324 OA
HETATM   10  C7  UNL     1     -37.429  14.685  -3.913  1.00 20.00     0.213 C 
ENDBRANCH   7   9
ENDBRANCH   5   7
TORSDOF 2
ENDMDL
MODEL 6
REMARK VINA RESULT:      -3.8      1.827      4.047
REMARK  2 active torsions:
REMARK  status: ('A' for Active; 'I' for Inactive)
REMARK    1  A    between atoms: C1_1  and  C6_6 
REMARK    2  A    between atoms: C1_1  and  O10_10 
ROOT
HETATM    1  C2  UNL     1     -34.327  13.436  -4.775  1.00 20.00     0.006 C 
HETATM    2  C3  UNL     1     -34.642  14.577  -5.753  1.00 20.00     0.036 C 
HETATM    3  C4  UNL     1     -34.331  14.092  -3.385  1.00 20.00     0.052 C 
HETATM    4  C5  UNL     1     -34.126  15.809  -5.079  1.00 20.00     0.168 A 
HETATM    5  C6  UNL     1     -33.946  15.525  -3.629  1.00 20.00     0.174 A 
HETATM    6  O9  UNL     1     -32.818  15.711  -4.505  1.00 20.00    -0.358 OA
ENDROOT
BRANCH   5   7
HETATM    7  C1  UNL     1     -34.081  16.570  -2.620  1.00 20.00     0.296 C 
HETATM    8  O8  UNL     1     -33.684  17.718  -2.766  1.00 20.00    -0.262 OA
BRANCH   7   9
HETATM    9  O10 UNL     1     -34.706  16.063  -1.519  1.00 20.00    -0.324 OA
HETATM   10  C7  UNL     1     -34.705  16.912  -0.367  1.00 20.00     0.213 C 
ENDBRANCH   7   9
ENDBRANCH   5   7
TORSDOF 2
ENDMDL
MODEL 7
REMARK VINA RESULT:      -3.7      1.905      3.674
REMARK  2 active torsions:
REMARK  status: ('A' for Active; 'I' for Inactive)
REMARK    1  A    between atoms: C1_1  and  C6_6 
REMARK    2  A    between atoms: C1_1  and  O10_10 
ROOT
HETATM    1  C2  UNL     1     -35.412  15.593  -7.918  1.00 20.00     0.006 C 
HETATM    2  C3  UNL     1     -36.823  15.321  -7.374  1.00 20.00     0.036 C 
HETATM    3  C4  UNL     1     -34.471  14.808  -6.990  1.00 20.00     0.052 C 
HETATM    4  C5  UNL     1     -36.623  15.066  -5.912  1.00 20.00     0.168 A 
HETATM    5  C6  UNL     1     -35.192  14.738  -5.673  1.00 20.00     0.174 A 
HETATM    6  O9  UNL     1     -35.764  15.982  -5.226  1.00 20.00    -0.358 OA
ENDROOT
BRANCH   5   7
HETATM    7  C1  UNL     1     -34.778  13.861  -4.582  1.00 20.00     0.296 C 
HETATM    8  O8  UNL     1     -34.876  12.642  -4.610  1.00 20.00    -0.262 OA
BRANCH   7   9
HETATM    9  O10 UNL     1     -34.279  14.610  -3.559  1.00 20.00    -0.324 OA
HETATM   10  C7  UNL     1     -32.875  14.882  -3.624  1.00 20.00     0.213 C 
ENDBRANCH   7   9
ENDBRANCH   5   7
TORSDOF 2
ENDMDL
MODEL 8
REMARK VINA RESULT:      -3.7      1.510      3.623
REMARK  2 active torsions:
REMARK  status: ('A' for Active; 'I' for Inactive)
REMARK    1  A    between atoms: C1_1  and  C6_6 
REMARK    2  A    between atoms: C1_1  and  O10_10 
ROOT
HETATM    1  C2  UNL     1     -34.395  16.210  -7.113  1.00 20.00     0.006 C 
HETATM    2  C3  UNL     1     -34.778  14.752  -7.409  1.00 20.00     0.036 C 
HETATM    3  C4  UNL     1     -33.816  16.187  -5.690  1.00 20.00     0.052 C 
HETATM    4  C5  UNL     1     -35.086  14.162  -6.068  1.00 20.00     0.168 A 
HETATM    5  C6  UNL     1     -34.489  15.025  -5.014  1.00 20.00     0.174 A 
HETATM    6  O9  UNL     1     -35.914  14.951  -5.209  1.00 20.00    -0.358 OA
ENDROOT
BRANCH   5   7
HETATM    7  C1  UNL     1     -34.045  14.480  -3.735  1.00 20.00     0.296 C 
HETATM    8  O8  UNL     1     -34.053  13.287  -3.460  1.00 20.00    -0.262 OA
BRANCH   7   9
HETATM    9  O10 UNL     1     -33.633  15.495  -2.924  1.00 20.00    -0.324 OA
HETATM   10  C7  UNL     1     -34.632  16.026  -2.048  1.00 20.00     0.213 C 
ENDBRANCH   7   9
ENDBRANCH   5   7
TORSDOF 2
ENDMDL
MODEL 9
REMARK VINA RESULT:      -3.7      1.998      2.709
REMARK  2 active torsions:
REMARK  status: ('A' for Active; 'I' for Inactive)
REMARK    1  A    between atoms: C1_1  and  C6_6 
REMARK    2  A    between atoms: C1_1  and  O10_10 
ROOT
HETATM    1  C2  UNL     1     -33.416  15.092  -3.442  1.00 20.00     0.006 C 
HETATM    2  C3  UNL     1     -33.519  13.603  -3.802  1.00 20.00     0.036 C 
HETATM    3  C4  UNL     1     -34.868  15.599  -3.435  1.00 20.00     0.052 C 
HETATM    4  C5  UNL     1     -34.761  13.497  -4.630  1.00 20.00     0.168 A 
HETATM    5  C6  UNL     1     -35.597  14.706  -4.400  1.00 20.00     0.174 A 
HETATM    6  O9  UNL     1     -34.922  14.484  -5.653  1.00 20.00    -0.358 OA
ENDROOT
BRANCH   5   7
HETATM    7  C1  UNL     1     -37.052  14.665  -4.505  1.00 20.00     0.296 C 
HETATM    8  O8  UNL     1     -37.787  14.200  -3.645  1.00 20.00    -0.262 OA
BRANCH   7   9
HETATM    9  O10 UNL     1     -37.439  15.217  -5.690  1.00 20.00    -0.324 OA
HETATM   10  C7  UNL     1     -37.838  16.590  -5.627  1.00 20.00     0.213 C 
ENDBRANCH   7   9
ENDBRANCH   5   7
TORSDOF 2
ENDMDL
