MODEL 1
REMARK VINA RESULT:      -5.4      0.000      0.000
REMARK  1 active torsions:
REMARK  status: ('A' for Active; 'I' for Inactive)
REMARK    1  A    between atoms: C5_5  and  O10_10 
ROOT
HETATM    1  C1  UNL     1     -34.052   5.279   2.825  1.00 20.00     0.011 A 
HETATM    2  C2  UNL     1     -33.048   6.184   2.478  1.00 20.00     0.040 A 
HETATM    3  C3  UNL     1     -34.432   5.198   4.155  1.00 20.00    -0.049 A 
HETATM    4  C4  UNL     1     -33.836   6.011   5.127  1.00 20.00    -0.010 A 
HETATM    5  C5  UNL     1     -32.450   6.999   3.453  1.00 20.00     0.104 A 
HETATM    6  C6  UNL     1     -32.848   6.920   4.789  1.00 20.00     0.156 A 
HETATM    7  C7  UNL     1     -35.500   4.342   4.758  1.00 20.00     0.039 C 
HETATM    8  C8  UNL     1     -34.451   5.773   6.470  1.00 20.00     0.042 C 
HETATM    9  C9  UNL     1     -35.134   4.415   6.249  1.00 20.00     0.009 C 
HETATM   10  F11 UNL     1     -32.290   7.705   5.720  1.00 20.00    -0.203 F 
ENDROOT
BRANCH   5  11
HETATM   11  O10 UNL     1     -31.475   7.879   3.088  1.00 20.00    -0.358 OA
HETATM   12  H20 UNL     1     -31.871   8.671   2.691  1.00 20.00     0.217 HD
ENDBRANCH   5  11
TORSDOF 1
ENDMDL
MODEL 2
REMARK VINA RESULT:      -5.2      2.016      3.522
REMARK  1 active torsions:
REMARK  status: ('A' for Active; 'I' for Inactive)
REMARK    1  A    between atoms: C5_5  and  O10_10 
ROOT
HETATM    1  C1  UNL     1     -34.468   5.138   3.217  1.00 20.00     0.011 A 
HETATM    2  C2  UNL     1     -35.110   4.860   4.426  1.00 20.00     0.040 A 
HETATM    3  C3  UNL     1     -33.427   6.052   3.222  1.00 20.00    -0.049 A 
HETATM    4  C4  UNL     1     -33.017   6.673   4.407  1.00 20.00    -0.010 A 
HETATM    5  C5  UNL     1     -34.698   5.484   5.615  1.00 20.00     0.104 A 
HETATM    6  C6  UNL     1     -33.639   6.394   5.612  1.00 20.00     0.156 A 
HETATM    7  C7  UNL     1     -32.572   6.480   2.071  1.00 20.00     0.039 C 
HETATM    8  C8  UNL     1     -31.848   7.573   4.159  1.00 20.00     0.042 C 
HETATM    9  C9  UNL     1     -31.931   7.757   2.636  1.00 20.00     0.009 C 
HETATM   10  F11 UNL     1     -33.234   6.981   6.746  1.00 20.00    -0.203 F 
ENDROOT
BRANCH   5  11
HETATM   11  O10 UNL     1     -35.336   5.191   6.783  1.00 20.00    -0.358 OA
HETATM   12  H20 UNL     1     -34.732   5.312   7.534  1.00 20.00     0.217 HD
ENDBRANCH   5  11
TORSDOF 1
ENDMDL
MODEL 3
REMARK VINA RESULT:      -5.1      2.699      4.269
REMARK  1 active torsions:
REMARK  status: ('A' for Active; 'I' for Inactive)
REMARK    1  A    between atoms: C5_5  and  O10_10 
ROOT
HETATM    1  C1  UNL     1     -33.542   6.862   5.990  1.00 20.00     0.011 A 
HETATM    2  C2  UNL     1     -34.374   6.011   6.720  1.00 20.00     0.040 A 
HETATM    3  C3  UNL     1     -33.330   6.583   4.650  1.00 20.00    -0.049 A 
HETATM    4  C4  UNL     1     -33.942   5.484   4.036  1.00 20.00    -0.010 A 
HETATM    5  C5  UNL     1     -34.988   4.908   6.104  1.00 20.00     0.104 A 
HETATM    6  C6  UNL     1     -34.778   4.641   4.750  1.00 20.00     0.156 A 
HETATM    7  C7  UNL     1     -32.520   7.362   3.663  1.00 20.00     0.039 C 
HETATM    8  C8  UNL     1     -33.599   5.427   2.581  1.00 20.00     0.042 C 
HETATM    9  C9  UNL     1     -32.360   6.334   2.532  1.00 20.00     0.009 C 
HETATM   10  F11 UNL     1     -35.372   3.598   4.155  1.00 20.00    -0.203 F 
ENDROOT
BRANCH   5  11
HETATM   11  O10 UNL     1     -35.800   4.095   6.837  1.00 20.00    -0.358 OA
HETATM   12  H20 UNL     1     -36.578   3.841   6.315  1.00 20.00     0.217 HD
ENDBRANCH   5  11
TORSDOF 1
ENDMDL
MODEL 4
REMARK VINA RESULT:      -5.1     11.691     12.338
REMARK  1 active torsions:
REMARK  status: ('A' for Active; 'I' for Inactive)
REMARK    1  A    between atoms: C5_5  and  O10_10 
ROOT
HETATM    1  C1  UNL     1     -36.792  15.327  -3.523  1.00 20.00     0.011 A 
HETATM    2  C2  UNL     1     -36.435  14.157  -4.196  1.00 20.00     0.040 A 
HETATM    3  C3  UNL     1     -35.805  16.016  -2.837  1.00 20.00    -0.049 A 
HETATM    4  C4  UNL     1     -34.481  15.563  -2.827  1.00 20.00    -0.010 A 
HETATM    5  C5  UNL     1     -35.106  13.702  -4.186  1.00 20.00     0.104 A 
HETATM    6  C6  UNL     1     -34.116  14.411  -3.502  1.00 20.00     0.156 A 
HETATM    7  C7  UNL     1     -35.935  17.301  -2.081  1.00 20.00     0.039 C 
HETATM    8  C8  UNL     1     -33.602  16.503  -2.065  1.00 20.00     0.042 C 
HETATM    9  C9  UNL     1     -34.641  17.290  -1.252  1.00 20.00     0.009 C 
HETATM   10  F11 UNL     1     -32.845  13.988  -3.501  1.00 20.00    -0.203 F 
ENDROOT
BRANCH   5  11
HETATM   11  O10 UNL     1     -34.781  12.560  -4.856  1.00 20.00    -0.358 OA
HETATM   12  H20 UNL     1     -34.308  12.776  -5.675  1.00 20.00     0.217 HD
ENDBRANCH   5  11
TORSDOF 1
ENDMDL
MODEL 5
REMARK VINA RESULT:      -5.0     12.321     13.376
REMARK  1 active torsions:
REMARK  status: ('A' for Active; 'I' for Inactive)
REMARK    1  A    between atoms: C5_5  and  O10_10 
ROOT
HETATM    1  C1  UNL     1     -34.653  14.803  -3.015  1.00 20.00     0.011 A 
HETATM    2  C2  UNL     1     -34.391  14.620  -4.375  1.00 20.00     0.040 A 
HETATM    3  C3  UNL     1     -34.368  16.036  -2.452  1.00 20.00    -0.049 A 
HETATM    4  C4  UNL     1     -33.842  17.078  -3.224  1.00 20.00    -0.010 A 
HETATM    5  C5  UNL     1     -33.863  15.666  -5.149  1.00 20.00     0.104 A 
HETATM    6  C6  UNL     1     -33.590  16.909  -4.575  1.00 20.00     0.156 A 
HETATM    7  C7  UNL     1     -34.595  16.480  -1.042  1.00 20.00     0.039 C 
HETATM    8  C8  UNL     1     -33.670  18.316  -2.402  1.00 20.00     0.042 C 
HETATM    9  C9  UNL     1     -33.715  17.737  -0.980  1.00 20.00     0.009 C 
HETATM   10  F11 UNL     1     -33.100  17.913  -5.313  1.00 20.00    -0.203 F 
ENDROOT
BRANCH   5  11
HETATM   11  O10 UNL     1     -33.621  15.464  -6.475  1.00 20.00    -0.358 OA
HETATM   12  H20 UNL     1     -32.739  15.793  -6.708  1.00 20.00     0.217 HD
ENDBRANCH   5  11
TORSDOF 1
ENDMDL
MODEL 6
REMARK VINA RESULT:      -4.9     11.684     12.819
REMARK  1 active torsions:
REMARK  status: ('A' for Active; 'I' for Inactive)
REMARK    1  A    between atoms: C5_5  and  O10_10 
ROOT
HETATM    1  C1  UNL     1     -33.089  15.301  -3.425  1.00 20.00     0.011 A 
HETATM    2  C2  UNL     1     -33.547  14.044  -3.826  1.00 20.00     0.040 A 
HETATM    3  C3  UNL     1     -34.027  16.267  -3.099  1.00 20.00    -0.049 A 
HETATM    4  C4  UNL     1     -35.397  15.991  -3.155  1.00 20.00    -0.010 A 
HETATM    5  C5  UNL     1     -34.923  13.767  -3.883  1.00 20.00     0.104 A 
HETATM    6  C6  UNL     1     -35.860  14.743  -3.539  1.00 20.00     0.156 A 
HETATM    7  C7  UNL     1     -33.782  17.659  -2.610  1.00 20.00     0.039 C 
HETATM    8  C8  UNL     1     -36.198  17.173  -2.708  1.00 20.00     0.042 C 
HETATM    9  C9  UNL     1     -35.161  18.300  -2.836  1.00 20.00     0.009 C 
HETATM   10  F11 UNL     1     -37.172  14.479  -3.579  1.00 20.00    -0.203 F 
ENDROOT
BRANCH   5  11
HETATM   11  O10 UNL     1     -35.344  12.531  -4.271  1.00 20.00    -0.358 OA
HETATM   12  H20 UNL     1     -35.845  12.593  -5.100  1.00 20.00     0.217 HD
ENDBRANCH   5  11
TORSDOF 1
ENDMDL
MODEL 7
REMARK VINA RESULT:      -4.9     12.337     13.961
REMARK  1 active torsions:
REMARK  status: ('A' for Active; 'I' for Inactive)
REMARK    1  A    between atoms: C5_5  and  O10_10 
ROOT
HETATM    1  C1  UNL     1     -33.867  15.794  -3.228  1.00 20.00     0.011 A 
HETATM    2  C2  UNL     1     -34.237  14.448  -3.189  1.00 20.00     0.040 A 
HETATM    3  C3  UNL     1     -33.990  16.475  -4.429  1.00 20.00    -0.049 A 
HETATM    4  C4  UNL     1     -34.483  15.837  -5.572  1.00 20.00    -0.010 A 
HETATM    5  C5  UNL     1     -34.731  13.809  -4.338  1.00 20.00     0.104 A 
HETATM    6  C6  UNL     1     -34.864  14.506  -5.540  1.00 20.00     0.156 A 
HETATM    7  C7  UNL     1     -33.697  17.915  -4.705  1.00 20.00     0.039 C 
HETATM    8  C8  UNL     1     -34.567  16.793  -6.720  1.00 20.00     0.042 C 
HETATM    9  C9  UNL     1     -33.637  17.917  -6.241  1.00 20.00     0.009 C 
HETATM   10  F11 UNL     1     -35.348  13.903  -6.634  1.00 20.00    -0.203 F 
ENDROOT
BRANCH   5  11
HETATM   11  O10 UNL     1     -35.091  12.496  -4.273  1.00 20.00    -0.358 OA
HETATM   12  H20 UNL     1     -35.801  12.375  -3.622  1.00 20.00     0.217 HD
ENDBRANCH   5  11
TORSDOF 1
ENDMDL
MODEL 8
REMARK VINA RESULT:      -4.8     12.185     13.719
REMARK  1 active torsions:
REMARK  status: ('A' for Active; 'I' for Inactive)
REMARK    1  A    between atoms: C5_5  and  O10_10 
ROOT
HETATM    1  C1  UNL     1     -34.465  15.244  -6.641  1.00 20.00     0.011 A 
HETATM    2  C2  UNL     1     -34.817  14.018  -6.075  1.00 20.00     0.040 A 
HETATM    3  C3  UNL     1     -34.129  16.287  -5.793  1.00 20.00    -0.049 A 
HETATM    4  C4  UNL     1     -34.129  16.116  -4.404  1.00 20.00    -0.010 A 
HETATM    5  C5  UNL     1     -34.817  13.847  -4.680  1.00 20.00     0.104 A 
HETATM    6  C6  UNL     1     -34.465  14.900  -3.834  1.00 20.00     0.156 A 
HETATM    7  C7  UNL     1     -33.685  17.667  -6.161  1.00 20.00     0.039 C 
HETATM    8  C8  UNL     1     -33.684  17.367  -3.714  1.00 20.00     0.042 C 
HETATM    9  C9  UNL     1     -33.878  18.407  -4.828  1.00 20.00     0.009 C 
HETATM   10  F11 UNL     1     -34.451  14.738  -2.505  1.00 20.00    -0.203 F 
ENDROOT
BRANCH   5  11
HETATM   11  O10 UNL     1     -35.159  12.638  -4.152  1.00 20.00    -0.358 OA
HETATM   12  H20 UNL     1     -35.167  12.687  -3.183  1.00 20.00     0.217 HD
ENDBRANCH   5  11
TORSDOF 1
ENDMDL
MODEL 9
REMARK VINA RESULT:      -4.7     10.096     11.004
REMARK  1 active torsions:
REMARK  status: ('A' for Active; 'I' for Inactive)
REMARK    1  A    between atoms: C5_5  and  O10_10 
ROOT
HETATM    1  C1  UNL     1     -43.415   5.380  -3.085  1.00 20.00     0.011 A 
HETATM    2  C2  UNL     1     -43.059   4.035  -3.198  1.00 20.00     0.040 A 
HETATM    3  C3  UNL     1     -42.633   6.202  -2.290  1.00 20.00    -0.049 A 
HETATM    4  C4  UNL     1     -41.506   5.703  -1.626  1.00 20.00    -0.010 A 
HETATM    5  C5  UNL     1     -41.929   3.535  -2.531  1.00 20.00     0.104 A 
HETATM    6  C6  UNL     1     -41.138   4.373  -1.743  1.00 20.00     0.156 A 
HETATM    7  C7  UNL     1     -42.789   7.670  -2.047  1.00 20.00     0.039 C 
HETATM    8  C8  UNL     1     -40.803   6.792  -0.878  1.00 20.00     0.042 C 
HETATM    9  C9  UNL     1     -41.903   7.861  -0.806  1.00 20.00     0.009 C 
HETATM   10  F11 UNL     1     -40.052   3.903  -1.117  1.00 20.00    -0.203 F 
ENDROOT
BRANCH   5  11
HETATM   11  O10 UNL     1     -41.598   2.219  -2.663  1.00 20.00    -0.358 OA
HETATM   12  H20 UNL     1     -41.800   1.740  -1.843  1.00 20.00     0.217 HD
ENDBRANCH   5  11
TORSDOF 1
ENDMDL
