MODEL 1
REMARK VINA RESULT:      -5.1      0.000      0.000
REMARK  1 active torsions:
REMARK  status: ('A' for Active; 'I' for Inactive)
REMARK    1  A    between atoms: C3_3  and  C8_8 
ROOT
HETATM    1  C1  UNL     1     -34.740  17.894  -4.955  1.00 20.00    -0.025 C 
HETATM    2  C2  UNL     1     -33.615  17.362  -5.455  1.00 20.00    -0.024 C 
HETATM    3  C4  UNL     1     -33.908  16.466  -3.356  1.00 20.00     0.018 C 
HETATM    4  C5  UNL     1     -35.257  16.944  -3.898  1.00 20.00     0.013 C 
HETATM    5  C6  UNL     1     -33.387  16.048  -4.741  1.00 20.00     0.024 C 
HETATM    6  C7  UNL     1     -35.796  15.674  -4.623  1.00 20.00     0.005 C 
HETATM    7  C8  UNL     1     -34.473  15.013  -5.176  1.00 20.00     0.027 C 
HETATM    8  C10 UNL     1     -36.630  14.803  -3.687  1.00 20.00     0.012 C 
HETATM    9  C11 UNL     1     -34.532  14.785  -6.692  1.00 20.00     0.024 C 
ENDROOT
BRANCH   7  10
HETATM   10  C3  UNL     1     -34.163  13.671  -4.554  1.00 20.00     0.132 C 
HETATM   11  C9  UNL     1     -33.020  13.626  -3.577  1.00 20.00     0.091 C 
HETATM   12  O12 UNL     1     -34.814  12.665  -4.832  1.00 20.00    -0.298 OA
ENDBRANCH   7  10
TORSDOF 1
ENDMDL
MODEL 2
REMARK VINA RESULT:      -5.0      1.826      3.599
REMARK  1 active torsions:
REMARK  status: ('A' for Active; 'I' for Inactive)
REMARK    1  A    between atoms: C3_3  and  C8_8 
ROOT
HETATM    1  C1  UNL     1     -33.371  13.667  -3.830  1.00 20.00    -0.025 C 
HETATM    2  C2  UNL     1     -32.756  14.833  -3.580  1.00 20.00    -0.024 C 
HETATM    3  C4  UNL     1     -34.208  15.199  -5.326  1.00 20.00     0.018 C 
HETATM    4  C5  UNL     1     -34.678  13.987  -4.520  1.00 20.00     0.013 C 
HETATM    5  C6  UNL     1     -33.659  15.933  -4.092  1.00 20.00     0.024 C 
HETATM    6  C7  UNL     1     -35.627  14.632  -3.466  1.00 20.00     0.005 C 
HETATM    7  C8  UNL     1     -34.937  16.028  -3.199  1.00 20.00     0.027 C 
HETATM    8  C10 UNL     1     -37.068  14.691  -3.967  1.00 20.00     0.012 C 
HETATM    9  C11 UNL     1     -34.633  16.246  -1.711  1.00 20.00     0.024 C 
ENDROOT
BRANCH   7  10
HETATM   10  C3  UNL     1     -35.771  17.208  -3.642  1.00 20.00     0.132 C 
HETATM   11  C9  UNL     1     -36.654  17.841  -2.600  1.00 20.00     0.091 C 
HETATM   12  O12 UNL     1     -35.729  17.631  -4.796  1.00 20.00    -0.298 OA
ENDBRANCH   7  10
TORSDOF 1
ENDMDL
MODEL 3
REMARK VINA RESULT:      -4.9      1.785      3.503
REMARK  1 active torsions:
REMARK  status: ('A' for Active; 'I' for Inactive)
REMARK    1  A    between atoms: C3_3  and  C8_8 
ROOT
HETATM    1  C1  UNL     1     -33.337  13.746  -3.787  1.00 20.00    -0.025 C 
HETATM    2  C2  UNL     1     -34.503  13.265  -4.245  1.00 20.00    -0.024 C 
HETATM    3  C4  UNL     1     -34.971  15.228  -3.140  1.00 20.00     0.018 C 
HETATM    4  C5  UNL     1     -33.509  15.235  -3.592  1.00 20.00     0.013 C 
HETATM    5  C6  UNL     1     -35.451  14.437  -4.368  1.00 20.00     0.024 C 
HETATM    6  C7  UNL     1     -33.598  15.892  -5.002  1.00 20.00     0.005 C 
HETATM    7  C8  UNL     1     -34.991  15.371  -5.532  1.00 20.00     0.027 C 
HETATM    8  C10 UNL     1     -33.443  17.409  -4.927  1.00 20.00     0.012 C 
HETATM    9  C11 UNL     1     -34.863  14.653  -6.882  1.00 20.00     0.024 C 
ENDROOT
BRANCH   7  10
HETATM   10  C3  UNL     1     -36.012  16.469  -5.727  1.00 20.00     0.132 C 
HETATM   11  C9  UNL     1     -36.123  17.052  -7.110  1.00 20.00     0.091 C 
HETATM   12  O12 UNL     1     -36.718  16.865  -4.801  1.00 20.00    -0.298 OA
ENDBRANCH   7  10
TORSDOF 1
ENDMDL
MODEL 4
REMARK VINA RESULT:      -4.9      1.633      3.081
REMARK  1 active torsions:
REMARK  status: ('A' for Active; 'I' for Inactive)
REMARK    1  A    between atoms: C3_3  and  C8_8 
ROOT
HETATM    1  C1  UNL     1     -33.744  17.162  -1.620  1.00 20.00    -0.025 C 
HETATM    2  C2  UNL     1     -34.669  16.217  -1.391  1.00 20.00    -0.024 C 
HETATM    3  C4  UNL     1     -35.494  17.579  -3.052  1.00 20.00     0.018 C 
HETATM    4  C5  UNL     1     -33.968  17.681  -3.022  1.00 20.00     0.013 C 
HETATM    5  C6  UNL     1     -35.502  16.096  -2.647  1.00 20.00     0.024 C 
HETATM    6  C7  UNL     1     -33.538  16.561  -4.018  1.00 20.00     0.005 C 
HETATM    7  C8  UNL     1     -34.648  15.462  -3.791  1.00 20.00     0.027 C 
HETATM    8  C10 UNL     1     -33.414  17.093  -5.443  1.00 20.00     0.012 C 
HETATM    9  C11 UNL     1     -34.046  14.100  -3.425  1.00 20.00     0.024 C 
ENDROOT
BRANCH   7  10
HETATM   10  C3  UNL     1     -35.524  15.230  -5.000  1.00 20.00     0.132 C 
HETATM   11  C9  UNL     1     -35.079  14.163  -5.964  1.00 20.00     0.091 C 
HETATM   12  O12 UNL     1     -36.552  15.880  -5.187  1.00 20.00    -0.298 OA
ENDBRANCH   7  10
TORSDOF 1
ENDMDL
MODEL 5
REMARK VINA RESULT:      -4.9      0.973      2.343
REMARK  1 active torsions:
REMARK  status: ('A' for Active; 'I' for Inactive)
REMARK    1  A    between atoms: C3_3  and  C8_8 
ROOT
HETATM    1  C1  UNL     1     -33.600  17.647  -5.430  1.00 20.00    -0.025 C 
HETATM    2  C2  UNL     1     -33.753  17.406  -4.119  1.00 20.00    -0.024 C 
HETATM    3  C4  UNL     1     -35.744  16.872  -5.139  1.00 20.00     0.018 C 
HETATM    4  C5  UNL     1     -34.612  16.799  -6.165  1.00 20.00     0.013 C 
HETATM    5  C6  UNL     1     -34.859  16.385  -3.980  1.00 20.00     0.024 C 
HETATM    6  C7  UNL     1     -34.156  15.313  -6.057  1.00 20.00     0.005 C 
HETATM    7  C8  UNL     1     -34.377  15.002  -4.524  1.00 20.00     0.027 C 
HETATM    8  C10 UNL     1     -34.918  14.417  -7.030  1.00 20.00     0.012 C 
HETATM    9  C11 UNL     1     -33.099  14.488  -3.849  1.00 20.00     0.024 C 
ENDROOT
BRANCH   7  10
HETATM   10  C3  UNL     1     -35.444  13.963  -4.267  1.00 20.00     0.132 C 
HETATM   11  C9  UNL     1     -36.822  14.473  -3.943  1.00 20.00     0.091 C 
HETATM   12  O12 UNL     1     -35.198  12.758  -4.321  1.00 20.00    -0.298 OA
ENDBRANCH   7  10
TORSDOF 1
ENDMDL
MODEL 6
REMARK VINA RESULT:      -4.9      1.712      3.012
REMARK  1 active torsions:
REMARK  status: ('A' for Active; 'I' for Inactive)
REMARK    1  A    between atoms: C3_3  and  C8_8 
ROOT
HETATM    1  C1  UNL     1     -34.427  15.129  -7.481  1.00 20.00    -0.025 C 
HETATM    2  C2  UNL     1     -34.574  16.407  -7.103  1.00 20.00    -0.024 C 
HETATM    3  C4  UNL     1     -36.351  15.238  -6.227  1.00 20.00     0.018 C 
HETATM    4  C5  UNL     1     -35.191  14.277  -6.493  1.00 20.00     0.013 C 
HETATM    5  C6  UNL     1     -35.425  16.408  -5.854  1.00 20.00     0.024 C 
HETATM    6  C7  UNL     1     -34.415  14.304  -5.142  1.00 20.00     0.005 C 
HETATM    7  C8  UNL     1     -34.621  15.795  -4.663  1.00 20.00     0.027 C 
HETATM    8  C10 UNL     1     -34.916  13.226  -4.184  1.00 20.00     0.012 C 
HETATM    9  C11 UNL     1     -33.288  16.503  -4.392  1.00 20.00     0.024 C 
ENDROOT
BRANCH   7  10
HETATM   10  C3  UNL     1     -35.434  15.915  -3.395  1.00 20.00     0.132 C 
HETATM   11  C9  UNL     1     -34.666  15.988  -2.103  1.00 20.00     0.091 C 
HETATM   12  O12 UNL     1     -36.664  15.952  -3.417  1.00 20.00    -0.298 OA
ENDBRANCH   7  10
TORSDOF 1
ENDMDL
MODEL 7
REMARK VINA RESULT:      -4.9     11.628     13.021
REMARK  1 active torsions:
REMARK  status: ('A' for Active; 'I' for Inactive)
REMARK    1  A    between atoms: C3_3  and  C8_8 
ROOT
HETATM    1  C1  UNL     1     -43.121   7.761  -0.788  1.00 20.00    -0.025 C 
HETATM    2  C2  UNL     1     -42.476   7.737  -1.964  1.00 20.00    -0.024 C 
HETATM    3  C4  UNL     1     -41.156   6.616  -0.449  1.00 20.00     0.018 C 
HETATM    4  C5  UNL     1     -42.609   6.596   0.030  1.00 20.00     0.013 C 
HETATM    5  C6  UNL     1     -41.541   6.549  -1.936  1.00 20.00     0.024 C 
HETATM    6  C7  UNL     1     -43.156   5.287  -0.613  1.00 20.00     0.005 C 
HETATM    7  C8  UNL     1     -42.367   5.224  -1.979  1.00 20.00     0.027 C 
HETATM    8  C10 UNL     1     -42.974   4.086   0.313  1.00 20.00     0.012 C 
HETATM    9  C11 UNL     1     -43.308   5.125  -3.186  1.00 20.00     0.024 C 
ENDROOT
BRANCH   7  10
HETATM   10  C3  UNL     1     -41.422   4.048  -2.077  1.00 20.00     0.132 C 
HETATM   11  C9  UNL     1     -41.890   2.870  -2.889  1.00 20.00     0.091 C 
HETATM   12  O12 UNL     1     -40.324   4.054  -1.523  1.00 20.00    -0.298 OA
ENDBRANCH   7  10
TORSDOF 1
ENDMDL
MODEL 8
REMARK VINA RESULT:      -4.8      1.235      2.707
REMARK  1 active torsions:
REMARK  status: ('A' for Active; 'I' for Inactive)
REMARK    1  A    between atoms: C3_3  and  C8_8 
ROOT
HETATM    1  C1  UNL     1     -37.000  17.075  -4.446  1.00 20.00    -0.025 C 
HETATM    2  C2  UNL     1     -36.974  16.477  -3.245  1.00 20.00    -0.024 C 
HETATM    3  C4  UNL     1     -37.111  14.810  -4.825  1.00 20.00     0.018 C 
HETATM    4  C5  UNL     1     -36.514  16.066  -5.462  1.00 20.00     0.013 C 
HETATM    5  C6  UNL     1     -36.457  15.073  -3.458  1.00 20.00     0.024 C 
HETATM    6  C7  UNL     1     -34.986  15.863  -5.237  1.00 20.00     0.005 C 
HETATM    7  C8  UNL     1     -34.945  15.116  -3.845  1.00 20.00     0.027 C 
HETATM    8  C10 UNL     1     -34.338  15.124  -6.404  1.00 20.00     0.012 C 
HETATM    9  C11 UNL     1     -34.069  15.850  -2.822  1.00 20.00     0.024 C 
ENDROOT
BRANCH   7  10
HETATM   10  C3  UNL     1     -34.408  13.706  -3.933  1.00 20.00     0.132 C 
HETATM   11  C9  UNL     1     -32.964  13.507  -3.561  1.00 20.00     0.091 C 
HETATM   12  O12 UNL     1     -35.118  12.766  -4.288  1.00 20.00    -0.298 OA
ENDBRANCH   7  10
TORSDOF 1
ENDMDL
MODEL 9
REMARK VINA RESULT:      -4.8      1.917      3.615
REMARK  1 active torsions:
REMARK  status: ('A' for Active; 'I' for Inactive)
REMARK    1  A    between atoms: C3_3  and  C8_8 
ROOT
HETATM    1  C1  UNL     1     -35.199  13.438  -4.208  1.00 20.00    -0.025 C 
HETATM    2  C2  UNL     1     -33.993  13.658  -3.666  1.00 20.00    -0.024 C 
HETATM    3  C4  UNL     1     -34.135  14.974  -5.548  1.00 20.00     0.018 C 
HETATM    4  C5  UNL     1     -35.544  14.647  -5.048  1.00 20.00     0.013 C 
HETATM    5  C6  UNL     1     -33.536  15.022  -4.132  1.00 20.00     0.024 C 
HETATM    6  C7  UNL     1     -35.838  15.831  -4.078  1.00 20.00     0.005 C 
HETATM    7  C8  UNL     1     -34.412  16.131  -3.467  1.00 20.00     0.027 C 
HETATM    8  C10 UNL     1     -36.508  16.997  -4.800  1.00 20.00     0.012 C 
HETATM    9  C11 UNL     1     -34.417  16.073  -1.935  1.00 20.00     0.024 C 
ENDROOT
BRANCH   7  10
HETATM   10  C3  UNL     1     -33.869  17.491  -3.842  1.00 20.00     0.132 C 
HETATM   11  C9  UNL     1     -34.072  18.599  -2.844  1.00 20.00     0.091 C 
HETATM   12  O12 UNL     1     -33.289  17.682  -4.909  1.00 20.00    -0.298 OA
ENDBRANCH   7  10
TORSDOF 1
ENDMDL
