MODEL 1
REMARK VINA RESULT:      -4.6      0.000      0.000
REMARK  1 active torsions:
REMARK  status: ('A' for Active; 'I' for Inactive)
REMARK    1  A    between atoms: C3_3  and  N9_9 
ROOT
HETATM    1  C1  UNL     1     -33.741   6.801   6.515  1.00 20.00     0.096 C 
HETATM    2  C2  UNL     1     -34.282   5.740   5.734  1.00 20.00     0.040 A 
HETATM    3  C3  UNL     1     -34.240   5.465   4.410  1.00 20.00     0.005 A 
HETATM    4  C4  UNL     1     -35.097   4.528   6.095  1.00 20.00     0.057 A 
HETATM    5  C5  UNL     1     -35.072   4.194   4.598  1.00 20.00     0.057 A 
HETATM    6  N8  UNL     1     -33.301   7.666   7.151  1.00 20.00    -0.192 NA
ENDROOT
BRANCH   3   7
HETATM    7  N9  UNL     1     -33.745   5.967   3.297  1.00 20.00    -0.283 NA
HETATM    8  C6  UNL     1     -32.841   7.122   3.423  1.00 20.00     0.110 A 
HETATM    9  C7  UNL     1     -32.303   5.790   3.062  1.00 20.00     0.110 A 
ENDBRANCH   3   7
TORSDOF 1
ENDMDL
MODEL 2
REMARK VINA RESULT:      -4.5     11.924     13.608
REMARK  1 active torsions:
REMARK  status: ('A' for Active; 'I' for Inactive)
REMARK    1  A    between atoms: C3_3  and  N9_9 
ROOT
HETATM    1  C1  UNL     1     -34.604  13.936  -3.735  1.00 20.00     0.096 C 
HETATM    2  C2  UNL     1     -34.317  15.232  -3.219  1.00 20.00     0.040 A 
HETATM    3  C3  UNL     1     -33.689  16.307  -3.746  1.00 20.00     0.005 A 
HETATM    4  C4  UNL     1     -34.613  15.886  -1.897  1.00 20.00     0.057 A 
HETATM    5  C5  UNL     1     -33.899  17.119  -2.465  1.00 20.00     0.057 A 
HETATM    6  N8  UNL     1     -34.837  12.880  -4.154  1.00 20.00    -0.192 NA
ENDROOT
BRANCH   3   7
HETATM    7  N9  UNL     1     -33.091  16.673  -4.862  1.00 20.00    -0.283 NA
HETATM    8  C6  UNL     1     -33.902  16.677  -6.090  1.00 20.00     0.110 A 
HETATM    9  C7  UNL     1     -33.503  17.955  -5.457  1.00 20.00     0.110 A 
ENDBRANCH   3   7
TORSDOF 1
ENDMDL
MODEL 3
REMARK VINA RESULT:      -4.3     12.657     14.509
REMARK  1 active torsions:
REMARK  status: ('A' for Active; 'I' for Inactive)
REMARK    1  A    between atoms: C3_3  and  N9_9 
ROOT
HETATM    1  C1  UNL     1     -34.709  13.618  -5.031  1.00 20.00     0.096 C 
HETATM    2  C2  UNL     1     -34.608  14.678  -5.977  1.00 20.00     0.040 A 
HETATM    3  C3  UNL     1     -33.944  15.856  -5.963  1.00 20.00     0.005 A 
HETATM    4  C4  UNL     1     -35.199  14.876  -7.346  1.00 20.00     0.057 A 
HETATM    5  C5  UNL     1     -34.463  16.222  -7.356  1.00 20.00     0.057 A 
HETATM    6  N8  UNL     1     -34.793  12.755  -4.261  1.00 20.00    -0.192 NA
ENDROOT
BRANCH   3   7
HETATM    7  N9  UNL     1     -33.150  16.551  -5.173  1.00 20.00    -0.283 NA
HETATM    8  C6  UNL     1     -33.496  17.963  -4.946  1.00 20.00     0.110 A 
HETATM    9  C7  UNL     1     -33.693  16.965  -3.869  1.00 20.00     0.110 A 
ENDBRANCH   3   7
TORSDOF 1
ENDMDL
MODEL 4
REMARK VINA RESULT:      -4.2     12.356     13.674
REMARK  1 active torsions:
REMARK  status: ('A' for Active; 'I' for Inactive)
REMARK    1  A    between atoms: C3_3  and  N9_9 
ROOT
HETATM    1  C1  UNL     1     -34.538  13.770  -4.734  1.00 20.00     0.096 C 
HETATM    2  C2  UNL     1     -34.093  15.116  -4.871  1.00 20.00     0.040 A 
HETATM    3  C3  UNL     1     -33.674  16.036  -3.973  1.00 20.00     0.005 A 
HETATM    4  C4  UNL     1     -33.919  16.010  -6.068  1.00 20.00     0.057 A 
HETATM    5  C5  UNL     1     -33.446  17.077  -5.072  1.00 20.00     0.057 A 
HETATM    6  N8  UNL     1     -34.902  12.674  -4.623  1.00 20.00    -0.192 NA
ENDROOT
BRANCH   3   7
HETATM    7  N9  UNL     1     -33.485  16.157  -2.674  1.00 20.00    -0.283 NA
HETATM    8  C6  UNL     1     -33.890  17.428  -2.051  1.00 20.00     0.110 A 
HETATM    9  C7  UNL     1     -34.684  16.198  -1.821  1.00 20.00     0.110 A 
ENDBRANCH   3   7
TORSDOF 1
ENDMDL
MODEL 5
REMARK VINA RESULT:      -4.1     12.275     12.866
REMARK  1 active torsions:
REMARK  status: ('A' for Active; 'I' for Inactive)
REMARK    1  A    between atoms: C3_3  and  N9_9 
ROOT
HETATM    1  C1  UNL     1     -36.921  14.417  -3.856  1.00 20.00     0.096 C 
HETATM    2  C2  UNL     1     -35.499  14.465  -3.814  1.00 20.00     0.040 A 
HETATM    3  C3  UNL     1     -34.629  15.110  -3.003  1.00 20.00     0.005 A 
HETATM    4  C4  UNL     1     -34.436  13.810  -4.654  1.00 20.00     0.057 A 
HETATM    5  C5  UNL     1     -33.426  14.535  -3.756  1.00 20.00     0.057 A 
HETATM    6  N8  UNL     1     -38.080  14.378  -3.891  1.00 20.00    -0.192 NA
ENDROOT
BRANCH   3   7
HETATM    7  N9  UNL     1     -34.638  15.925  -1.968  1.00 20.00    -0.283 NA
HETATM    8  C6  UNL     1     -33.791  17.126  -2.049  1.00 20.00     0.110 A 
HETATM    9  C7  UNL     1     -35.264  17.244  -2.156  1.00 20.00     0.110 A 
ENDBRANCH   3   7
TORSDOF 1
ENDMDL
MODEL 6
REMARK VINA RESULT:      -4.0     12.602     13.412
REMARK  1 active torsions:
REMARK  status: ('A' for Active; 'I' for Inactive)
REMARK    1  A    between atoms: C3_3  and  N9_9 
ROOT
HETATM    1  C1  UNL     1     -36.973  14.605  -3.748  1.00 20.00     0.096 C 
HETATM    2  C2  UNL     1     -35.576  14.881  -3.764  1.00 20.00     0.040 A 
HETATM    3  C3  UNL     1     -34.620  14.707  -4.705  1.00 20.00     0.005 A 
HETATM    4  C4  UNL     1     -34.647  15.475  -2.740  1.00 20.00     0.057 A 
HETATM    5  C5  UNL     1     -33.540  15.283  -3.785  1.00 20.00     0.057 A 
HETATM    6  N8  UNL     1     -38.111  14.380  -3.734  1.00 20.00    -0.192 NA
ENDROOT
BRANCH   3   7
HETATM    7  N9  UNL     1     -34.494  14.251  -5.935  1.00 20.00    -0.283 NA
HETATM    8  C6  UNL     1     -35.578  14.561  -6.882  1.00 20.00     0.110 A 
HETATM    9  C7  UNL     1     -34.267  15.242  -7.000  1.00 20.00     0.110 A 
ENDBRANCH   3   7
TORSDOF 1
ENDMDL
MODEL 7
REMARK VINA RESULT:      -4.0     11.988     12.824
REMARK  1 active torsions:
REMARK  status: ('A' for Active; 'I' for Inactive)
REMARK    1  A    between atoms: C3_3  and  N9_9 
ROOT
HETATM    1  C1  UNL     1     -34.460  16.643  -1.310  1.00 20.00     0.096 C 
HETATM    2  C2  UNL     1     -34.100  16.462  -2.676  1.00 20.00     0.040 A 
HETATM    3  C3  UNL     1     -34.086  15.375  -3.481  1.00 20.00     0.005 A 
HETATM    4  C4  UNL     1     -33.607  17.414  -3.731  1.00 20.00     0.057 A 
HETATM    5  C5  UNL     1     -33.573  16.199  -4.666  1.00 20.00     0.057 A 
HETATM    6  N8  UNL     1     -34.753  16.791  -0.198  1.00 20.00    -0.192 NA
ENDROOT
BRANCH   3   7
HETATM    7  N9  UNL     1     -34.358  14.087  -3.433  1.00 20.00    -0.283 NA
HETATM    8  C6  UNL     1     -35.541  13.621  -4.175  1.00 20.00     0.110 A 
HETATM    9  C7  UNL     1     -34.181  13.315  -4.675  1.00 20.00     0.110 A 
ENDBRANCH   3   7
TORSDOF 1
ENDMDL
MODEL 8
REMARK VINA RESULT:      -3.9     12.462     14.059
REMARK  1 active torsions:
REMARK  status: ('A' for Active; 'I' for Inactive)
REMARK    1  A    between atoms: C3_3  and  N9_9 
ROOT
HETATM    1  C1  UNL     1     -35.201  14.345  -6.813  1.00 20.00     0.096 C 
HETATM    2  C2  UNL     1     -34.773  14.273  -5.457  1.00 20.00     0.040 A 
HETATM    3  C3  UNL     1     -33.956  15.054  -4.713  1.00 20.00     0.005 A 
HETATM    4  C4  UNL     1     -35.076  13.305  -4.347  1.00 20.00     0.057 A 
HETATM    5  C5  UNL     1     -34.149  14.167  -3.480  1.00 20.00     0.057 A 
HETATM    6  N8  UNL     1     -35.549  14.403  -7.918  1.00 20.00    -0.192 NA
ENDROOT
BRANCH   3   7
HETATM    7  N9  UNL     1     -33.223  16.143  -4.835  1.00 20.00    -0.283 NA
HETATM    8  C6  UNL     1     -33.840  17.296  -5.510  1.00 20.00     0.110 A 
HETATM    9  C7  UNL     1     -33.627  17.317  -4.044  1.00 20.00     0.110 A 
ENDBRANCH   3   7
TORSDOF 1
ENDMDL
MODEL 9
REMARK VINA RESULT:      -3.9     12.016     13.464
REMARK  1 active torsions:
REMARK  status: ('A' for Active; 'I' for Inactive)
REMARK    1  A    between atoms: C3_3  and  N9_9 
ROOT
HETATM    1  C1  UNL     1     -34.494  16.078  -1.810  1.00 20.00     0.096 C 
HETATM    2  C2  UNL     1     -34.347  15.445  -3.077  1.00 20.00     0.040 A 
HETATM    3  C3  UNL     1     -33.760  15.834  -4.232  1.00 20.00     0.005 A 
HETATM    4  C4  UNL     1     -34.787  14.104  -3.598  1.00 20.00     0.057 A 
HETATM    5  C5  UNL     1     -34.136  14.521  -4.923  1.00 20.00     0.057 A 
HETATM    6  N8  UNL     1     -34.614  16.593  -0.778  1.00 20.00    -0.192 NA
ENDROOT
BRANCH   3   7
HETATM    7  N9  UNL     1     -33.106  16.866  -4.726  1.00 20.00    -0.283 NA
HETATM    8  C6  UNL     1     -33.728  17.578  -5.854  1.00 20.00     0.110 A 
HETATM    9  C7  UNL     1     -33.691  18.199  -4.510  1.00 20.00     0.110 A 
ENDBRANCH   3   7
TORSDOF 1
ENDMDL
