MODEL 1
REMARK VINA RESULT:      -4.5      0.000      0.000
REMARK  1 active torsions:
REMARK  status: ('A' for Active; 'I' for Inactive)
REMARK    1  A    between atoms: C1_1  and  C7_7 
ROOT
HETATM    1  C2  UNL     1     -36.326  16.475  -3.464  1.00 20.00     0.004 C 
HETATM    2  C3  UNL     1     -35.232  17.378  -2.892  1.00 20.00     0.037 C 
HETATM    3  C4  UNL     1     -35.888  15.024  -3.666  1.00 20.00     0.016 C 
HETATM    4  C5  UNL     1     -33.440  15.623  -3.232  1.00 20.00     0.053 C 
HETATM    5  C6  UNL     1     -34.100  16.592  -2.253  1.00 20.00     0.171 C 
HETATM    6  C7  UNL     1     -34.439  14.882  -4.157  1.00 20.00     0.012 C 
HETATM    7  C8  UNL     1     -34.306  15.380  -5.606  1.00 20.00     0.023 C 
HETATM    8  F10 UNL     1     -34.605  15.882  -1.205  1.00 20.00    -0.249 F 
ENDROOT
BRANCH   6   9
HETATM    9  C1  UNL     1     -34.088  13.415  -4.179  1.00 20.00     0.240 C 
HETATM   10  O9  UNL     1     -34.751  12.570  -4.771  1.00 20.00    -0.306 OA
ENDBRANCH   6   9
TORSDOF 1
ENDMDL
MODEL 2
REMARK VINA RESULT:      -4.4      1.817      2.907
REMARK  1 active torsions:
REMARK  status: ('A' for Active; 'I' for Inactive)
REMARK    1  A    between atoms: C1_1  and  C7_7 
ROOT
HETATM    1  C2  UNL     1     -33.728  16.107  -2.669  1.00 20.00     0.004 C 
HETATM    2  C3  UNL     1     -33.072  15.273  -3.769  1.00 20.00     0.037 C 
HETATM    3  C4  UNL     1     -35.228  15.855  -2.512  1.00 20.00     0.016 C 
HETATM    4  C5  UNL     1     -35.304  14.502  -4.680  1.00 20.00     0.053 C 
HETATM    5  C6  UNL     1     -33.919  14.084  -4.187  1.00 20.00     0.171 C 
HETATM    6  C7  UNL     1     -35.957  15.633  -3.847  1.00 20.00     0.012 C 
HETATM    7  C8  UNL     1     -36.014  16.938  -4.657  1.00 20.00     0.023 C 
HETATM    8  F10 UNL     1     -34.067  13.260  -3.111  1.00 20.00    -0.249 F 
ENDROOT
BRANCH   6   9
HETATM    9  C1  UNL     1     -37.387  15.256  -3.548  1.00 20.00     0.240 C 
HETATM   10  O9  UNL     1     -37.861  14.152  -3.795  1.00 20.00    -0.306 OA
ENDBRANCH   6   9
TORSDOF 1
ENDMDL
MODEL 3
REMARK VINA RESULT:      -4.3      1.564      2.163
REMARK  1 active torsions:
REMARK  status: ('A' for Active; 'I' for Inactive)
REMARK    1  A    between atoms: C1_1  and  C7_7 
ROOT
HETATM    1  C2  UNL     1     -33.377  16.706  -5.257  1.00 20.00     0.004 C 
HETATM    2  C3  UNL     1     -33.646  17.496  -3.976  1.00 20.00     0.037 C 
HETATM    3  C4  UNL     1     -34.144  15.386  -5.344  1.00 20.00     0.016 C 
HETATM    4  C5  UNL     1     -34.864  15.558  -2.896  1.00 20.00     0.053 C 
HETATM    5  C6  UNL     1     -34.906  17.041  -3.261  1.00 20.00     0.171 C 
HETATM    6  C7  UNL     1     -34.257  14.653  -3.997  1.00 20.00     0.012 C 
HETATM    7  C8  UNL     1     -32.888  14.109  -3.558  1.00 20.00     0.023 C 
HETATM    8  F10 UNL     1     -35.972  17.260  -4.083  1.00 20.00    -0.249 F 
ENDROOT
BRANCH   6   9
HETATM    9  C1  UNL     1     -35.149  13.451  -4.187  1.00 20.00     0.240 C 
HETATM   10  O9  UNL     1     -34.821  12.460  -4.830  1.00 20.00    -0.306 OA
ENDBRANCH   6   9
TORSDOF 1
ENDMDL
MODEL 4
REMARK VINA RESULT:      -4.3      1.727      2.381
REMARK  1 active torsions:
REMARK  status: ('A' for Active; 'I' for Inactive)
REMARK    1  A    between atoms: C1_1  and  C7_7 
ROOT
HETATM    1  C2  UNL     1     -33.925  16.268  -2.354  1.00 20.00     0.004 C 
HETATM    2  C3  UNL     1     -33.960  17.460  -3.311  1.00 20.00     0.037 C 
HETATM    3  C4  UNL     1     -34.231  14.927  -3.024  1.00 20.00     0.016 C 
HETATM    4  C5  UNL     1     -34.989  16.088  -5.172  1.00 20.00     0.053 C 
HETATM    5  C6  UNL     1     -33.867  17.043  -4.768  1.00 20.00     0.171 C 
HETATM    6  C7  UNL     1     -35.320  15.015  -4.105  1.00 20.00     0.012 C 
HETATM    7  C8  UNL     1     -36.693  15.288  -3.470  1.00 20.00     0.023 C 
HETATM    8  F10 UNL     1     -32.670  16.422  -4.965  1.00 20.00    -0.249 F 
ENDROOT
BRANCH   6   9
HETATM    9  C1  UNL     1     -35.424  13.670  -4.780  1.00 20.00     0.240 C 
HETATM   10  O9  UNL     1     -34.952  12.640  -4.312  1.00 20.00    -0.306 OA
ENDBRANCH   6   9
TORSDOF 1
ENDMDL
MODEL 5
REMARK VINA RESULT:      -4.3      2.283      3.238
REMARK  1 active torsions:
REMARK  status: ('A' for Active; 'I' for Inactive)
REMARK    1  A    between atoms: C1_1  and  C7_7 
ROOT
HETATM    1  C2  UNL     1     -33.295  16.689  -4.711  1.00 20.00     0.004 C 
HETATM    2  C3  UNL     1     -34.162  17.187  -5.867  1.00 20.00     0.037 C 
HETATM    3  C4  UNL     1     -33.573  15.241  -4.307  1.00 20.00     0.016 C 
HETATM    4  C5  UNL     1     -35.673  15.159  -5.764  1.00 20.00     0.053 C 
HETATM    5  C6  UNL     1     -34.805  16.054  -6.647  1.00 20.00     0.171 C 
HETATM    6  C7  UNL     1     -35.061  14.860  -4.372  1.00 20.00     0.012 C 
HETATM    7  C8  UNL     1     -35.853  15.576  -3.266  1.00 20.00     0.023 C 
HETATM    8  F10 UNL     1     -33.817  15.296  -7.202  1.00 20.00    -0.249 F 
ENDROOT
BRANCH   6   9
HETATM    9  C1  UNL     1     -35.184  13.383  -4.093  1.00 20.00     0.240 C 
HETATM   10  O9  UNL     1     -34.760  12.514  -4.848  1.00 20.00    -0.306 OA
ENDBRANCH   6   9
TORSDOF 1
ENDMDL
MODEL 6
REMARK VINA RESULT:      -4.2      2.459      3.486
REMARK  1 active torsions:
REMARK  status: ('A' for Active; 'I' for Inactive)
REMARK    1  A    between atoms: C1_1  and  C7_7 
ROOT
HETATM    1  C2  UNL     1     -34.853  14.069  -5.853  1.00 20.00     0.004 C 
HETATM    2  C3  UNL     1     -35.036  13.284  -4.554  1.00 20.00     0.037 C 
HETATM    3  C4  UNL     1     -34.150  15.415  -5.670  1.00 20.00     0.016 C 
HETATM    4  C5  UNL     1     -34.350  15.258  -3.125  1.00 20.00     0.053 C 
HETATM    5  C6  UNL     1     -34.131  13.778  -3.439  1.00 20.00     0.171 C 
HETATM    6  C7  UNL     1     -34.551  16.146  -4.378  1.00 20.00     0.012 C 
HETATM    7  C8  UNL     1     -36.003  16.642  -4.464  1.00 20.00     0.023 C 
HETATM    8  F10 UNL     1     -32.835  13.598  -3.823  1.00 20.00    -0.249 F 
ENDROOT
BRANCH   6   9
HETATM    9  C1  UNL     1     -33.690  17.378  -4.246  1.00 20.00     0.240 C 
HETATM   10  O9  UNL     1     -33.324  18.053  -5.203  1.00 20.00    -0.306 OA
ENDBRANCH   6   9
TORSDOF 1
ENDMDL
MODEL 7
REMARK VINA RESULT:      -4.2      1.870      2.642
REMARK  1 active torsions:
REMARK  status: ('A' for Active; 'I' for Inactive)
REMARK    1  A    between atoms: C1_1  and  C7_7 
ROOT
HETATM    1  C2  UNL     1     -34.150  15.944  -5.842  1.00 20.00     0.004 C 
HETATM    2  C3  UNL     1     -33.117  16.148  -4.733  1.00 20.00     0.037 C 
HETATM    3  C4  UNL     1     -35.583  15.785  -5.332  1.00 20.00     0.016 C 
HETATM    4  C5  UNL     1     -34.778  15.561  -2.915  1.00 20.00     0.053 C 
HETATM    5  C6  UNL     1     -33.747  16.571  -3.417  1.00 20.00     0.171 C 
HETATM    6  C7  UNL     1     -35.685  14.978  -4.028  1.00 20.00     0.012 C 
HETATM    7  C8  UNL     1     -35.351  13.498  -4.278  1.00 20.00     0.023 C 
HETATM    8  F10 UNL     1     -34.363  17.773  -3.600  1.00 20.00    -0.249 F 
ENDROOT
BRANCH   6   9
HETATM    9  C1  UNL     1     -37.118  15.016  -3.559  1.00 20.00     0.240 C 
HETATM   10  O9  UNL     1     -37.921  14.112  -3.764  1.00 20.00    -0.306 OA
ENDBRANCH   6   9
TORSDOF 1
ENDMDL
MODEL 8
REMARK VINA RESULT:      -4.2      2.300      3.532
REMARK  1 active torsions:
REMARK  status: ('A' for Active; 'I' for Inactive)
REMARK    1  A    between atoms: C1_1  and  C7_7 
ROOT
HETATM    1  C2  UNL     1     -33.742  15.770  -5.612  1.00 20.00     0.004 C 
HETATM    2  C3  UNL     1     -34.463  14.424  -5.534  1.00 20.00     0.037 C 
HETATM    3  C4  UNL     1     -33.411  16.376  -4.248  1.00 20.00     0.016 C 
HETATM    4  C5  UNL     1     -34.866  14.651  -3.045  1.00 20.00     0.053 C 
HETATM    5  C6  UNL     1     -34.330  13.768  -4.170  1.00 20.00     0.171 C 
HETATM    6  C7  UNL     1     -34.507  16.151  -3.194  1.00 20.00     0.012 C 
HETATM    7  C8  UNL     1     -35.760  16.977  -3.530  1.00 20.00     0.023 C 
HETATM    8  F10 UNL     1     -33.010  13.516  -3.939  1.00 20.00    -0.249 F 
ENDROOT
BRANCH   6   9
HETATM    9  C1  UNL     1     -34.002  16.667  -1.870  1.00 20.00     0.240 C 
HETATM   10  O9  UNL     1     -34.539  16.414  -0.796  1.00 20.00    -0.306 OA
ENDBRANCH   6   9
TORSDOF 1
ENDMDL
MODEL 9
REMARK VINA RESULT:      -4.1     11.346     12.368
REMARK  1 active torsions:
REMARK  status: ('A' for Active; 'I' for Inactive)
REMARK    1  A    between atoms: C1_1  and  C7_7 
ROOT
HETATM    1  C2  UNL     1     -43.143   4.748  -0.399  1.00 20.00     0.004 C 
HETATM    2  C3  UNL     1     -41.854   4.933   0.401  1.00 20.00     0.037 C 
HETATM    3  C4  UNL     1     -43.144   5.466  -1.749  1.00 20.00     0.016 C 
HETATM    4  C5  UNL     1     -41.008   6.741  -1.156  1.00 20.00     0.053 C 
HETATM    5  C6  UNL     1     -40.698   5.419  -0.457  1.00 20.00     0.171 C 
HETATM    6  C7  UNL     1     -42.450   6.837  -1.715  1.00 20.00     0.012 C 
HETATM    7  C8  UNL     1     -43.279   7.846  -0.904  1.00 20.00     0.023 C 
HETATM    8  F10 UNL     1     -40.436   4.473  -1.403  1.00 20.00    -0.249 F 
ENDROOT
BRANCH   6   9
HETATM    9  C1  UNL     1     -42.391   7.372  -3.125  1.00 20.00     0.240 C 
HETATM   10  O9  UNL     1     -43.127   6.984  -4.027  1.00 20.00    -0.306 OA
ENDBRANCH   6   9
TORSDOF 1
ENDMDL
