MODEL 1
REMARK VINA RESULT:      -4.1      0.000      0.000
REMARK  0 active torsions:
REMARK  status: ('A' for Active; 'I' for Inactive)
ROOT
HETATM    1  C1  UNL     1     -34.483  15.051  -7.420  1.00 20.00     0.015 C 
HETATM    2  C2  UNL     1     -34.352  15.016  -6.227  1.00 20.00    -0.073 C 
HETATM    3  C3  UNL     1     -33.891  13.540  -4.309  1.00 20.00     0.225 C 
HETATM    4  C4  UNL     1     -36.133  13.929  -4.058  1.00 20.00     0.442 C 
HETATM    5  C5  UNL     1     -34.193  14.974  -4.756  1.00 20.00     0.240 C 
HETATM    6  C6  UNL     1     -33.076  15.928  -4.331  1.00 20.00     0.066 C 
HETATM    7  C7  UNL     1     -36.251  16.335  -4.410  1.00 20.00     0.315 C 
HETATM    8  N8  UNL     1     -35.431  15.207  -4.004  1.00 20.00     0.130 N 
HETATM    9  O9  UNL     1     -35.166  12.880  -4.208  1.00 20.00    -0.359 OA
ENDROOT
TORSDOF 0
ENDMDL
MODEL 2
REMARK VINA RESULT:      -4.0      2.229      3.527
REMARK  0 active torsions:
REMARK  status: ('A' for Active; 'I' for Inactive)
ROOT
HETATM    1  C1  UNL     1     -34.618  16.619  -0.852  1.00 20.00     0.015 C 
HETATM    2  C2  UNL     1     -34.805  16.115  -1.925  1.00 20.00    -0.073 C 
HETATM    3  C3  UNL     1     -34.136  14.264  -3.408  1.00 20.00     0.225 C 
HETATM    4  C4  UNL     1     -33.119  16.049  -4.417  1.00 20.00     0.442 C 
HETATM    5  C5  UNL     1     -35.035  15.495  -3.249  1.00 20.00     0.240 C 
HETATM    6  C6  UNL     1     -36.511  15.119  -3.393  1.00 20.00     0.066 C 
HETATM    7  C7  UNL     1     -34.907  17.701  -4.399  1.00 20.00     0.315 C 
HETATM    8  N8  UNL     1     -34.557  16.292  -4.385  1.00 20.00     0.130 N 
HETATM    9  O9  UNL     1     -32.858  14.761  -3.843  1.00 20.00    -0.359 OA
ENDROOT
TORSDOF 0
ENDMDL
MODEL 3
REMARK VINA RESULT:      -4.0      1.465      1.640
REMARK  0 active torsions:
REMARK  status: ('A' for Active; 'I' for Inactive)
ROOT
HETATM    1  C1  UNL     1     -33.675  16.759  -5.640  1.00 20.00     0.015 C 
HETATM    2  C2  UNL     1     -33.916  16.061  -4.694  1.00 20.00    -0.073 C 
HETATM    3  C3  UNL     1     -33.247  14.013  -3.498  1.00 20.00     0.225 C 
HETATM    4  C4  UNL     1     -35.197  13.346  -4.494  1.00 20.00     0.442 C 
HETATM    5  C5  UNL     1     -34.215  15.201  -3.527  1.00 20.00     0.240 C 
HETATM    6  C6  UNL     1     -34.114  16.022  -2.241  1.00 20.00     0.066 C 
HETATM    7  C7  UNL     1     -36.657  15.236  -4.020  1.00 20.00     0.315 C 
HETATM    8  N8  UNL     1     -35.487  14.475  -3.618  1.00 20.00     0.130 N 
HETATM    9  O9  UNL     1     -33.802  13.029  -4.389  1.00 20.00    -0.359 OA
ENDROOT
TORSDOF 0
ENDMDL
MODEL 4
REMARK VINA RESULT:      -4.0      2.098      3.271
REMARK  0 active torsions:
REMARK  status: ('A' for Active; 'I' for Inactive)
ROOT
HETATM    1  C1  UNL     1     -34.595  16.311  -1.453  1.00 20.00     0.015 C 
HETATM    2  C2  UNL     1     -34.390  15.820  -2.529  1.00 20.00    -0.073 C 
HETATM    3  C3  UNL     1     -33.320  16.181  -4.719  1.00 20.00     0.225 C 
HETATM    4  C4  UNL     1     -35.535  16.422  -5.246  1.00 20.00     0.442 C 
HETATM    5  C5  UNL     1     -34.138  15.214  -3.855  1.00 20.00     0.240 C 
HETATM    6  C6  UNL     1     -33.409  13.881  -3.684  1.00 20.00     0.066 C 
HETATM    7  C7  UNL     1     -36.520  14.522  -4.085  1.00 20.00     0.315 C 
HETATM    8  N8  UNL     1     -35.331  15.085  -4.700  1.00 20.00     0.130 N 
HETATM    9  O9  UNL     1     -34.269  17.095  -5.297  1.00 20.00    -0.359 OA
ENDROOT
TORSDOF 0
ENDMDL
MODEL 5
REMARK VINA RESULT:      -3.9      1.364      2.626
REMARK  0 active torsions:
REMARK  status: ('A' for Active; 'I' for Inactive)
ROOT
HETATM    1  C1  UNL     1     -37.245  14.879  -3.824  1.00 20.00     0.015 C 
HETATM    2  C2  UNL     1     -36.253  14.671  -4.467  1.00 20.00    -0.073 C 
HETATM    3  C3  UNL     1     -34.421  13.069  -4.855  1.00 20.00     0.225 C 
HETATM    4  C4  UNL     1     -33.339  14.735  -3.716  1.00 20.00     0.442 C 
HETATM    5  C5  UNL     1     -35.030  14.416  -5.260  1.00 20.00     0.240 C 
HETATM    6  C6  UNL     1     -35.367  14.438  -6.752  1.00 20.00     0.066 C 
HETATM    7  C7  UNL     1     -34.179  16.721  -4.846  1.00 20.00     0.315 C 
HETATM    8  N8  UNL     1     -33.902  15.298  -4.938  1.00 20.00     0.130 N 
HETATM    9  O9  UNL     1     -33.628  13.330  -3.682  1.00 20.00    -0.359 OA
ENDROOT
TORSDOF 0
ENDMDL
MODEL 6
REMARK VINA RESULT:      -3.8      1.769      3.163
REMARK  0 active torsions:
REMARK  status: ('A' for Active; 'I' for Inactive)
ROOT
HETATM    1  C1  UNL     1     -34.577  16.360  -1.417  1.00 20.00     0.015 C 
HETATM    2  C2  UNL     1     -34.545  16.145  -2.598  1.00 20.00    -0.073 C 
HETATM    3  C3  UNL     1     -35.888  16.123  -4.664  1.00 20.00     0.225 C 
HETATM    4  C4  UNL     1     -35.658  13.885  -4.244  1.00 20.00     0.442 C 
HETATM    5  C5  UNL     1     -34.504  15.879  -4.053  1.00 20.00     0.240 C 
HETATM    6  C6  UNL     1     -33.449  16.769  -4.712  1.00 20.00     0.066 C 
HETATM    7  C7  UNL     1     -33.287  13.731  -3.712  1.00 20.00     0.315 C 
HETATM    8  N8  UNL     1     -34.330  14.465  -4.407  1.00 20.00     0.130 N 
HETATM    9  O9  UNL     1     -36.637  14.914  -4.445  1.00 20.00    -0.359 OA
ENDROOT
TORSDOF 0
ENDMDL
MODEL 7
REMARK VINA RESULT:      -3.7      1.903      2.888
REMARK  0 active torsions:
REMARK  status: ('A' for Active; 'I' for Inactive)
ROOT
HETATM    1  C1  UNL     1     -33.353  13.638  -3.756  1.00 20.00     0.015 C 
HETATM    2  C2  UNL     1     -34.076  14.560  -3.497  1.00 20.00    -0.073 C 
HETATM    3  C3  UNL     1     -36.430  15.276  -3.352  1.00 20.00     0.225 C 
HETATM    4  C4  UNL     1     -35.744  16.342  -5.258  1.00 20.00     0.442 C 
HETATM    5  C5  UNL     1     -34.967  15.698  -3.178  1.00 20.00     0.240 C 
HETATM    6  C6  UNL     1     -34.701  16.178  -1.751  1.00 20.00     0.066 C 
HETATM    7  C7  UNL     1     -33.602  17.262  -4.556  1.00 20.00     0.315 C 
HETATM    8  N8  UNL     1     -34.916  16.799  -4.147  1.00 20.00     0.130 N 
HETATM    9  O9  UNL     1     -36.719  15.418  -4.754  1.00 20.00    -0.359 OA
ENDROOT
TORSDOF 0
ENDMDL
MODEL 8
REMARK VINA RESULT:      -3.6      2.001      3.213
REMARK  0 active torsions:
REMARK  status: ('A' for Active; 'I' for Inactive)
ROOT
HETATM    1  C1  UNL     1     -36.814  14.826  -3.738  1.00 20.00     0.015 C 
HETATM    2  C2  UNL     1     -35.622  14.933  -3.829  1.00 20.00    -0.073 C 
HETATM    3  C3  UNL     1     -33.633  16.021  -2.863  1.00 20.00     0.225 C 
HETATM    4  C4  UNL     1     -33.893  17.192  -4.813  1.00 20.00     0.442 C 
HETATM    5  C5  UNL     1     -34.152  15.066  -3.943  1.00 20.00     0.240 C 
HETATM    6  C6  UNL     1     -33.498  13.689  -3.818  1.00 20.00     0.066 C 
HETATM    7  C7  UNL     1     -34.288  15.396  -6.409  1.00 20.00     0.315 C 
HETATM    8  N8  UNL     1     -33.698  15.784  -5.140  1.00 20.00     0.130 N 
HETATM    9  O9  UNL     1     -33.812  17.348  -3.389  1.00 20.00    -0.359 OA
ENDROOT
TORSDOF 0
ENDMDL
MODEL 9
REMARK VINA RESULT:      -3.6      2.478      3.690
REMARK  0 active torsions:
REMARK  status: ('A' for Active; 'I' for Inactive)
ROOT
HETATM    1  C1  UNL     1     -36.561  14.601  -3.809  1.00 20.00     0.015 C 
HETATM    2  C2  UNL     1     -35.715  15.371  -3.446  1.00 20.00    -0.073 C 
HETATM    3  C3  UNL     1     -34.971  17.718  -3.547  1.00 20.00     0.225 C 
HETATM    4  C4  UNL     1     -33.456  16.697  -4.927  1.00 20.00     0.442 C 
HETATM    5  C5  UNL     1     -34.671  16.319  -2.997  1.00 20.00     0.240 C 
HETATM    6  C6  UNL     1     -34.607  16.332  -1.469  1.00 20.00     0.066 C 
HETATM    7  C7  UNL     1     -32.849  14.737  -3.617  1.00 20.00     0.315 C 
HETATM    8  N8  UNL     1     -33.352  16.100  -3.601  1.00 20.00     0.130 N 
HETATM    9  O9  UNL     1     -34.442  17.739  -4.885  1.00 20.00    -0.359 OA
ENDROOT
TORSDOF 0
ENDMDL
