MODEL 1
REMARK VINA RESULT:      -4.4      0.000      0.000
REMARK  2 active torsions:
REMARK  status: ('A' for Active; 'I' for Inactive)
REMARK    1  A    between atoms: C4_4  and  C6_6 
REMARK    2  A    between atoms: C7_7  and  O10_10 
ROOT
HETATM    1  C1  UNL     1     -34.023  17.102  -1.028  1.00 20.00     0.218 C 
HETATM    2  C4  UNL     1     -34.726  16.220  -1.676  1.00 20.00     0.043 C 
HETATM    3  O9  UNL     1     -33.388  17.900  -0.441  1.00 20.00    -0.284 OA
ENDROOT
BRANCH   2   4
HETATM    4  C6  UNL     1     -34.593  15.927  -3.136  1.00 20.00     0.064 C 
HETATM    5  C3  UNL     1     -35.326  14.678  -3.526  1.00 20.00    -0.020 C 
HETATM    6  C2  UNL     1     -34.498  13.676  -3.828  1.00 20.00    -0.027 C 
HETATM    7  C5  UNL     1     -33.065  14.072  -3.684  1.00 20.00     0.059 C 
HETATM    8  C7  UNL     1     -33.146  15.597  -3.551  1.00 20.00     0.135 C 
BRANCH   8   9
HETATM    9  O10 UNL     1     -32.873  16.180  -4.827  1.00 20.00    -0.389 OA
HETATM   10  C8  UNL     1     -33.448  17.473  -4.934  1.00 20.00     0.202 C 
ENDBRANCH   8   9
ENDBRANCH   2   4
TORSDOF 2
ENDMDL
MODEL 2
REMARK VINA RESULT:      -4.4     11.750     12.722
REMARK  2 active torsions:
REMARK  status: ('A' for Active; 'I' for Inactive)
REMARK    1  A    between atoms: C4_4  and  C6_6 
REMARK    2  A    between atoms: C7_7  and  O10_10 
ROOT
HETATM    1  C1  UNL     1     -32.215   7.186   2.920  1.00 20.00     0.218 C 
HETATM    2  C4  UNL     1     -32.668   6.273   3.729  1.00 20.00     0.043 C 
HETATM    3  O9  UNL     1     -31.804   8.010   2.189  1.00 20.00    -0.284 OA
ENDROOT
BRANCH   2   4
HETATM    4  C6  UNL     1     -34.029   6.281   4.349  1.00 20.00     0.064 C 
HETATM    5  C3  UNL     1     -33.976   6.615   5.810  1.00 20.00    -0.020 C 
HETATM    6  C2  UNL     1     -34.251   5.561   6.583  1.00 20.00    -0.027 C 
HETATM    7  C5  UNL     1     -34.525   4.334   5.778  1.00 20.00     0.059 C 
HETATM    8  C7  UNL     1     -34.691   4.889   4.359  1.00 20.00     0.135 C 
BRANCH   8   9
HETATM    9  O10 UNL     1     -36.086   5.024   4.083  1.00 20.00    -0.389 OA
HETATM   10  C8  UNL     1     -36.325   6.060   3.143  1.00 20.00     0.202 C 
ENDBRANCH   8   9
ENDBRANCH   2   4
TORSDOF 2
ENDMDL
MODEL 3
REMARK VINA RESULT:      -4.2      2.198      3.070
REMARK  2 active torsions:
REMARK  status: ('A' for Active; 'I' for Inactive)
REMARK    1  A    between atoms: C4_4  and  C6_6 
REMARK    2  A    between atoms: C7_7  and  O10_10 
ROOT
HETATM    1  C1  UNL     1     -34.531  16.334  -1.428  1.00 20.00     0.218 C 
HETATM    2  C4  UNL     1     -34.419  15.828  -2.621  1.00 20.00     0.043 C 
HETATM    3  O9  UNL     1     -34.631  16.792  -0.350  1.00 20.00    -0.284 OA
ENDROOT
BRANCH   2   4
HETATM    4  C6  UNL     1     -35.156  14.622  -3.110  1.00 20.00     0.064 C 
HETATM    5  C3  UNL     1     -34.293  13.749  -3.972  1.00 20.00    -0.020 C 
HETATM    6  C2  UNL     1     -34.652  13.789  -5.257  1.00 20.00    -0.027 C 
HETATM    7  C5  UNL     1     -35.810  14.704  -5.486  1.00 20.00     0.059 C 
HETATM    8  C7  UNL     1     -36.315  14.975  -4.064  1.00 20.00     0.135 C 
BRANCH   8   9
HETATM    9  O10 UNL     1     -37.424  14.114  -3.803  1.00 20.00    -0.389 OA
HETATM   10  C8  UNL     1     -38.656  14.792  -3.989  1.00 20.00     0.202 C 
ENDBRANCH   8   9
ENDBRANCH   2   4
TORSDOF 2
ENDMDL
MODEL 4
REMARK VINA RESULT:      -4.2      2.209      2.994
REMARK  2 active torsions:
REMARK  status: ('A' for Active; 'I' for Inactive)
REMARK    1  A    between atoms: C4_4  and  C6_6 
REMARK    2  A    between atoms: C7_7  and  O10_10 
ROOT
HETATM    1  C1  UNL     1     -37.441  14.893  -3.772  1.00 20.00     0.218 C 
HETATM    2  C4  UNL     1     -36.384  15.650  -3.777  1.00 20.00     0.043 C 
HETATM    3  O9  UNL     1     -38.398  14.209  -3.767  1.00 20.00    -0.284 OA
ENDROOT
BRANCH   2   4
HETATM    4  C6  UNL     1     -35.196  15.453  -4.664  1.00 20.00     0.064 C 
HETATM    5  C3  UNL     1     -35.170  14.080  -5.268  1.00 20.00    -0.020 C 
HETATM    6  C2  UNL     1     -34.201  13.318  -4.754  1.00 20.00    -0.027 C 
HETATM    7  C5  UNL     1     -33.417  14.040  -3.709  1.00 20.00     0.059 C 
HETATM    8  C7  UNL     1     -33.861  15.495  -3.895  1.00 20.00     0.135 C 
BRANCH   8   9
HETATM    9  O10 UNL     1     -32.881  16.174  -4.681  1.00 20.00    -0.389 OA
HETATM   10  C8  UNL     1     -33.404  17.374  -5.230  1.00 20.00     0.202 C 
ENDBRANCH   8   9
ENDBRANCH   2   4
TORSDOF 2
ENDMDL
MODEL 5
REMARK VINA RESULT:      -4.2      1.893      3.556
REMARK  2 active torsions:
REMARK  status: ('A' for Active; 'I' for Inactive)
REMARK    1  A    between atoms: C4_4  and  C6_6 
REMARK    2  A    between atoms: C7_7  and  O10_10 
ROOT
HETATM    1  C1  UNL     1     -34.112  13.475  -4.227  1.00 20.00     0.218 C 
HETATM    2  C4  UNL     1     -33.349  14.365  -3.664  1.00 20.00     0.043 C 
HETATM    3  O9  UNL     1     -34.801  12.669  -4.736  1.00 20.00    -0.284 OA
ENDROOT
BRANCH   2   4
HETATM    4  C6  UNL     1     -33.653  15.827  -3.589  1.00 20.00     0.064 C 
HETATM    5  C3  UNL     1     -33.770  16.303  -2.171  1.00 20.00    -0.020 C 
HETATM    6  C2  UNL     1     -35.028  16.602  -1.837  1.00 20.00    -0.027 C 
HETATM    7  C5  UNL     1     -35.976  16.368  -2.966  1.00 20.00     0.059 C 
HETATM    8  C7  UNL     1     -35.040  16.180  -4.165  1.00 20.00     0.135 C 
BRANCH   8   9
HETATM    9  O10 UNL     1     -34.957  17.416  -4.877  1.00 20.00    -0.389 OA
HETATM   10  C8  UNL     1     -33.810  17.453  -5.710  1.00 20.00     0.202 C 
ENDBRANCH   8   9
ENDBRANCH   2   4
TORSDOF 2
ENDMDL
MODEL 6
REMARK VINA RESULT:      -4.1      1.739      3.658
REMARK  2 active torsions:
REMARK  status: ('A' for Active; 'I' for Inactive)
REMARK    1  A    between atoms: C4_4  and  C6_6 
REMARK    2  A    between atoms: C7_7  and  O10_10 
ROOT
HETATM    1  C1  UNL     1     -35.395  13.472  -4.303  1.00 20.00     0.218 C 
HETATM    2  C4  UNL     1     -36.025  14.508  -3.833  1.00 20.00     0.043 C 
HETATM    3  O9  UNL     1     -34.826  12.534  -4.728  1.00 20.00    -0.284 OA
ENDROOT
BRANCH   2   4
HETATM    4  C6  UNL     1     -35.391  15.829  -3.530  1.00 20.00     0.064 C 
HETATM    5  C3  UNL     1     -35.289  16.694  -4.751  1.00 20.00    -0.020 C 
HETATM    6  C2  UNL     1     -34.030  16.827  -5.176  1.00 20.00    -0.027 C 
HETATM    7  C5  UNL     1     -33.069  16.067  -4.322  1.00 20.00     0.059 C 
HETATM    8  C7  UNL     1     -33.916  15.700  -3.099  1.00 20.00     0.135 C 
BRANCH   8   9
HETATM    9  O10 UNL     1     -33.643  16.638  -2.058  1.00 20.00    -0.389 OA
HETATM   10  C8  UNL     1     -34.603  16.544  -1.017  1.00 20.00     0.202 C 
ENDBRANCH   8   9
ENDBRANCH   2   4
TORSDOF 2
ENDMDL
MODEL 7
REMARK VINA RESULT:      -4.1     11.079     12.196
REMARK  2 active torsions:
REMARK  status: ('A' for Active; 'I' for Inactive)
REMARK    1  A    between atoms: C4_4  and  C6_6 
REMARK    2  A    between atoms: C7_7  and  O10_10 
ROOT
HETATM    1  C1  UNL     1     -32.026   8.056   2.237  1.00 20.00     0.218 C 
HETATM    2  C4  UNL     1     -32.275   7.617   3.435  1.00 20.00     0.043 C 
HETATM    3  O9  UNL     1     -31.799   8.455   1.153  1.00 20.00    -0.284 OA
ENDROOT
BRANCH   2   4
HETATM    4  C6  UNL     1     -32.687   6.217   3.763  1.00 20.00     0.064 C 
HETATM    5  C3  UNL     1     -33.158   5.473   2.550  1.00 20.00    -0.020 C 
HETATM    6  C2  UNL     1     -34.476   5.260   2.562  1.00 20.00    -0.027 C 
HETATM    7  C5  UNL     1     -35.122   5.834   3.779  1.00 20.00     0.059 C 
HETATM    8  C7  UNL     1     -33.926   6.157   4.680  1.00 20.00     0.135 C 
BRANCH   8   9
HETATM    9  O10 UNL     1     -33.766   5.097   5.624  1.00 20.00    -0.389 OA
HETATM   10  C8  UNL     1     -35.022   4.565   6.015  1.00 20.00     0.202 C 
ENDBRANCH   8   9
ENDBRANCH   2   4
TORSDOF 2
ENDMDL
MODEL 8
REMARK VINA RESULT:      -4.1      2.839      3.574
REMARK  2 active torsions:
REMARK  status: ('A' for Active; 'I' for Inactive)
REMARK    1  A    between atoms: C4_4  and  C6_6 
REMARK    2  A    between atoms: C7_7  and  O10_10 
ROOT
HETATM    1  C1  UNL     1     -37.453  14.642  -3.783  1.00 20.00     0.218 C 
HETATM    2  C4  UNL     1     -36.236  15.093  -3.694  1.00 20.00     0.043 C 
HETATM    3  O9  UNL     1     -38.554  14.236  -3.864  1.00 20.00    -0.284 OA
ENDROOT
BRANCH   2   4
HETATM    4  C6  UNL     1     -35.086  14.619  -4.524  1.00 20.00     0.064 C 
HETATM    5  C3  UNL     1     -33.940  14.151  -3.677  1.00 20.00    -0.020 C 
HETATM    6  C2  UNL     1     -32.897  14.985  -3.728  1.00 20.00    -0.027 C 
HETATM    7  C5  UNL     1     -33.165  16.162  -4.606  1.00 20.00     0.059 C 
HETATM    8  C7  UNL     1     -34.439  15.748  -5.351  1.00 20.00     0.135 C 
BRANCH   8   9
HETATM    9  O10 UNL     1     -34.072  15.244  -6.636  1.00 20.00    -0.389 OA
HETATM   10  C8  UNL     1     -35.150  14.549  -7.243  1.00 20.00     0.202 C 
ENDBRANCH   8   9
ENDBRANCH   2   4
TORSDOF 2
ENDMDL
MODEL 9
REMARK VINA RESULT:      -4.1     11.425     12.200
REMARK  2 active torsions:
REMARK  status: ('A' for Active; 'I' for Inactive)
REMARK    1  A    between atoms: C4_4  and  C6_6 
REMARK    2  A    between atoms: C7_7  and  O10_10 
ROOT
HETATM    1  C1  UNL     1     -34.744   4.990   6.071  1.00 20.00     0.218 C 
HETATM    2  C4  UNL     1     -34.126   6.063   5.675  1.00 20.00     0.043 C 
HETATM    3  O9  UNL     1     -35.304   4.020   6.430  1.00 20.00    -0.284 OA
ENDROOT
BRANCH   2   4
HETATM    4  C6  UNL     1     -34.161   6.606   4.282  1.00 20.00     0.064 C 
HETATM    5  C3  UNL     1     -34.702   5.604   3.305  1.00 20.00    -0.020 C 
HETATM    6  C2  UNL     1     -33.758   5.129   2.489  1.00 20.00    -0.027 C 
HETATM    7  C5  UNL     1     -32.418   5.718   2.782  1.00 20.00     0.059 C 
HETATM    8  C7  UNL     1     -32.756   6.887   3.713  1.00 20.00     0.135 C 
BRANCH   8   9
HETATM    9  O10 UNL     1     -32.789   8.089   2.941  1.00 20.00    -0.389 OA
HETATM   10  C8  UNL     1     -31.789   8.080   1.935  1.00 20.00     0.202 C 
ENDBRANCH   8   9
ENDBRANCH   2   4
TORSDOF 2
ENDMDL
