MODEL 1
REMARK VINA RESULT:      -4.0      0.000      0.000
REMARK  2 active torsions:
REMARK  status: ('A' for Active; 'I' for Inactive)
REMARK    1  A    between atoms: C2_2  and  C5_5 
REMARK    2  A    between atoms: C3_3  and  C6_6 
REMARK       I    between atoms: C3_3  and  N9_9 
ROOT
HETATM    1  C4  UNL     1     -34.271  13.815  -3.540  1.00 20.00     0.024 A 
HETATM    2  C5  UNL     1     -34.192  15.292  -3.266  1.00 20.00     0.021 A 
HETATM    3  C6  UNL     1     -34.920  14.782  -4.462  1.00 20.00     0.086 A 
ENDROOT
BRANCH   3   4
HETATM    4  C3  UNL     1     -36.427  14.818  -4.501  1.00 20.00     0.224 C 
HETATM    5  N9  UNL     1     -37.008  15.791  -5.316  1.00 20.00    -0.360 N 
HETATM    6  C7  UNL     1     -38.299  15.596  -5.963  1.00 20.00     0.152 C 
HETATM    7  C8  UNL     1     -36.364  17.076  -5.578  1.00 20.00     0.152 C 
HETATM    8  O10 UNL     1     -37.067  14.006  -3.828  1.00 20.00    -0.273 OA
ENDBRANCH   3   4
BRANCH   2   9
HETATM    9  C2  UNL     1     -34.891  15.830  -2.108  1.00 20.00    -0.031 C 
HETATM   10  C1  UNL     1     -34.345  16.681  -1.234  1.00 20.00     0.007 C 
ENDBRANCH   2   9
TORSDOF 2
ENDMDL
MODEL 2
REMARK VINA RESULT:      -3.9      2.236      3.196
REMARK  2 active torsions:
REMARK  status: ('A' for Active; 'I' for Inactive)
REMARK    1  A    between atoms: C2_2  and  C5_5 
REMARK    2  A    between atoms: C3_3  and  C6_6 
REMARK       I    between atoms: C3_3  and  N9_9 
ROOT
HETATM    1  C4  UNL     1     -33.803  16.283  -2.429  1.00 20.00     0.024 A 
HETATM    2  C5  UNL     1     -34.806  15.272  -2.915  1.00 20.00     0.021 A 
HETATM    3  C6  UNL     1     -34.678  16.596  -3.586  1.00 20.00     0.086 A 
ENDROOT
BRANCH   3   4
HETATM    4  C3  UNL     1     -34.039  16.694  -4.950  1.00 20.00     0.224 C 
HETATM    5  N9  UNL     1     -34.900  16.888  -6.031  1.00 20.00    -0.360 N 
HETATM    6  C7  UNL     1     -34.493  17.609  -7.230  1.00 20.00     0.152 C 
HETATM    7  C8  UNL     1     -36.270  16.382  -6.039  1.00 20.00     0.152 C 
HETATM    8  O10 UNL     1     -32.813  16.601  -5.047  1.00 20.00    -0.273 OA
ENDBRANCH   3   4
BRANCH   2   9
HETATM    9  C2  UNL     1     -34.324  14.045  -3.531  1.00 20.00    -0.031 C 
HETATM   10  C1  UNL     1     -35.071  13.255  -4.310  1.00 20.00     0.007 C 
ENDBRANCH   2   9
TORSDOF 2
ENDMDL
MODEL 3
REMARK VINA RESULT:      -3.9      1.863      2.149
REMARK  2 active torsions:
REMARK  status: ('A' for Active; 'I' for Inactive)
REMARK    1  A    between atoms: C2_2  and  C5_5 
REMARK    2  A    between atoms: C3_3  and  C6_6 
REMARK       I    between atoms: C3_3  and  N9_9 
ROOT
HETATM    1  C4  UNL     1     -34.926  13.288  -4.200  1.00 20.00     0.024 A 
HETATM    2  C5  UNL     1     -34.264  14.385  -3.412  1.00 20.00     0.021 A 
HETATM    3  C6  UNL     1     -34.245  14.406  -4.901  1.00 20.00     0.086 A 
ENDROOT
BRANCH   3   4
HETATM    4  C3  UNL     1     -35.101  15.394  -5.654  1.00 20.00     0.224 C 
HETATM    5  N9  UNL     1     -34.482  16.577  -6.059  1.00 20.00    -0.360 N 
HETATM    6  C7  UNL     1     -34.890  17.300  -7.256  1.00 20.00     0.152 C 
HETATM    7  C8  UNL     1     -33.380  17.177  -5.311  1.00 20.00     0.152 C 
HETATM    8  O10 UNL     1     -36.284  15.120  -5.874  1.00 20.00    -0.273 OA
ENDBRANCH   3   4
BRANCH   2   9
HETATM    9  C2  UNL     1     -35.096  15.293  -2.637  1.00 20.00    -0.031 C 
HETATM   10  C1  UNL     1     -34.616  16.222  -1.803  1.00 20.00     0.007 C 
ENDBRANCH   2   9
TORSDOF 2
ENDMDL
MODEL 4
REMARK VINA RESULT:      -3.8      2.518      3.750
REMARK  2 active torsions:
REMARK  status: ('A' for Active; 'I' for Inactive)
REMARK    1  A    between atoms: C2_2  and  C5_5 
REMARK    2  A    between atoms: C3_3  and  C6_6 
REMARK       I    between atoms: C3_3  and  N9_9 
ROOT
HETATM    1  C4  UNL     1     -33.376  13.633  -3.757  1.00 20.00     0.024 A 
HETATM    2  C5  UNL     1     -34.769  13.843  -4.285  1.00 20.00     0.021 A 
HETATM    3  C6  UNL     1     -34.141  14.850  -3.384  1.00 20.00     0.086 A 
ENDROOT
BRANCH   3   4
HETATM    4  C3  UNL     1     -33.677  16.174  -3.937  1.00 20.00     0.224 C 
HETATM    5  N9  UNL     1     -34.429  17.296  -3.587  1.00 20.00    -0.360 N 
HETATM    6  C7  UNL     1     -33.839  18.623  -3.467  1.00 20.00     0.152 C 
HETATM    7  C8  UNL     1     -35.862  17.222  -3.315  1.00 20.00     0.152 C 
HETATM    8  O10 UNL     1     -32.677  16.208  -4.658  1.00 20.00    -0.273 OA
ENDBRANCH   3   4
BRANCH   2   9
HETATM    9  C2  UNL     1     -34.951  14.088  -5.708  1.00 20.00    -0.031 C 
HETATM   10  C1  UNL     1     -35.992  14.747  -6.227  1.00 20.00     0.007 C 
ENDBRANCH   2   9
TORSDOF 2
ENDMDL
MODEL 5
REMARK VINA RESULT:      -3.8      2.318      3.840
REMARK  2 active torsions:
REMARK  status: ('A' for Active; 'I' for Inactive)
REMARK    1  A    between atoms: C2_2  and  C5_5 
REMARK    2  A    between atoms: C3_3  and  C6_6 
REMARK       I    between atoms: C3_3  and  N9_9 
ROOT
HETATM    1  C4  UNL     1     -34.423  13.094  -4.903  1.00 20.00     0.024 A 
HETATM    2  C5  UNL     1     -35.149  14.219  -5.589  1.00 20.00     0.021 A 
HETATM    3  C6  UNL     1     -35.130  14.125  -4.103  1.00 20.00     0.086 A 
ENDROOT
BRANCH   3   4
HETATM    4  C3  UNL     1     -34.296  15.088  -3.295  1.00 20.00     0.224 C 
HETATM    5  N9  UNL     1     -34.990  16.038  -2.544  1.00 20.00    -0.360 N 
HETATM    6  C7  UNL     1     -34.466  16.578  -1.296  1.00 20.00     0.152 C 
HETATM    7  C8  UNL     1     -36.291  16.561  -2.955  1.00 20.00     0.152 C 
HETATM    8  O10 UNL     1     -33.067  14.997  -3.332  1.00 20.00    -0.273 OA
ENDBRANCH   3   4
BRANCH   2   9
HETATM    9  C2  UNL     1     -34.375  15.219  -6.309  1.00 20.00    -0.031 C 
HETATM   10  C1  UNL     1     -34.805  15.850  -7.408  1.00 20.00     0.007 C 
ENDBRANCH   2   9
TORSDOF 2
ENDMDL
MODEL 6
REMARK VINA RESULT:      -3.8      2.169      3.030
REMARK  2 active torsions:
REMARK  status: ('A' for Active; 'I' for Inactive)
REMARK    1  A    between atoms: C2_2  and  C5_5 
REMARK    2  A    between atoms: C3_3  and  C6_6 
REMARK       I    between atoms: C3_3  and  N9_9 
ROOT
HETATM    1  C4  UNL     1     -33.744  17.823  -3.200  1.00 20.00     0.024 A 
HETATM    2  C5  UNL     1     -34.892  17.393  -2.328  1.00 20.00     0.021 A 
HETATM    3  C6  UNL     1     -34.681  16.769  -3.664  1.00 20.00     0.086 A 
ENDROOT
BRANCH   3   4
HETATM    4  C3  UNL     1     -34.163  15.356  -3.766  1.00 20.00     0.224 C 
HETATM    5  N9  UNL     1     -35.078  14.381  -4.165  1.00 20.00    -0.360 N 
HETATM    6  C7  UNL     1     -34.677  13.191  -4.903  1.00 20.00     0.152 C 
HETATM    7  C8  UNL     1     -36.506  14.483  -3.869  1.00 20.00     0.152 C 
HETATM    8  O10 UNL     1     -32.980  15.129  -3.500  1.00 20.00    -0.273 OA
ENDBRANCH   3   4
BRANCH   2   9
HETATM    9  C2  UNL     1     -34.607  16.681  -1.091  1.00 20.00    -0.031 C 
HETATM   10  C1  UNL     1     -34.861  17.169   0.128  1.00 20.00     0.007 C 
ENDBRANCH   2   9
TORSDOF 2
ENDMDL
MODEL 7
REMARK VINA RESULT:      -3.8      2.203      3.501
REMARK  2 active torsions:
REMARK  status: ('A' for Active; 'I' for Inactive)
REMARK    1  A    between atoms: C2_2  and  C5_5 
REMARK    2  A    between atoms: C3_3  and  C6_6 
REMARK       I    between atoms: C3_3  and  N9_9 
ROOT
HETATM    1  C4  UNL     1     -33.381  13.630  -3.857  1.00 20.00     0.024 A 
HETATM    2  C5  UNL     1     -34.575  13.659  -4.772  1.00 20.00     0.021 A 
HETATM    3  C6  UNL     1     -34.657  14.237  -3.402  1.00 20.00     0.086 A 
ENDROOT
BRANCH   3   4
HETATM    4  C3  UNL     1     -34.700  15.733  -3.213  1.00 20.00     0.224 C 
HETATM    5  N9  UNL     1     -35.958  16.301  -3.006  1.00 20.00    -0.360 N 
HETATM    6  C7  UNL     1     -36.146  17.509  -2.214  1.00 20.00     0.152 C 
HETATM    7  C8  UNL     1     -37.177  15.726  -3.570  1.00 20.00     0.152 C 
HETATM    8  O10 UNL     1     -33.647  16.375  -3.249  1.00 20.00    -0.273 OA
ENDBRANCH   3   4
BRANCH   2   9
HETATM    9  C2  UNL     1     -34.528  14.497  -5.961  1.00 20.00    -0.031 C 
HETATM   10  C1  UNL     1     -35.361  14.371  -6.999  1.00 20.00     0.007 C 
ENDBRANCH   2   9
TORSDOF 2
ENDMDL
MODEL 8
REMARK VINA RESULT:      -3.6      2.379      2.725
REMARK  2 active torsions:
REMARK  status: ('A' for Active; 'I' for Inactive)
REMARK    1  A    between atoms: C2_2  and  C5_5 
REMARK    2  A    between atoms: C3_3  and  C6_6 
REMARK       I    between atoms: C3_3  and  N9_9 
ROOT
HETATM    1  C4  UNL     1     -35.380  14.237  -4.163  1.00 20.00     0.024 A 
HETATM    2  C5  UNL     1     -34.573  14.765  -3.009  1.00 20.00     0.021 A 
HETATM    3  C6  UNL     1     -33.965  14.640  -4.363  1.00 20.00     0.086 A 
ENDROOT
BRANCH   3   4
HETATM    4  C3  UNL     1     -33.691  15.874  -5.185  1.00 20.00     0.224 C 
HETATM    5  N9  UNL     1     -34.313  15.947  -6.432  1.00 20.00    -0.360 N 
HETATM    6  C7  UNL     1     -34.689  17.215  -7.042  1.00 20.00     0.152 C 
HETATM    7  C8  UNL     1     -34.633  14.756  -7.215  1.00 20.00     0.152 C 
HETATM    8  O10 UNL     1     -32.945  16.746  -4.731  1.00 20.00    -0.273 OA
ENDBRANCH   3   4
BRANCH   2   9
HETATM    9  C2  UNL     1     -34.925  16.056  -2.437  1.00 20.00    -0.031 C 
HETATM   10  C1  UNL     1     -34.570  16.453  -1.211  1.00 20.00     0.007 C 
ENDBRANCH   2   9
TORSDOF 2
ENDMDL
MODEL 9
REMARK VINA RESULT:      -3.6      2.655      3.302
REMARK  2 active torsions:
REMARK  status: ('A' for Active; 'I' for Inactive)
REMARK    1  A    between atoms: C2_2  and  C5_5 
REMARK    2  A    between atoms: C3_3  and  C6_6 
REMARK       I    between atoms: C3_3  and  N9_9 
ROOT
HETATM    1  C4  UNL     1     -34.878  15.868  -2.270  1.00 20.00     0.024 A 
HETATM    2  C5  UNL     1     -33.726  16.811  -2.061  1.00 20.00     0.021 A 
HETATM    3  C6  UNL     1     -33.558  15.583  -2.886  1.00 20.00     0.086 A 
ENDROOT
BRANCH   3   4
HETATM    4  C3  UNL     1     -33.439  15.690  -4.386  1.00 20.00     0.224 C 
HETATM    5  N9  UNL     1     -34.098  14.716  -5.137  1.00 20.00    -0.360 N 
HETATM    6  C7  UNL     1     -34.624  14.982  -6.469  1.00 20.00     0.152 C 
HETATM    7  C8  UNL     1     -34.307  13.357  -4.642  1.00 20.00     0.152 C 
HETATM    8  O10 UNL     1     -32.781  16.613  -4.873  1.00 20.00    -0.273 OA
ENDBRANCH   3   4
BRANCH   2   9
HETATM    9  C2  UNL     1     -33.788  18.138  -2.656  1.00 20.00    -0.031 C 
HETATM   10  C1  UNL     1     -33.312  19.243  -2.072  1.00 20.00     0.007 C 
ENDBRANCH   2   9
TORSDOF 2
ENDMDL
