MODEL 1
REMARK VINA RESULT:      -5.0      0.000      0.000
REMARK  2 active torsions:
REMARK  status: ('A' for Active; 'I' for Inactive)
REMARK    1  A    between atoms: C4_4  and  C5_5 
REMARK    2  A    between atoms: C9_9  and  C11_11 
ROOT
HETATM    1  C1  UNL     1     -33.560  13.648  -3.795  1.00 20.00     0.012 C 
HETATM    2  C2  UNL     1     -33.491  14.847  -3.799  1.00 20.00    -0.117 C 
HETATM    3  C11 UNL     1     -33.396  16.308  -3.808  1.00 20.00     0.098 C 
ENDROOT
BRANCH   3   4
HETATM    4  C9  UNL     1     -34.628  16.944  -3.155  1.00 20.00     0.000 C 
HETATM    5  C6  UNL     1     -34.851  16.405  -1.730  1.00 20.00     0.033 C 
HETATM    6  C3  UNL     1     -34.017  17.085  -0.680  1.00 20.00    -0.016 C 
HETATM    7  C4  UNL     1     -33.375  18.239  -0.905  1.00 20.00    -0.016 C 
HETATM    8  C7  UNL     1     -33.429  18.989  -2.202  1.00 20.00     0.042 C 
HETATM    9  C8  UNL     1     -34.531  18.477  -3.136  1.00 20.00     0.010 C 
BRANCH   7  10
HETATM   10  C5  UNL     1     -32.586  18.805   0.194  1.00 20.00     0.151 C 
HETATM   11  C10 UNL     1     -33.198  18.816   1.572  1.00 20.00     0.096 C 
HETATM   12  O12 UNL     1     -31.460  19.263  -0.012  1.00 20.00    -0.293 OA
ENDBRANCH   7  10
ENDBRANCH   3   4
TORSDOF 2
ENDMDL
MODEL 2
REMARK VINA RESULT:      -4.9      3.020      5.603
REMARK  2 active torsions:
REMARK  status: ('A' for Active; 'I' for Inactive)
REMARK    1  A    between atoms: C4_4  and  C5_5 
REMARK    2  A    between atoms: C9_9  and  C11_11 
ROOT
HETATM    1  C1  UNL     1     -35.179  17.678   0.995  1.00 20.00     0.012 C 
HETATM    2  C2  UNL     1     -34.859  17.104  -0.010  1.00 20.00    -0.117 C 
HETATM    3  C11 UNL     1     -34.463  16.395  -1.228  1.00 20.00     0.098 C 
ENDROOT
BRANCH   3   4
HETATM    4  C9  UNL     1     -34.855  17.189  -2.479  1.00 20.00     0.000 C 
HETATM    5  C6  UNL     1     -33.772  17.093  -3.570  1.00 20.00     0.033 C 
HETATM    6  C3  UNL     1     -33.854  15.847  -4.407  1.00 20.00    -0.016 C 
HETATM    7  C4  UNL     1     -34.931  15.050  -4.411  1.00 20.00    -0.016 C 
HETATM    8  C7  UNL     1     -36.172  15.315  -3.612  1.00 20.00     0.042 C 
HETATM    9  C8  UNL     1     -36.213  16.734  -3.035  1.00 20.00     0.010 C 
BRANCH   7  10
HETATM   10  C5  UNL     1     -34.894  13.859  -5.264  1.00 20.00     0.151 C 
HETATM   11  C10 UNL     1     -35.104  14.041  -6.746  1.00 20.00     0.096 C 
HETATM   12  O12 UNL     1     -34.703  12.743  -4.775  1.00 20.00    -0.293 OA
ENDBRANCH   7  10
ENDBRANCH   3   4
TORSDOF 2
ENDMDL
MODEL 3
REMARK VINA RESULT:      -4.9      2.619      3.736
REMARK  2 active torsions:
REMARK  status: ('A' for Active; 'I' for Inactive)
REMARK    1  A    between atoms: C4_4  and  C5_5 
REMARK    2  A    between atoms: C9_9  and  C11_11 
ROOT
HETATM    1  C1  UNL     1     -35.671  14.407  -7.916  1.00 20.00     0.012 C 
HETATM    2  C2  UNL     1     -35.028  14.849  -7.003  1.00 20.00    -0.117 C 
HETATM    3  C11 UNL     1     -34.242  15.400  -5.897  1.00 20.00     0.098 C 
ENDROOT
BRANCH   3   4
HETATM    4  C9  UNL     1     -34.139  14.397  -4.742  1.00 20.00     0.000 C 
HETATM    5  C6  UNL     1     -33.118  14.858  -3.685  1.00 20.00     0.033 C 
HETATM    6  C3  UNL     1     -33.665  15.849  -2.696  1.00 20.00    -0.016 C 
HETATM    7  C4  UNL     1     -34.978  16.078  -2.557  1.00 20.00    -0.016 C 
HETATM    8  C7  UNL     1     -36.041  15.369  -3.341  1.00 20.00     0.042 C 
HETATM    9  C8  UNL     1     -35.505  14.144  -4.089  1.00 20.00     0.010 C 
BRANCH   7  10
HETATM   10  C5  UNL     1     -35.393  17.073  -1.562  1.00 20.00     0.151 C 
HETATM   11  C10 UNL     1     -34.701  17.067  -0.223  1.00 20.00     0.096 C 
HETATM   12  O12 UNL     1     -36.287  17.882  -1.819  1.00 20.00    -0.293 OA
ENDBRANCH   7  10
ENDBRANCH   3   4
TORSDOF 2
ENDMDL
MODEL 4
REMARK VINA RESULT:      -4.7      3.912      6.191
REMARK  2 active torsions:
REMARK  status: ('A' for Active; 'I' for Inactive)
REMARK    1  A    between atoms: C4_4  and  C5_5 
REMARK    2  A    between atoms: C9_9  and  C11_11 
ROOT
HETATM    1  C1  UNL     1     -34.508  16.973  -0.650  1.00 20.00     0.012 C 
HETATM    2  C2  UNL     1     -34.268  16.385  -1.670  1.00 20.00    -0.117 C 
HETATM    3  C11 UNL     1     -33.966  15.676  -2.915  1.00 20.00     0.098 C 
ENDROOT
BRANCH   3   4
HETATM    4  C9  UNL     1     -34.943  14.517  -3.140  1.00 20.00     0.000 C 
HETATM    5  C6  UNL     1     -36.354  15.029  -3.489  1.00 20.00     0.033 C 
HETATM    6  C3  UNL     1     -36.535  15.384  -4.938  1.00 20.00    -0.016 C 
HETATM    7  C4  UNL     1     -35.665  15.012  -5.887  1.00 20.00    -0.016 C 
HETATM    8  C7  UNL     1     -34.440  14.189  -5.623  1.00 20.00     0.042 C 
HETATM    9  C8  UNL     1     -34.441  13.556  -4.227  1.00 20.00     0.010 C 
BRANCH   7  10
HETATM   10  C5  UNL     1     -35.944  15.422  -7.266  1.00 20.00     0.151 C 
HETATM   11  C10 UNL     1     -35.113  16.533  -7.857  1.00 20.00     0.096 C 
HETATM   12  O12 UNL     1     -36.839  14.876  -7.914  1.00 20.00    -0.293 OA
ENDBRANCH   7  10
ENDBRANCH   3   4
TORSDOF 2
ENDMDL
MODEL 5
REMARK VINA RESULT:      -4.7      3.331      5.511
REMARK  2 active torsions:
REMARK  status: ('A' for Active; 'I' for Inactive)
REMARK    1  A    between atoms: C4_4  and  C5_5 
REMARK    2  A    between atoms: C9_9  and  C11_11 
ROOT
HETATM    1  C1  UNL     1     -33.845  18.617   0.746  1.00 20.00     0.012 C 
HETATM    2  C2  UNL     1     -34.214  17.708   0.053  1.00 20.00    -0.117 C 
HETATM    3  C11 UNL     1     -34.671  16.595  -0.782  1.00 20.00     0.098 C 
ENDROOT
BRANCH   3   4
HETATM    4  C9  UNL     1     -34.087  16.693  -2.196  1.00 20.00     0.000 C 
HETATM    5  C6  UNL     1     -33.979  15.306  -2.858  1.00 20.00     0.033 C 
HETATM    6  C3  UNL     1     -35.258  14.825  -3.484  1.00 20.00    -0.016 C 
HETATM    7  C4  UNL     1     -36.300  15.636  -3.712  1.00 20.00    -0.016 C 
HETATM    8  C7  UNL     1     -36.304  17.102  -3.399  1.00 20.00     0.042 C 
HETATM    9  C8  UNL     1     -34.906  17.644  -3.082  1.00 20.00     0.010 C 
BRANCH   7  10
HETATM   10  C5  UNL     1     -37.498  15.051  -4.323  1.00 20.00     0.151 C 
HETATM   11  C10 UNL     1     -37.935  15.574  -5.668  1.00 20.00     0.096 C 
HETATM   12  O12 UNL     1     -38.127  14.164  -3.743  1.00 20.00    -0.293 OA
ENDBRANCH   7  10
ENDBRANCH   3   4
TORSDOF 2
ENDMDL
MODEL 6
REMARK VINA RESULT:      -4.6      3.643      5.571
REMARK  2 active torsions:
REMARK  status: ('A' for Active; 'I' for Inactive)
REMARK    1  A    between atoms: C4_4  and  C5_5 
REMARK    2  A    between atoms: C9_9  and  C11_11 
ROOT
HETATM    1  C1  UNL     1     -33.693  18.468  -4.536  1.00 20.00     0.012 C 
HETATM    2  C2  UNL     1     -33.424  17.299  -4.607  1.00 20.00    -0.117 C 
HETATM    3  C11 UNL     1     -33.093  15.876  -4.706  1.00 20.00     0.098 C 
ENDROOT
BRANCH   3   4
HETATM    4  C9  UNL     1     -33.467  15.134  -3.418  1.00 20.00     0.000 C 
HETATM    5  C6  UNL     1     -34.473  15.939  -2.575  1.00 20.00     0.033 C 
HETATM    6  C3  UNL     1     -35.903  15.780  -3.012  1.00 20.00    -0.016 C 
HETATM    7  C4  UNL     1     -36.299  14.810  -3.847  1.00 20.00    -0.016 C 
HETATM    8  C7  UNL     1     -35.383  13.769  -4.417  1.00 20.00     0.042 C 
HETATM    9  C8  UNL     1     -34.021  13.732  -3.715  1.00 20.00     0.010 C 
BRANCH   7  10
HETATM   10  C5  UNL     1     -37.719  14.758  -4.206  1.00 20.00     0.151 C 
HETATM   11  C10 UNL     1     -38.118  15.220  -5.585  1.00 20.00     0.096 C 
HETATM   12  O12 UNL     1     -38.557  14.356  -3.397  1.00 20.00    -0.293 OA
ENDBRANCH   7  10
ENDBRANCH   3   4
TORSDOF 2
ENDMDL
MODEL 7
REMARK VINA RESULT:      -4.5      1.868      2.976
REMARK  2 active torsions:
REMARK  status: ('A' for Active; 'I' for Inactive)
REMARK    1  A    between atoms: C4_4  and  C5_5 
REMARK    2  A    between atoms: C9_9  and  C11_11 
ROOT
HETATM    1  C1  UNL     1     -33.700  16.293  -3.295  1.00 20.00     0.012 C 
HETATM    2  C2  UNL     1     -34.108  16.416  -2.172  1.00 20.00    -0.117 C 
HETATM    3  C11 UNL     1     -34.603  16.553  -0.801  1.00 20.00     0.098 C 
ENDROOT
BRANCH   3   4
HETATM    4  C9  UNL     1     -35.027  17.997  -0.511  1.00 20.00     0.000 C 
HETATM    5  C6  UNL     1     -35.670  18.127   0.883  1.00 20.00     0.033 C 
HETATM    6  C3  UNL     1     -34.679  18.255   2.005  1.00 20.00    -0.016 C 
HETATM    7  C4  UNL     1     -33.385  18.534   1.797  1.00 20.00    -0.016 C 
HETATM    8  C7  UNL     1     -32.787  18.771   0.443  1.00 20.00     0.042 C 
HETATM    9  C8  UNL     1     -33.847  18.971  -0.646  1.00 20.00     0.010 C 
BRANCH   7  10
HETATM   10  C5  UNL     1     -32.511  18.628   2.970  1.00 20.00     0.151 C 
HETATM   11  C10 UNL     1     -31.111  19.152   2.770  1.00 20.00     0.096 C 
HETATM   12  O12 UNL     1     -32.914  18.281   4.082  1.00 20.00    -0.293 OA
ENDBRANCH   7  10
ENDBRANCH   3   4
TORSDOF 2
ENDMDL
MODEL 8
REMARK VINA RESULT:      -4.5      2.499      3.800
REMARK  2 active torsions:
REMARK  status: ('A' for Active; 'I' for Inactive)
REMARK    1  A    between atoms: C4_4  and  C5_5 
REMARK    2  A    between atoms: C9_9  and  C11_11 
ROOT
HETATM    1  C1  UNL     1     -36.805  15.166  -7.897  1.00 20.00     0.012 C 
HETATM    2  C2  UNL     1     -36.379  14.945  -6.796  1.00 20.00    -0.117 C 
HETATM    3  C11 UNL     1     -35.870  14.675  -5.449  1.00 20.00     0.098 C 
ENDROOT
BRANCH   3   4
HETATM    4  C9  UNL     1     -34.338  14.705  -5.423  1.00 20.00     0.000 C 
HETATM    5  C6  UNL     1     -33.799  16.131  -5.640  1.00 20.00     0.033 C 
HETATM    6  C3  UNL     1     -33.777  16.974  -4.396  1.00 20.00    -0.016 C 
HETATM    7  C4  UNL     1     -33.922  16.454  -3.170  1.00 20.00    -0.016 C 
HETATM    8  C7  UNL     1     -34.096  14.990  -2.895  1.00 20.00     0.042 C 
HETATM    9  C8  UNL     1     -33.783  14.118  -4.116  1.00 20.00     0.010 C 
BRANCH   7  10
HETATM   10  C5  UNL     1     -33.890  17.376  -2.031  1.00 20.00     0.151 C 
HETATM   11  C10 UNL     1     -34.441  16.894  -0.712  1.00 20.00     0.096 C 
HETATM   12  O12 UNL     1     -33.431  18.514  -2.157  1.00 20.00    -0.293 OA
ENDBRANCH   7  10
ENDBRANCH   3   4
TORSDOF 2
ENDMDL
MODEL 9
REMARK VINA RESULT:      -4.4      1.863      4.834
REMARK  2 active torsions:
REMARK  status: ('A' for Active; 'I' for Inactive)
REMARK    1  A    between atoms: C4_4  and  C5_5 
REMARK    2  A    between atoms: C9_9  and  C11_11 
ROOT
HETATM    1  C1  UNL     1     -33.833  18.509   2.711  1.00 20.00     0.012 C 
HETATM    2  C2  UNL     1     -33.551  18.548   1.544  1.00 20.00    -0.117 C 
HETATM    3  C11 UNL     1     -33.196  18.595   0.124  1.00 20.00     0.098 C 
ENDROOT
BRANCH   3   4
HETATM    4  C9  UNL     1     -34.448  18.719  -0.753  1.00 20.00     0.000 C 
HETATM    5  C6  UNL     1     -34.087  19.116  -2.196  1.00 20.00     0.033 C 
HETATM    6  C3  UNL     1     -33.667  17.962  -3.063  1.00 20.00    -0.016 C 
HETATM    7  C4  UNL     1     -33.875  16.685  -2.713  1.00 20.00    -0.016 C 
HETATM    8  C7  UNL     1     -34.560  16.263  -1.449  1.00 20.00     0.042 C 
HETATM    9  C8  UNL     1     -35.273  17.424  -0.747  1.00 20.00     0.010 C 
BRANCH   7  10
HETATM   10  C5  UNL     1     -33.416  15.643  -3.637  1.00 20.00     0.151 C 
HETATM   11  C10 UNL     1     -34.029  14.271  -3.519  1.00 20.00     0.096 C 
HETATM   12  O12 UNL     1     -32.548  15.888  -4.479  1.00 20.00    -0.293 OA
ENDBRANCH   7  10
ENDBRANCH   3   4
TORSDOF 2
ENDMDL
