MODEL 1
REMARK VINA RESULT:      -4.0      0.000      0.000
REMARK  1 active torsions:
REMARK  status: ('A' for Active; 'I' for Inactive)
REMARK    1  A    between atoms: C1_1  and  C7_7 
ROOT
HETATM    1  C2  UNL     1     -35.030  13.549  -4.117  1.00 20.00     0.048 C 
HETATM    2  C3  UNL     1     -35.051  15.864  -5.040  1.00 20.00     0.048 C 
HETATM    3  C4  UNL     1     -33.530  13.707  -3.863  1.00 20.00     0.273 C 
HETATM    4  C5  UNL     1     -33.549  15.949  -4.757  1.00 20.00     0.273 C 
HETATM    5  C6  UNL     1     -34.613  15.435  -2.766  1.00 20.00     0.288 C 
HETATM    6  C7  UNL     1     -35.526  14.977  -3.890  1.00 20.00     0.042 C 
HETATM    7  N8  UNL     1     -33.362  15.147  -3.515  1.00 20.00     0.089 N 
ENDROOT
BRANCH   6   8
HETATM    8  C1  UNL     1     -36.983  15.092  -3.593  1.00 20.00     0.242 C 
HETATM    9  O9  UNL     1     -37.779  14.173  -3.752  1.00 20.00    -0.306 OA
ENDBRANCH   6   8
TORSDOF 1
ENDMDL
MODEL 2
REMARK VINA RESULT:      -3.9      1.521      2.527
REMARK  1 active torsions:
REMARK  status: ('A' for Active; 'I' for Inactive)
REMARK    1  A    between atoms: C1_1  and  C7_7 
ROOT
HETATM    1  C2  UNL     1     -34.225  15.804  -5.526  1.00 20.00     0.048 C 
HETATM    2  C3  UNL     1     -35.348  15.184  -3.389  1.00 20.00     0.048 C 
HETATM    3  C4  UNL     1     -33.638  17.025  -4.817  1.00 20.00     0.273 C 
HETATM    4  C5  UNL     1     -34.725  16.425  -2.746  1.00 20.00     0.273 C 
HETATM    5  C6  UNL     1     -33.004  15.147  -3.620  1.00 20.00     0.288 C 
HETATM    6  C7  UNL     1     -34.263  14.783  -4.388  1.00 20.00     0.042 C 
HETATM    7  N8  UNL     1     -33.402  16.564  -3.418  1.00 20.00     0.089 N 
ENDROOT
BRANCH   6   8
HETATM    8  C1  UNL     1     -34.334  13.361  -4.829  1.00 20.00     0.242 C 
HETATM    9  O9  UNL     1     -35.127  12.549  -4.365  1.00 20.00    -0.306 OA
ENDBRANCH   6   8
TORSDOF 1
ENDMDL
MODEL 3
REMARK VINA RESULT:      -3.9      0.680      1.878
REMARK  1 active torsions:
REMARK  status: ('A' for Active; 'I' for Inactive)
REMARK    1  A    between atoms: C1_1  and  C7_7 
ROOT
HETATM    1  C2  UNL     1     -35.200  15.742  -2.582  1.00 20.00     0.048 C 
HETATM    2  C3  UNL     1     -34.569  13.622  -3.732  1.00 20.00     0.048 C 
HETATM    3  C4  UNL     1     -33.734  16.171  -2.654  1.00 20.00     0.273 C 
HETATM    4  C5  UNL     1     -33.121  14.118  -3.768  1.00 20.00     0.273 C 
HETATM    5  C6  UNL     1     -34.437  15.712  -4.812  1.00 20.00     0.288 C 
HETATM    6  C7  UNL     1     -35.342  14.934  -3.872  1.00 20.00     0.042 C 
HETATM    7  N8  UNL     1     -33.241  15.595  -3.938  1.00 20.00     0.089 N 
ENDROOT
BRANCH   6   8
HETATM    8  C1  UNL     1     -36.743  14.767  -4.353  1.00 20.00     0.242 C 
HETATM    9  O9  UNL     1     -37.607  14.166  -3.724  1.00 20.00    -0.306 OA
ENDBRANCH   6   8
TORSDOF 1
ENDMDL
MODEL 4
REMARK VINA RESULT:      -3.9      1.670      2.624
REMARK  1 active torsions:
REMARK  status: ('A' for Active; 'I' for Inactive)
REMARK    1  A    between atoms: C1_1  and  C7_7 
ROOT
HETATM    1  C2  UNL     1     -34.726  15.694  -2.390  1.00 20.00     0.048 C 
HETATM    2  C3  UNL     1     -33.073  15.717  -4.256  1.00 20.00     0.048 C 
HETATM    3  C4  UNL     1     -35.236  17.051  -2.878  1.00 20.00     0.273 C 
HETATM    4  C5  UNL     1     -33.636  17.074  -4.686  1.00 20.00     0.273 C 
HETATM    5  C6  UNL     1     -35.392  15.566  -4.647  1.00 20.00     0.288 C 
HETATM    6  C7  UNL     1     -34.324  15.031  -3.708  1.00 20.00     0.042 C 
HETATM    7  N8  UNL     1     -35.088  16.992  -4.360  1.00 20.00     0.089 N 
ENDROOT
BRANCH   6   8
HETATM    8  C1  UNL     1     -34.230  13.544  -3.655  1.00 20.00     0.242 C 
HETATM    9  O9  UNL     1     -34.884  12.799  -4.377  1.00 20.00    -0.306 OA
ENDBRANCH   6   8
TORSDOF 1
ENDMDL
MODEL 5
REMARK VINA RESULT:      -3.8      1.951      2.554
REMARK  1 active torsions:
REMARK  status: ('A' for Active; 'I' for Inactive)
REMARK    1  A    between atoms: C1_1  and  C7_7 
ROOT
HETATM    1  C2  UNL     1     -33.483  15.420  -4.281  1.00 20.00     0.048 C 
HETATM    2  C3  UNL     1     -34.504  14.711  -6.442  1.00 20.00     0.048 C 
HETATM    3  C4  UNL     1     -33.378  16.839  -4.842  1.00 20.00     0.273 C 
HETATM    4  C5  UNL     1     -34.367  16.154  -6.936  1.00 20.00     0.273 C 
HETATM    5  C6  UNL     1     -35.598  16.195  -4.975  1.00 20.00     0.288 C 
HETATM    6  C7  UNL     1     -34.765  14.925  -4.951  1.00 20.00     0.042 C 
HETATM    7  N8  UNL     1     -34.579  16.983  -5.715  1.00 20.00     0.089 N 
ENDROOT
BRANCH   6   8
HETATM    8  C1  UNL     1     -35.415  13.767  -4.274  1.00 20.00     0.242 C 
HETATM    9  O9  UNL     1     -35.026  12.610  -4.390  1.00 20.00    -0.306 OA
ENDBRANCH   6   8
TORSDOF 1
ENDMDL
MODEL 6
REMARK VINA RESULT:      -3.7      1.894      2.908
REMARK  1 active torsions:
REMARK  status: ('A' for Active; 'I' for Inactive)
REMARK    1  A    between atoms: C1_1  and  C7_7 
ROOT
HETATM    1  C2  UNL     1     -33.518  16.047  -4.983  1.00 20.00     0.048 C 
HETATM    2  C3  UNL     1     -33.648  13.938  -3.661  1.00 20.00     0.048 C 
HETATM    3  C4  UNL     1     -34.322  15.358  -6.086  1.00 20.00     0.273 C 
HETATM    4  C5  UNL     1     -34.449  13.315  -4.806  1.00 20.00     0.273 C 
HETATM    5  C6  UNL     1     -35.560  15.232  -4.133  1.00 20.00     0.288 C 
HETATM    6  C7  UNL     1     -34.104  15.395  -3.730  1.00 20.00     0.042 C 
HETATM    7  N8  UNL     1     -35.249  14.447  -5.356  1.00 20.00     0.089 N 
ENDROOT
BRANCH   6   8
HETATM    8  C1  UNL     1     -33.890  16.162  -2.470  1.00 20.00     0.242 C 
HETATM    9  O9  UNL     1     -34.612  16.057  -1.484  1.00 20.00    -0.306 OA
ENDBRANCH   6   8
TORSDOF 1
ENDMDL
MODEL 7
REMARK VINA RESULT:      -3.7      1.924      2.785
REMARK  1 active torsions:
REMARK  status: ('A' for Active; 'I' for Inactive)
REMARK    1  A    between atoms: C1_1  and  C7_7 
ROOT
HETATM    1  C2  UNL     1     -36.006  15.890  -4.682  1.00 20.00     0.048 C 
HETATM    2  C3  UNL     1     -33.616  15.544  -4.065  1.00 20.00     0.048 C 
HETATM    3  C4  UNL     1     -35.550  16.936  -5.701  1.00 20.00     0.273 C 
HETATM    4  C5  UNL     1     -33.235  16.601  -5.104  1.00 20.00     0.273 C 
HETATM    5  C6  UNL     1     -34.452  14.956  -6.188  1.00 20.00     0.288 C 
HETATM    6  C7  UNL     1     -34.840  14.902  -4.720  1.00 20.00     0.042 C 
HETATM    7  N8  UNL     1     -34.238  16.427  -6.193  1.00 20.00     0.089 N 
ENDROOT
BRANCH   6   8
HETATM    8  C1  UNL     1     -35.160  13.538  -4.210  1.00 20.00     0.242 C 
HETATM    9  O9  UNL     1     -34.818  12.507  -4.779  1.00 20.00    -0.306 OA
ENDBRANCH   6   8
TORSDOF 1
ENDMDL
MODEL 8
REMARK VINA RESULT:      -3.6      1.934      2.639
REMARK  1 active torsions:
REMARK  status: ('A' for Active; 'I' for Inactive)
REMARK    1  A    between atoms: C1_1  and  C7_7 
ROOT
HETATM    1  C2  UNL     1     -34.103  13.827  -3.453  1.00 20.00     0.048 C 
HETATM    2  C3  UNL     1     -36.217  15.145  -3.354  1.00 20.00     0.048 C 
HETATM    3  C4  UNL     1     -34.471  13.419  -4.880  1.00 20.00     0.273 C 
HETATM    4  C5  UNL     1     -36.518  14.695  -4.786  1.00 20.00     0.273 C 
HETATM    5  C6  UNL     1     -34.448  15.733  -4.796  1.00 20.00     0.288 C 
HETATM    6  C7  UNL     1     -34.691  15.237  -3.381  1.00 20.00     0.042 C 
HETATM    7  N8  UNL     1     -35.179  14.608  -5.435  1.00 20.00     0.089 N 
ENDROOT
BRANCH   6   8
HETATM    8  C1  UNL     1     -34.113  16.100  -2.311  1.00 20.00     0.242 C 
HETATM    9  O9  UNL     1     -34.611  16.220  -1.197  1.00 20.00    -0.306 OA
ENDBRANCH   6   8
TORSDOF 1
ENDMDL
MODEL 9
REMARK VINA RESULT:      -3.6      1.015      1.028
REMARK  1 active torsions:
REMARK  status: ('A' for Active; 'I' for Inactive)
REMARK    1  A    between atoms: C1_1  and  C7_7 
ROOT
HETATM    1  C2  UNL     1     -34.364  14.175  -3.444  1.00 20.00     0.048 C 
HETATM    2  C3  UNL     1     -35.316  15.069  -5.567  1.00 20.00     0.048 C 
HETATM    3  C4  UNL     1     -33.049  14.880  -3.783  1.00 20.00     0.273 C 
HETATM    4  C5  UNL     1     -33.971  15.747  -5.839  1.00 20.00     0.273 C 
HETATM    5  C6  UNL     1     -34.722  16.481  -3.776  1.00 20.00     0.288 C 
HETATM    6  C7  UNL     1     -35.387  15.141  -4.041  1.00 20.00     0.042 C 
HETATM    7  N8  UNL     1     -33.468  16.126  -4.488  1.00 20.00     0.089 N 
ENDROOT
BRANCH   6   8
HETATM    8  C1  UNL     1     -36.766  15.010  -3.488  1.00 20.00     0.242 C 
HETATM    9  O9  UNL     1     -37.546  14.125  -3.822  1.00 20.00    -0.306 OA
ENDBRANCH   6   8
TORSDOF 1
ENDMDL
