MODEL 1
REMARK VINA RESULT:      -5.1      0.000      0.000
REMARK  1 active torsions:
REMARK  status: ('A' for Active; 'I' for Inactive)
REMARK    1  A    between atoms: C4_4  and  C6_6 
ROOT
HETATM    1  C1  UNL     1     -33.865  13.512  -4.164  1.00 20.00     0.009 A 
HETATM    2  C2  UNL     1     -35.184  13.307  -4.226  1.00 20.00     0.082 A 
HETATM    3  C3  UNL     1     -33.336  14.776  -3.741  1.00 20.00     0.037 A 
HETATM    4  C4  UNL     1     -34.193  15.748  -3.409  1.00 20.00     0.079 A 
HETATM    5  C5  UNL     1     -36.127  14.384  -3.858  1.00 20.00     0.288 A 
HETATM    6  O10 UNL     1     -37.339  14.199  -3.915  1.00 20.00    -0.260 OA
HETATM    7  O11 UNL     1     -35.590  15.580  -3.458  1.00 20.00    -0.276 OA
ENDROOT
BRANCH   4   8
HETATM    8  C6  UNL     1     -33.771  17.076  -2.962  1.00 20.00     0.039 C 
HETATM    9  C7  UNL     1     -33.926  17.550  -1.714  1.00 20.00    -0.085 C 
HETATM   10  C8  UNL     1     -33.506  18.906  -1.218  1.00 20.00     0.043 C 
HETATM   11  C9  UNL     1     -34.577  16.689  -0.663  1.00 20.00     0.043 C 
ENDBRANCH   4   8
TORSDOF 1
ENDMDL
MODEL 2
REMARK VINA RESULT:      -5.0     11.479     12.315
REMARK  1 active torsions:
REMARK  status: ('A' for Active; 'I' for Inactive)
REMARK    1  A    between atoms: C4_4  and  C6_6 
ROOT
HETATM    1  C1  UNL     1     -34.118   6.252   6.490  1.00 20.00     0.009 A 
HETATM    2  C2  UNL     1     -34.657   5.036   6.365  1.00 20.00     0.082 A 
HETATM    3  C3  UNL     1     -33.690   6.988   5.336  1.00 20.00     0.037 A 
HETATM    4  C4  UNL     1     -33.844   6.432   4.130  1.00 20.00     0.079 A 
HETATM    5  C5  UNL     1     -34.825   4.425   5.030  1.00 20.00     0.288 A 
HETATM    6  O10 UNL     1     -35.320   3.308   4.912  1.00 20.00    -0.260 OA
HETATM    7  O11 UNL     1     -34.408   5.154   3.947  1.00 20.00    -0.276 OA
ENDROOT
BRANCH   4   8
HETATM    8  C6  UNL     1     -33.449   7.088   2.883  1.00 20.00     0.039 C 
HETATM    9  C7  UNL     1     -32.247   7.645   2.658  1.00 20.00    -0.085 C 
HETATM   10  C8  UNL     1     -31.803   8.326   1.393  1.00 20.00     0.043 C 
HETATM   11  C9  UNL     1     -31.196   7.619   3.738  1.00 20.00     0.043 C 
ENDBRANCH   4   8
TORSDOF 1
ENDMDL
MODEL 3
REMARK VINA RESULT:      -5.0      1.763      1.995
REMARK  1 active torsions:
REMARK  status: ('A' for Active; 'I' for Inactive)
REMARK    1  A    between atoms: C4_4  and  C6_6 
ROOT
HETATM    1  C1  UNL     1     -34.086  15.797  -5.987  1.00 20.00     0.009 A 
HETATM    2  C2  UNL     1     -34.458  14.515  -6.027  1.00 20.00     0.082 A 
HETATM    3  C3  UNL     1     -33.811  16.443  -4.737  1.00 20.00     0.037 A 
HETATM    4  C4  UNL     1     -33.934  15.734  -3.610  1.00 20.00     0.079 A 
HETATM    5  C5  UNL     1     -34.592  13.734  -4.779  1.00 20.00     0.288 A 
HETATM    6  O10 UNL     1     -34.934  12.556  -4.814  1.00 20.00    -0.260 OA
HETATM    7  O11 UNL     1     -34.322  14.380  -3.602  1.00 20.00    -0.276 OA
ENDROOT
BRANCH   4   8
HETATM    8  C6  UNL     1     -33.678  16.284  -2.279  1.00 20.00     0.039 C 
HETATM    9  C7  UNL     1     -34.584  16.937  -1.531  1.00 20.00    -0.085 C 
HETATM   10  C8  UNL     1     -34.359  17.515  -0.162  1.00 20.00     0.043 C 
HETATM   11  C9  UNL     1     -35.980  17.143  -2.060  1.00 20.00     0.043 C 
ENDBRANCH   4   8
TORSDOF 1
ENDMDL
MODEL 4
REMARK VINA RESULT:      -4.8     11.338     12.194
REMARK  1 active torsions:
REMARK  status: ('A' for Active; 'I' for Inactive)
REMARK    1  A    between atoms: C4_4  and  C6_6 
ROOT
HETATM    1  C1  UNL     1     -35.035   4.417   4.920  1.00 20.00     0.009 A 
HETATM    2  C2  UNL     1     -34.839   5.006   6.103  1.00 20.00     0.082 A 
HETATM    3  C3  UNL     1     -34.596   5.041   3.706  1.00 20.00     0.037 A 
HETATM    4  C4  UNL     1     -33.984   6.228   3.783  1.00 20.00     0.079 A 
HETATM    5  C5  UNL     1     -34.162   6.317   6.184  1.00 20.00     0.288 A 
HETATM    6  O10 UNL     1     -33.981   6.861   7.269  1.00 20.00    -0.260 OA
HETATM    7  O11 UNL     1     -33.754   6.888   5.006  1.00 20.00    -0.276 OA
ENDROOT
BRANCH   4   8
HETATM    8  C6  UNL     1     -33.491   6.958   2.615  1.00 20.00     0.039 C 
HETATM    9  C7  UNL     1     -32.300   7.577   2.544  1.00 20.00    -0.085 C 
HETATM   10  C8  UNL     1     -31.760   8.335   1.363  1.00 20.00     0.043 C 
HETATM   11  C9  UNL     1     -31.369   7.545   3.729  1.00 20.00     0.043 C 
ENDBRANCH   4   8
TORSDOF 1
ENDMDL
MODEL 5
REMARK VINA RESULT:      -4.6      1.919      2.227
REMARK  1 active torsions:
REMARK  status: ('A' for Active; 'I' for Inactive)
REMARK    1  A    between atoms: C4_4  and  C6_6 
ROOT
HETATM    1  C1  UNL     1     -34.852  13.329  -4.917  1.00 20.00     0.009 A 
HETATM    2  C2  UNL     1     -34.787  13.999  -6.071  1.00 20.00     0.082 A 
HETATM    3  C3  UNL     1     -34.468  13.950  -3.683  1.00 20.00     0.037 A 
HETATM    4  C4  UNL     1     -34.043  15.217  -3.711  1.00 20.00     0.079 A 
HETATM    5  C5  UNL     1     -34.317  15.400  -6.097  1.00 20.00     0.288 A 
HETATM    6  O10 UNL     1     -34.255  16.019  -7.155  1.00 20.00    -0.260 OA
HETATM    7  O11 UNL     1     -33.957  15.965  -4.901  1.00 20.00    -0.276 OA
ENDROOT
BRANCH   4   8
HETATM    8  C6  UNL     1     -33.627  15.954  -2.517  1.00 20.00     0.039 C 
HETATM    9  C7  UNL     1     -34.418  16.781  -1.813  1.00 20.00    -0.085 C 
HETATM   10  C8  UNL     1     -34.029  17.554  -0.583  1.00 20.00     0.043 C 
HETATM   11  C9  UNL     1     -35.846  16.998  -2.244  1.00 20.00     0.043 C 
ENDBRANCH   4   8
TORSDOF 1
ENDMDL
MODEL 6
REMARK VINA RESULT:      -4.6      1.442      1.947
REMARK  1 active torsions:
REMARK  status: ('A' for Active; 'I' for Inactive)
REMARK    1  A    between atoms: C4_4  and  C6_6 
ROOT
HETATM    1  C1  UNL     1     -36.347  15.505  -4.365  1.00 20.00     0.009 A 
HETATM    2  C2  UNL     1     -35.801  14.287  -4.412  1.00 20.00     0.082 A 
HETATM    3  C3  UNL     1     -35.669  16.590  -3.716  1.00 20.00     0.037 A 
HETATM    4  C4  UNL     1     -34.477  16.355  -3.158  1.00 20.00     0.079 A 
HETATM    5  C5  UNL     1     -34.483  14.032  -3.794  1.00 20.00     0.288 A 
HETATM    6  O10 UNL     1     -33.979  12.914  -3.835  1.00 20.00    -0.260 OA
HETATM    7  O11 UNL     1     -33.861  15.089  -3.181  1.00 20.00    -0.276 OA
ENDROOT
BRANCH   4   8
HETATM    8  C6  UNL     1     -33.692  17.382  -2.471  1.00 20.00     0.039 C 
HETATM    9  C7  UNL     1     -33.781  17.667  -1.161  1.00 20.00    -0.085 C 
HETATM   10  C8  UNL     1     -32.993  18.712  -0.421  1.00 20.00     0.043 C 
HETATM   11  C9  UNL     1     -34.746  16.900  -0.293  1.00 20.00     0.043 C 
ENDBRANCH   4   8
TORSDOF 1
ENDMDL
MODEL 7
REMARK VINA RESULT:      -4.5      3.038      3.872
REMARK  1 active torsions:
REMARK  status: ('A' for Active; 'I' for Inactive)
REMARK    1  A    between atoms: C4_4  and  C6_6 
ROOT
HETATM    1  C1  UNL     1     -32.917  15.280  -3.758  1.00 20.00     0.009 A 
HETATM    2  C2  UNL     1     -33.426  14.046  -3.799  1.00 20.00     0.082 A 
HETATM    3  C3  UNL     1     -33.248  16.245  -4.766  1.00 20.00     0.037 A 
HETATM    4  C4  UNL     1     -34.079  15.883  -5.748  1.00 20.00     0.079 A 
HETATM    5  C5  UNL     1     -34.344  13.650  -4.887  1.00 20.00     0.288 A 
HETATM    6  O10 UNL     1     -34.813  12.516  -4.927  1.00 20.00    -0.260 OA
HETATM    7  O11 UNL     1     -34.641  14.595  -5.834  1.00 20.00    -0.276 OA
ENDROOT
BRANCH   4   8
HETATM    8  C6  UNL     1     -34.490  16.781  -6.828  1.00 20.00     0.039 C 
HETATM    9  C7  UNL     1     -35.617  17.513  -6.830  1.00 20.00    -0.085 C 
HETATM   10  C8  UNL     1     -36.073  18.446  -7.918  1.00 20.00     0.043 C 
HETATM   11  C9  UNL     1     -36.560  17.437  -5.656  1.00 20.00     0.043 C 
ENDBRANCH   4   8
TORSDOF 1
ENDMDL
MODEL 8
REMARK VINA RESULT:      -4.4      1.830      4.584
REMARK  1 active torsions:
REMARK  status: ('A' for Active; 'I' for Inactive)
REMARK    1  A    between atoms: C4_4  and  C6_6 
ROOT
HETATM    1  C1  UNL     1     -33.854  18.706  -1.933  1.00 20.00     0.009 A 
HETATM    2  C2  UNL     1     -34.324  18.621  -0.686  1.00 20.00     0.082 A 
HETATM    3  C3  UNL     1     -33.753  17.540  -2.762  1.00 20.00     0.037 A 
HETATM    4  C4  UNL     1     -34.141  16.363  -2.259  1.00 20.00     0.079 A 
HETATM    5  C5  UNL     1     -34.752  17.318  -0.134  1.00 20.00     0.288 A 
HETATM    6  O10 UNL     1     -35.183  17.237   1.012  1.00 20.00    -0.260 OA
HETATM    7  O11 UNL     1     -34.643  16.223  -0.951  1.00 20.00    -0.276 OA
ENDROOT
BRANCH   4   8
HETATM    8  C6  UNL     1     -34.086  15.108  -3.009  1.00 20.00     0.039 C 
HETATM    9  C7  UNL     1     -35.141  14.523  -3.602  1.00 20.00    -0.085 C 
HETATM   10  C8  UNL     1     -35.124  13.237  -4.381  1.00 20.00     0.043 C 
HETATM   11  C9  UNL     1     -36.500  15.167  -3.515  1.00 20.00     0.043 C 
ENDBRANCH   4   8
TORSDOF 1
ENDMDL
MODEL 9
REMARK VINA RESULT:      -4.4     11.912     14.535
REMARK  1 active torsions:
REMARK  status: ('A' for Active; 'I' for Inactive)
REMARK    1  A    between atoms: C4_4  and  C6_6 
ROOT
HETATM    1  C1  UNL     1     -41.238   5.717  -1.333  1.00 20.00     0.009 A 
HETATM    2  C2  UNL     1     -41.790   6.571  -2.199  1.00 20.00     0.082 A 
HETATM    3  C3  UNL     1     -41.594   4.328  -1.342  1.00 20.00     0.037 A 
HETATM    4  C4  UNL     1     -42.491   3.904  -2.238  1.00 20.00     0.079 A 
HETATM    5  C5  UNL     1     -42.781   6.098  -3.188  1.00 20.00     0.288 A 
HETATM    6  O10 UNL     1     -43.290   6.881  -3.985  1.00 20.00    -0.260 OA
HETATM    7  O11 UNL     1     -43.100   4.766  -3.171  1.00 20.00    -0.276 OA
ENDROOT
BRANCH   4   8
HETATM    8  C6  UNL     1     -42.930   2.512  -2.343  1.00 20.00     0.039 C 
HETATM    9  C7  UNL     1     -42.371   1.591  -3.146  1.00 20.00    -0.085 C 
HETATM   10  C8  UNL     1     -42.793   0.154  -3.281  1.00 20.00     0.043 C 
HETATM   11  C9  UNL     1     -41.205   1.971  -4.022  1.00 20.00     0.043 C 
ENDBRANCH   4   8
TORSDOF 1
ENDMDL
