MODEL 1
REMARK VINA RESULT:      -4.7      0.000      0.000
REMARK  0 active torsions:
REMARK  status: ('A' for Active; 'I' for Inactive)
ROOT
HETATM    1  C1  UNL     1     -34.714  17.029  -0.102  1.00 20.00     0.017 C 
HETATM    2  C2  UNL     1     -34.793  16.652  -1.239  1.00 20.00    -0.082 C 
HETATM    3  C3  UNL     1     -34.889  16.206  -2.591  1.00 20.00     0.000 C 
HETATM    4  C4  UNL     1     -35.944  16.531  -3.367  1.00 20.00    -0.041 C 
HETATM    5  C5  UNL     1     -33.767  15.344  -3.123  1.00 20.00     0.083 C 
HETATM    6  C6  UNL     1     -36.035  16.059  -4.806  1.00 20.00     0.307 C 
HETATM    7  C7  UNL     1     -34.099  14.614  -4.440  1.00 20.00     0.223 C 
HETATM    8  C8  UNL     1     -37.126  17.353  -2.917  1.00 20.00     0.046 C 
HETATM    9  C9  UNL     1     -34.893  13.324  -4.182  1.00 20.00     0.043 C 
HETATM   10  C10 UNL     1     -33.944  16.522  -5.945  1.00 20.00     0.310 C 
HETATM   11  N11 UNL     1     -34.813  15.482  -5.393  1.00 20.00     0.092 N 
ENDROOT
TORSDOF 0
ENDMDL
MODEL 2
REMARK VINA RESULT:      -4.5      1.673      3.608
REMARK  0 active torsions:
REMARK  status: ('A' for Active; 'I' for Inactive)
ROOT
HETATM    1  C1  UNL     1     -38.709  14.654  -3.995  1.00 20.00     0.017 C 
HETATM    2  C2  UNL     1     -37.601  15.048  -3.755  1.00 20.00    -0.082 C 
HETATM    3  C3  UNL     1     -36.284  15.516  -3.470  1.00 20.00     0.000 C 
HETATM    4  C4  UNL     1     -35.197  14.753  -3.714  1.00 20.00    -0.041 C 
HETATM    5  C5  UNL     1     -36.147  16.898  -2.872  1.00 20.00     0.083 C 
HETATM    6  C6  UNL     1     -33.799  15.261  -3.415  1.00 20.00     0.307 C 
HETATM    7  C7  UNL     1     -34.759  17.192  -2.268  1.00 20.00     0.223 C 
HETATM    8  C8  UNL     1     -35.234  13.353  -4.273  1.00 20.00     0.046 C 
HETATM    9  C9  UNL     1     -34.636  16.625  -0.845  1.00 20.00     0.043 C 
HETATM   10  C10 UNL     1     -33.527  17.484  -4.347  1.00 20.00     0.310 C 
HETATM   11  N11 UNL     1     -33.664  16.698  -3.121  1.00 20.00     0.092 N 
ENDROOT
TORSDOF 0
ENDMDL
MODEL 3
REMARK VINA RESULT:      -4.5      1.974      4.068
REMARK  0 active torsions:
REMARK  status: ('A' for Active; 'I' for Inactive)
ROOT
HETATM    1  C1  UNL     1     -33.648  13.661  -3.781  1.00 20.00     0.017 C 
HETATM    2  C2  UNL     1     -33.876  14.776  -3.402  1.00 20.00    -0.082 C 
HETATM    3  C3  UNL     1     -34.148  16.103  -2.952  1.00 20.00     0.000 C 
HETATM    4  C4  UNL     1     -33.937  17.173  -3.748  1.00 20.00    -0.041 C 
HETATM    5  C5  UNL     1     -34.672  16.270  -1.544  1.00 20.00     0.083 C 
HETATM    6  C6  UNL     1     -34.236  18.581  -3.266  1.00 20.00     0.307 C 
HETATM    7  C7  UNL     1     -34.602  17.716  -1.011  1.00 20.00     0.223 C 
HETATM    8  C8  UNL     1     -33.386  17.111  -5.150  1.00 20.00     0.046 C 
HETATM    9  C9  UNL     1     -33.203  18.047  -0.470  1.00 20.00     0.043 C 
HETATM   10  C10 UNL     1     -36.455  18.648  -2.286  1.00 20.00     0.310 C 
HETATM   11  N11 UNL     1     -35.016  18.703  -2.022  1.00 20.00     0.092 N 
ENDROOT
TORSDOF 0
ENDMDL
MODEL 4
REMARK VINA RESULT:      -4.2      1.869      3.082
REMARK  0 active torsions:
REMARK  status: ('A' for Active; 'I' for Inactive)
ROOT
HETATM    1  C1  UNL     1     -38.736  14.776  -3.859  1.00 20.00     0.017 C 
HETATM    2  C2  UNL     1     -37.577  14.961  -4.111  1.00 20.00    -0.082 C 
HETATM    3  C3  UNL     1     -36.200  15.183  -4.413  1.00 20.00     0.000 C 
HETATM    4  C4  UNL     1     -35.760  15.250  -5.688  1.00 20.00    -0.041 C 
HETATM    5  C5  UNL     1     -35.244  15.329  -3.251  1.00 20.00     0.083 C 
HETATM    6  C6  UNL     1     -34.295  15.494  -6.001  1.00 20.00     0.307 C 
HETATM    7  C7  UNL     1     -33.756  15.207  -3.636  1.00 20.00     0.223 C 
HETATM    8  C8  UNL     1     -36.627  15.082  -6.910  1.00 20.00     0.046 C 
HETATM    9  C9  UNL     1     -33.322  13.736  -3.735  1.00 20.00     0.043 C 
HETATM   10  C10 UNL     1     -33.491  17.379  -4.703  1.00 20.00     0.310 C 
HETATM   11  N11 UNL     1     -33.442  15.927  -4.882  1.00 20.00     0.092 N 
ENDROOT
TORSDOF 0
ENDMDL
MODEL 5
REMARK VINA RESULT:      -4.2      1.546      2.515
REMARK  0 active torsions:
REMARK  status: ('A' for Active; 'I' for Inactive)
ROOT
HETATM    1  C1  UNL     1     -35.039  17.481   1.031  1.00 20.00     0.017 C 
HETATM    2  C2  UNL     1     -34.835  17.276  -0.134  1.00 20.00    -0.082 C 
HETATM    3  C3  UNL     1     -34.590  17.034  -1.519  1.00 20.00     0.000 C 
HETATM    4  C4  UNL     1     -33.866  17.893  -2.267  1.00 20.00    -0.041 C 
HETATM    5  C5  UNL     1     -35.180  15.781  -2.124  1.00 20.00     0.083 C 
HETATM    6  C6  UNL     1     -33.603  17.624  -3.737  1.00 20.00     0.307 C 
HETATM    7  C7  UNL     1     -35.184  15.764  -3.666  1.00 20.00     0.223 C 
HETATM    8  C8  UNL     1     -33.268  19.183  -1.764  1.00 20.00     0.046 C 
HETATM    9  C9  UNL     1     -36.385  16.537  -4.232  1.00 20.00     0.043 C 
HETATM   10  C10 UNL     1     -32.811  15.349  -4.017  1.00 20.00     0.310 C 
HETATM   11  N11 UNL     1     -33.924  16.275  -4.232  1.00 20.00     0.092 N 
ENDROOT
TORSDOF 0
ENDMDL
MODEL 6
REMARK VINA RESULT:      -4.2      1.259      2.948
REMARK  0 active torsions:
REMARK  status: ('A' for Active; 'I' for Inactive)
ROOT
HETATM    1  C1  UNL     1     -34.589  16.421  -1.103  1.00 20.00     0.017 C 
HETATM    2  C2  UNL     1     -34.713  16.274  -2.288  1.00 20.00    -0.082 C 
HETATM    3  C3  UNL     1     -34.859  16.097  -3.696  1.00 20.00     0.000 C 
HETATM    4  C4  UNL     1     -34.365  15.010  -4.325  1.00 20.00    -0.041 C 
HETATM    5  C5  UNL     1     -35.582  17.180  -4.465  1.00 20.00     0.083 C 
HETATM    6  C6  UNL     1     -34.532  14.825  -5.822  1.00 20.00     0.307 C 
HETATM    7  C7  UNL     1     -35.393  17.105  -5.993  1.00 20.00     0.223 C 
HETATM    8  C8  UNL     1     -33.601  13.897  -3.653  1.00 20.00     0.046 C 
HETATM    9  C9  UNL     1     -34.070  17.756  -6.428  1.00 20.00     0.043 C 
HETATM   10  C10 UNL     1     -36.849  15.203  -6.432  1.00 20.00     0.310 C 
HETATM   11  N11 UNL     1     -35.482  15.724  -6.499  1.00 20.00     0.092 N 
ENDROOT
TORSDOF 0
ENDMDL
MODEL 7
REMARK VINA RESULT:      -4.2      1.827      3.773
REMARK  0 active torsions:
REMARK  status: ('A' for Active; 'I' for Inactive)
ROOT
HETATM    1  C1  UNL     1     -34.653  13.036  -4.769  1.00 20.00     0.017 C 
HETATM    2  C2  UNL     1     -34.749  14.062  -4.153  1.00 20.00    -0.082 C 
HETATM    3  C3  UNL     1     -34.865  15.281  -3.421  1.00 20.00     0.000 C 
HETATM    4  C4  UNL     1     -36.070  15.818  -3.133  1.00 20.00    -0.041 C 
HETATM    5  C5  UNL     1     -33.586  15.959  -2.985  1.00 20.00     0.083 C 
HETATM    6  C6  UNL     1     -36.185  17.111  -2.347  1.00 20.00     0.307 C 
HETATM    7  C7  UNL     1     -33.768  17.419  -2.525  1.00 20.00     0.223 C 
HETATM    8  C8  UNL     1     -37.396  15.238  -3.554  1.00 20.00     0.046 C 
HETATM    9  C9  UNL     1     -33.805  18.383  -3.721  1.00 20.00     0.043 C 
HETATM   10  C10 UNL     1     -34.796  16.979  -0.362  1.00 20.00     0.310 C 
HETATM   11  N11 UNL     1     -34.963  17.593  -1.681  1.00 20.00     0.092 N 
ENDROOT
TORSDOF 0
ENDMDL
MODEL 8
REMARK VINA RESULT:      -4.1      1.647      3.685
REMARK  0 active torsions:
REMARK  status: ('A' for Active; 'I' for Inactive)
ROOT
HETATM    1  C1  UNL     1     -34.409  18.143  -7.469  1.00 20.00     0.017 C 
HETATM    2  C2  UNL     1     -34.451  17.389  -6.535  1.00 20.00    -0.082 C 
HETATM    3  C3  UNL     1     -34.503  16.493  -5.426  1.00 20.00     0.000 C 
HETATM    4  C4  UNL     1     -35.647  15.864  -5.082  1.00 20.00    -0.041 C 
HETATM    5  C5  UNL     1     -33.229  16.278  -4.641  1.00 20.00     0.083 C 
HETATM    6  C6  UNL     1     -35.692  14.906  -3.906  1.00 20.00     0.307 C 
HETATM    7  C7  UNL     1     -33.436  15.597  -3.273  1.00 20.00     0.223 C 
HETATM    8  C8  UNL     1     -36.972  16.040  -5.779  1.00 20.00     0.046 C 
HETATM    9  C9  UNL     1     -33.861  16.611  -2.200  1.00 20.00     0.043 C 
HETATM   10  C10 UNL     1     -33.852  13.334  -4.069  1.00 20.00     0.310 C 
HETATM   11  N11 UNL     1     -34.397  14.483  -3.345  1.00 20.00     0.092 N 
ENDROOT
TORSDOF 0
ENDMDL
MODEL 9
REMARK VINA RESULT:      -4.1      0.729      2.794
REMARK  0 active torsions:
REMARK  status: ('A' for Active; 'I' for Inactive)
ROOT
HETATM    1  C1  UNL     1     -37.726  18.168  -2.238  1.00 20.00     0.017 C 
HETATM    2  C2  UNL     1     -36.908  17.431  -2.717  1.00 20.00    -0.082 C 
HETATM    3  C3  UNL     1     -35.936  16.555  -3.286  1.00 20.00     0.000 C 
HETATM    4  C4  UNL     1     -34.890  16.100  -2.563  1.00 20.00    -0.041 C 
HETATM    5  C5  UNL     1     -36.112  16.162  -4.735  1.00 20.00     0.083 C 
HETATM    6  C6  UNL     1     -33.864  15.162  -3.173  1.00 20.00     0.307 C 
HETATM    7  C7  UNL     1     -34.863  15.522  -5.373  1.00 20.00     0.223 C 
HETATM    8  C8  UNL     1     -34.610  16.463  -1.127  1.00 20.00     0.046 C 
HETATM    9  C9  UNL     1     -33.863  16.590  -5.843  1.00 20.00     0.043 C 
HETATM   10  C10 UNL     1     -35.001  13.340  -4.301  1.00 20.00     0.310 C 
HETATM   11  N11 UNL     1     -34.207  14.558  -4.471  1.00 20.00     0.092 N 
ENDROOT
TORSDOF 0
ENDMDL
