MODEL 1
REMARK VINA RESULT:      -4.8      0.000      0.000
REMARK  1 active torsions:
REMARK  status: ('A' for Active; 'I' for Inactive)
REMARK    1  A    between atoms: C3_3  and  C7_7 
ROOT
HETATM    1  C1  UNL     1     -34.307   5.931   5.828  1.00 20.00     0.218 C 
HETATM    2  C4  UNL     1     -35.120   4.839   5.159  1.00 20.00     0.103 C 
HETATM    3  C5  UNL     1     -35.412   5.081   3.688  1.00 20.00     0.012 C 
HETATM    4  C6  UNL     1     -34.132   5.461   2.959  1.00 20.00     0.029 C 
HETATM    5  C7  UNL     1     -33.585   6.743   3.563  1.00 20.00     0.106 C 
HETATM    6  N8  UNL     1     -33.498   6.689   5.011  1.00 20.00    -0.353 N 
HETATM    7  O9  UNL     1     -34.318   6.061   7.053  1.00 20.00    -0.274 OA
HETATM    8  H20 UNL     1     -32.786   7.252   5.456  1.00 20.00     0.163 HD
ENDROOT
BRANCH   5   9
HETATM    9  C3  UNL     1     -32.228   6.977   2.932  1.00 20.00    -0.012 C 
HETATM   10  C2  UNL     1     -31.947   8.006   2.125  1.00 20.00     0.009 C 
ENDBRANCH   5   9
TORSDOF 1
ENDMDL
MODEL 2
REMARK VINA RESULT:      -4.5     11.642     12.024
REMARK  1 active torsions:
REMARK  status: ('A' for Active; 'I' for Inactive)
REMARK    1  A    between atoms: C3_3  and  C7_7 
ROOT
HETATM    1  C1  UNL     1     -36.394  14.440  -3.751  1.00 20.00     0.218 C 
HETATM    2  C4  UNL     1     -35.421  13.460  -4.377  1.00 20.00     0.103 C 
HETATM    3  C5  UNL     1     -34.063  14.050  -4.720  1.00 20.00     0.012 C 
HETATM    4  C6  UNL     1     -33.515  14.819  -3.528  1.00 20.00     0.029 C 
HETATM    5  C7  UNL     1     -34.468  15.955  -3.195  1.00 20.00     0.106 C 
HETATM    6  N8  UNL     1     -35.847  15.516  -3.086  1.00 20.00    -0.353 N 
HETATM    7  O9  UNL     1     -37.606  14.222  -3.770  1.00 20.00    -0.274 OA
HETATM    8  H20 UNL     1     -36.456  16.041  -2.474  1.00 20.00     0.163 HD
ENDROOT
BRANCH   5   9
HETATM    9  C3  UNL     1     -33.976  16.572  -1.903  1.00 20.00    -0.012 C 
HETATM   10  C2  UNL     1     -34.707  16.652  -0.786  1.00 20.00     0.009 C 
ENDBRANCH   5   9
TORSDOF 1
ENDMDL
MODEL 3
REMARK VINA RESULT:      -4.3     11.721     12.609
REMARK  1 active torsions:
REMARK  status: ('A' for Active; 'I' for Inactive)
REMARK    1  A    between atoms: C3_3  and  C7_7 
ROOT
HETATM    1  C1  UNL     1     -34.704  13.716  -4.690  1.00 20.00     0.218 C 
HETATM    2  C4  UNL     1     -34.540  14.562  -5.938  1.00 20.00     0.103 C 
HETATM    3  C5  UNL     1     -34.970  16.012  -5.779  1.00 20.00     0.012 C 
HETATM    4  C6  UNL     1     -34.350  16.603  -4.522  1.00 20.00     0.029 C 
HETATM    5  C7  UNL     1     -34.839  15.817  -3.317  1.00 20.00     0.106 C 
HETATM    6  N8  UNL     1     -34.688  14.382  -3.484  1.00 20.00    -0.353 N 
HETATM    7  O9  UNL     1     -34.760  12.488  -4.766  1.00 20.00    -0.274 OA
HETATM    8  H20 UNL     1     -34.561  13.828  -2.649  1.00 20.00     0.163 HD
ENDROOT
BRANCH   5   9
HETATM    9  C3  UNL     1     -34.060  16.323  -2.121  1.00 20.00    -0.012 C 
HETATM   10  C2  UNL     1     -34.611  16.614  -0.939  1.00 20.00     0.009 C 
ENDBRANCH   5   9
TORSDOF 1
ENDMDL
MODEL 4
REMARK VINA RESULT:      -4.3      1.634      2.171
REMARK  1 active torsions:
REMARK  status: ('A' for Active; 'I' for Inactive)
REMARK    1  A    between atoms: C3_3  and  C7_7 
ROOT
HETATM    1  C1  UNL     1     -34.750   4.566   5.088  1.00 20.00     0.218 C 
HETATM    2  C4  UNL     1     -34.885   5.488   6.285  1.00 20.00     0.103 C 
HETATM    3  C5  UNL     1     -33.729   6.459   6.467  1.00 20.00     0.012 C 
HETATM    4  C6  UNL     1     -33.427   7.160   5.151  1.00 20.00     0.029 C 
HETATM    5  C7  UNL     1     -33.029   6.119   4.118  1.00 20.00     0.106 C 
HETATM    6  N8  UNL     1     -33.967   5.013   4.047  1.00 20.00    -0.353 N 
HETATM    7  O9  UNL     1     -35.387   3.513   5.032  1.00 20.00    -0.274 OA
HETATM    8  H20 UNL     1     -34.052   4.532   3.163  1.00 20.00     0.163 HD
ENDROOT
BRANCH   5   9
HETATM    9  C3  UNL     1     -32.918   6.841   2.792  1.00 20.00    -0.012 C 
HETATM   10  C2  UNL     1     -32.079   7.857   2.562  1.00 20.00     0.009 C 
ENDBRANCH   5   9
TORSDOF 1
ENDMDL
MODEL 5
REMARK VINA RESULT:      -4.2     12.201     13.009
REMARK  1 active torsions:
REMARK  status: ('A' for Active; 'I' for Inactive)
REMARK    1  A    between atoms: C3_3  and  C7_7 
ROOT
HETATM    1  C1  UNL     1     -34.261  15.446  -6.115  1.00 20.00     0.218 C 
HETATM    2  C4  UNL     1     -34.952  14.106  -5.948  1.00 20.00     0.103 C 
HETATM    3  C5  UNL     1     -34.478  13.296  -4.752  1.00 20.00     0.012 C 
HETATM    4  C6  UNL     1     -34.467  14.168  -3.506  1.00 20.00     0.029 C 
HETATM    5  C7  UNL     1     -33.504  15.323  -3.722  1.00 20.00     0.106 C 
HETATM    6  N8  UNL     1     -33.731  16.015  -4.978  1.00 20.00    -0.353 N 
HETATM    7  O9  UNL     1     -34.261  16.021  -7.204  1.00 20.00    -0.274 OA
HETATM    8  H20 UNL     1     -33.481  16.993  -5.022  1.00 20.00     0.163 HD
ENDROOT
BRANCH   5   9
HETATM    9  C3  UNL     1     -33.664  16.252  -2.537  1.00 20.00    -0.012 C 
HETATM   10  C2  UNL     1     -34.695  16.207  -1.687  1.00 20.00     0.009 C 
ENDBRANCH   5   9
TORSDOF 1
ENDMDL
MODEL 6
REMARK VINA RESULT:      -4.1     11.646     13.303
REMARK  1 active torsions:
REMARK  status: ('A' for Active; 'I' for Inactive)
REMARK    1  A    between atoms: C3_3  and  C7_7 
ROOT
HETATM    1  C1  UNL     1     -34.395  13.752  -4.747  1.00 20.00     0.218 C 
HETATM    2  C4  UNL     1     -34.232  14.350  -3.362  1.00 20.00     0.103 C 
HETATM    3  C5  UNL     1     -33.393  15.617  -3.316  1.00 20.00     0.012 C 
HETATM    4  C6  UNL     1     -33.868  16.593  -4.382  1.00 20.00     0.029 C 
HETATM    5  C7  UNL     1     -33.702  15.950  -5.748  1.00 20.00     0.106 C 
HETATM    6  N8  UNL     1     -34.270  14.616  -5.813  1.00 20.00    -0.353 N 
HETATM    7  O9  UNL     1     -34.709  12.569  -4.887  1.00 20.00    -0.274 OA
HETATM    8  H20 UNL     1     -34.601  14.294  -6.712  1.00 20.00     0.163 HD
ENDROOT
BRANCH   5   9
HETATM    9  C3  UNL     1     -34.351  16.881  -6.750  1.00 20.00    -0.012 C 
HETATM   10  C2  UNL     1     -34.981  16.469  -7.855  1.00 20.00     0.009 C 
ENDBRANCH   5   9
TORSDOF 1
ENDMDL
MODEL 7
REMARK VINA RESULT:      -4.1     11.271     12.072
REMARK  1 active torsions:
REMARK  status: ('A' for Active; 'I' for Inactive)
REMARK    1  A    between atoms: C3_3  and  C7_7 
ROOT
HETATM    1  C1  UNL     1     -34.775  13.695  -3.880  1.00 20.00     0.218 C 
HETATM    2  C4  UNL     1     -33.266  13.826  -3.821  1.00 20.00     0.103 C 
HETATM    3  C5  UNL     1     -32.757  15.258  -3.794  1.00 20.00     0.012 C 
HETATM    4  C6  UNL     1     -33.508  16.057  -2.740  1.00 20.00     0.029 C 
HETATM    5  C7  UNL     1     -34.986  16.073  -3.096  1.00 20.00     0.106 C 
HETATM    6  N8  UNL     1     -35.509  14.749  -3.380  1.00 20.00    -0.353 N 
HETATM    7  O9  UNL     1     -35.301  12.654  -4.277  1.00 20.00    -0.274 OA
HETATM    8  H20 UNL     1     -36.489  14.587  -3.196  1.00 20.00     0.163 HD
ENDROOT
BRANCH   5   9
HETATM    9  C3  UNL     1     -35.707  16.719  -1.932  1.00 20.00    -0.012 C 
HETATM   10  C2  UNL     1     -35.090  17.237  -0.865  1.00 20.00     0.009 C 
ENDBRANCH   5   9
TORSDOF 1
ENDMDL
MODEL 8
REMARK VINA RESULT:      -4.1      9.454     10.680
REMARK  1 active torsions:
REMARK  status: ('A' for Active; 'I' for Inactive)
REMARK    1  A    between atoms: C3_3  and  C7_7 
ROOT
HETATM    1  C1  UNL     1     -42.059   6.824  -2.323  1.00 20.00     0.218 C 
HETATM    2  C4  UNL     1     -41.106   7.096  -1.175  1.00 20.00     0.103 C 
HETATM    3  C5  UNL     1     -40.956   5.944  -0.193  1.00 20.00     0.012 C 
HETATM    4  C6  UNL     1     -40.694   4.650  -0.948  1.00 20.00     0.029 C 
HETATM    5  C7  UNL     1     -41.877   4.362  -1.857  1.00 20.00     0.106 C 
HETATM    6  N8  UNL     1     -42.250   5.505  -2.670  1.00 20.00    -0.353 N 
HETATM    7  O9  UNL     1     -42.558   7.754  -2.958  1.00 20.00    -0.274 OA
HETATM    8  H20 UNL     1     -42.685   5.318  -3.563  1.00 20.00     0.163 HD
ENDROOT
BRANCH   5   9
HETATM    9  C3  UNL     1     -41.490   3.173  -2.711  1.00 20.00    -0.012 C 
HETATM   10  C2  UNL     1     -42.344   2.217  -3.092  1.00 20.00     0.009 C 
ENDBRANCH   5   9
TORSDOF 1
ENDMDL
MODEL 9
REMARK VINA RESULT:      -4.0     11.304     12.710
REMARK  1 active torsions:
REMARK  status: ('A' for Active; 'I' for Inactive)
REMARK    1  A    between atoms: C3_3  and  C7_7 
ROOT
HETATM    1  C1  UNL     1     -33.533  13.769  -3.908  1.00 20.00     0.218 C 
HETATM    2  C4  UNL     1     -35.003  13.450  -4.100  1.00 20.00     0.103 C 
HETATM    3  C5  UNL     1     -35.927  14.653  -4.008  1.00 20.00     0.012 C 
HETATM    4  C6  UNL     1     -35.400  15.782  -4.881  1.00 20.00     0.029 C 
HETATM    5  C7  UNL     1     -34.023  16.188  -4.382  1.00 20.00     0.106 C 
HETATM    6  N8  UNL     1     -33.134  15.054  -4.206  1.00 20.00    -0.353 N 
HETATM    7  O9  UNL     1     -32.735  12.887  -3.586  1.00 20.00    -0.274 OA
HETATM    8  H20 UNL     1     -32.143  15.220  -4.310  1.00 20.00     0.163 HD
ENDROOT
BRANCH   5   9
HETATM    9  C3  UNL     1     -33.471  17.178  -5.386  1.00 20.00    -0.012 C 
HETATM   10  C2  UNL     1     -34.198  17.748  -6.352  1.00 20.00     0.009 C 
ENDBRANCH   5   9
TORSDOF 1
ENDMDL
