MODEL 1
REMARK VINA RESULT:      -4.7      0.000      0.000
REMARK  1 active torsions:
REMARK  status: ('A' for Active; 'I' for Inactive)
REMARK    1  A    between atoms: C10_10  and  O13_13 
ROOT
HETATM    1  C1  UNL     1     -34.997  13.639  -4.171  1.00 20.00     0.099 C 
HETATM    2  C2  UNL     1     -36.479  15.527  -3.683  1.00 20.00     0.023 A 
HETATM    3  C3  UNL     1     -36.746  16.738  -3.040  1.00 20.00     0.012 A 
HETATM    4  C4  UNL     1     -34.269  15.424  -2.668  1.00 20.00     0.030 A 
HETATM    5  C5  UNL     1     -35.249  14.875  -3.498  1.00 20.00     0.045 A 
HETATM    6  C6  UNL     1     -35.765  17.280  -2.226  1.00 20.00    -0.023 A 
HETATM    7  C7  UNL     1     -34.538  16.630  -2.045  1.00 20.00    -0.048 A 
HETATM    8  C8  UNL     1     -33.669  17.388  -1.092  1.00 20.00     0.042 C 
HETATM    9  C9  UNL     1     -34.338  18.776  -1.114  1.00 20.00     0.041 C 
HETATM   10  C10 UNL     1     -35.826  18.539  -1.418  1.00 20.00     0.154 C 
HETATM   11  N12 UNL     1     -34.791  12.636  -4.718  1.00 20.00    -0.191 NA
ENDROOT
BRANCH  10  12
HETATM   12  O13 UNL     1     -36.536  18.324  -0.209  1.00 20.00    -0.386 OA
HETATM   13  C11 UNL     1     -36.151  19.250   0.802  1.00 20.00     0.202 C 
ENDBRANCH  10  12
TORSDOF 1
ENDMDL
MODEL 2
REMARK VINA RESULT:      -4.7      3.077      5.069
REMARK  1 active torsions:
REMARK  status: ('A' for Active; 'I' for Inactive)
REMARK    1  A    between atoms: C10_10  and  O13_13 
ROOT
HETATM    1  C1  UNL     1     -34.382  17.696  -0.324  1.00 20.00     0.099 C 
HETATM    2  C2  UNL     1     -35.988  17.336  -2.138  1.00 20.00     0.023 A 
HETATM    3  C3  UNL     1     -36.424  16.634  -3.264  1.00 20.00     0.012 A 
HETATM    4  C4  UNL     1     -34.042  15.888  -1.934  1.00 20.00     0.030 A 
HETATM    5  C5  UNL     1     -34.805  16.966  -1.478  1.00 20.00     0.045 A 
HETATM    6  C6  UNL     1     -35.666  15.561  -3.704  1.00 20.00    -0.023 A 
HETATM    7  C7  UNL     1     -34.488  15.191  -3.043  1.00 20.00    -0.048 A 
HETATM    8  C8  UNL     1     -33.831  14.037  -3.732  1.00 20.00     0.042 C 
HETATM    9  C9  UNL     1     -34.996  13.486  -4.575  1.00 20.00     0.041 C 
HETATM   10  C10 UNL     1     -35.910  14.682  -4.891  1.00 20.00     0.154 C 
HETATM   11  N12 UNL     1     -34.038  18.288   0.613  1.00 20.00    -0.191 NA
ENDROOT
BRANCH  10  12
HETATM   12  O13 UNL     1     -35.476  15.317  -6.082  1.00 20.00    -0.386 OA
HETATM   13  C11 UNL     1     -35.321  14.388  -7.151  1.00 20.00     0.202 C 
ENDBRANCH  10  12
TORSDOF 1
ENDMDL
MODEL 3
REMARK VINA RESULT:      -4.7      3.374      5.376
REMARK  1 active torsions:
REMARK  status: ('A' for Active; 'I' for Inactive)
REMARK    1  A    between atoms: C10_10  and  O13_13 
ROOT
HETATM    1  C1  UNL     1     -33.728  18.053  -1.362  1.00 20.00     0.099 C 
HETATM    2  C2  UNL     1     -34.995  17.694  -3.427  1.00 20.00     0.023 A 
HETATM    3  C3  UNL     1     -35.399  16.880  -4.488  1.00 20.00     0.012 A 
HETATM    4  C4  UNL     1     -33.643  15.893  -2.502  1.00 20.00     0.030 A 
HETATM    5  C5  UNL     1     -34.123  17.203  -2.441  1.00 20.00     0.045 A 
HETATM    6  C6  UNL     1     -34.925  15.580  -4.536  1.00 20.00    -0.023 A 
HETATM    7  C7  UNL     1     -34.059  15.091  -3.551  1.00 20.00    -0.048 A 
HETATM    8  C8  UNL     1     -33.656  13.681  -3.847  1.00 20.00     0.042 C 
HETATM    9  C9  UNL     1     -34.751  13.259  -4.844  1.00 20.00     0.041 C 
HETATM   10  C10 UNL     1     -35.191  14.537  -5.577  1.00 20.00     0.154 C 
HETATM   11  N12 UNL     1     -33.408  18.743  -0.485  1.00 20.00    -0.191 NA
ENDROOT
BRANCH  10  12
HETATM   12  O13 UNL     1     -34.371  14.746  -6.715  1.00 20.00    -0.386 OA
HETATM   13  C11 UNL     1     -35.134  14.777  -7.918  1.00 20.00     0.202 C 
ENDBRANCH  10  12
TORSDOF 1
ENDMDL
MODEL 4
REMARK VINA RESULT:      -4.6      3.399      5.040
REMARK  1 active torsions:
REMARK  status: ('A' for Active; 'I' for Inactive)
REMARK    1  A    between atoms: C10_10  and  O13_13 
ROOT
HETATM    1  C1  UNL     1     -33.775  18.641   0.332  1.00 20.00     0.099 C 
HETATM    2  C2  UNL     1     -34.567  16.629  -0.818  1.00 20.00     0.023 A 
HETATM    3  C3  UNL     1     -34.777  15.889  -1.985  1.00 20.00     0.012 A 
HETATM    4  C4  UNL     1     -33.606  18.462  -2.100  1.00 20.00     0.030 A 
HETATM    5  C5  UNL     1     -33.985  17.906  -0.876  1.00 20.00     0.045 A 
HETATM    6  C6  UNL     1     -34.390  16.445  -3.193  1.00 20.00    -0.023 A 
HETATM    7  C7  UNL     1     -33.807  17.717  -3.248  1.00 20.00    -0.048 A 
HETATM    8  C8  UNL     1     -33.519  18.110  -4.663  1.00 20.00     0.042 C 
HETATM    9  C9  UNL     1     -33.562  16.742  -5.370  1.00 20.00     0.041 C 
HETATM   10  C10 UNL     1     -34.536  15.865  -4.566  1.00 20.00     0.154 C 
HETATM   11  N12 UNL     1     -33.603  19.238   1.313  1.00 20.00    -0.191 NA
ENDROOT
BRANCH  10  12
HETATM   12  O13 UNL     1     -35.857  16.046  -5.048  1.00 20.00    -0.386 OA
HETATM   13  C11 UNL     1     -36.117  15.240  -6.193  1.00 20.00     0.202 C 
ENDBRANCH  10  12
TORSDOF 1
ENDMDL
MODEL 5
REMARK VINA RESULT:      -4.6      3.480      5.311
REMARK  1 active torsions:
REMARK  status: ('A' for Active; 'I' for Inactive)
REMARK    1  A    between atoms: C10_10  and  O13_13 
ROOT
HETATM    1  C1  UNL     1     -33.673  17.496  -1.326  1.00 20.00     0.099 C 
HETATM    2  C2  UNL     1     -34.800  15.553  -2.303  1.00 20.00     0.023 A 
HETATM    3  C3  UNL     1     -35.207  14.802  -3.408  1.00 20.00     0.012 A 
HETATM    4  C4  UNL     1     -33.763  17.210  -3.752  1.00 20.00     0.030 A 
HETATM    5  C5  UNL     1     -34.083  16.748  -2.473  1.00 20.00     0.045 A 
HETATM    6  C6  UNL     1     -34.878  15.264  -4.672  1.00 20.00    -0.023 A 
HETATM    7  C7  UNL     1     -34.160  16.454  -4.841  1.00 20.00    -0.048 A 
HETATM    8  C8  UNL     1     -33.968  16.759  -6.293  1.00 20.00     0.042 C 
HETATM    9  C9  UNL     1     -34.237  15.382  -6.928  1.00 20.00     0.041 C 
HETATM   10  C10 UNL     1     -35.223  14.657  -5.997  1.00 20.00     0.154 C 
HETATM   11  N12 UNL     1     -33.339  18.102  -0.395  1.00 20.00    -0.191 NA
ENDROOT
BRANCH  10  12
HETATM   12  O13 UNL     1     -36.555  14.977  -6.362  1.00 20.00    -0.386 OA
HETATM   13  C11 UNL     1     -36.746  14.917  -7.773  1.00 20.00     0.202 C 
ENDBRANCH  10  12
TORSDOF 1
ENDMDL
MODEL 6
REMARK VINA RESULT:      -4.4      2.204      3.167
REMARK  1 active torsions:
REMARK  status: ('A' for Active; 'I' for Inactive)
REMARK    1  A    between atoms: C10_10  and  O13_13 
ROOT
HETATM    1  C1  UNL     1     -39.110  14.543  -4.415  1.00 20.00     0.099 C 
HETATM    2  C2  UNL     1     -37.916  16.443  -3.435  1.00 20.00     0.023 A 
HETATM    3  C3  UNL     1     -36.744  17.041  -2.964  1.00 20.00     0.012 A 
HETATM    4  C4  UNL     1     -36.711  14.397  -3.968  1.00 20.00     0.030 A 
HETATM    5  C5  UNL     1     -37.899  15.131  -3.933  1.00 20.00     0.045 A 
HETATM    6  C6  UNL     1     -35.569  16.309  -3.010  1.00 20.00    -0.023 A 
HETATM    7  C7  UNL     1     -35.553  15.001  -3.510  1.00 20.00    -0.048 A 
HETATM    8  C8  UNL     1     -34.182  14.411  -3.414  1.00 20.00     0.042 C 
HETATM    9  C9  UNL     1     -33.321  15.676  -3.247  1.00 20.00     0.041 C 
HETATM   10  C10 UNL     1     -34.207  16.718  -2.543  1.00 20.00     0.154 C 
HETATM   11  N12 UNL     1     -40.092  14.065  -4.807  1.00 20.00    -0.191 NA
ENDROOT
BRANCH  10  12
HETATM   12  O13 UNL     1     -34.096  16.573  -1.137  1.00 20.00    -0.386 OA
HETATM   13  C11 UNL     1     -33.822  17.817  -0.498  1.00 20.00     0.202 C 
ENDBRANCH  10  12
TORSDOF 1
ENDMDL
MODEL 7
REMARK VINA RESULT:      -4.4      3.397      4.750
REMARK  1 active torsions:
REMARK  status: ('A' for Active; 'I' for Inactive)
REMARK    1  A    between atoms: C10_10  and  O13_13 
ROOT
HETATM    1  C1  UNL     1     -35.289  17.750   0.801  1.00 20.00     0.099 C 
HETATM    2  C2  UNL     1     -35.614  18.543  -1.494  1.00 20.00     0.023 A 
HETATM    3  C3  UNL     1     -35.449  18.397  -2.873  1.00 20.00     0.012 A 
HETATM    4  C4  UNL     1     -34.420  16.462  -1.085  1.00 20.00     0.030 A 
HETATM    5  C5  UNL     1     -35.103  17.582  -0.606  1.00 20.00     0.045 A 
HETATM    6  C6  UNL     1     -34.778  17.279  -3.339  1.00 20.00    -0.023 A 
HETATM    7  C7  UNL     1     -34.271  16.320  -2.453  1.00 20.00    -0.048 A 
HETATM    8  C8  UNL     1     -33.554  15.236  -3.195  1.00 20.00     0.042 C 
HETATM    9  C9  UNL     1     -34.109  15.427  -4.618  1.00 20.00     0.041 C 
HETATM   10  C10 UNL     1     -34.455  16.919  -4.756  1.00 20.00     0.154 C 
HETATM   11  N12 UNL     1     -35.441  17.886   1.944  1.00 20.00    -0.191 NA
ENDROOT
BRANCH  10  12
HETATM   12  O13 UNL     1     -33.318  17.637  -5.208  1.00 20.00    -0.386 OA
HETATM   13  C11 UNL     1     -33.676  18.682  -6.107  1.00 20.00     0.202 C 
ENDBRANCH  10  12
TORSDOF 1
ENDMDL
MODEL 8
REMARK VINA RESULT:      -4.4      2.490      3.644
REMARK  1 active torsions:
REMARK  status: ('A' for Active; 'I' for Inactive)
REMARK    1  A    between atoms: C10_10  and  O13_13 
ROOT
HETATM    1  C1  UNL     1     -37.672  15.046  -7.091  1.00 20.00     0.099 C 
HETATM    2  C2  UNL     1     -36.745  16.627  -5.467  1.00 20.00     0.023 A 
HETATM    3  C3  UNL     1     -35.819  16.961  -4.476  1.00 20.00     0.012 A 
HETATM    4  C4  UNL     1     -35.763  14.412  -5.702  1.00 20.00     0.030 A 
HETATM    5  C5  UNL     1     -36.717  15.362  -6.075  1.00 20.00     0.045 A 
HETATM    6  C6  UNL     1     -34.871  16.017  -4.118  1.00 20.00    -0.023 A 
HETATM    7  C7  UNL     1     -34.842  14.757  -4.728  1.00 20.00    -0.048 A 
HETATM    8  C8  UNL     1     -33.760  13.906  -4.142  1.00 20.00     0.042 C 
HETATM    9  C9  UNL     1     -32.873  14.969  -3.468  1.00 20.00     0.041 C 
HETATM   10  C10 UNL     1     -33.804  16.128  -3.074  1.00 20.00     0.154 C 
HETATM   11  N12 UNL     1     -38.446  14.789  -7.917  1.00 20.00    -0.191 NA
ENDROOT
BRANCH  10  12
HETATM   12  O13 UNL     1     -34.341  15.898  -1.782  1.00 20.00    -0.386 OA
HETATM   13  C11 UNL     1     -34.236  17.051  -0.953  1.00 20.00     0.202 C 
ENDBRANCH  10  12
TORSDOF 1
ENDMDL
MODEL 9
REMARK VINA RESULT:      -4.2     11.975     13.600
REMARK  1 active torsions:
REMARK  status: ('A' for Active; 'I' for Inactive)
REMARK    1  A    between atoms: C10_10  and  O13_13 
ROOT
HETATM    1  C1  UNL     1     -42.391   1.565  -3.064  1.00 20.00     0.099 C 
HETATM    2  C2  UNL     1     -43.361   3.779  -3.460  1.00 20.00     0.023 A 
HETATM    3  C3  UNL     1     -43.417   5.153  -3.210  1.00 20.00     0.012 A 
HETATM    4  C4  UNL     1     -41.549   3.516  -1.856  1.00 20.00     0.030 A 
HETATM    5  C5  UNL     1     -42.433   2.967  -2.787  1.00 20.00     0.045 A 
HETATM    6  C6  UNL     1     -42.531   5.690  -2.291  1.00 20.00    -0.023 A 
HETATM    7  C7  UNL     1     -41.604   4.879  -1.624  1.00 20.00    -0.048 A 
HETATM    8  C8  UNL     1     -40.794   5.682  -0.656  1.00 20.00     0.042 C 
HETATM    9  C9  UNL     1     -41.028   7.111  -1.180  1.00 20.00     0.041 C 
HETATM   10  C10 UNL     1     -42.418   7.112  -1.838  1.00 20.00     0.154 C 
HETATM   11  N12 UNL     1     -42.356   0.427  -3.290  1.00 20.00    -0.191 NA
ENDROOT
BRANCH  10  12
HETATM   12  O13 UNL     1     -43.410   7.410  -0.869  1.00 20.00    -0.386 OA
HETATM   13  C11 UNL     1     -43.320   8.757  -0.417  1.00 20.00     0.202 C 
ENDBRANCH  10  12
TORSDOF 1
ENDMDL
