MODEL 1
REMARK VINA RESULT:      -4.6      0.000      0.000
REMARK  0 active torsions:
REMARK  status: ('A' for Active; 'I' for Inactive)
ROOT
HETATM    1  C1  UNL     1     -32.954   6.415   2.515  1.00 20.00     0.003 A 
HETATM    2  C2  UNL     1     -33.782   5.359   2.552  1.00 20.00     0.013 A 
HETATM    3  C3  UNL     1     -32.805   6.971   3.852  1.00 20.00     0.030 A 
HETATM    4  C4  UNL     1     -34.947   4.273   4.491  1.00 20.00    -0.011 C 
HETATM    5  C5  UNL     1     -34.178   5.213   3.932  1.00 20.00    -0.013 A 
HETATM    6  C6  UNL     1     -33.550   6.263   4.720  1.00 20.00     0.039 A 
HETATM    7  C7  UNL     1     -35.191   4.273   5.975  1.00 20.00     0.048 C 
HETATM    8  C8  UNL     1     -34.927   5.625   6.664  1.00 20.00     0.126 C 
HETATM    9  C9  UNL     1     -33.202   7.400   6.902  1.00 20.00     0.149 C 
HETATM   10  N10 UNL     1     -33.791   6.356   6.075  1.00 20.00    -0.384 N 
ENDROOT
TORSDOF 0
ENDMDL
MODEL 2
REMARK VINA RESULT:      -4.3      1.130      3.149
REMARK  0 active torsions:
REMARK  status: ('A' for Active; 'I' for Inactive)
ROOT
HETATM    1  C1  UNL     1     -34.562   5.763   6.805  1.00 20.00     0.003 A 
HETATM    2  C2  UNL     1     -35.168   5.013   5.870  1.00 20.00     0.013 A 
HETATM    3  C3  UNL     1     -33.511   6.561   6.191  1.00 20.00     0.030 A 
HETATM    4  C4  UNL     1     -34.793   4.887   3.393  1.00 20.00    -0.011 C 
HETATM    5  C5  UNL     1     -34.513   5.327   4.623  1.00 20.00    -0.013 A 
HETATM    6  C6  UNL     1     -33.459   6.300   4.872  1.00 20.00     0.039 A 
HETATM    7  C7  UNL     1     -34.014   5.389   2.209  1.00 20.00     0.048 C 
HETATM    8  C8  UNL     1     -32.647   6.009   2.562  1.00 20.00     0.126 C 
HETATM    9  C9  UNL     1     -31.587   7.704   4.039  1.00 20.00     0.149 C 
HETATM   10  N10 UNL     1     -32.665   6.747   3.836  1.00 20.00    -0.384 N 
ENDROOT
TORSDOF 0
ENDMDL
MODEL 3
REMARK VINA RESULT:      -4.3      9.871     10.965
REMARK  0 active torsions:
REMARK  status: ('A' for Active; 'I' for Inactive)
ROOT
HETATM    1  C1  UNL     1     -43.282   7.459  -3.638  1.00 20.00     0.003 A 
HETATM    2  C2  UNL     1     -42.530   8.073  -2.710  1.00 20.00     0.013 A 
HETATM    3  C3  UNL     1     -43.166   6.016  -3.489  1.00 20.00     0.030 A 
HETATM    4  C4  UNL     1     -41.128   7.120  -0.862  1.00 20.00    -0.011 C 
HETATM    5  C5  UNL     1     -41.917   7.022  -1.936  1.00 20.00    -0.013 A 
HETATM    6  C6  UNL     1     -42.333   5.733  -2.471  1.00 20.00     0.039 A 
HETATM    7  C7  UNL     1     -40.637   5.882  -0.162  1.00 20.00     0.048 C 
HETATM    8  C8  UNL     1     -40.692   4.602  -1.018  1.00 20.00     0.126 C 
HETATM    9  C9  UNL     1     -42.233   3.251  -2.427  1.00 20.00     0.149 C 
HETATM   10  N10 UNL     1     -41.861   4.563  -1.915  1.00 20.00    -0.384 N 
ENDROOT
TORSDOF 0
ENDMDL
MODEL 4
REMARK VINA RESULT:      -4.3     12.322     13.866
REMARK  0 active torsions:
REMARK  status: ('A' for Active; 'I' for Inactive)
ROOT
HETATM    1  C1  UNL     1     -35.025  15.539  -7.807  1.00 20.00     0.003 A 
HETATM    2  C2  UNL     1     -35.190  14.301  -7.313  1.00 20.00     0.013 A 
HETATM    3  C3  UNL     1     -34.547  16.427  -6.758  1.00 20.00     0.030 A 
HETATM    4  C4  UNL     1     -34.741  13.393  -5.018  1.00 20.00    -0.011 C 
HETATM    5  C5  UNL     1     -34.808  14.374  -5.923  1.00 20.00    -0.013 A 
HETATM    6  C6  UNL     1     -34.422  15.741  -5.608  1.00 20.00     0.039 A 
HETATM    7  C7  UNL     1     -34.258  13.677  -3.622  1.00 20.00     0.048 C 
HETATM    8  C8  UNL     1     -34.331  15.161  -3.212  1.00 20.00     0.126 C 
HETATM    9  C9  UNL     1     -33.660  17.436  -3.959  1.00 20.00     0.149 C 
HETATM   10  N10 UNL     1     -34.036  16.078  -4.327  1.00 20.00    -0.384 N 
ENDROOT
TORSDOF 0
ENDMDL
MODEL 5
REMARK VINA RESULT:      -4.3     12.608     14.390
REMARK  0 active torsions:
REMARK  status: ('A' for Active; 'I' for Inactive)
ROOT
HETATM    1  C1  UNL     1     -33.788  13.734  -3.752  1.00 20.00     0.003 A 
HETATM    2  C2  UNL     1     -34.440  13.222  -4.809  1.00 20.00     0.013 A 
HETATM    3  C3  UNL     1     -33.566  15.158  -3.955  1.00 20.00     0.030 A 
HETATM    4  C4  UNL     1     -35.315  14.337  -6.878  1.00 20.00    -0.011 C 
HETATM    5  C5  UNL     1     -34.657  14.323  -5.714  1.00 20.00    -0.013 A 
HETATM    6  C6  UNL     1     -34.075  15.529  -5.144  1.00 20.00     0.039 A 
HETATM    7  C7  UNL     1     -35.475  15.620  -7.646  1.00 20.00     0.048 C 
HETATM    8  C8  UNL     1     -34.463  16.719  -7.269  1.00 20.00     0.126 C 
HETATM    9  C9  UNL     1     -33.544  17.951  -5.314  1.00 20.00     0.149 C 
HETATM   10  N10 UNL     1     -34.129  16.722  -5.834  1.00 20.00    -0.384 N 
ENDROOT
TORSDOF 0
ENDMDL
MODEL 6
REMARK VINA RESULT:      -4.3     12.246     13.744
REMARK  0 active torsions:
REMARK  status: ('A' for Active; 'I' for Inactive)
ROOT
HETATM    1  C1  UNL     1     -34.773  13.726  -5.228  1.00 20.00     0.003 A 
HETATM    2  C2  UNL     1     -34.846  13.764  -3.887  1.00 20.00     0.013 A 
HETATM    3  C3  UNL     1     -34.378  15.033  -5.734  1.00 20.00     0.030 A 
HETATM    4  C4  UNL     1     -34.355  15.628  -2.282  1.00 20.00    -0.011 C 
HETATM    5  C5  UNL     1     -34.488  15.108  -3.507  1.00 20.00    -0.013 A 
HETATM    6  C6  UNL     1     -34.214  15.885  -4.707  1.00 20.00     0.039 A 
HETATM    7  C7  UNL     1     -33.913  17.054  -2.105  1.00 20.00     0.048 C 
HETATM    8  C8  UNL     1     -34.107  17.941  -3.350  1.00 20.00     0.126 C 
HETATM    9  C9  UNL     1     -33.607  18.040  -5.784  1.00 20.00     0.149 C 
HETATM   10  N10 UNL     1     -33.871  17.217  -4.611  1.00 20.00    -0.384 N 
ENDROOT
TORSDOF 0
ENDMDL
MODEL 7
REMARK VINA RESULT:      -4.2     12.100     12.910
REMARK  0 active torsions:
REMARK  status: ('A' for Active; 'I' for Inactive)
ROOT
HETATM    1  C1  UNL     1     -34.776  17.302  -1.746  1.00 20.00     0.003 A 
HETATM    2  C2  UNL     1     -33.668  16.644  -2.126  1.00 20.00     0.013 A 
HETATM    3  C3  UNL     1     -35.949  16.661  -2.320  1.00 20.00     0.030 A 
HETATM    4  C4  UNL     1     -33.402  14.578  -3.522  1.00 20.00    -0.011 C 
HETATM    5  C5  UNL     1     -34.118  15.552  -2.954  1.00 20.00    -0.013 A 
HETATM    6  C6  UNL     1     -35.569  15.607  -3.065  1.00 20.00     0.039 A 
HETATM    7  C7  UNL     1     -34.083  13.491  -4.308  1.00 20.00     0.048 C 
HETATM    8  C8  UNL     1     -35.501  13.849  -4.794  1.00 20.00     0.126 C 
HETATM    9  C9  UNL     1     -37.692  14.704  -3.986  1.00 20.00     0.149 C 
HETATM   10  N10 UNL     1     -36.244  14.678  -3.829  1.00 20.00    -0.384 N 
ENDROOT
TORSDOF 0
ENDMDL
MODEL 8
REMARK VINA RESULT:      -4.2     12.523     14.026
REMARK  0 active torsions:
REMARK  status: ('A' for Active; 'I' for Inactive)
ROOT
HETATM    1  C1  UNL     1     -34.443  17.883  -0.671  1.00 20.00     0.003 A 
HETATM    2  C2  UNL     1     -34.528  16.557  -0.862  1.00 20.00     0.013 A 
HETATM    3  C3  UNL     1     -34.125  18.542  -1.930  1.00 20.00     0.030 A 
HETATM    4  C4  UNL     1     -34.301  15.197  -2.958  1.00 20.00    -0.011 C 
HETATM    5  C5  UNL     1     -34.271  16.340  -2.265  1.00 20.00    -0.013 A 
HETATM    6  C6  UNL     1     -34.005  17.621  -2.903  1.00 20.00     0.039 A 
HETATM    7  C7  UNL     1     -34.055  15.200  -4.442  1.00 20.00     0.048 C 
HETATM    8  C8  UNL     1     -33.321  16.451  -4.964  1.00 20.00     0.126 C 
HETATM    9  C9  UNL     1     -33.414  18.936  -4.926  1.00 20.00     0.149 C 
HETATM   10  N10 UNL     1     -33.705  17.680  -4.248  1.00 20.00    -0.384 N 
ENDROOT
TORSDOF 0
ENDMDL
MODEL 9
REMARK VINA RESULT:      -4.2     12.032     12.969
REMARK  0 active torsions:
REMARK  status: ('A' for Active; 'I' for Inactive)
ROOT
HETATM    1  C1  UNL     1     -34.769  13.262  -4.360  1.00 20.00     0.003 A 
HETATM    2  C2  UNL     1     -33.737  13.867  -3.749  1.00 20.00     0.013 A 
HETATM    3  C3  UNL     1     -35.960  14.092  -4.249  1.00 20.00     0.030 A 
HETATM    4  C4  UNL     1     -33.603  16.094  -2.603  1.00 20.00    -0.011 C 
HETATM    5  C5  UNL     1     -34.253  15.113  -3.237  1.00 20.00    -0.013 A 
HETATM    6  C6  UNL     1     -35.669  15.210  -3.560  1.00 20.00     0.039 A 
HETATM    7  C7  UNL     1     -34.327  17.349  -2.198  1.00 20.00     0.048 C 
HETATM    8  C8  UNL     1     -35.859  17.204  -2.121  1.00 20.00     0.126 C 
HETATM    9  C9  UNL     1     -37.825  16.439  -3.439  1.00 20.00     0.149 C 
HETATM   10  N10 UNL     1     -36.402  16.306  -3.156  1.00 20.00    -0.384 N 
ENDROOT
TORSDOF 0
ENDMDL
