MODEL 1
REMARK VINA RESULT:      -4.8      0.000      0.000
REMARK  1 active torsions:
REMARK  status: ('A' for Active; 'I' for Inactive)
REMARK    1  A    between atoms: C5_5  and  C6_6 
ROOT
HETATM    1  C1  UNL     1     -34.836  16.663  -0.755  1.00 20.00    -0.003 A 
HETATM    2  C2  UNL     1     -33.703  17.548  -0.918  1.00 20.00    -0.003 A 
HETATM    3  C3  UNL     1     -34.966  15.939  -1.881  1.00 20.00    -0.012 A 
HETATM    4  C4  UNL     1     -33.180  17.335  -2.138  1.00 20.00    -0.012 A 
HETATM    5  C6  UNL     1     -33.233  15.295  -3.741  1.00 20.00     0.073 A 
HETATM    6  C7  UNL     1     -33.935  16.300  -2.872  1.00 20.00     0.013 A 
HETATM    7  C8  UNL     1     -34.169  16.329  -4.365  1.00 20.00    -0.021 A 
HETATM    8  C9  UNL     1     -33.531  17.420  -5.196  1.00 20.00     0.017 C 
HETATM    9  C10 UNL     1     -35.510  15.895  -4.914  1.00 20.00     0.017 C 
ENDROOT
BRANCH   5  10
HETATM   10  C5  UNL     1     -33.599  13.871  -3.710  1.00 20.00     0.237 C 
HETATM   11  O11 UNL     1     -32.777  12.962  -3.675  1.00 20.00    -0.306 OA
ENDBRANCH   5  10
TORSDOF 1
ENDMDL
MODEL 2
REMARK VINA RESULT:      -4.6      2.033      2.465
REMARK  1 active torsions:
REMARK  status: ('A' for Active; 'I' for Inactive)
REMARK    1  A    between atoms: C5_5  and  C6_6 
ROOT
HETATM    1  C1  UNL     1     -35.788  18.038  -2.007  1.00 20.00    -0.003 A 
HETATM    2  C2  UNL     1     -34.976  17.400  -0.994  1.00 20.00    -0.003 A 
HETATM    3  C3  UNL     1     -35.783  17.255  -3.101  1.00 20.00    -0.012 A 
HETATM    4  C4  UNL     1     -34.503  16.248  -1.504  1.00 20.00    -0.012 A 
HETATM    5  C6  UNL     1     -35.349  14.686  -3.394  1.00 20.00     0.073 A 
HETATM    6  C7  UNL     1     -34.963  16.047  -2.892  1.00 20.00     0.013 A 
HETATM    7  C8  UNL     1     -34.125  15.397  -3.970  1.00 20.00    -0.021 A 
HETATM    8  C9  UNL     1     -32.770  14.827  -3.615  1.00 20.00     0.017 C 
HETATM    9  C10 UNL     1     -34.169  15.948  -5.377  1.00 20.00     0.017 C 
ENDROOT
BRANCH   5  10
HETATM   10  C5  UNL     1     -36.556  14.487  -4.211  1.00 20.00     0.237 C 
HETATM   11  O11 UNL     1     -37.650  14.195  -3.741  1.00 20.00    -0.306 OA
ENDBRANCH   5  10
TORSDOF 1
ENDMDL
MODEL 3
REMARK VINA RESULT:      -4.6      2.106      2.866
REMARK  1 active torsions:
REMARK  status: ('A' for Active; 'I' for Inactive)
REMARK    1  A    between atoms: C5_5  and  C6_6 
ROOT
HETATM    1  C1  UNL     1     -34.489  18.201  -3.298  1.00 20.00    -0.003 A 
HETATM    2  C2  UNL     1     -33.827  17.607  -2.157  1.00 20.00    -0.003 A 
HETATM    3  C3  UNL     1     -35.015  17.208  -4.039  1.00 20.00    -0.012 A 
HETATM    4  C4  UNL     1     -33.970  16.273  -2.240  1.00 20.00    -0.012 A 
HETATM    5  C6  UNL     1     -35.726  14.764  -3.411  1.00 20.00     0.073 A 
HETATM    6  C7  UNL     1     -34.731  15.889  -3.445  1.00 20.00     0.013 A 
HETATM    7  C8  UNL     1     -34.455  14.640  -4.252  1.00 20.00    -0.021 A 
HETATM    8  C9  UNL     1     -33.407  13.661  -3.772  1.00 20.00     0.017 C 
HETATM    9  C10 UNL     1     -34.544  14.697  -5.760  1.00 20.00     0.017 C 
ENDROOT
BRANCH   5  10
HETATM   10  C5  UNL     1     -37.043  14.889  -4.053  1.00 20.00     0.237 C 
HETATM   11  O11 UNL     1     -38.007  14.191  -3.760  1.00 20.00    -0.306 OA
ENDBRANCH   5  10
TORSDOF 1
ENDMDL
MODEL 4
REMARK VINA RESULT:      -4.6      2.100      3.693
REMARK  1 active torsions:
REMARK  status: ('A' for Active; 'I' for Inactive)
REMARK    1  A    between atoms: C5_5  and  C6_6 
ROOT
HETATM    1  C1  UNL     1     -33.424  13.641  -3.872  1.00 20.00    -0.003 A 
HETATM    2  C2  UNL     1     -34.793  13.318  -4.211  1.00 20.00    -0.003 A 
HETATM    3  C3  UNL     1     -33.401  14.888  -3.367  1.00 20.00    -0.012 A 
HETATM    4  C4  UNL     1     -35.560  14.379  -3.902  1.00 20.00    -0.012 A 
HETATM    5  C6  UNL     1     -35.265  16.327  -2.214  1.00 20.00     0.073 A 
HETATM    6  C7  UNL     1     -34.752  15.481  -3.344  1.00 20.00     0.013 A 
HETATM    7  C8  UNL     1     -35.037  16.944  -3.594  1.00 20.00    -0.021 A 
HETATM    8  C9  UNL     1     -36.266  17.337  -4.382  1.00 20.00     0.017 C 
HETATM    9  C10 UNL     1     -33.884  17.899  -3.809  1.00 20.00     0.017 C 
ENDROOT
BRANCH   5  10
HETATM   10  C5  UNL     1     -34.406  16.689  -1.078  1.00 20.00     0.237 C 
HETATM   11  O11 UNL     1     -34.832  16.898   0.053  1.00 20.00    -0.306 OA
ENDBRANCH   5  10
TORSDOF 1
ENDMDL
MODEL 5
REMARK VINA RESULT:      -4.6      0.961      1.119
REMARK  1 active torsions:
REMARK  status: ('A' for Active; 'I' for Inactive)
REMARK    1  A    between atoms: C5_5  and  C6_6 
ROOT
HETATM    1  C1  UNL     1     -34.334  16.946  -0.904  1.00 20.00    -0.003 A 
HETATM    2  C2  UNL     1     -33.713  17.940  -1.753  1.00 20.00    -0.003 A 
HETATM    3  C3  UNL     1     -34.795  15.956  -1.688  1.00 20.00    -0.012 A 
HETATM    4  C4  UNL     1     -33.816  17.522  -3.027  1.00 20.00    -0.012 A 
HETATM    5  C6  UNL     1     -34.087  15.169  -4.087  1.00 20.00     0.073 A 
HETATM    6  C7  UNL     1     -34.518  16.226  -3.112  1.00 20.00     0.013 A 
HETATM    7  C8  UNL     1     -35.449  15.846  -4.241  1.00 20.00    -0.021 A 
HETATM    8  C9  UNL     1     -35.619  16.787  -5.412  1.00 20.00     0.017 C 
HETATM    9  C10 UNL     1     -36.711  15.072  -3.934  1.00 20.00     0.017 C 
ENDROOT
BRANCH   5  10
HETATM   10  C5  UNL     1     -33.990  13.757  -3.691  1.00 20.00     0.237 C 
HETATM   11  O11 UNL     1     -32.946  13.114  -3.729  1.00 20.00    -0.306 OA
ENDBRANCH   5  10
TORSDOF 1
ENDMDL
MODEL 6
REMARK VINA RESULT:      -4.6      2.300      4.273
REMARK  1 active torsions:
REMARK  status: ('A' for Active; 'I' for Inactive)
REMARK    1  A    between atoms: C5_5  and  C6_6 
ROOT
HETATM    1  C1  UNL     1     -34.618  15.241  -7.526  1.00 20.00    -0.003 A 
HETATM    2  C2  UNL     1     -34.384  16.624  -7.173  1.00 20.00    -0.003 A 
HETATM    3  C3  UNL     1     -34.939  14.572  -6.404  1.00 20.00    -0.012 A 
HETATM    4  C4  UNL     1     -34.571  16.753  -5.847  1.00 20.00    -0.012 A 
HETATM    5  C6  UNL     1     -35.951  15.387  -4.127  1.00 20.00     0.073 A 
HETATM    6  C7  UNL     1     -34.933  15.463  -5.229  1.00 20.00     0.013 A 
HETATM    7  C8  UNL     1     -34.490  15.038  -3.847  1.00 20.00    -0.021 A 
HETATM    8  C9  UNL     1     -33.705  16.005  -2.989  1.00 20.00     0.017 C 
HETATM    9  C10 UNL     1     -34.094  13.599  -3.605  1.00 20.00     0.017 C 
ENDROOT
BRANCH   5  10
HETATM   10  C5  UNL     1     -36.988  14.345  -4.115  1.00 20.00     0.237 C 
HETATM   11  O11 UNL     1     -38.011  14.416  -3.441  1.00 20.00    -0.306 OA
ENDBRANCH   5  10
TORSDOF 1
ENDMDL
MODEL 7
REMARK VINA RESULT:      -4.5      1.961      4.170
REMARK  1 active torsions:
REMARK  status: ('A' for Active; 'I' for Inactive)
REMARK    1  A    between atoms: C5_5  and  C6_6 
ROOT
HETATM    1  C1  UNL     1     -34.160  16.010  -6.903  1.00 20.00    -0.003 A 
HETATM    2  C2  UNL     1     -35.215  15.252  -7.541  1.00 20.00    -0.003 A 
HETATM    3  C3  UNL     1     -34.214  15.770  -5.581  1.00 20.00    -0.012 A 
HETATM    4  C4  UNL     1     -35.878  14.576  -6.586  1.00 20.00    -0.012 A 
HETATM    5  C6  UNL     1     -35.197  13.755  -4.221  1.00 20.00     0.073 A 
HETATM    6  C7  UNL     1     -35.313  14.844  -5.249  1.00 20.00     0.013 A 
HETATM    7  C8  UNL     1     -36.143  14.932  -3.988  1.00 20.00    -0.021 A 
HETATM    8  C9  UNL     1     -37.626  14.645  -4.052  1.00 20.00     0.017 C 
HETATM    9  C10 UNL     1     -35.801  15.976  -2.948  1.00 20.00     0.017 C 
ENDROOT
BRANCH   5  10
HETATM   10  C5  UNL     1     -33.980  13.595  -3.411  1.00 20.00     0.237 C 
HETATM   11  O11 UNL     1     -32.975  13.016  -3.807  1.00 20.00    -0.306 OA
ENDBRANCH   5  10
TORSDOF 1
ENDMDL
MODEL 8
REMARK VINA RESULT:      -4.4      1.567      3.509
REMARK  1 active torsions:
REMARK  status: ('A' for Active; 'I' for Inactive)
REMARK    1  A    between atoms: C5_5  and  C6_6 
ROOT
HETATM    1  C1  UNL     1     -37.274  15.933  -5.659  1.00 20.00    -0.003 A 
HETATM    2  C2  UNL     1     -37.997  15.895  -4.406  1.00 20.00    -0.003 A 
HETATM    3  C3  UNL     1     -35.992  15.606  -5.411  1.00 20.00    -0.012 A 
HETATM    4  C4  UNL     1     -37.132  15.547  -3.436  1.00 20.00    -0.012 A 
HETATM    5  C6  UNL     1     -34.896  14.231  -3.466  1.00 20.00     0.073 A 
HETATM    6  C7  UNL     1     -35.775  15.336  -3.978  1.00 20.00     0.013 A 
HETATM    7  C8  UNL     1     -34.508  15.691  -3.233  1.00 20.00    -0.021 A 
HETATM    8  C9  UNL     1     -34.599  16.208  -1.815  1.00 20.00     0.017 C 
HETATM    9  C10 UNL     1     -33.345  16.289  -3.992  1.00 20.00     0.017 C 
ENDROOT
BRANCH   5  10
HETATM   10  C5  UNL     1     -34.121  13.384  -4.384  1.00 20.00     0.237 C 
HETATM   11  O11 UNL     1     -34.608  12.459  -5.026  1.00 20.00    -0.306 OA
ENDBRANCH   5  10
TORSDOF 1
ENDMDL
MODEL 9
REMARK VINA RESULT:      -4.4      2.191      3.921
REMARK  1 active torsions:
REMARK  status: ('A' for Active; 'I' for Inactive)
REMARK    1  A    between atoms: C5_5  and  C6_6 
ROOT
HETATM    1  C1  UNL     1     -35.065  13.904  -5.514  1.00 20.00    -0.003 A 
HETATM    2  C2  UNL     1     -34.211  13.287  -4.523  1.00 20.00    -0.003 A 
HETATM    3  C3  UNL     1     -35.181  15.209  -5.212  1.00 20.00    -0.012 A 
HETATM    4  C4  UNL     1     -33.833  14.236  -3.649  1.00 20.00    -0.012 A 
HETATM    5  C6  UNL     1     -33.629  16.816  -3.838  1.00 20.00     0.073 A 
HETATM    6  C7  UNL     1     -34.417  15.547  -3.996  1.00 20.00     0.013 A 
HETATM    7  C8  UNL     1     -34.864  16.566  -2.972  1.00 20.00    -0.021 A 
HETATM    8  C9  UNL     1     -34.629  16.296  -1.503  1.00 20.00     0.017 C 
HETATM    9  C10 UNL     1     -36.127  17.360  -3.219  1.00 20.00     0.017 C 
ENDROOT
BRANCH   5  10
HETATM   10  C5  UNL     1     -33.638  17.855  -4.878  1.00 20.00     0.237 C 
HETATM   11  O11 UNL     1     -33.229  18.997  -4.697  1.00 20.00    -0.306 OA
ENDBRANCH   5  10
TORSDOF 1
ENDMDL
