MODEL 1
REMARK VINA RESULT:      -3.7      0.000      0.000
REMARK  1 active torsions:
REMARK  status: ('A' for Active; 'I' for Inactive)
REMARK    1  A    between atoms: C1_1  and  C4_4 
ROOT
HETATM    1  C2  UNL     1     -33.671   7.063   3.457  1.00 20.00     0.031 A 
HETATM    2  C3  UNL     1     -32.690   5.968   3.753  1.00 20.00     0.031 A 
HETATM    3  C4  UNL     1     -33.885   6.168   4.653  1.00 20.00     0.078 A 
HETATM    4 BR7  UNL     1     -33.547   6.942   6.385  1.00 20.00    -0.077 Br
ENDROOT
BRANCH   3   5
HETATM    5  C1  UNL     1     -34.977   5.181   4.617  1.00 20.00     0.142 C 
HETATM    6  C5  UNL     1     -34.934   4.086   5.647  1.00 20.00     0.092 C 
HETATM    7  O6  UNL     1     -35.881   5.250   3.786  1.00 20.00    -0.297 OA
ENDBRANCH   3   5
TORSDOF 1
ENDMDL
MODEL 2
REMARK VINA RESULT:      -3.7      2.191      2.724
REMARK  1 active torsions:
REMARK  status: ('A' for Active; 'I' for Inactive)
REMARK    1  A    between atoms: C1_1  and  C4_4 
ROOT
HETATM    1  C2  UNL     1     -34.424   5.060   3.018  1.00 20.00     0.031 A 
HETATM    2  C3  UNL     1     -35.589   5.851   3.532  1.00 20.00     0.031 A 
HETATM    3  C4  UNL     1     -34.494   5.427   4.479  1.00 20.00     0.078 A 
HETATM    4 BR7  UNL     1     -34.915   4.004   5.710  1.00 20.00    -0.077 Br
ENDROOT
BRANCH   3   5
HETATM    5  C1  UNL     1     -33.570   6.446   5.003  1.00 20.00     0.142 C 
HETATM    6  C5  UNL     1     -33.771   6.873   6.431  1.00 20.00     0.092 C 
HETATM    7  O6  UNL     1     -32.675   6.924   4.307  1.00 20.00    -0.297 OA
ENDBRANCH   3   5
TORSDOF 1
ENDMDL
MODEL 3
REMARK VINA RESULT:      -3.6      1.134      2.685
REMARK  1 active torsions:
REMARK  status: ('A' for Active; 'I' for Inactive)
REMARK    1  A    between atoms: C1_1  and  C4_4 
ROOT
HETATM    1  C2  UNL     1     -34.346   4.047   5.323  1.00 20.00     0.031 A 
HETATM    2  C3  UNL     1     -35.560   4.843   4.950  1.00 20.00     0.031 A 
HETATM    3  C4  UNL     1     -34.199   5.492   4.918  1.00 20.00     0.078 A 
HETATM    4 BR7  UNL     1     -33.804   6.751   6.323  1.00 20.00    -0.077 Br
ENDROOT
BRANCH   3   5
HETATM    5  C1  UNL     1     -33.590   5.807   3.615  1.00 20.00     0.142 C 
HETATM    6  C5  UNL     1     -32.414   6.745   3.626  1.00 20.00     0.092 C 
HETATM    7  O6  UNL     1     -34.021   5.326   2.568  1.00 20.00    -0.297 OA
ENDBRANCH   3   5
TORSDOF 1
ENDMDL
MODEL 4
REMARK VINA RESULT:      -3.6     11.656     12.281
REMARK  1 active torsions:
REMARK  status: ('A' for Active; 'I' for Inactive)
REMARK    1  A    between atoms: C1_1  and  C4_4 
ROOT
HETATM    1  C2  UNL     1     -36.952  14.737  -3.831  1.00 20.00     0.031 A 
HETATM    2  C3  UNL     1     -36.148  15.546  -4.805  1.00 20.00     0.031 A 
HETATM    3  C4  UNL     1     -35.458  14.857  -3.653  1.00 20.00     0.078 A 
HETATM    4 BR7  UNL     1     -34.844  15.979  -2.212  1.00 20.00    -0.077 Br
ENDROOT
BRANCH   3   5
HETATM    5  C1  UNL     1     -34.613  13.683  -3.928  1.00 20.00     0.142 C 
HETATM    6  C5  UNL     1     -33.137  13.839  -3.681  1.00 20.00     0.092 C 
HETATM    7  O6  UNL     1     -35.090  12.626  -4.338  1.00 20.00    -0.297 OA
ENDBRANCH   3   5
TORSDOF 1
ENDMDL
MODEL 5
REMARK VINA RESULT:      -3.5      2.012      2.561
REMARK  1 active torsions:
REMARK  status: ('A' for Active; 'I' for Inactive)
REMARK    1  A    between atoms: C1_1  and  C4_4 
ROOT
HETATM    1  C2  UNL     1     -35.552   5.601   3.787  1.00 20.00     0.031 A 
HETATM    2  C3  UNL     1     -34.729   4.374   4.042  1.00 20.00     0.031 A 
HETATM    3  C4  UNL     1     -34.259   5.712   4.556  1.00 20.00     0.078 A 
HETATM    4 BR7  UNL     1     -32.770   6.521   3.637  1.00 20.00    -0.077 Br
ENDROOT
BRANCH   3   5
HETATM    5  C1  UNL     1     -34.313   5.979   6.003  1.00 20.00     0.142 C 
HETATM    6  C5  UNL     1     -33.477   7.120   6.513  1.00 20.00     0.092 C 
HETATM    7  O6  UNL     1     -35.009   5.302   6.758  1.00 20.00    -0.297 OA
ENDBRANCH   3   5
TORSDOF 1
ENDMDL
MODEL 6
REMARK VINA RESULT:      -3.5     12.427     12.644
REMARK  1 active torsions:
REMARK  status: ('A' for Active; 'I' for Inactive)
REMARK    1  A    between atoms: C1_1  and  C4_4 
ROOT
HETATM    1  C2  UNL     1     -32.832  14.644  -3.635  1.00 20.00     0.031 A 
HETATM    2  C3  UNL     1     -33.759  15.654  -3.028  1.00 20.00     0.031 A 
HETATM    3  C4  UNL     1     -34.161  14.929  -4.289  1.00 20.00     0.078 A 
HETATM    4 BR7  UNL     1     -34.120  15.947  -5.925  1.00 20.00    -0.077 Br
ENDROOT
BRANCH   3   5
HETATM    5  C1  UNL     1     -35.222  13.911  -4.218  1.00 20.00     0.142 C 
HETATM    6  C5  UNL     1     -36.634  14.413  -4.092  1.00 20.00     0.092 C 
HETATM    7  O6  UNL     1     -34.966  12.709  -4.262  1.00 20.00    -0.297 OA
ENDBRANCH   3   5
TORSDOF 1
ENDMDL
MODEL 7
REMARK VINA RESULT:      -3.4     12.410     12.851
REMARK  1 active torsions:
REMARK  status: ('A' for Active; 'I' for Inactive)
REMARK    1  A    between atoms: C1_1  and  C4_4 
ROOT
HETATM    1  C2  UNL     1     -33.304  16.034  -4.717  1.00 20.00     0.031 A 
HETATM    2  C3  UNL     1     -32.829  15.042  -3.698  1.00 20.00     0.031 A 
HETATM    3  C4  UNL     1     -34.260  15.001  -4.173  1.00 20.00     0.078 A 
HETATM    4 BR7  UNL     1     -35.603  15.628  -2.941  1.00 20.00    -0.077 Br
ENDROOT
BRANCH   3   5
HETATM    5  C1  UNL     1     -34.688  13.898  -5.049  1.00 20.00     0.142 C 
HETATM    6  C5  UNL     1     -34.997  14.248  -6.478  1.00 20.00     0.092 C 
HETATM    7  O6  UNL     1     -34.787  12.744  -4.632  1.00 20.00    -0.297 OA
ENDBRANCH   3   5
TORSDOF 1
ENDMDL
MODEL 8
REMARK VINA RESULT:      -3.4     12.225     13.318
REMARK  1 active torsions:
REMARK  status: ('A' for Active; 'I' for Inactive)
REMARK    1  A    between atoms: C1_1  and  C4_4 
ROOT
HETATM    1  C2  UNL     1     -35.523  14.390  -7.001  1.00 20.00     0.031 A 
HETATM    2  C3  UNL     1     -34.252  15.175  -6.872  1.00 20.00     0.031 A 
HETATM    3  C4  UNL     1     -34.998  14.747  -5.632  1.00 20.00     0.078 A 
HETATM    4 BR7  UNL     1     -35.947  16.123  -4.672  1.00 20.00    -0.077 Br
ENDROOT
BRANCH   3   5
HETATM    5  C1  UNL     1     -34.428  13.683  -4.789  1.00 20.00     0.142 C 
HETATM    6  C5  UNL     1     -33.381  14.098  -3.793  1.00 20.00     0.092 C 
HETATM    7  O6  UNL     1     -34.792  12.513  -4.893  1.00 20.00    -0.297 OA
ENDBRANCH   3   5
TORSDOF 1
ENDMDL
MODEL 9
REMARK VINA RESULT:      -3.4     11.838     12.639
REMARK  1 active torsions:
REMARK  status: ('A' for Active; 'I' for Inactive)
REMARK    1  A    between atoms: C1_1  and  C4_4 
ROOT
HETATM    1  C2  UNL     1     -34.667  16.192  -5.038  1.00 20.00     0.031 A 
HETATM    2  C3  UNL     1     -33.185  16.241  -4.814  1.00 20.00     0.031 A 
HETATM    3  C4  UNL     1     -34.059  15.441  -3.879  1.00 20.00     0.078 A 
HETATM    4 BR7  UNL     1     -34.350  16.176  -2.122  1.00 20.00    -0.077 Br
ENDROOT
BRANCH   3   5
HETATM    5  C1  UNL     1     -34.004  13.971  -3.935  1.00 20.00     0.142 C 
HETATM    6  C5  UNL     1     -35.244  13.265  -4.409  1.00 20.00     0.092 C 
HETATM    7  O6  UNL     1     -32.992  13.351  -3.612  1.00 20.00    -0.297 OA
ENDBRANCH   3   5
TORSDOF 1
ENDMDL
