MODEL 1
REMARK VINA RESULT:      -4.6      0.000      0.000
REMARK  1 active torsions:
REMARK  status: ('A' for Active; 'I' for Inactive)
REMARK    1  A    between atoms: C1_1  and  C3_3 
ROOT
HETATM    1  C1  UNL     1     -33.810   6.140   4.753  1.00 20.00     0.163 C 
HETATM    2  C2  UNL     1     -32.992   6.359   3.709  1.00 20.00    -0.045 C 
HETATM    3  C4  UNL     1     -31.854   7.341   3.678  1.00 20.00     0.046 C 
HETATM    4  C5  UNL     1     -33.158   5.578   2.431  1.00 20.00     0.046 C 
HETATM    5  F8  UNL     1     -33.645   6.842   5.897  1.00 20.00    -0.202 F 
ENDROOT
BRANCH   1   6
HETATM    6  C3  UNL     1     -34.943   5.177   4.817  1.00 20.00     0.183 C 
HETATM    7  C6  UNL     1     -34.836   4.076   5.840  1.00 20.00     0.099 C 
HETATM    8  O7  UNL     1     -35.901   5.238   4.050  1.00 20.00    -0.290 OA
ENDBRANCH   1   6
TORSDOF 1
ENDMDL
MODEL 2
REMARK VINA RESULT:      -4.4      2.367      3.920
REMARK  1 active torsions:
REMARK  status: ('A' for Active; 'I' for Inactive)
REMARK    1  A    between atoms: C1_1  and  C3_3 
ROOT
HETATM    1  C1  UNL     1     -33.417   6.100   3.479  1.00 20.00     0.163 C 
HETATM    2  C2  UNL     1     -34.112   5.833   4.597  1.00 20.00    -0.045 C 
HETATM    3  C4  UNL     1     -35.185   4.790   4.735  1.00 20.00     0.046 C 
HETATM    4  C5  UNL     1     -33.835   6.594   5.869  1.00 20.00     0.046 C 
HETATM    5  F8  UNL     1     -33.670   5.406   2.346  1.00 20.00    -0.202 F 
ENDROOT
BRANCH   1   6
HETATM    6  C3  UNL     1     -32.350   7.124   3.308  1.00 20.00     0.183 C 
HETATM    7  C6  UNL     1     -32.476   8.037   2.116  1.00 20.00     0.099 C 
HETATM    8  O7  UNL     1     -31.387   7.202   4.066  1.00 20.00    -0.290 OA
ENDBRANCH   1   6
TORSDOF 1
ENDMDL
MODEL 3
REMARK VINA RESULT:      -4.3     12.037     12.360
REMARK  1 active torsions:
REMARK  status: ('A' for Active; 'I' for Inactive)
REMARK    1  A    between atoms: C1_1  and  C3_3 
ROOT
HETATM    1  C1  UNL     1     -35.295  14.564  -3.722  1.00 20.00     0.163 C 
HETATM    2  C2  UNL     1     -34.369  15.283  -3.065  1.00 20.00    -0.045 C 
HETATM    3  C4  UNL     1     -34.624  16.156  -1.867  1.00 20.00     0.046 C 
HETATM    4  C5  UNL     1     -32.925  15.247  -3.496  1.00 20.00     0.046 C 
HETATM    5  F8  UNL     1     -36.585  14.599  -3.321  1.00 20.00    -0.202 F 
ENDROOT
BRANCH   1   6
HETATM    6  C3  UNL     1     -35.077  13.692  -4.908  1.00 20.00     0.183 C 
HETATM    7  C6  UNL     1     -35.251  14.335  -6.259  1.00 20.00     0.099 C 
HETATM    8  O7  UNL     1     -34.814  12.496  -4.805  1.00 20.00    -0.290 OA
ENDBRANCH   1   6
TORSDOF 1
ENDMDL
MODEL 4
REMARK VINA RESULT:      -4.3     11.965     12.370
REMARK  1 active torsions:
REMARK  status: ('A' for Active; 'I' for Inactive)
REMARK    1  A    between atoms: C1_1  and  C3_3 
ROOT
HETATM    1  C1  UNL     1     -34.019  14.646  -3.681  1.00 20.00     0.163 C 
HETATM    2  C2  UNL     1     -34.761  15.446  -2.897  1.00 20.00    -0.045 C 
HETATM    3  C4  UNL     1     -34.240  16.319  -1.790  1.00 20.00     0.046 C 
HETATM    4  C5  UNL     1     -36.253  15.540  -3.096  1.00 20.00     0.046 C 
HETATM    5  F8  UNL     1     -32.681  14.576  -3.496  1.00 20.00    -0.202 F 
ENDROOT
BRANCH   1   6
HETATM    6  C3  UNL     1     -34.502  13.770  -4.783  1.00 20.00     0.183 C 
HETATM    7  C6  UNL     1     -34.592  14.395  -6.151  1.00 20.00     0.099 C 
HETATM    8  O7  UNL     1     -34.858  12.610  -4.592  1.00 20.00    -0.290 OA
ENDBRANCH   1   6
TORSDOF 1
ENDMDL
MODEL 5
REMARK VINA RESULT:      -4.0      1.291      3.137
REMARK  1 active torsions:
REMARK  status: ('A' for Active; 'I' for Inactive)
REMARK    1  A    between atoms: C1_1  and  C3_3 
ROOT
HETATM    1  C1  UNL     1     -33.558   6.186   4.698  1.00 20.00     0.163 C 
HETATM    2  C2  UNL     1     -34.466   5.388   5.285  1.00 20.00    -0.045 C 
HETATM    3  C4  UNL     1     -34.811   5.379   6.748  1.00 20.00     0.046 C 
HETATM    4  C5  UNL     1     -35.260   4.401   4.467  1.00 20.00     0.046 C 
HETATM    5  F8  UNL     1     -32.858   7.071   5.443  1.00 20.00    -0.202 F 
ENDROOT
BRANCH   1   6
HETATM    6  C3  UNL     1     -33.193   6.219   3.256  1.00 20.00     0.183 C 
HETATM    7  C6  UNL     1     -32.183   7.257   2.840  1.00 20.00     0.099 C 
HETATM    8  O7  UNL     1     -33.715   5.477   2.428  1.00 20.00    -0.290 OA
ENDBRANCH   1   6
TORSDOF 1
ENDMDL
MODEL 6
REMARK VINA RESULT:      -4.0      1.679      2.310
REMARK  1 active torsions:
REMARK  status: ('A' for Active; 'I' for Inactive)
REMARK    1  A    between atoms: C1_1  and  C3_3 
ROOT
HETATM    1  C1  UNL     1     -34.652   5.598   5.840  1.00 20.00     0.163 C 
HETATM    2  C2  UNL     1     -33.691   6.532   5.744  1.00 20.00    -0.045 C 
HETATM    3  C4  UNL     1     -33.217   7.422   6.859  1.00 20.00     0.046 C 
HETATM    4  C5  UNL     1     -32.967   6.753   4.440  1.00 20.00     0.046 C 
HETATM    5  F8  UNL     1     -35.288   5.405   7.017  1.00 20.00    -0.202 F 
ENDROOT
BRANCH   1   6
HETATM    6  C3  UNL     1     -35.143   4.702   4.758  1.00 20.00     0.183 C 
HETATM    7  C6  UNL     1     -35.770   5.370   3.562  1.00 20.00     0.099 C 
HETATM    8  O7  UNL     1     -35.089   3.478   4.843  1.00 20.00    -0.290 OA
ENDBRANCH   1   6
TORSDOF 1
ENDMDL
MODEL 7
REMARK VINA RESULT:      -4.0     11.562     12.533
REMARK  1 active torsions:
REMARK  status: ('A' for Active; 'I' for Inactive)
REMARK    1  A    between atoms: C1_1  and  C3_3 
ROOT
HETATM    1  C1  UNL     1     -34.091  15.376  -3.158  1.00 20.00     0.163 C 
HETATM    2  C2  UNL     1     -33.759  16.507  -3.803  1.00 20.00    -0.045 C 
HETATM    3  C4  UNL     1     -33.819  17.894  -3.228  1.00 20.00     0.046 C 
HETATM    4  C5  UNL     1     -33.260  16.458  -5.224  1.00 20.00     0.046 C 
HETATM    5  F8  UNL     1     -34.531  15.433  -1.881  1.00 20.00    -0.202 F 
ENDROOT
BRANCH   1   6
HETATM    6  C3  UNL     1     -34.043  13.989  -3.696  1.00 20.00     0.183 C 
HETATM    7  C6  UNL     1     -35.318  13.454  -4.295  1.00 20.00     0.099 C 
HETATM    8  O7  UNL     1     -33.037  13.289  -3.622  1.00 20.00    -0.290 OA
ENDBRANCH   1   6
TORSDOF 1
ENDMDL
MODEL 8
REMARK VINA RESULT:      -3.9      9.600     10.274
REMARK  1 active torsions:
REMARK  status: ('A' for Active; 'I' for Inactive)
REMARK    1  A    between atoms: C1_1  and  C3_3 
ROOT
HETATM    1  C1  UNL     1     -41.110   4.421  -1.677  1.00 20.00     0.163 C 
HETATM    2  C2  UNL     1     -41.917   3.812  -2.562  1.00 20.00    -0.045 C 
HETATM    3  C4  UNL     1     -41.702   2.445  -3.150  1.00 20.00     0.046 C 
HETATM    4  C5  UNL     1     -43.175   4.490  -3.042  1.00 20.00     0.046 C 
HETATM    5  F8  UNL     1     -39.988   3.799  -1.250  1.00 20.00    -0.202 F 
ENDROOT
BRANCH   1   6
HETATM    6  C3  UNL     1     -41.292   5.770  -1.078  1.00 20.00     0.183 C 
HETATM    7  C6  UNL     1     -42.069   5.836   0.212  1.00 20.00     0.099 C 
HETATM    8  O7  UNL     1     -40.878   6.792  -1.619  1.00 20.00    -0.290 OA
ENDBRANCH   1   6
TORSDOF 1
ENDMDL
MODEL 9
REMARK VINA RESULT:      -3.9     11.602     12.437
REMARK  1 active torsions:
REMARK  status: ('A' for Active; 'I' for Inactive)
REMARK    1  A    between atoms: C1_1  and  C3_3 
ROOT
HETATM    1  C1  UNL     1     -35.404  14.010  -4.349  1.00 20.00     0.163 C 
HETATM    2  C2  UNL     1     -34.396  14.419  -3.560  1.00 20.00    -0.045 C 
HETATM    3  C4  UNL     1     -33.011  13.836  -3.534  1.00 20.00     0.046 C 
HETATM    4  C5  UNL     1     -34.591  15.569  -2.606  1.00 20.00     0.046 C 
HETATM    5  F8  UNL     1     -35.214  12.981  -5.206  1.00 20.00    -0.202 F 
ENDROOT
BRANCH   1   6
HETATM    6  C3  UNL     1     -36.784  14.563  -4.400  1.00 20.00     0.183 C 
HETATM    7  C6  UNL     1     -37.020  15.701  -5.360  1.00 20.00     0.099 C 
HETATM    8  O7  UNL     1     -37.684  14.155  -3.670  1.00 20.00    -0.290 OA
ENDBRANCH   1   6
TORSDOF 1
ENDMDL
