MODEL 1
REMARK VINA RESULT:      -4.9      0.000      0.000
REMARK  1 active torsions:
REMARK  status: ('A' for Active; 'I' for Inactive)
REMARK    1  A    between atoms: C3_3  and  C6_6 
ROOT
HETATM    1  C1  UNL     1     -37.104  15.960  -4.861  1.00 20.00    -0.029 C 
HETATM    2  C2  UNL     1     -36.086  16.506  -5.531  1.00 20.00    -0.021 C 
HETATM    3  C4  UNL     1     -36.678  14.750  -4.095  1.00 20.00     0.046 C 
HETATM    4  C5  UNL     1     -34.801  15.731  -5.343  1.00 20.00    -0.015 C 
HETATM    5  C6  UNL     1     -35.138  14.905  -4.049  1.00 20.00     0.046 C 
HETATM    6  C7  UNL     1     -33.605  16.680  -5.195  1.00 20.00     0.020 C 
HETATM    7  C8  UNL     1     -34.585  14.856  -6.595  1.00 20.00     0.020 C 
HETATM    8  C9  UNL     1     -34.741  15.603  -2.731  1.00 20.00     0.026 C 
ENDROOT
BRANCH   5   9
HETATM    9  C3  UNL     1     -34.467  13.555  -4.043  1.00 20.00     0.228 C 
HETATM   10  O10 UNL     1     -35.064  12.536  -4.377  1.00 20.00    -0.279 OA
HETATM   11 CL11 UNL     1     -32.812  13.650  -3.521  1.00 20.00    -0.043 Cl
ENDBRANCH   5   9
TORSDOF 1
ENDMDL
MODEL 2
REMARK VINA RESULT:      -4.8      2.057      3.346
REMARK  1 active torsions:
REMARK  status: ('A' for Active; 'I' for Inactive)
REMARK    1  A    between atoms: C3_3  and  C6_6 
ROOT
HETATM    1  C1  UNL     1     -33.323  13.509  -3.803  1.00 20.00    -0.029 C 
HETATM    2  C2  UNL     1     -33.059  14.793  -3.544  1.00 20.00    -0.021 C 
HETATM    3  C4  UNL     1     -34.738  13.312  -4.241  1.00 20.00     0.046 C 
HETATM    4  C5  UNL     1     -34.272  15.674  -3.742  1.00 20.00    -0.015 C 
HETATM    5  C6  UNL     1     -35.172  14.744  -4.635  1.00 20.00     0.046 C 
HETATM    6  C7  UNL     1     -33.882  17.003  -4.402  1.00 20.00     0.020 C 
HETATM    7  C8  UNL     1     -34.876  15.970  -2.355  1.00 20.00     0.020 C 
HETATM    8  C9  UNL     1     -34.966  14.933  -6.153  1.00 20.00     0.026 C 
ENDROOT
BRANCH   5   9
HETATM    9  C3  UNL     1     -36.642  14.948  -4.369  1.00 20.00     0.228 C 
HETATM   10  O10 UNL     1     -37.304  14.126  -3.744  1.00 20.00    -0.279 OA
HETATM   11 CL11 UNL     1     -37.228  16.438  -5.045  1.00 20.00    -0.043 Cl
ENDBRANCH   5   9
TORSDOF 1
ENDMDL
MODEL 3
REMARK VINA RESULT:      -4.7      0.913      2.609
REMARK  1 active torsions:
REMARK  status: ('A' for Active; 'I' for Inactive)
REMARK    1  A    between atoms: C3_3  and  C6_6 
ROOT
HETATM    1  C1  UNL     1     -33.973  17.280  -4.772  1.00 20.00    -0.029 C 
HETATM    2  C2  UNL     1     -35.292  17.120  -4.626  1.00 20.00    -0.021 C 
HETATM    3  C4  UNL     1     -33.261  15.968  -4.839  1.00 20.00     0.046 C 
HETATM    4  C5  UNL     1     -35.682  15.661  -4.546  1.00 20.00    -0.015 C 
HETATM    5  C6  UNL     1     -34.406  14.977  -5.158  1.00 20.00     0.046 C 
HETATM    6  C7  UNL     1     -36.978  15.396  -5.322  1.00 20.00     0.020 C 
HETATM    7  C8  UNL     1     -35.917  15.313  -3.062  1.00 20.00     0.020 C 
HETATM    8  C9  UNL     1     -34.475  14.762  -6.685  1.00 20.00     0.026 C 
ENDROOT
BRANCH   5   9
HETATM    9  C3  UNL     1     -34.132  13.629  -4.543  1.00 20.00     0.228 C 
HETATM   10  O10 UNL     1     -34.796  12.639  -4.836  1.00 20.00    -0.279 OA
HETATM   11 CL11 UNL     1     -32.808  13.680  -3.418  1.00 20.00    -0.043 Cl
ENDBRANCH   5   9
TORSDOF 1
ENDMDL
MODEL 4
REMARK VINA RESULT:      -4.7      1.575      2.747
REMARK  1 active torsions:
REMARK  status: ('A' for Active; 'I' for Inactive)
REMARK    1  A    between atoms: C3_3  and  C6_6 
ROOT
HETATM    1  C1  UNL     1     -34.663  15.874  -2.241  1.00 20.00    -0.029 C 
HETATM    2  C2  UNL     1     -35.760  16.409  -2.784  1.00 20.00    -0.021 C 
HETATM    3  C4  UNL     1     -34.071  14.816  -3.113  1.00 20.00     0.046 C 
HETATM    4  C5  UNL     1     -36.103  15.773  -4.113  1.00 20.00    -0.015 C 
HETATM    5  C6  UNL     1     -34.731  15.101  -4.484  1.00 20.00     0.046 C 
HETATM    6  C7  UNL     1     -36.584  16.828  -5.118  1.00 20.00     0.020 C 
HETATM    7  C8  UNL     1     -37.242  14.762  -3.877  1.00 20.00     0.020 C 
HETATM    8  C9  UNL     1     -33.792  15.997  -5.319  1.00 20.00     0.026 C 
ENDROOT
BRANCH   5   9
HETATM    9  C3  UNL     1     -34.915  13.823  -5.263  1.00 20.00     0.228 C 
HETATM   10  O10 UNL     1     -34.793  12.722  -4.735  1.00 20.00    -0.279 OA
HETATM   11 CL11 UNL     1     -35.302  14.124  -6.931  1.00 20.00    -0.043 Cl
ENDBRANCH   5   9
TORSDOF 1
ENDMDL
MODEL 5
REMARK VINA RESULT:      -4.6      2.465      3.556
REMARK  1 active torsions:
REMARK  status: ('A' for Active; 'I' for Inactive)
REMARK    1  A    between atoms: C3_3  and  C6_6 
ROOT
HETATM    1  C1  UNL     1     -33.401  13.639  -3.735  1.00 20.00    -0.029 C 
HETATM    2  C2  UNL     1     -34.704  13.535  -4.011  1.00 20.00    -0.021 C 
HETATM    3  C4  UNL     1     -32.960  15.065  -3.670  1.00 20.00     0.046 C 
HETATM    4  C5  UNL     1     -35.354  14.887  -4.204  1.00 20.00    -0.015 C 
HETATM    5  C6  UNL     1     -34.300  15.825  -3.511  1.00 20.00     0.046 C 
HETATM    6  C7  UNL     1     -36.748  14.921  -3.566  1.00 20.00     0.020 C 
HETATM    7  C8  UNL     1     -35.498  15.134  -5.719  1.00 20.00     0.020 C 
HETATM    8  C9  UNL     1     -34.562  16.073  -2.011  1.00 20.00     0.026 C 
ENDROOT
BRANCH   5   9
HETATM    9  C3  UNL     1     -34.225  17.180  -4.167  1.00 20.00     0.228 C 
HETATM   10  O10 UNL     1     -33.309  17.479  -4.928  1.00 20.00    -0.279 OA
HETATM   11 CL11 UNL     1     -35.554  18.202  -3.711  1.00 20.00    -0.043 Cl
ENDBRANCH   5   9
TORSDOF 1
ENDMDL
MODEL 6
REMARK VINA RESULT:      -4.5      2.165      3.227
REMARK  1 active torsions:
REMARK  status: ('A' for Active; 'I' for Inactive)
REMARK    1  A    between atoms: C3_3  and  C6_6 
ROOT
HETATM    1  C1  UNL     1     -34.065  15.536  -6.783  1.00 20.00    -0.029 C 
HETATM    2  C2  UNL     1     -34.809  14.519  -6.339  1.00 20.00    -0.021 C 
HETATM    3  C4  UNL     1     -33.828  16.556  -5.717  1.00 20.00     0.046 C 
HETATM    4  C5  UNL     1     -35.219  14.703  -4.895  1.00 20.00    -0.015 C 
HETATM    5  C6  UNL     1     -34.174  15.779  -4.424  1.00 20.00     0.046 C 
HETATM    6  C7  UNL     1     -35.148  13.374  -4.131  1.00 20.00     0.020 C 
HETATM    7  C8  UNL     1     -36.676  15.206  -4.874  1.00 20.00     0.020 C 
HETATM    8  C9  UNL     1     -32.879  15.187  -3.830  1.00 20.00     0.026 C 
ENDROOT
BRANCH   5   9
HETATM    9  C3  UNL     1     -34.743  16.707  -3.381  1.00 20.00     0.228 C 
HETATM   10  O10 UNL     1     -35.148  17.830  -3.668  1.00 20.00    -0.279 OA
HETATM   11 CL11 UNL     1     -34.741  15.991  -1.797  1.00 20.00    -0.043 Cl
ENDBRANCH   5   9
TORSDOF 1
ENDMDL
MODEL 7
REMARK VINA RESULT:      -4.5      1.832      2.958
REMARK  1 active torsions:
REMARK  status: ('A' for Active; 'I' for Inactive)
REMARK    1  A    between atoms: C3_3  and  C6_6 
ROOT
HETATM    1  C1  UNL     1     -35.711  14.835  -7.409  1.00 20.00    -0.029 C 
HETATM    2  C2  UNL     1     -36.676  15.048  -6.510  1.00 20.00    -0.021 C 
HETATM    3  C4  UNL     1     -34.351  14.992  -6.810  1.00 20.00     0.046 C 
HETATM    4  C5  UNL     1     -36.117  15.409  -5.152  1.00 20.00    -0.015 C 
HETATM    5  C6  UNL     1     -34.638  14.896  -5.292  1.00 20.00     0.046 C 
HETATM    6  C7  UNL     1     -36.919  14.734  -4.032  1.00 20.00     0.020 C 
HETATM    7  C8  UNL     1     -36.227  16.938  -4.984  1.00 20.00     0.020 C 
HETATM    8  C9  UNL     1     -34.428  13.439  -4.830  1.00 20.00     0.026 C 
ENDROOT
BRANCH   5   9
HETATM    9  C3  UNL     1     -33.665  15.742  -4.511  1.00 20.00     0.228 C 
HETATM   10  O10 UNL     1     -32.856  16.477  -5.070  1.00 20.00    -0.279 OA
HETATM   11 CL11 UNL     1     -33.847  15.533  -2.795  1.00 20.00    -0.043 Cl
ENDBRANCH   5   9
TORSDOF 1
ENDMDL
MODEL 8
REMARK VINA RESULT:      -4.4      2.447      3.644
REMARK  1 active torsions:
REMARK  status: ('A' for Active; 'I' for Inactive)
REMARK    1  A    between atoms: C3_3  and  C6_6 
ROOT
HETATM    1  C1  UNL     1     -34.368  13.331  -4.935  1.00 20.00    -0.029 C 
HETATM    2  C2  UNL     1     -34.655  13.687  -3.679  1.00 20.00    -0.021 C 
HETATM    3  C4  UNL     1     -34.598  14.453  -5.894  1.00 20.00     0.046 C 
HETATM    4  C5  UNL     1     -35.153  15.112  -3.592  1.00 20.00    -0.015 C 
HETATM    5  C6  UNL     1     -34.646  15.689  -4.964  1.00 20.00     0.046 C 
HETATM    6  C7  UNL     1     -34.579  15.819  -2.357  1.00 20.00     0.020 C 
HETATM    7  C8  UNL     1     -36.689  15.072  -3.468  1.00 20.00     0.020 C 
HETATM    8  C9  UNL     1     -33.243  16.328  -4.902  1.00 20.00     0.026 C 
ENDROOT
BRANCH   5   9
HETATM    9  C3  UNL     1     -35.576  16.738  -5.518  1.00 20.00     0.228 C 
HETATM   10  O10 UNL     1     -35.603  17.880  -5.068  1.00 20.00    -0.279 OA
HETATM   11 CL11 UNL     1     -36.552  16.125  -6.819  1.00 20.00    -0.043 Cl
ENDBRANCH   5   9
TORSDOF 1
ENDMDL
MODEL 9
REMARK VINA RESULT:      -4.4      2.085      2.861
REMARK  1 active torsions:
REMARK  status: ('A' for Active; 'I' for Inactive)
REMARK    1  A    between atoms: C3_3  and  C6_6 
ROOT
HETATM    1  C1  UNL     1     -33.767  17.293  -4.857  1.00 20.00    -0.029 C 
HETATM    2  C2  UNL     1     -33.205  16.086  -4.968  1.00 20.00    -0.021 C 
HETATM    3  C4  UNL     1     -35.211  17.200  -4.483  1.00 20.00     0.046 C 
HETATM    4  C5  UNL     1     -34.195  14.972  -4.708  1.00 20.00    -0.015 C 
HETATM    5  C6  UNL     1     -35.328  15.752  -3.947  1.00 20.00     0.046 C 
HETATM    6  C7  UNL     1     -33.549  13.842  -3.897  1.00 20.00     0.020 C 
HETATM    7  C8  UNL     1     -34.643  14.407  -6.071  1.00 20.00     0.020 C 
HETATM    8  C9  UNL     1     -35.163  15.769  -2.413  1.00 20.00     0.026 C 
ENDROOT
BRANCH   5   9
HETATM    9  C3  UNL     1     -36.697  15.189  -4.230  1.00 20.00     0.228 C 
HETATM   10  O10 UNL     1     -37.078  14.137  -3.725  1.00 20.00    -0.279 OA
HETATM   11 CL11 UNL     1     -37.606  16.193  -5.318  1.00 20.00    -0.043 Cl
ENDBRANCH   5   9
TORSDOF 1
ENDMDL
