MODEL 1
REMARK VINA RESULT:      -4.8      0.000      0.000
REMARK  1 active torsions:
REMARK  status: ('A' for Active; 'I' for Inactive)
REMARK    1  A    between atoms: C2_2  and  C3_3 
ROOT
HETATM    1  C1  UNL     1     -33.887  16.235  -3.298  1.00 20.00     0.050 C 
HETATM    2  C2  UNL     1     -33.626  15.351  -4.266  1.00 20.00     0.082 C 
HETATM    3  C4  UNL     1     -34.449  15.902  -1.955  1.00 20.00     0.071 C 
HETATM    4  C5  UNL     1     -34.023  18.201  -2.221  1.00 20.00     0.179 C 
HETATM    5  C6  UNL     1     -33.983  17.108  -1.166  1.00 20.00     0.012 C 
HETATM    6  C8  UNL     1     -34.830  17.411   0.056  1.00 20.00     0.012 C 
HETATM    7  O10 UNL     1     -33.590  17.585  -3.446  1.00 20.00    -0.355 OA
ENDROOT
BRANCH   2   8
HETATM    8  C3  UNL     1     -33.888  13.901  -4.062  1.00 20.00     0.147 C 
HETATM    9  C7  UNL     1     -35.254  13.400  -4.448  1.00 20.00     0.096 C 
HETATM   10  O9  UNL     1     -33.031  13.137  -3.622  1.00 20.00    -0.294 OA
ENDBRANCH   2   8
TORSDOF 1
ENDMDL
MODEL 2
REMARK VINA RESULT:      -4.2      1.242      1.323
REMARK  1 active torsions:
REMARK  status: ('A' for Active; 'I' for Inactive)
REMARK    1  A    between atoms: C2_2  and  C3_3 
ROOT
HETATM    1  C1  UNL     1     -34.010  16.812  -2.811  1.00 20.00     0.050 C 
HETATM    2  C2  UNL     1     -33.785  16.112  -3.928  1.00 20.00     0.082 C 
HETATM    3  C4  UNL     1     -34.722  16.301  -1.602  1.00 20.00     0.071 C 
HETATM    4  C5  UNL     1     -33.978  18.519  -1.353  1.00 20.00     0.179 C 
HETATM    5  C6  UNL     1     -34.171  17.242  -0.551  1.00 20.00     0.012 C 
HETATM    6  C8  UNL     1     -35.071  17.413   0.658  1.00 20.00     0.012 C 
HETATM    7  O10 UNL     1     -33.526  18.105  -2.653  1.00 20.00    -0.355 OA
ENDROOT
BRANCH   2   8
HETATM    8  C3  UNL     1     -34.252  14.705  -4.050  1.00 20.00     0.147 C 
HETATM    9  C7  UNL     1     -33.256  13.630  -3.706  1.00 20.00     0.096 C 
HETATM   10  O9  UNL     1     -35.399  14.424  -4.389  1.00 20.00    -0.294 OA
ENDBRANCH   2   8
TORSDOF 1
ENDMDL
MODEL 3
REMARK VINA RESULT:      -4.1     10.923     12.016
REMARK  1 active torsions:
REMARK  status: ('A' for Active; 'I' for Inactive)
REMARK    1  A    between atoms: C2_2  and  C3_3 
ROOT
HETATM    1  C1  UNL     1     -33.603   5.980   3.340  1.00 20.00     0.050 C 
HETATM    2  C2  UNL     1     -32.941   6.612   2.366  1.00 20.00     0.082 C 
HETATM    3  C4  UNL     1     -33.522   6.314   4.794  1.00 20.00     0.071 C 
HETATM    4  C5  UNL     1     -34.990   4.531   4.348  1.00 20.00     0.179 C 
HETATM    5  C6  UNL     1     -34.831   5.724   5.275  1.00 20.00     0.012 C 
HETATM    6  C8  UNL     1     -34.839   5.356   6.747  1.00 20.00     0.012 C 
HETATM    7  O10 UNL     1     -34.504   4.959   3.065  1.00 20.00    -0.355 OA
ENDROOT
BRANCH   2   8
HETATM    8  C3  UNL     1     -32.033   7.748   2.677  1.00 20.00     0.147 C 
HETATM    9  C7  UNL     1     -32.162   8.973   1.810  1.00 20.00     0.096 C 
HETATM   10  O9  UNL     1     -31.232   7.710   3.607  1.00 20.00    -0.294 OA
ENDBRANCH   2   8
TORSDOF 1
ENDMDL
MODEL 4
REMARK VINA RESULT:      -4.0      1.813      2.059
REMARK  1 active torsions:
REMARK  status: ('A' for Active; 'I' for Inactive)
REMARK    1  A    between atoms: C2_2  and  C3_3 
ROOT
HETATM    1  C1  UNL     1     -35.873  15.713  -3.223  1.00 20.00     0.050 C 
HETATM    2  C2  UNL     1     -36.259  14.835  -4.154  1.00 20.00     0.082 C 
HETATM    3  C4  UNL     1     -34.500  15.805  -2.642  1.00 20.00     0.071 C 
HETATM    4  C5  UNL     1     -35.971  17.416  -1.763  1.00 20.00     0.179 C 
HETATM    5  C6  UNL     1     -34.513  17.238  -2.153  1.00 20.00     0.012 C 
HETATM    6  C8  UNL     1     -33.542  17.512  -1.019  1.00 20.00     0.012 C 
HETATM    7  O10 UNL     1     -36.734  16.692  -2.742  1.00 20.00    -0.355 OA
ENDROOT
BRANCH   2   8
HETATM    8  C3  UNL     1     -35.301  13.840  -4.704  1.00 20.00     0.147 C 
HETATM    9  C7  UNL     1     -34.557  14.236  -5.952  1.00 20.00     0.096 C 
HETATM   10  O9  UNL     1     -35.101  12.755  -4.162  1.00 20.00    -0.294 OA
ENDBRANCH   2   8
TORSDOF 1
ENDMDL
MODEL 5
REMARK VINA RESULT:      -3.9      1.763      2.934
REMARK  1 active torsions:
REMARK  status: ('A' for Active; 'I' for Inactive)
REMARK    1  A    between atoms: C2_2  and  C3_3 
ROOT
HETATM    1  C1  UNL     1     -33.797  16.311  -3.762  1.00 20.00     0.050 C 
HETATM    2  C2  UNL     1     -33.883  15.189  -3.040  1.00 20.00     0.082 C 
HETATM    3  C4  UNL     1     -33.749  16.374  -5.254  1.00 20.00     0.071 C 
HETATM    4  C5  UNL     1     -33.684  18.500  -4.248  1.00 20.00     0.179 C 
HETATM    5  C6  UNL     1     -34.234  17.791  -5.475  1.00 20.00     0.012 C 
HETATM    6  C8  UNL     1     -33.777  18.402  -6.787  1.00 20.00     0.012 C 
HETATM    7  O10 UNL     1     -33.807  17.565  -3.164  1.00 20.00    -0.355 OA
ENDROOT
BRANCH   2   8
HETATM    8  C3  UNL     1     -33.941  13.860  -3.704  1.00 20.00     0.147 C 
HETATM    9  C7  UNL     1     -35.279  13.433  -4.245  1.00 20.00     0.096 C 
HETATM   10  O9  UNL     1     -32.947  13.149  -3.832  1.00 20.00    -0.294 OA
ENDBRANCH   2   8
TORSDOF 1
ENDMDL
MODEL 6
REMARK VINA RESULT:      -3.9      2.675      3.114
REMARK  1 active torsions:
REMARK  status: ('A' for Active; 'I' for Inactive)
REMARK    1  A    between atoms: C2_2  and  C3_3 
ROOT
HETATM    1  C1  UNL     1     -35.430  15.302  -4.015  1.00 20.00     0.050 C 
HETATM    2  C2  UNL     1     -36.347  14.752  -4.817  1.00 20.00     0.082 C 
HETATM    3  C4  UNL     1     -35.727  16.121  -2.801  1.00 20.00     0.071 C 
HETATM    4  C5  UNL     1     -33.421  15.850  -3.177  1.00 20.00     0.179 C 
HETATM    5  C6  UNL     1     -34.427  15.953  -2.043  1.00 20.00     0.012 C 
HETATM    6  C8  UNL     1     -34.132  17.078  -1.068  1.00 20.00     0.012 C 
HETATM    7  O10 UNL     1     -34.071  15.099  -4.216  1.00 20.00    -0.355 OA
ENDROOT
BRANCH   2   8
HETATM    8  C3  UNL     1     -37.799  14.925  -4.544  1.00 20.00     0.147 C 
HETATM    9  C7  UNL     1     -38.504  16.015  -5.305  1.00 20.00     0.096 C 
HETATM   10  O9  UNL     1     -38.406  14.204  -3.756  1.00 20.00    -0.294 OA
ENDBRANCH   2   8
TORSDOF 1
ENDMDL
MODEL 7
REMARK VINA RESULT:      -3.8     12.563     14.296
REMARK  1 active torsions:
REMARK  status: ('A' for Active; 'I' for Inactive)
REMARK    1  A    between atoms: C2_2  and  C3_3 
ROOT
HETATM    1  C1  UNL     1     -42.609   4.459  -2.744  1.00 20.00     0.050 C 
HETATM    2  C2  UNL     1     -42.998   3.445  -3.524  1.00 20.00     0.082 C 
HETATM    3  C4  UNL     1     -41.725   4.335  -1.547  1.00 20.00     0.071 C 
HETATM    4  C5  UNL     1     -42.378   6.554  -1.972  1.00 20.00     0.179 C 
HETATM    5  C6  UNL     1     -41.194   5.750  -1.461  1.00 20.00     0.012 C 
HETATM    6  C8  UNL     1     -40.738   6.155  -0.071  1.00 20.00     0.012 C 
HETATM    7  O10 UNL     1     -42.960   5.773  -3.028  1.00 20.00    -0.355 OA
ENDROOT
BRANCH   2   8
HETATM    8  C3  UNL     1     -42.555   2.055  -3.241  1.00 20.00     0.147 C 
HETATM    9  C7  UNL     1     -41.323   1.578  -3.962  1.00 20.00     0.096 C 
HETATM   10  O9  UNL     1     -43.143   1.331  -2.440  1.00 20.00    -0.294 OA
ENDBRANCH   2   8
TORSDOF 1
ENDMDL
MODEL 8
REMARK VINA RESULT:      -3.8      1.557      4.645
REMARK  1 active torsions:
REMARK  status: ('A' for Active; 'I' for Inactive)
REMARK    1  A    between atoms: C2_2  and  C3_3 
ROOT
HETATM    1  C1  UNL     1     -34.648  15.026  -3.472  1.00 20.00     0.050 C 
HETATM    2  C2  UNL     1     -34.458  15.755  -2.367  1.00 20.00     0.082 C 
HETATM    3  C4  UNL     1     -35.065  15.568  -4.800  1.00 20.00     0.071 C 
HETATM    4  C5  UNL     1     -34.733  13.239  -4.828  1.00 20.00     0.179 C 
HETATM    5  C6  UNL     1     -34.558  14.467  -5.707  1.00 20.00     0.012 C 
HETATM    6  C8  UNL     1     -35.289  14.374  -7.034  1.00 20.00     0.012 C 
HETATM    7  O10 UNL     1     -34.405  13.658  -3.493  1.00 20.00    -0.355 OA
ENDROOT
BRANCH   2   8
HETATM    8  C3  UNL     1     -34.658  17.228  -2.385  1.00 20.00     0.147 C 
HETATM    9  C7  UNL     1     -36.017  17.731  -1.977  1.00 20.00     0.096 C 
HETATM   10  O9  UNL     1     -33.758  18.007  -2.691  1.00 20.00    -0.294 OA
ENDBRANCH   2   8
TORSDOF 1
ENDMDL
MODEL 9
REMARK VINA RESULT:      -3.7      1.860      4.640
REMARK  1 active torsions:
REMARK  status: ('A' for Active; 'I' for Inactive)
REMARK    1  A    between atoms: C2_2  and  C3_3 
ROOT
HETATM    1  C1  UNL     1     -34.354  16.374  -2.193  1.00 20.00     0.050 C 
HETATM    2  C2  UNL     1     -34.502  16.650  -0.894  1.00 20.00     0.082 C 
HETATM    3  C4  UNL     1     -34.019  17.372  -3.253  1.00 20.00     0.071 C 
HETATM    4  C5  UNL     1     -34.245  15.187  -4.096  1.00 20.00     0.179 C 
HETATM    5  C6  UNL     1     -33.433  16.454  -4.306  1.00 20.00     0.012 C 
HETATM    6  C8  UNL     1     -33.517  17.003  -5.719  1.00 20.00     0.012 C 
HETATM    7  O10 UNL     1     -34.443  15.075  -2.677  1.00 20.00    -0.355 OA
ENDROOT
BRANCH   2   8
HETATM    8  C3  UNL     1     -34.334  18.038  -0.387  1.00 20.00     0.147 C 
HETATM    9  C7  UNL     1     -32.943  18.448   0.015  1.00 20.00     0.096 C 
HETATM   10  O9  UNL     1     -35.274  18.827  -0.320  1.00 20.00    -0.294 OA
ENDBRANCH   2   8
TORSDOF 1
ENDMDL
