MODEL 1
REMARK VINA RESULT:      -5.4      0.000      0.000
REMARK  3 active torsions:
REMARK  status: ('A' for Active; 'I' for Inactive)
REMARK    1  A    between atoms: C1_1  and  C7_7 
REMARK    2  A    between atoms: C2_2  and  C9_9 
REMARK    3  A    between atoms: C9_9  and  C10_10 
ROOT
HETATM    1  C3  UNL     1     -34.748   5.392   5.674  1.00 20.00     0.128 C 
HETATM    2  C4  UNL     1     -35.329   4.688   4.476  1.00 20.00     0.079 C 
HETATM    3  C5  UNL     1     -33.578   6.271   5.309  1.00 20.00     0.095 C 
HETATM    4  C6  UNL     1     -34.651   5.423   3.325  1.00 20.00     0.025 C 
HETATM    5  C7  UNL     1     -33.283   5.818   3.878  1.00 20.00     0.072 C 
HETATM    6  O11 UNL     1     -35.175   5.265   6.814  1.00 20.00    -0.298 OA
ENDROOT
BRANCH   5   7
HETATM    7  C1  UNL     1     -32.643   6.870   3.084  1.00 20.00    -0.101 C 
HETATM    8  C2  UNL     1     -32.116   7.732   2.435  1.00 20.00    -0.106 C 
BRANCH   8   9
HETATM    9  C9  UNL     1     -31.477   8.787   1.636  1.00 20.00     0.093 C 
BRANCH   9  10
HETATM   10  C10 UNL     1     -32.494   9.624   0.861  1.00 20.00     0.007 C 
HETATM   11  C8  UNL     1     -32.968   8.949  -0.420  1.00 20.00     0.006 C 
ENDBRANCH   9  10
ENDBRANCH   8   9
ENDBRANCH   5   7
TORSDOF 3
ENDMDL
MODEL 2
REMARK VINA RESULT:      -5.0     10.375     11.865
REMARK  3 active torsions:
REMARK  status: ('A' for Active; 'I' for Inactive)
REMARK    1  A    between atoms: C1_1  and  C7_7 
REMARK    2  A    between atoms: C2_2  and  C9_9 
REMARK    3  A    between atoms: C9_9  and  C10_10 
ROOT
HETATM    1  C3  UNL     1     -34.504  13.601  -4.763  1.00 20.00     0.128 C 
HETATM    2  C4  UNL     1     -34.483  14.744  -5.742  1.00 20.00     0.079 C 
HETATM    3  C5  UNL     1     -34.124  14.034  -3.369  1.00 20.00     0.095 C 
HETATM    4  C6  UNL     1     -34.373  15.947  -4.813  1.00 20.00     0.025 C 
HETATM    5  C7  UNL     1     -33.566  15.435  -3.621  1.00 20.00     0.072 C 
HETATM    6  O11 UNL     1     -34.796  12.450  -5.064  1.00 20.00    -0.298 OA
ENDROOT
BRANCH   5   7
HETATM    7  C1  UNL     1     -33.695  16.302  -2.446  1.00 20.00    -0.101 C 
HETATM    8  C2  UNL     1     -33.799  17.010  -1.482  1.00 20.00    -0.106 C 
BRANCH   8   9
HETATM    9  C9  UNL     1     -33.927  17.881  -0.306  1.00 20.00     0.093 C 
BRANCH   9  10
HETATM   10  C10 UNL     1     -32.983  19.083  -0.370  1.00 20.00     0.007 C 
HETATM   11  C8  UNL     1     -31.805  18.967   0.589  1.00 20.00     0.006 C 
ENDBRANCH   9  10
ENDBRANCH   8   9
ENDBRANCH   5   7
TORSDOF 3
ENDMDL
MODEL 3
REMARK VINA RESULT:      -4.9     10.532     11.526
REMARK  3 active torsions:
REMARK  status: ('A' for Active; 'I' for Inactive)
REMARK    1  A    between atoms: C1_1  and  C7_7 
REMARK    2  A    between atoms: C2_2  and  C9_9 
REMARK    3  A    between atoms: C9_9  and  C10_10 
ROOT
HETATM    1  C3  UNL     1     -35.071  13.579  -4.186  1.00 20.00     0.128 C 
HETATM    2  C4  UNL     1     -36.432  14.207  -4.334  1.00 20.00     0.079 C 
HETATM    3  C5  UNL     1     -34.152  14.403  -3.321  1.00 20.00     0.095 C 
HETATM    4  C6  UNL     1     -36.391  15.292  -3.265  1.00 20.00     0.025 C 
HETATM    5  C7  UNL     1     -34.924  15.718  -3.211  1.00 20.00     0.072 C 
HETATM    6  O11 UNL     1     -34.748  12.520  -4.710  1.00 20.00    -0.298 OA
ENDROOT
BRANCH   5   7
HETATM    7  C1  UNL     1     -34.601  16.451  -1.984  1.00 20.00    -0.101 C 
HETATM    8  C2  UNL     1     -34.334  17.052  -0.979  1.00 20.00    -0.106 C 
BRANCH   8   9
HETATM    9  C9  UNL     1     -34.012  17.787   0.252  1.00 20.00     0.093 C 
BRANCH   9  10
HETATM   10  C10 UNL     1     -33.126  19.004  -0.014  1.00 20.00     0.007 C 
HETATM   11  C8  UNL     1     -31.803  18.954   0.739  1.00 20.00     0.006 C 
ENDBRANCH   9  10
ENDBRANCH   8   9
ENDBRANCH   5   7
TORSDOF 3
ENDMDL
MODEL 4
REMARK VINA RESULT:      -4.9     10.368     11.722
REMARK  3 active torsions:
REMARK  status: ('A' for Active; 'I' for Inactive)
REMARK    1  A    between atoms: C1_1  and  C7_7 
REMARK    2  A    between atoms: C2_2  and  C9_9 
REMARK    3  A    between atoms: C9_9  and  C10_10 
ROOT
HETATM    1  C3  UNL     1     -34.496  13.605  -4.759  1.00 20.00     0.128 C 
HETATM    2  C4  UNL     1     -34.451  14.754  -5.732  1.00 20.00     0.079 C 
HETATM    3  C5  UNL     1     -34.145  14.030  -3.356  1.00 20.00     0.095 C 
HETATM    4  C6  UNL     1     -34.358  15.952  -4.794  1.00 20.00     0.025 C 
HETATM    5  C7  UNL     1     -33.578  15.431  -3.588  1.00 20.00     0.072 C 
HETATM    6  O11 UNL     1     -34.784  12.457  -5.072  1.00 20.00    -0.298 OA
ENDROOT
BRANCH   5   7
HETATM    7  C1  UNL     1     -33.730  16.292  -2.412  1.00 20.00    -0.101 C 
HETATM    8  C2  UNL     1     -33.853  16.997  -1.447  1.00 20.00    -0.106 C 
BRANCH   8   9
HETATM    9  C9  UNL     1     -34.005  17.863  -0.269  1.00 20.00     0.093 C 
BRANCH   9  10
HETATM   10  C10 UNL     1     -35.154  17.415   0.634  1.00 20.00     0.007 C 
HETATM   11  C8  UNL     1     -35.008  17.903   2.070  1.00 20.00     0.006 C 
ENDBRANCH   9  10
ENDBRANCH   8   9
ENDBRANCH   5   7
TORSDOF 3
ENDMDL
MODEL 5
REMARK VINA RESULT:      -4.8     10.639     11.951
REMARK  3 active torsions:
REMARK  status: ('A' for Active; 'I' for Inactive)
REMARK    1  A    between atoms: C1_1  and  C7_7 
REMARK    2  A    between atoms: C2_2  and  C9_9 
REMARK    3  A    between atoms: C9_9  and  C10_10 
ROOT
HETATM    1  C3  UNL     1     -34.872  14.460  -5.641  1.00 20.00     0.128 C 
HETATM    2  C4  UNL     1     -34.465  13.218  -4.893  1.00 20.00     0.079 C 
HETATM    3  C5  UNL     1     -35.135  15.623  -4.718  1.00 20.00     0.095 C 
HETATM    4  C6  UNL     1     -34.194  13.771  -3.498  1.00 20.00     0.025 C 
HETATM    5  C7  UNL     1     -35.173  14.935  -3.353  1.00 20.00     0.072 C 
HETATM    6  O11 UNL     1     -34.978  14.519  -6.859  1.00 20.00    -0.298 OA
ENDROOT
BRANCH   5   7
HETATM    7  C1  UNL     1     -34.803  15.843  -2.264  1.00 20.00    -0.101 C 
HETATM    8  C2  UNL     1     -34.498  16.586  -1.372  1.00 20.00    -0.106 C 
BRANCH   8   9
HETATM    9  C9  UNL     1     -34.127  17.499  -0.281  1.00 20.00     0.093 C 
BRANCH   9  10
HETATM   10  C10 UNL     1     -33.087  18.531  -0.718  1.00 20.00     0.007 C 
HETATM   11  C8  UNL     1     -32.091  18.875   0.383  1.00 20.00     0.006 C 
ENDBRANCH   9  10
ENDBRANCH   8   9
ENDBRANCH   5   7
TORSDOF 3
ENDMDL
MODEL 6
REMARK VINA RESULT:      -4.5     10.339     11.568
REMARK  3 active torsions:
REMARK  status: ('A' for Active; 'I' for Inactive)
REMARK    1  A    between atoms: C1_1  and  C7_7 
REMARK    2  A    between atoms: C2_2  and  C9_9 
REMARK    3  A    between atoms: C9_9  and  C10_10 
ROOT
HETATM    1  C3  UNL     1     -34.492  18.204   1.302  1.00 20.00     0.128 C 
HETATM    2  C4  UNL     1     -33.340  19.076   0.877  1.00 20.00     0.079 C 
HETATM    3  C5  UNL     1     -34.897  17.228   0.226  1.00 20.00     0.095 C 
HETATM    4  C6  UNL     1     -32.867  18.371  -0.388  1.00 20.00     0.025 C 
HETATM    5  C7  UNL     1     -34.137  17.768  -0.986  1.00 20.00     0.072 C 
HETATM    6  O11 UNL     1     -35.039  18.280   2.395  1.00 20.00    -0.298 OA
ENDROOT
BRANCH   5   7
HETATM    7  C1  UNL     1     -33.849  16.721  -1.970  1.00 20.00    -0.101 C 
HETATM    8  C2  UNL     1     -33.611  15.863  -2.776  1.00 20.00    -0.106 C 
BRANCH   8   9
HETATM    9  C9  UNL     1     -33.324  14.813  -3.764  1.00 20.00     0.093 C 
BRANCH   9  10
HETATM   10  C10 UNL     1     -34.331  13.665  -3.697  1.00 20.00     0.007 C 
HETATM   11  C8  UNL     1     -35.743  14.086  -4.085  1.00 20.00     0.006 C 
ENDBRANCH   9  10
ENDBRANCH   8   9
ENDBRANCH   5   7
TORSDOF 3
ENDMDL
MODEL 7
REMARK VINA RESULT:      -4.4     10.408     11.796
REMARK  3 active torsions:
REMARK  status: ('A' for Active; 'I' for Inactive)
REMARK    1  A    between atoms: C1_1  and  C7_7 
REMARK    2  A    between atoms: C2_2  and  C9_9 
REMARK    3  A    between atoms: C9_9  and  C10_10 
ROOT
HETATM    1  C3  UNL     1     -33.078  18.827   2.451  1.00 20.00     0.128 C 
HETATM    2  C4  UNL     1     -31.867  19.251   1.662  1.00 20.00     0.079 C 
HETATM    3  C5  UNL     1     -34.108  18.137   1.592  1.00 20.00     0.095 C 
HETATM    4  C6  UNL     1     -32.078  18.509   0.347  1.00 20.00     0.025 C 
HETATM    5  C7  UNL     1     -33.596  18.446   0.185  1.00 20.00     0.072 C 
HETATM    6  O11 UNL     1     -33.212  19.023   3.653  1.00 20.00    -0.298 OA
ENDROOT
BRANCH   5   7
HETATM    7  C1  UNL     1     -34.011  17.434  -0.791  1.00 20.00    -0.101 C 
HETATM    8  C2  UNL     1     -34.351  16.606  -1.591  1.00 20.00    -0.106 C 
BRANCH   8   9
HETATM    9  C9  UNL     1     -34.766  15.589  -2.567  1.00 20.00     0.093 C 
BRANCH   9  10
HETATM   10  C10 UNL     1     -33.602  15.110  -3.435  1.00 20.00     0.007 C 
HETATM   11  C8  UNL     1     -33.701  13.634  -3.802  1.00 20.00     0.006 C 
ENDBRANCH   9  10
ENDBRANCH   8   9
ENDBRANCH   5   7
TORSDOF 3
ENDMDL
MODEL 8
REMARK VINA RESULT:      -4.3      9.707     11.300
REMARK  3 active torsions:
REMARK  status: ('A' for Active; 'I' for Inactive)
REMARK    1  A    between atoms: C1_1  and  C7_7 
REMARK    2  A    between atoms: C2_2  and  C9_9 
REMARK    3  A    between atoms: C9_9  and  C10_10 
ROOT
HETATM    1  C3  UNL     1     -42.621   5.040   0.446  1.00 20.00     0.128 C 
HETATM    2  C4  UNL     1     -41.296   5.689   0.141  1.00 20.00     0.079 C 
HETATM    3  C5  UNL     1     -43.044   4.071  -0.628  1.00 20.00     0.095 C 
HETATM    4  C6  UNL     1     -40.792   4.835  -1.016  1.00 20.00     0.025 C 
HETATM    5  C7  UNL     1     -42.060   4.402  -1.751  1.00 20.00     0.072 C 
HETATM    6  O11 UNL     1     -43.280   5.275   1.452  1.00 20.00    -0.298 OA
ENDROOT
BRANCH   5   7
HETATM    7  C1  UNL     1     -41.827   3.259  -2.638  1.00 20.00    -0.101 C 
HETATM    8  C2  UNL     1     -41.638   2.322  -3.364  1.00 20.00    -0.106 C 
BRANCH   8   9
HETATM    9  C9  UNL     1     -41.406   1.178  -4.257  1.00 20.00     0.093 C 
BRANCH   9  10
HETATM   10  C10 UNL     1     -41.997  -0.119  -3.703  1.00 20.00     0.007 C 
HETATM   11  C8  UNL     1     -41.185  -1.352  -4.079  1.00 20.00     0.006 C 
ENDBRANCH   9  10
ENDBRANCH   8   9
ENDBRANCH   5   7
TORSDOF 3
ENDMDL
MODEL 9
REMARK VINA RESULT:      -4.3      9.693     11.298
REMARK  3 active torsions:
REMARK  status: ('A' for Active; 'I' for Inactive)
REMARK    1  A    between atoms: C1_1  and  C7_7 
REMARK    2  A    between atoms: C2_2  and  C9_9 
REMARK    3  A    between atoms: C9_9  and  C10_10 
ROOT
HETATM    1  C3  UNL     1     -40.883   5.991  -0.597  1.00 20.00     0.128 C 
HETATM    2  C4  UNL     1     -41.883   6.706  -1.467  1.00 20.00     0.079 C 
HETATM    3  C5  UNL     1     -40.804   4.518  -0.908  1.00 20.00     0.095 C 
HETATM    4  C6  UNL     1     -42.179   5.653  -2.529  1.00 20.00     0.025 C 
HETATM    5  C7  UNL     1     -42.034   4.321  -1.795  1.00 20.00     0.072 C 
HETATM    6  O11 UNL     1     -40.212   6.543   0.266  1.00 20.00    -0.298 OA
ENDROOT
BRANCH   5   7
HETATM    7  C1  UNL     1     -41.879   3.191  -2.715  1.00 20.00    -0.101 C 
HETATM    8  C2  UNL     1     -41.753   2.264  -3.468  1.00 20.00    -0.106 C 
BRANCH   8   9
HETATM    9  C9  UNL     1     -41.598   1.133  -4.393  1.00 20.00     0.093 C 
BRANCH   9  10
HETATM   10  C10 UNL     1     -41.959  -0.202  -3.742  1.00 20.00     0.007 C 
HETATM   11  C8  UNL     1     -41.001  -1.326  -4.116  1.00 20.00     0.006 C 
ENDBRANCH   9  10
ENDBRANCH   8   9
ENDBRANCH   5   7
TORSDOF 3
ENDMDL
