MODEL 1
REMARK VINA RESULT:      -3.7      0.000      0.000
REMARK  1 active torsions:
REMARK  status: ('A' for Active; 'I' for Inactive)
REMARK    1  A    between atoms: C6_6  and  N7_7 
ROOT
HETATM    1  C1  UNL     1     -34.176   5.464   3.261  1.00 20.00     0.284 C 
HETATM    2  C2  UNL     1     -35.477   5.065   3.943  1.00 20.00     0.106 C 
HETATM    3  C3  UNL     1     -33.528   5.963   5.483  1.00 20.00     0.280 C 
HETATM    4  C4  UNL     1     -33.539   7.087   6.511  1.00 20.00     0.055 C 
HETATM    5  N7  UNL     1     -33.548   6.486   4.109  1.00 20.00     0.102 N 
HETATM    6  S8  UNL     1     -35.028   4.936   5.687  1.00 20.00    -0.132 SA
ENDROOT
BRANCH   5   7
HETATM    7  C6  UNL     1     -32.216   6.831   3.620  1.00 20.00     0.269 C 
HETATM    8  C5  UNL     1     -32.293   7.768   2.464  1.00 20.00     0.037 C 
ENDBRANCH   5   7
TORSDOF 1
ENDMDL
MODEL 2
REMARK VINA RESULT:      -3.4     11.422     12.071
REMARK  1 active torsions:
REMARK  status: ('A' for Active; 'I' for Inactive)
REMARK    1  A    between atoms: C6_6  and  N7_7 
ROOT
HETATM    1  C1  UNL     1     -36.083  15.656  -3.273  1.00 20.00     0.284 C 
HETATM    2  C2  UNL     1     -36.614  14.466  -4.059  1.00 20.00     0.106 C 
HETATM    3  C3  UNL     1     -33.994  14.788  -3.974  1.00 20.00     0.280 C 
HETATM    4  C4  UNL     1     -32.906  13.805  -3.561  1.00 20.00     0.055 C 
HETATM    5  N7  UNL     1     -34.737  15.292  -2.809  1.00 20.00     0.102 N 
HETATM    6  S8  UNL     1     -35.202  13.941  -5.054  1.00 20.00    -0.132 SA
ENDROOT
BRANCH   5   7
HETATM    7  C6  UNL     1     -34.076  16.425  -2.168  1.00 20.00     0.269 C 
HETATM    8  C5  UNL     1     -34.607  16.651  -0.794  1.00 20.00     0.037 C 
ENDBRANCH   5   7
TORSDOF 1
ENDMDL
MODEL 3
REMARK VINA RESULT:      -3.4     11.999     12.979
REMARK  1 active torsions:
REMARK  status: ('A' for Active; 'I' for Inactive)
REMARK    1  A    between atoms: C6_6  and  N7_7 
ROOT
HETATM    1  C1  UNL     1     -33.324  16.204  -5.019  1.00 20.00     0.284 C 
HETATM    2  C2  UNL     1     -33.570  17.703  -4.921  1.00 20.00     0.106 C 
HETATM    3  C3  UNL     1     -34.657  16.173  -3.062  1.00 20.00     0.280 C 
HETATM    4  C4  UNL     1     -34.560  16.269  -1.545  1.00 20.00     0.055 C 
HETATM    5  N7  UNL     1     -33.407  15.670  -3.652  1.00 20.00     0.102 N 
HETATM    6  S8  UNL     1     -34.945  17.839  -3.760  1.00 20.00    -0.132 SA
ENDROOT
BRANCH   5   7
HETATM    7  C6  UNL     1     -33.333  14.212  -3.651  1.00 20.00     0.269 C 
HETATM    8  C5  UNL     1     -34.597  13.609  -4.163  1.00 20.00     0.037 C 
ENDBRANCH   5   7
TORSDOF 1
ENDMDL
MODEL 4
REMARK VINA RESULT:      -3.3     11.746     12.802
REMARK  1 active torsions:
REMARK  status: ('A' for Active; 'I' for Inactive)
REMARK    1  A    between atoms: C6_6  and  N7_7 
ROOT
HETATM    1  C1  UNL     1     -34.267  14.002  -3.521  1.00 20.00     0.284 C 
HETATM    2  C2  UNL     1     -34.477  13.199  -4.798  1.00 20.00     0.106 C 
HETATM    3  C3  UNL     1     -34.565  15.832  -4.994  1.00 20.00     0.280 C 
HETATM    4  C4  UNL     1     -33.793  16.765  -5.918  1.00 20.00     0.055 C 
HETATM    5  N7  UNL     1     -33.708  15.301  -3.924  1.00 20.00     0.102 N 
HETATM    6  S8  UNL     1     -35.179  14.398  -5.950  1.00 20.00    -0.132 SA
ENDROOT
BRANCH   5   7
HETATM    7  C6  UNL     1     -33.607  16.206  -2.784  1.00 20.00     0.269 C 
HETATM    8  C5  UNL     1     -34.786  16.071  -1.882  1.00 20.00     0.037 C 
ENDBRANCH   5   7
TORSDOF 1
ENDMDL
MODEL 5
REMARK VINA RESULT:      -3.3     11.683     13.361
REMARK  1 active torsions:
REMARK  status: ('A' for Active; 'I' for Inactive)
REMARK    1  A    between atoms: C6_6  and  N7_7 
ROOT
HETATM    1  C1  UNL     1     -33.264  15.306  -3.650  1.00 20.00     0.284 C 
HETATM    2  C2  UNL     1     -33.372  13.789  -3.715  1.00 20.00     0.106 C 
HETATM    3  C3  UNL     1     -34.547  15.169  -5.635  1.00 20.00     0.280 C 
HETATM    4  C4  UNL     1     -34.405  15.048  -7.147  1.00 20.00     0.055 C 
HETATM    5  N7  UNL     1     -33.363  15.798  -5.031  1.00 20.00     0.102 N 
HETATM    6  S8  UNL     1     -34.700  13.501  -4.902  1.00 20.00    -0.132 SA
ENDROOT
BRANCH   5   7
HETATM    7  C6  UNL     1     -33.421  17.256  -5.067  1.00 20.00     0.269 C 
HETATM    8  C5  UNL     1     -33.859  17.810  -3.755  1.00 20.00     0.037 C 
ENDBRANCH   5   7
TORSDOF 1
ENDMDL
MODEL 6
REMARK VINA RESULT:      -3.2     12.239     13.338
REMARK  1 active torsions:
REMARK  status: ('A' for Active; 'I' for Inactive)
REMARK    1  A    between atoms: C6_6  and  N7_7 
ROOT
HETATM    1  C1  UNL     1     -33.824  16.840  -5.207  1.00 20.00     0.284 C 
HETATM    2  C2  UNL     1     -34.562  16.618  -6.520  1.00 20.00     0.106 C 
HETATM    3  C3  UNL     1     -34.280  14.535  -4.921  1.00 20.00     0.280 C 
HETATM    4  C4  UNL     1     -35.334  13.581  -4.372  1.00 20.00     0.055 C 
HETATM    5  N7  UNL     1     -34.339  15.845  -4.257  1.00 20.00     0.102 N 
HETATM    6  S8  UNL     1     -34.588  14.822  -6.701  1.00 20.00    -0.132 SA
ENDROOT
BRANCH   5   7
HETATM    7  C6  UNL     1     -33.589  15.874  -3.005  1.00 20.00     0.269 C 
HETATM    8  C5  UNL     1     -34.472  16.221  -1.856  1.00 20.00     0.037 C 
ENDBRANCH   5   7
TORSDOF 1
ENDMDL
MODEL 7
REMARK VINA RESULT:      -3.1     11.996     13.539
REMARK  1 active torsions:
REMARK  status: ('A' for Active; 'I' for Inactive)
REMARK    1  A    between atoms: C6_6  and  N7_7 
ROOT
HETATM    1  C1  UNL     1     -34.491  13.845  -5.155  1.00 20.00     0.284 C 
HETATM    2  C2  UNL     1     -34.475  14.087  -3.653  1.00 20.00     0.106 C 
HETATM    3  C3  UNL     1     -33.456  15.974  -5.195  1.00 20.00     0.280 C 
HETATM    4  C4  UNL     1     -33.778  17.462  -5.253  1.00 20.00     0.055 C 
HETATM    5  N7  UNL     1     -34.526  15.166  -5.798  1.00 20.00     0.102 N 
HETATM    6  S8  UNL     1     -33.310  15.451  -3.448  1.00 20.00    -0.132 SA
ENDROOT
BRANCH   5   7
HETATM    7  C6  UNL     1     -34.393  15.050  -7.247  1.00 20.00     0.269 C 
HETATM    8  C5  UNL     1     -35.634  14.495  -7.859  1.00 20.00     0.037 C 
ENDBRANCH   5   7
TORSDOF 1
ENDMDL
MODEL 8
REMARK VINA RESULT:      -3.1     11.670     12.368
REMARK  1 active torsions:
REMARK  status: ('A' for Active; 'I' for Inactive)
REMARK    1  A    between atoms: C6_6  and  N7_7 
ROOT
HETATM    1  C1  UNL     1     -35.410  13.967  -4.532  1.00 20.00     0.284 C 
HETATM    2  C2  UNL     1     -33.960  13.567  -4.302  1.00 20.00     0.106 C 
HETATM    3  C3  UNL     1     -34.790  15.808  -3.179  1.00 20.00     0.280 C 
HETATM    4  C4  UNL     1     -34.714  16.254  -1.724  1.00 20.00     0.055 C 
HETATM    5  N7  UNL     1     -35.817  14.774  -3.373  1.00 20.00     0.102 N 
HETATM    6  S8  UNL     1     -33.190  15.075  -3.676  1.00 20.00    -0.132 SA
ENDROOT
BRANCH   5   7
HETATM    7  C6  UNL     1     -37.151  15.335  -3.564  1.00 20.00     0.269 C 
HETATM    8  C5  UNL     1     -37.168  16.310  -4.692  1.00 20.00     0.037 C 
ENDBRANCH   5   7
TORSDOF 1
ENDMDL
MODEL 9
REMARK VINA RESULT:      -3.1     11.989     13.392
REMARK  1 active torsions:
REMARK  status: ('A' for Active; 'I' for Inactive)
REMARK    1  A    between atoms: C6_6  and  N7_7 
ROOT
HETATM    1  C1  UNL     1     -35.891  15.343  -3.782  1.00 20.00     0.284 C 
HETATM    2  C2  UNL     1     -36.396  16.665  -4.343  1.00 20.00     0.106 C 
HETATM    3  C3  UNL     1     -34.510  15.414  -5.705  1.00 20.00     0.280 C 
HETATM    4  C4  UNL     1     -34.478  15.006  -7.172  1.00 20.00     0.055 C 
HETATM    5  N7  UNL     1     -35.412  14.552  -4.925  1.00 20.00     0.102 N 
HETATM    6  S8  UNL     1     -35.145  17.123  -5.561  1.00 20.00    -0.132 SA
ENDROOT
BRANCH   5   7
HETATM    7  C6  UNL     1     -34.767  13.321  -4.480  1.00 20.00     0.269 C 
HETATM    8  C5  UNL     1     -33.470  13.607  -3.804  1.00 20.00     0.037 C 
ENDBRANCH   5   7
TORSDOF 1
ENDMDL
