MODEL 1
REMARK VINA RESULT:      -4.5      0.000      0.000
REMARK  2 active torsions:
REMARK  status: ('A' for Active; 'I' for Inactive)
REMARK    1  A    between atoms: C3_3  and  C4_4 
REMARK    2  A    between atoms: C3_3  and  O10_10 
ROOT
HETATM    1  C1  UNL     1     -33.956  16.027  -3.943  1.00 20.00    -0.066 A 
HETATM    2  C2  UNL     1     -33.403  16.939  -4.714  1.00 20.00     0.016 C 
HETATM    3  C4  UNL     1     -33.980  14.665  -3.573  1.00 20.00     0.126 A 
HETATM    4  C5  UNL     1     -34.917  15.777  -2.932  1.00 20.00    -0.008 A 
HETATM    5  C6  UNL     1     -36.376  15.823  -3.298  1.00 20.00     0.021 C 
HETATM    6  C7  UNL     1     -34.612  16.209  -1.524  1.00 20.00     0.021 C 
ENDROOT
BRANCH   3   7
HETATM    7  C3  UNL     1     -34.505  13.739  -4.578  1.00 20.00     0.267 C 
HETATM    8  O9  UNL     1     -35.055  12.679  -4.313  1.00 20.00    -0.264 OA
BRANCH   7   9
HETATM    9  O10 UNL     1     -34.282  14.246  -5.824  1.00 20.00    -0.326 OA
HETATM   10  C8  UNL     1     -35.422  14.274  -6.689  1.00 20.00     0.213 C 
ENDBRANCH   7   9
ENDBRANCH   3   7
TORSDOF 2
ENDMDL
MODEL 2
REMARK VINA RESULT:      -4.4      1.510      2.740
REMARK  2 active torsions:
REMARK  status: ('A' for Active; 'I' for Inactive)
REMARK    1  A    between atoms: C3_3  and  C4_4 
REMARK    2  A    between atoms: C3_3  and  O10_10 
ROOT
HETATM    1  C1  UNL     1     -33.650  15.093  -4.205  1.00 20.00    -0.066 A 
HETATM    2  C2  UNL     1     -32.489  14.754  -3.689  1.00 20.00     0.016 C 
HETATM    3  C4  UNL     1     -35.053  15.090  -4.037  1.00 20.00     0.126 A 
HETATM    4  C5  UNL     1     -34.310  15.711  -5.297  1.00 20.00    -0.008 A 
HETATM    5  C6  UNL     1     -34.349  14.988  -6.617  1.00 20.00     0.021 C 
HETATM    6  C7  UNL     1     -34.272  17.210  -5.407  1.00 20.00     0.021 C 
ENDROOT
BRANCH   3   7
HETATM    7  C3  UNL     1     -35.704  13.782  -4.128  1.00 20.00     0.267 C 
HETATM    8  O9  UNL     1     -35.106  12.728  -4.292  1.00 20.00    -0.264 OA
BRANCH   7   9
HETATM    9  O10 UNL     1     -37.054  13.937  -4.005  1.00 20.00    -0.326 OA
HETATM   10  C8  UNL     1     -37.485  15.220  -3.537  1.00 20.00     0.213 C 
ENDBRANCH   7   9
ENDBRANCH   3   7
TORSDOF 2
ENDMDL
MODEL 3
REMARK VINA RESULT:      -4.3      1.671      2.303
REMARK  2 active torsions:
REMARK  status: ('A' for Active; 'I' for Inactive)
REMARK    1  A    between atoms: C3_3  and  C4_4 
REMARK    2  A    between atoms: C3_3  and  O10_10 
ROOT
HETATM    1  C1  UNL     1     -34.031  15.336  -3.229  1.00 20.00    -0.066 A 
HETATM    2  C2  UNL     1     -32.835  15.148  -3.744  1.00 20.00     0.016 C 
HETATM    3  C4  UNL     1     -35.300  14.768  -2.978  1.00 20.00     0.126 A 
HETATM    4  C5  UNL     1     -34.886  16.243  -2.555  1.00 20.00    -0.008 A 
HETATM    5  C6  UNL     1     -35.434  17.419  -3.319  1.00 20.00     0.021 C 
HETATM    6  C7  UNL     1     -34.652  16.502  -1.092  1.00 20.00     0.021 C 
ENDROOT
BRANCH   3   7
HETATM    7  C3  UNL     1     -36.142  14.541  -4.153  1.00 20.00     0.267 C 
HETATM    8  O9  UNL     1     -35.772  14.712  -5.306  1.00 20.00    -0.264 OA
BRANCH   7   9
HETATM    9  O10 UNL     1     -37.376  14.118  -3.753  1.00 20.00    -0.326 OA
HETATM   10  C8  UNL     1     -38.388  15.130  -3.713  1.00 20.00     0.213 C 
ENDBRANCH   7   9
ENDBRANCH   3   7
TORSDOF 2
ENDMDL
MODEL 4
REMARK VINA RESULT:      -4.2     11.667     12.620
REMARK  2 active torsions:
REMARK  status: ('A' for Active; 'I' for Inactive)
REMARK    1  A    between atoms: C3_3  and  C4_4 
REMARK    2  A    between atoms: C3_3  and  O10_10 
ROOT
HETATM    1  C1  UNL     1     -33.897   6.147   5.520  1.00 20.00    -0.066 A 
HETATM    2  C2  UNL     1     -33.817   7.136   6.384  1.00 20.00     0.016 C 
HETATM    3  C4  UNL     1     -33.219   5.390   4.539  1.00 20.00     0.126 A 
HETATM    4  C5  UNL     1     -34.726   5.137   4.972  1.00 20.00    -0.008 A 
HETATM    5  C6  UNL     1     -35.845   5.545   4.050  1.00 20.00     0.021 C 
HETATM    6  C7  UNL     1     -35.012   3.912   5.796  1.00 20.00     0.021 C 
ENDROOT
BRANCH   3   7
HETATM    7  C3  UNL     1     -32.911   6.091   3.292  1.00 20.00     0.267 C 
HETATM    8  O9  UNL     1     -33.278   5.717   2.187  1.00 20.00    -0.264 OA
BRANCH   7   9
HETATM    9  O10 UNL     1     -32.165   7.200   3.565  1.00 20.00    -0.326 OA
HETATM   10  C8  UNL     1     -31.963   8.091   2.463  1.00 20.00     0.213 C 
ENDBRANCH   7   9
ENDBRANCH   3   7
TORSDOF 2
ENDMDL
MODEL 5
REMARK VINA RESULT:      -4.2      1.906      2.881
REMARK  2 active torsions:
REMARK  status: ('A' for Active; 'I' for Inactive)
REMARK    1  A    between atoms: C3_3  and  C4_4 
REMARK    2  A    between atoms: C3_3  and  O10_10 
ROOT
HETATM    1  C1  UNL     1     -35.298  14.774  -6.426  1.00 20.00    -0.066 A 
HETATM    2  C2  UNL     1     -35.526  14.399  -7.667  1.00 20.00     0.016 C 
HETATM    3  C4  UNL     1     -34.400  14.733  -5.337  1.00 20.00     0.126 A 
HETATM    4  C5  UNL     1     -35.795  15.493  -5.311  1.00 20.00    -0.008 A 
HETATM    5  C6  UNL     1     -36.946  14.912  -4.535  1.00 20.00     0.021 C 
HETATM    6  C7  UNL     1     -35.763  16.997  -5.350  1.00 20.00     0.021 C 
ENDROOT
BRANCH   3   7
HETATM    7  C3  UNL     1     -34.250  13.433  -4.681  1.00 20.00     0.267 C 
HETATM    8  O9  UNL     1     -34.795  12.406  -5.062  1.00 20.00    -0.264 OA
BRANCH   7   9
HETATM    9  O10 UNL     1     -33.424  13.559  -3.603  1.00 20.00    -0.326 OA
HETATM   10  C8  UNL     1     -32.623  14.746  -3.579  1.00 20.00     0.213 C 
ENDBRANCH   7   9
ENDBRANCH   3   7
TORSDOF 2
ENDMDL
MODEL 6
REMARK VINA RESULT:      -4.2      1.325      2.374
REMARK  2 active torsions:
REMARK  status: ('A' for Active; 'I' for Inactive)
REMARK    1  A    between atoms: C3_3  and  C4_4 
REMARK    2  A    between atoms: C3_3  and  O10_10 
ROOT
HETATM    1  C1  UNL     1     -34.754  16.024  -2.283  1.00 20.00    -0.066 A 
HETATM    2  C2  UNL     1     -34.336  16.614  -1.184  1.00 20.00     0.016 C 
HETATM    3  C4  UNL     1     -34.797  14.822  -3.024  1.00 20.00     0.126 A 
HETATM    4  C5  UNL     1     -35.467  16.183  -3.498  1.00 20.00    -0.008 A 
HETATM    5  C6  UNL     1     -34.831  16.980  -4.606  1.00 20.00     0.021 C 
HETATM    6  C7  UNL     1     -36.967  16.269  -3.448  1.00 20.00     0.021 C 
ENDROOT
BRANCH   3   7
HETATM    7  C3  UNL     1     -33.525  14.380  -3.598  1.00 20.00     0.267 C 
HETATM    8  O9  UNL     1     -32.479  15.007  -3.512  1.00 20.00    -0.264 OA
BRANCH   7   9
HETATM    9  O10 UNL     1     -33.703  13.183  -4.228  1.00 20.00    -0.326 OA
HETATM   10  C8  UNL     1     -34.788  13.135  -5.160  1.00 20.00     0.213 C 
ENDBRANCH   7   9
ENDBRANCH   3   7
TORSDOF 2
ENDMDL
MODEL 7
REMARK VINA RESULT:      -4.0      2.333      3.943
REMARK  2 active torsions:
REMARK  status: ('A' for Active; 'I' for Inactive)
REMARK    1  A    between atoms: C3_3  and  C4_4 
REMARK    2  A    between atoms: C3_3  and  O10_10 
ROOT
HETATM    1  C1  UNL     1     -34.240  15.577  -4.850  1.00 20.00    -0.066 A 
HETATM    2  C2  UNL     1     -33.917  16.222  -5.950  1.00 20.00     0.016 C 
HETATM    3  C4  UNL     1     -34.922  15.636  -3.615  1.00 20.00     0.126 A 
HETATM    4  C5  UNL     1     -34.134  14.358  -4.135  1.00 20.00    -0.008 A 
HETATM    5  C6  UNL     1     -32.809  13.998  -3.518  1.00 20.00     0.021 C 
HETATM    6  C7  UNL     1     -34.951  13.180  -4.591  1.00 20.00     0.021 C 
ENDROOT
BRANCH   3   7
HETATM    7  C3  UNL     1     -34.333  16.511  -2.601  1.00 20.00     0.267 C 
HETATM    8  O9  UNL     1     -33.581  17.442  -2.852  1.00 20.00    -0.264 OA
BRANCH   7   9
HETATM    9  O10 UNL     1     -34.753  16.121  -1.363  1.00 20.00    -0.326 OA
HETATM   10  C8  UNL     1     -34.610  17.100  -0.329  1.00 20.00     0.213 C 
ENDBRANCH   7   9
ENDBRANCH   3   7
TORSDOF 2
ENDMDL
MODEL 8
REMARK VINA RESULT:      -4.0      1.806      2.643
REMARK  2 active torsions:
REMARK  status: ('A' for Active; 'I' for Inactive)
REMARK    1  A    between atoms: C3_3  and  C4_4 
REMARK    2  A    between atoms: C3_3  and  O10_10 
ROOT
HETATM    1  C1  UNL     1     -34.116  15.552  -3.055  1.00 20.00    -0.066 A 
HETATM    2  C2  UNL     1     -34.525  16.117  -1.940  1.00 20.00     0.016 C 
HETATM    3  C4  UNL     1     -33.638  15.761  -4.368  1.00 20.00     0.126 A 
HETATM    4  C5  UNL     1     -33.860  14.327  -3.721  1.00 20.00    -0.008 A 
HETATM    5  C6  UNL     1     -35.031  13.486  -4.156  1.00 20.00     0.021 C 
HETATM    6  C7  UNL     1     -32.634  13.542  -3.341  1.00 20.00     0.021 C 
ENDROOT
BRANCH   3   7
HETATM    7  C3  UNL     1     -34.606  16.304  -5.322  1.00 20.00     0.267 C 
HETATM    8  O9  UNL     1     -35.695  16.764  -5.007  1.00 20.00    -0.264 OA
BRANCH   7   9
HETATM    9  O10 UNL     1     -34.102  16.211  -6.585  1.00 20.00    -0.326 OA
HETATM   10  C8  UNL     1     -34.566  15.095  -7.352  1.00 20.00     0.213 C 
ENDBRANCH   7   9
ENDBRANCH   3   7
TORSDOF 2
ENDMDL
MODEL 9
REMARK VINA RESULT:      -4.0      2.110      3.061
REMARK  2 active torsions:
REMARK  status: ('A' for Active; 'I' for Inactive)
REMARK    1  A    between atoms: C3_3  and  C4_4 
REMARK    2  A    between atoms: C3_3  and  O10_10 
ROOT
HETATM    1  C1  UNL     1     -34.552  15.138  -5.235  1.00 20.00    -0.066 A 
HETATM    2  C2  UNL     1     -34.035  15.862  -6.204  1.00 20.00     0.016 C 
HETATM    3  C4  UNL     1     -35.648  14.352  -4.817  1.00 20.00     0.126 A 
HETATM    4  C5  UNL     1     -34.363  14.630  -3.925  1.00 20.00    -0.008 A 
HETATM    5  C6  UNL     1     -34.454  15.583  -2.764  1.00 20.00     0.021 C 
HETATM    6  C7  UNL     1     -33.401  13.491  -3.725  1.00 20.00     0.021 C 
ENDROOT
BRANCH   3   7
HETATM    7  C3  UNL     1     -36.896  15.076  -4.570  1.00 20.00     0.267 C 
HETATM    8  O9  UNL     1     -37.115  16.216  -4.953  1.00 20.00    -0.264 OA
BRANCH   7   9
HETATM    9  O10 UNL     1     -37.748  14.284  -3.857  1.00 20.00    -0.326 OA
HETATM   10  C8  UNL     1     -39.121  14.687  -3.874  1.00 20.00     0.213 C 
ENDBRANCH   7   9
ENDBRANCH   3   7
TORSDOF 2
ENDMDL
