MODEL 1
REMARK VINA RESULT:      -5.2      0.000      0.000
REMARK  1 active torsions:
REMARK  status: ('A' for Active; 'I' for Inactive)
REMARK    1  A    between atoms: C3_3  and  C4_4 
ROOT
HETATM    1  C1  UNL     1     -35.010   5.597   3.404  1.00 20.00    -0.018 A 
HETATM    2  C2  UNL     1     -35.142   4.797   4.476  1.00 20.00    -0.025 A 
HETATM    3  C4  UNL     1     -33.927   6.446   4.040  1.00 20.00     0.084 A 
HETATM    4  C5  UNL     1     -34.013   5.460   5.239  1.00 20.00     0.018 A 
HETATM    5  C7  UNL     1     -34.390   6.073   6.579  1.00 20.00     0.015 C 
ENDROOT
BRANCH   3   6
HETATM    6  C3  UNL     1     -32.659   6.451   3.178  1.00 20.00     0.131 C 
HETATM    7  C6  UNL     1     -32.274   7.762   2.548  1.00 20.00     0.091 C 
HETATM    8  O8  UNL     1     -31.989   5.433   3.011  1.00 20.00    -0.298 OA
ENDBRANCH   3   6
TORSDOF 1
ENDMDL
MODEL 2
REMARK VINA RESULT:      -4.5      1.920      3.253
REMARK  1 active torsions:
REMARK  status: ('A' for Active; 'I' for Inactive)
REMARK    1  A    between atoms: C3_3  and  C4_4 
ROOT
HETATM    1  C1  UNL     1     -35.096   4.853   4.117  1.00 20.00    -0.018 A 
HETATM    2  C2  UNL     1     -34.837   5.657   3.072  1.00 20.00    -0.025 A 
HETATM    3  C4  UNL     1     -33.908   5.341   4.923  1.00 20.00     0.084 A 
HETATM    4  C5  UNL     1     -33.667   6.339   3.755  1.00 20.00     0.018 A 
HETATM    5  C7  UNL     1     -32.327   6.223   3.047  1.00 20.00     0.015 C 
ENDROOT
BRANCH   3   6
HETATM    6  C3  UNL     1     -34.358   5.891   6.281  1.00 20.00     0.131 C 
HETATM    7  C6  UNL     1     -33.681   7.147   6.761  1.00 20.00     0.091 C 
HETATM    8  O8  UNL     1     -35.230   5.333   6.947  1.00 20.00    -0.298 OA
ENDBRANCH   3   6
TORSDOF 1
ENDMDL
MODEL 3
REMARK VINA RESULT:      -4.2      1.754      3.449
REMARK  1 active torsions:
REMARK  status: ('A' for Active; 'I' for Inactive)
REMARK    1  A    between atoms: C3_3  and  C4_4 
ROOT
HETATM    1  C1  UNL     1     -34.893   4.900   3.806  1.00 20.00    -0.018 A 
HETATM    2  C2  UNL     1     -34.654   5.851   2.886  1.00 20.00    -0.025 A 
HETATM    3  C4  UNL     1     -33.796   5.377   4.737  1.00 20.00     0.084 A 
HETATM    4  C5  UNL     1     -33.586   6.533   3.718  1.00 20.00     0.018 A 
HETATM    5  C7  UNL     1     -32.206   6.618   3.084  1.00 20.00     0.015 C 
ENDROOT
BRANCH   3   6
HETATM    6  C3  UNL     1     -34.359   5.709   6.123  1.00 20.00     0.131 C 
HETATM    7  C6  UNL     1     -35.227   4.663   6.769  1.00 20.00     0.091 C 
HETATM    8  O8  UNL     1     -34.114   6.778   6.680  1.00 20.00    -0.298 OA
ENDBRANCH   3   6
TORSDOF 1
ENDMDL
MODEL 4
REMARK VINA RESULT:      -4.1     11.347     12.066
REMARK  1 active torsions:
REMARK  status: ('A' for Active; 'I' for Inactive)
REMARK    1  A    between atoms: C3_3  and  C4_4 
ROOT
HETATM    1  C1  UNL     1     -33.311  15.396  -4.065  1.00 20.00    -0.018 A 
HETATM    2  C2  UNL     1     -33.637  16.622  -3.619  1.00 20.00    -0.025 A 
HETATM    3  C4  UNL     1     -34.290  14.687  -3.150  1.00 20.00     0.084 A 
HETATM    4  C5  UNL     1     -34.734  16.110  -2.706  1.00 20.00     0.018 A 
HETATM    5  C7  UNL     1     -34.567  16.427  -1.228  1.00 20.00     0.015 C 
ENDROOT
BRANCH   3   6
HETATM    6  C3  UNL     1     -35.270  13.828  -3.957  1.00 20.00     0.131 C 
HETATM    7  C6  UNL     1     -36.641  14.403  -4.190  1.00 20.00     0.091 C 
HETATM    8  O8  UNL     1     -34.951  12.723  -4.394  1.00 20.00    -0.298 OA
ENDBRANCH   3   6
TORSDOF 1
ENDMDL
MODEL 5
REMARK VINA RESULT:      -3.9      1.877      3.530
REMARK  1 active torsions:
REMARK  status: ('A' for Active; 'I' for Inactive)
REMARK    1  A    between atoms: C3_3  and  C4_4 
ROOT
HETATM    1  C1  UNL     1     -32.562   7.076   4.022  1.00 20.00    -0.018 A 
HETATM    2  C2  UNL     1     -32.295   6.129   3.106  1.00 20.00    -0.025 A 
HETATM    3  C4  UNL     1     -33.941   6.530   4.338  1.00 20.00     0.084 A 
HETATM    4  C5  UNL     1     -33.591   5.382   3.350  1.00 20.00     0.018 A 
HETATM    5  C7  UNL     1     -34.509   5.238   2.146  1.00 20.00     0.015 C 
ENDROOT
BRANCH   3   6
HETATM    6  C3  UNL     1     -34.072   6.205   5.830  1.00 20.00     0.131 C 
HETATM    7  C6  UNL     1     -34.791   4.931   6.184  1.00 20.00     0.091 C 
HETATM    8  O8  UNL     1     -33.611   6.948   6.696  1.00 20.00    -0.298 OA
ENDBRANCH   3   6
TORSDOF 1
ENDMDL
MODEL 6
REMARK VINA RESULT:      -3.9      1.304      1.945
REMARK  1 active torsions:
REMARK  status: ('A' for Active; 'I' for Inactive)
REMARK    1  A    between atoms: C3_3  and  C4_4 
ROOT
HETATM    1  C1  UNL     1     -33.311   6.749   5.746  1.00 20.00    -0.018 A 
HETATM    2  C2  UNL     1     -34.455   6.425   6.374  1.00 20.00    -0.025 A 
HETATM    3  C4  UNL     1     -33.394   5.592   4.771  1.00 20.00     0.084 A 
HETATM    4  C5  UNL     1     -34.764   5.276   5.435  1.00 20.00     0.018 A 
HETATM    5  C7  UNL     1     -34.889   3.906   6.083  1.00 20.00     0.015 C 
ENDROOT
BRANCH   3   6
HETATM    6  C3  UNL     1     -33.375   6.093   3.323  1.00 20.00     0.131 C 
HETATM    7  C6  UNL     1     -32.308   7.094   2.968  1.00 20.00     0.091 C 
HETATM    8  O8  UNL     1     -34.190   5.696   2.491  1.00 20.00    -0.298 OA
ENDBRANCH   3   6
TORSDOF 1
ENDMDL
MODEL 7
REMARK VINA RESULT:      -3.7     11.307     12.500
REMARK  1 active torsions:
REMARK  status: ('A' for Active; 'I' for Inactive)
REMARK    1  A    between atoms: C3_3  and  C4_4 
ROOT
HETATM    1  C1  UNL     1     -33.992  13.655  -3.692  1.00 20.00    -0.018 A 
HETATM    2  C2  UNL     1     -34.452  13.207  -4.873  1.00 20.00    -0.025 A 
HETATM    3  C4  UNL     1     -34.344  15.101  -3.983  1.00 20.00     0.084 A 
HETATM    4  C5  UNL     1     -34.964  14.567  -5.306  1.00 20.00     0.018 A 
HETATM    5  C7  UNL     1     -34.367  15.121  -6.590  1.00 20.00     0.015 C 
ENDROOT
BRANCH   3   6
HETATM    6  C3  UNL     1     -35.278  15.664  -2.906  1.00 20.00     0.131 C 
HETATM    7  C6  UNL     1     -34.625  16.266  -1.691  1.00 20.00     0.091 C 
HETATM    8  O8  UNL     1     -36.502  15.625  -3.028  1.00 20.00    -0.298 OA
ENDBRANCH   3   6
TORSDOF 1
ENDMDL
MODEL 8
REMARK VINA RESULT:      -3.7     11.316     13.229
REMARK  1 active torsions:
REMARK  status: ('A' for Active; 'I' for Inactive)
REMARK    1  A    between atoms: C3_3  and  C4_4 
ROOT
HETATM    1  C1  UNL     1     -34.402  14.784  -6.969  1.00 20.00    -0.018 A 
HETATM    2  C2  UNL     1     -35.655  14.880  -7.447  1.00 20.00    -0.025 A 
HETATM    3  C4  UNL     1     -34.833  14.897  -5.520  1.00 20.00     0.084 A 
HETATM    4  C5  UNL     1     -36.288  14.909  -6.069  1.00 20.00     0.018 A 
HETATM    5  C7  UNL     1     -37.111  16.146  -5.745  1.00 20.00     0.015 C 
ENDROOT
BRANCH   3   6
HETATM    6  C3  UNL     1     -34.361  13.683  -4.712  1.00 20.00     0.131 C 
HETATM    7  C6  UNL     1     -33.259  13.920  -3.715  1.00 20.00     0.091 C 
HETATM    8  O8  UNL     1     -34.859  12.569  -4.870  1.00 20.00    -0.298 OA
ENDBRANCH   3   6
TORSDOF 1
ENDMDL
MODEL 9
REMARK VINA RESULT:      -3.6     11.581     12.846
REMARK  1 active torsions:
REMARK  status: ('A' for Active; 'I' for Inactive)
REMARK    1  A    between atoms: C3_3  and  C4_4 
ROOT
HETATM    1  C1  UNL     1     -34.551  14.950  -3.088  1.00 20.00    -0.018 A 
HETATM    2  C2  UNL     1     -33.429  15.688  -3.024  1.00 20.00    -0.025 A 
HETATM    3  C4  UNL     1     -34.775  15.228  -4.562  1.00 20.00     0.084 A 
HETATM    4  C5  UNL     1     -33.426  15.999  -4.508  1.00 20.00     0.018 A 
HETATM    5  C7  UNL     1     -33.488  17.474  -4.875  1.00 20.00     0.015 C 
ENDROOT
BRANCH   3   6
HETATM    6  C3  UNL     1     -34.846  13.921  -5.360  1.00 20.00     0.131 C 
HETATM    7  C6  UNL     1     -35.156  14.041  -6.828  1.00 20.00     0.091 C 
HETATM    8  O8  UNL     1     -34.657  12.828  -4.827  1.00 20.00    -0.298 OA
ENDBRANCH   3   6
TORSDOF 1
ENDMDL
