MODEL 1
REMARK VINA RESULT:      -5.1      0.000      0.000
REMARK  1 active torsions:
REMARK  status: ('A' for Active; 'I' for Inactive)
REMARK    1  A    between atoms: C3_3  and  C7_7 
ROOT
HETATM    1  C1  UNL     1     -35.993  15.787  -2.956  1.00 20.00    -0.020 C 
HETATM    2  C2  UNL     1     -36.219  15.629  -4.271  1.00 20.00    -0.086 C 
HETATM    3  C4  UNL     1     -35.123  15.257  -5.240  1.00 20.00     0.049 C 
HETATM    4  C5  UNL     1     -33.492  15.637  -3.336  1.00 20.00     0.023 C 
HETATM    5  C6  UNL     1     -34.640  15.644  -2.310  1.00 20.00     0.005 C 
HETATM    6  C7  UNL     1     -33.814  14.807  -4.578  1.00 20.00     0.091 C 
HETATM    7  C8  UNL     1     -37.586  15.808  -4.865  1.00 20.00     0.043 C 
HETATM    8  C9  UNL     1     -34.410  16.751  -1.279  1.00 20.00     0.014 C 
ENDROOT
BRANCH   6   9
HETATM    9  C3  UNL     1     -33.859  13.346  -4.231  1.00 20.00     0.177 C 
HETATM   10  O10 UNL     1     -34.888  12.730  -4.623  1.00 20.00    -0.648 OA
HETATM   11  O11 UNL     1     -32.857  12.924  -3.588  1.00 20.00    -0.648 OA
ENDBRANCH   6   9
TORSDOF 1
ENDMDL
MODEL 2
REMARK VINA RESULT:      -5.1      0.227      1.000
REMARK  1 active torsions:
REMARK  status: ('A' for Active; 'I' for Inactive)
REMARK    1  A    between atoms: C3_3  and  C7_7 
ROOT
HETATM    1  C1  UNL     1     -36.164  15.621  -2.955  1.00 20.00    -0.020 C 
HETATM    2  C2  UNL     1     -36.439  15.458  -4.261  1.00 20.00    -0.086 C 
HETATM    3  C4  UNL     1     -35.363  15.175  -5.283  1.00 20.00     0.049 C 
HETATM    4  C5  UNL     1     -33.678  15.659  -3.451  1.00 20.00     0.023 C 
HETATM    5  C6  UNL     1     -34.775  15.573  -2.373  1.00 20.00     0.005 C 
HETATM    6  C7  UNL     1     -33.997  14.817  -4.686  1.00 20.00     0.091 C 
HETATM    7  C8  UNL     1     -37.841  15.541  -4.790  1.00 20.00     0.043 C 
HETATM    8  C9  UNL     1     -34.580  16.686  -1.342  1.00 20.00     0.014 C 
ENDROOT
BRANCH   6   9
HETATM    9  C3  UNL     1     -33.918  13.354  -4.353  1.00 20.00     0.177 C 
HETATM   10  O10 UNL     1     -32.900  13.006  -3.693  1.00 20.00    -0.648 OA
HETATM   11  O11 UNL     1     -34.883  12.661  -4.781  1.00 20.00    -0.648 OA
ENDBRANCH   6   9
TORSDOF 1
ENDMDL
MODEL 3
REMARK VINA RESULT:      -4.9      1.205      3.121
REMARK  1 active torsions:
REMARK  status: ('A' for Active; 'I' for Inactive)
REMARK    1  A    between atoms: C3_3  and  C7_7 
ROOT
HETATM    1  C1  UNL     1     -33.686  16.636  -4.219  1.00 20.00    -0.020 C 
HETATM    2  C2  UNL     1     -34.200  16.341  -3.012  1.00 20.00    -0.086 C 
HETATM    3  C4  UNL     1     -35.301  15.323  -2.830  1.00 20.00     0.049 C 
HETATM    4  C5  UNL     1     -35.501  15.281  -5.357  1.00 20.00     0.023 C 
HETATM    5  C6  UNL     1     -34.158  16.019  -5.510  1.00 20.00     0.005 C 
HETATM    6  C7  UNL     1     -35.584  14.464  -4.069  1.00 20.00     0.091 C 
HETATM    7  C8  UNL     1     -33.708  17.007  -1.760  1.00 20.00     0.043 C 
HETATM    8  C9  UNL     1     -34.266  17.077  -6.610  1.00 20.00     0.014 C 
ENDROOT
BRANCH   6   9
HETATM    9  C3  UNL     1     -34.651  13.289  -4.137  1.00 20.00     0.177 C 
HETATM   10  O10 UNL     1     -33.809  13.215  -3.199  1.00 20.00    -0.648 OA
HETATM   11  O11 UNL     1     -34.831  12.527  -5.127  1.00 20.00    -0.648 OA
ENDBRANCH   6   9
TORSDOF 1
ENDMDL
MODEL 4
REMARK VINA RESULT:      -4.6      1.893      3.604
REMARK  1 active torsions:
REMARK  status: ('A' for Active; 'I' for Inactive)
REMARK    1  A    between atoms: C3_3  and  C7_7 
ROOT
HETATM    1  C1  UNL     1     -34.121  16.165  -6.594  1.00 20.00    -0.020 C 
HETATM    2  C2  UNL     1     -34.069  16.931  -5.491  1.00 20.00    -0.086 C 
HETATM    3  C4  UNL     1     -34.486  16.420  -4.132  1.00 20.00     0.049 C 
HETATM    4  C5  UNL     1     -35.378  14.367  -5.323  1.00 20.00     0.023 C 
HETATM    5  C6  UNL     1     -34.620  14.743  -6.610  1.00 20.00     0.005 C 
HETATM    6  C7  UNL     1     -34.702  14.903  -4.062  1.00 20.00     0.091 C 
HETATM    7  C8  UNL     1     -33.586  18.351  -5.537  1.00 20.00     0.043 C 
HETATM    8  C9  UNL     1     -35.509  14.494  -7.830  1.00 20.00     0.014 C 
ENDROOT
BRANCH   6   9
HETATM    9  C3  UNL     1     -33.407  14.183  -3.819  1.00 20.00     0.177 C 
HETATM   10  O10 UNL     1     -32.416  14.925  -3.572  1.00 20.00    -0.648 OA
HETATM   11  O11 UNL     1     -33.478  12.925  -3.895  1.00 20.00    -0.648 OA
ENDBRANCH   6   9
TORSDOF 1
ENDMDL
MODEL 5
REMARK VINA RESULT:      -4.6      1.491      1.903
REMARK  1 active torsions:
REMARK  status: ('A' for Active; 'I' for Inactive)
REMARK    1  A    between atoms: C3_3  and  C7_7 
ROOT
HETATM    1  C1  UNL     1     -35.249  16.965  -3.660  1.00 20.00    -0.020 C 
HETATM    2  C2  UNL     1     -34.747  17.052  -4.904  1.00 20.00    -0.086 C 
HETATM    3  C4  UNL     1     -33.834  15.997  -5.481  1.00 20.00     0.049 C 
HETATM    4  C5  UNL     1     -33.740  14.991  -3.156  1.00 20.00     0.023 C 
HETATM    5  C6  UNL     1     -34.940  15.842  -2.703  1.00 20.00     0.005 C 
HETATM    6  C7  UNL     1     -33.750  14.707  -4.658  1.00 20.00     0.091 C 
HETATM    7  C8  UNL     1     -35.069  18.207  -5.806  1.00 20.00     0.043 C 
HETATM    8  C9  UNL     1     -34.693  16.383  -1.293  1.00 20.00     0.014 C 
ENDROOT
BRANCH   6   9
HETATM    9  C3  UNL     1     -34.874  13.772  -5.002  1.00 20.00     0.177 C 
HETATM   10  O10 UNL     1     -34.986  12.764  -4.251  1.00 20.00    -0.648 OA
HETATM   11  O11 UNL     1     -35.563  14.117  -6.003  1.00 20.00    -0.648 OA
ENDBRANCH   6   9
TORSDOF 1
ENDMDL
MODEL 6
REMARK VINA RESULT:      -4.5      1.769      3.175
REMARK  1 active torsions:
REMARK  status: ('A' for Active; 'I' for Inactive)
REMARK    1  A    between atoms: C3_3  and  C7_7 
ROOT
HETATM    1  C1  UNL     1     -36.021  16.044  -2.927  1.00 20.00    -0.020 C 
HETATM    2  C2  UNL     1     -34.791  15.939  -2.396  1.00 20.00    -0.086 C 
HETATM    3  C4  UNL     1     -33.700  15.120  -3.043  1.00 20.00     0.049 C 
HETATM    4  C5  UNL     1     -35.478  14.241  -4.623  1.00 20.00     0.023 C 
HETATM    5  C6  UNL     1     -36.458  15.346  -4.188  1.00 20.00     0.005 C 
HETATM    6  C7  UNL     1     -34.015  14.655  -4.470  1.00 20.00     0.091 C 
HETATM    7  C8  UNL     1     -34.418  16.638  -1.121  1.00 20.00     0.043 C 
HETATM    8  C9  UNL     1     -37.863  14.763  -4.028  1.00 20.00     0.014 C 
ENDROOT
BRANCH   6   9
HETATM    9  C3  UNL     1     -33.667  15.717  -5.474  1.00 20.00     0.177 C 
HETATM   10  O10 UNL     1     -34.160  15.552  -6.624  1.00 20.00    -0.648 OA
HETATM   11  O11 UNL     1     -32.924  16.638  -5.035  1.00 20.00    -0.648 OA
ENDBRANCH   6   9
TORSDOF 1
ENDMDL
MODEL 7
REMARK VINA RESULT:      -4.5      1.312      3.167
REMARK  1 active torsions:
REMARK  status: ('A' for Active; 'I' for Inactive)
REMARK    1  A    between atoms: C3_3  and  C7_7 
ROOT
HETATM    1  C1  UNL     1     -35.361  16.195  -5.761  1.00 20.00    -0.020 C 
HETATM    2  C2  UNL     1     -34.425  16.562  -4.870  1.00 20.00    -0.086 C 
HETATM    3  C4  UNL     1     -34.286  15.893  -3.523  1.00 20.00     0.049 C 
HETATM    4  C5  UNL     1     -36.469  14.710  -4.031  1.00 20.00     0.023 C 
HETATM    5  C6  UNL     1     -36.383  15.115  -5.514  1.00 20.00     0.005 C 
HETATM    6  C7  UNL     1     -35.097  14.602  -3.367  1.00 20.00     0.091 C 
HETATM    7  C8  UNL     1     -33.447  17.664  -5.159  1.00 20.00     0.043 C 
HETATM    8  C9  UNL     1     -37.761  15.547  -6.018  1.00 20.00     0.014 C 
ENDROOT
BRANCH   6   9
HETATM    9  C3  UNL     1     -34.346  13.421  -3.913  1.00 20.00     0.177 C 
HETATM   10  O10 UNL     1     -33.097  13.452  -3.741  1.00 20.00    -0.648 OA
HETATM   11  O11 UNL     1     -35.066  12.550  -4.476  1.00 20.00    -0.648 OA
ENDBRANCH   6   9
TORSDOF 1
ENDMDL
MODEL 8
REMARK VINA RESULT:      -4.4      2.718      4.016
REMARK  1 active torsions:
REMARK  status: ('A' for Active; 'I' for Inactive)
REMARK    1  A    between atoms: C3_3  and  C7_7 
ROOT
HETATM    1  C1  UNL     1     -34.548  15.475  -2.364  1.00 20.00    -0.020 C 
HETATM    2  C2  UNL     1     -34.353  16.686  -1.814  1.00 20.00    -0.086 C 
HETATM    3  C4  UNL     1     -33.775  17.842  -2.593  1.00 20.00     0.049 C 
HETATM    4  C5  UNL     1     -33.277  16.179  -4.440  1.00 20.00     0.023 C 
HETATM    5  C6  UNL     1     -34.191  15.127  -3.785  1.00 20.00     0.005 C 
HETATM    6  C7  UNL     1     -33.691  17.612  -4.107  1.00 20.00     0.091 C 
HETATM    7  C8  UNL     1     -34.705  16.969  -0.382  1.00 20.00     0.043 C 
HETATM    8  C9  UNL     1     -33.533  13.747  -3.858  1.00 20.00     0.014 C 
ENDROOT
BRANCH   6   9
HETATM    9  C3  UNL     1     -34.992  17.947  -4.778  1.00 20.00     0.177 C 
HETATM   10  O10 UNL     1     -35.822  18.573  -4.062  1.00 20.00    -0.648 OA
HETATM   11  O11 UNL     1     -35.087  17.555  -5.974  1.00 20.00    -0.648 OA
ENDBRANCH   6   9
TORSDOF 1
ENDMDL
MODEL 9
REMARK VINA RESULT:      -4.4      1.327      1.398
REMARK  1 active torsions:
REMARK  status: ('A' for Active; 'I' for Inactive)
REMARK    1  A    between atoms: C3_3  and  C7_7 
ROOT
HETATM    1  C1  UNL     1     -35.939  16.421  -4.245  1.00 20.00    -0.020 C 
HETATM    2  C2  UNL     1     -36.552  15.649  -5.159  1.00 20.00    -0.086 C 
HETATM    3  C4  UNL     1     -35.801  14.649  -6.005  1.00 20.00     0.049 C 
HETATM    4  C5  UNL     1     -33.669  15.668  -5.085  1.00 20.00     0.023 C 
HETATM    5  C6  UNL     1     -34.456  16.401  -3.982  1.00 20.00     0.005 C 
HETATM    6  C7  UNL     1     -34.360  14.387  -5.551  1.00 20.00     0.091 C 
HETATM    7  C8  UNL     1     -38.032  15.729  -5.397  1.00 20.00     0.043 C 
HETATM    8  C9  UNL     1     -33.915  17.822  -3.813  1.00 20.00     0.014 C 
ENDROOT
BRANCH   6   9
HETATM    9  C3  UNL     1     -34.314  13.347  -4.468  1.00 20.00     0.177 C 
HETATM   10  O10 UNL     1     -35.355  12.643  -4.353  1.00 20.00    -0.648 OA
HETATM   11  O11 UNL     1     -33.237  13.315  -3.810  1.00 20.00    -0.648 OA
ENDBRANCH   6   9
TORSDOF 1
ENDMDL
