MODEL 1
REMARK VINA RESULT:      -5.3      0.000      0.000
REMARK  1 active torsions:
REMARK  status: ('A' for Active; 'I' for Inactive)
REMARK    1  A    between atoms: C4_4  and  O11_11 
ROOT
HETATM    1  C1  UNL     1     -34.551   5.738   6.474  1.00 20.00     0.034 C 
HETATM    2  C2  UNL     1     -33.603   6.616   6.086  1.00 20.00     0.003 C 
HETATM    3  C3  UNL     1     -34.739   4.733   4.251  1.00 20.00     0.017 C 
HETATM    4  C4  UNL     1     -34.972   4.660   5.577  1.00 20.00     0.062 C 
HETATM    5  C5  UNL     1     -32.464   7.262   2.812  1.00 20.00     0.004 C 
HETATM    6  C6  UNL     1     -33.241   6.005   2.471  1.00 20.00     0.065 C 
HETATM    7  C7  UNL     1     -34.062   5.966   3.740  1.00 20.00     0.045 C 
HETATM    8  C8  UNL     1     -32.986   6.410   4.739  1.00 20.00     0.139 C 
HETATM    9  C9  UNL     1     -31.865   8.099   1.730  1.00 20.00     0.065 C 
HETATM   10  N10 UNL     1     -32.359   7.572   4.080  1.00 20.00    -0.289 NA
ENDROOT
BRANCH   4  11
HETATM   11  O11 UNL     1     -35.646   3.627   6.182  1.00 20.00    -0.361 OA
HETATM   12  H22 UNL     1     -36.588   3.681   5.980  1.00 20.00     0.217 HD
ENDBRANCH   4  11
TORSDOF 1
ENDMDL
MODEL 2
REMARK VINA RESULT:      -4.9     11.666     13.100
REMARK  1 active torsions:
REMARK  status: ('A' for Active; 'I' for Inactive)
REMARK    1  A    between atoms: C4_4  and  O11_11 
ROOT
HETATM    1  C1  UNL     1     -34.423  14.533  -5.481  1.00 20.00     0.034 C 
HETATM    2  C2  UNL     1     -34.314  15.878  -5.488  1.00 20.00     0.003 C 
HETATM    3  C3  UNL     1     -34.448  14.402  -3.037  1.00 20.00     0.017 C 
HETATM    4  C4  UNL     1     -34.688  13.819  -4.229  1.00 20.00     0.062 C 
HETATM    5  C5  UNL     1     -33.756  18.017  -2.741  1.00 20.00     0.004 C 
HETATM    6  C6  UNL     1     -34.060  16.777  -1.924  1.00 20.00     0.065 C 
HETATM    7  C7  UNL     1     -33.878  15.785  -3.051  1.00 20.00     0.045 C 
HETATM    8  C8  UNL     1     -34.518  16.590  -4.188  1.00 20.00     0.139 C 
HETATM    9  C9  UNL     1     -33.272  19.263  -2.075  1.00 20.00     0.065 C 
HETATM   10  N10 UNL     1     -33.929  17.934  -4.036  1.00 20.00    -0.289 NA
ENDROOT
BRANCH   4  11
HETATM   11  O11 UNL     1     -35.141  12.531  -4.377  1.00 20.00    -0.361 OA
HETATM   12  H22 UNL     1     -35.985  12.420  -3.923  1.00 20.00     0.217 HD
ENDBRANCH   4  11
TORSDOF 1
ENDMDL
MODEL 3
REMARK VINA RESULT:      -4.8     11.864     13.710
REMARK  1 active torsions:
REMARK  status: ('A' for Active; 'I' for Inactive)
REMARK    1  A    between atoms: C4_4  and  O11_11 
ROOT
HETATM    1  C1  UNL     1     -34.285  14.553  -3.228  1.00 20.00     0.034 C 
HETATM    2  C2  UNL     1     -33.643  15.731  -3.370  1.00 20.00     0.003 C 
HETATM    3  C3  UNL     1     -35.061  14.530  -5.549  1.00 20.00     0.017 C 
HETATM    4  C4  UNL     1     -34.832  13.864  -4.399  1.00 20.00     0.062 C 
HETATM    5  C5  UNL     1     -33.743  17.932  -6.123  1.00 20.00     0.004 C 
HETATM    6  C6  UNL     1     -34.416  16.765  -6.820  1.00 20.00     0.065 C 
HETATM    7  C7  UNL     1     -34.760  15.996  -5.565  1.00 20.00     0.045 C 
HETATM    8  C8  UNL     1     -33.483  16.264  -4.759  1.00 20.00     0.139 C 
HETATM    9  C9  UNL     1     -33.651  19.263  -6.793  1.00 20.00     0.065 C 
HETATM   10  N10 UNL     1     -33.268  17.714  -4.923  1.00 20.00    -0.289 NA
ENDROOT
BRANCH   4  11
HETATM   11  O11 UNL     1     -35.127  12.536  -4.209  1.00 20.00    -0.361 OA
HETATM   12  H22 UNL     1     -34.731  12.220  -3.388  1.00 20.00     0.217 HD
ENDBRANCH   4  11
TORSDOF 1
ENDMDL
MODEL 4
REMARK VINA RESULT:      -4.5     11.703     12.710
REMARK  1 active torsions:
REMARK  status: ('A' for Active; 'I' for Inactive)
REMARK    1  A    between atoms: C4_4  and  O11_11 
ROOT
HETATM    1  C1  UNL     1     -33.327  13.969  -3.812  1.00 20.00     0.034 C 
HETATM    2  C2  UNL     1     -32.942  15.224  -3.501  1.00 20.00     0.003 C 
HETATM    3  C3  UNL     1     -35.710  14.509  -3.668  1.00 20.00     0.017 C 
HETATM    4  C4  UNL     1     -34.736  13.675  -4.085  1.00 20.00     0.062 C 
HETATM    5  C5  UNL     1     -34.962  17.902  -2.416  1.00 20.00     0.004 C 
HETATM    6  C6  UNL     1     -36.102  16.997  -2.841  1.00 20.00     0.065 C 
HETATM    7  C7  UNL     1     -35.292  15.722  -2.898  1.00 20.00     0.045 C 
HETATM    8  C8  UNL     1     -33.996  16.285  -3.494  1.00 20.00     0.139 C 
HETATM    9  C9  UNL     1     -35.239  19.182  -1.699  1.00 20.00     0.065 C 
HETATM   10  N10 UNL     1     -33.748  17.502  -2.698  1.00 20.00    -0.289 NA
ENDROOT
BRANCH   4  11
HETATM   11  O11 UNL     1     -34.968  12.488  -4.738  1.00 20.00    -0.361 OA
HETATM   12  H22 UNL     1     -35.222  12.656  -5.653  1.00 20.00     0.217 HD
ENDBRANCH   4  11
TORSDOF 1
ENDMDL
MODEL 5
REMARK VINA RESULT:      -4.5     12.075     13.482
REMARK  1 active torsions:
REMARK  status: ('A' for Active; 'I' for Inactive)
REMARK    1  A    between atoms: C4_4  and  O11_11 
ROOT
HETATM    1  C1  UNL     1     -34.025  14.032  -4.625  1.00 20.00     0.034 C 
HETATM    2  C2  UNL     1     -35.204  13.568  -4.163  1.00 20.00     0.003 C 
HETATM    3  C3  UNL     1     -34.864  16.315  -4.896  1.00 20.00     0.017 C 
HETATM    4  C4  UNL     1     -33.816  15.470  -4.805  1.00 20.00     0.062 C 
HETATM    5  C5  UNL     1     -38.298  15.256  -4.044  1.00 20.00     0.004 C 
HETATM    6  C6  UNL     1     -37.456  16.476  -4.366  1.00 20.00     0.065 C 
HETATM    7  C7  UNL     1     -36.235  15.719  -4.834  1.00 20.00     0.045 C 
HETATM    8  C8  UNL     1     -36.249  14.578  -3.809  1.00 20.00     0.139 C 
HETATM    9  C9  UNL     1     -39.788  15.347  -4.029  1.00 20.00     0.065 C 
HETATM   10  N10 UNL     1     -37.659  14.141  -3.797  1.00 20.00    -0.289 NA
ENDROOT
BRANCH   4  11
HETATM   11  O11 UNL     1     -32.504  15.860  -4.918  1.00 20.00    -0.361 OA
HETATM   12  H22 UNL     1     -32.140  16.063  -4.048  1.00 20.00     0.217 HD
ENDBRANCH   4  11
TORSDOF 1
ENDMDL
MODEL 6
REMARK VINA RESULT:      -4.4     12.430     13.761
REMARK  1 active torsions:
REMARK  status: ('A' for Active; 'I' for Inactive)
REMARK    1  A    between atoms: C4_4  and  O11_11 
ROOT
HETATM    1  C1  UNL     1     -34.090  15.805  -6.918  1.00 20.00     0.034 C 
HETATM    2  C2  UNL     1     -33.903  16.688  -5.915  1.00 20.00     0.003 C 
HETATM    3  C3  UNL     1     -35.394  14.274  -5.523  1.00 20.00     0.017 C 
HETATM    4  C4  UNL     1     -35.015  14.682  -6.751  1.00 20.00     0.062 C 
HETATM    5  C5  UNL     1     -34.717  16.295  -2.506  1.00 20.00     0.004 C 
HETATM    6  C6  UNL     1     -35.485  15.083  -3.000  1.00 20.00     0.065 C 
HETATM    7  C7  UNL     1     -34.809  14.995  -4.349  1.00 20.00     0.045 C 
HETATM    8  C8  UNL     1     -34.707  16.491  -4.668  1.00 20.00     0.139 C 
HETATM    9  C9  UNL     1     -34.569  16.552  -1.043  1.00 20.00     0.065 C 
HETATM   10  N10 UNL     1     -34.194  17.079  -3.415  1.00 20.00    -0.289 NA
ENDROOT
BRANCH   4  11
HETATM   11  O11 UNL     1     -35.410  14.073  -7.918  1.00 20.00    -0.361 OA
HETATM   12  H22 UNL     1     -34.652  13.669  -8.355  1.00 20.00     0.217 HD
ENDBRANCH   4  11
TORSDOF 1
ENDMDL
MODEL 7
REMARK VINA RESULT:      -4.4     10.113     11.029
REMARK  1 active torsions:
REMARK  status: ('A' for Active; 'I' for Inactive)
REMARK    1  A    between atoms: C4_4  and  O11_11 
ROOT
HETATM    1  C1  UNL     1     -42.114   6.713  -0.594  1.00 20.00     0.034 C 
HETATM    2  C2  UNL     1     -42.840   6.419  -1.693  1.00 20.00     0.003 C 
HETATM    3  C3  UNL     1     -40.758   4.683  -0.769  1.00 20.00     0.017 C 
HETATM    4  C4  UNL     1     -40.932   5.917  -0.255  1.00 20.00     0.062 C 
HETATM    5  C5  UNL     1     -42.826   3.428  -3.560  1.00 20.00     0.004 C 
HETATM    6  C6  UNL     1     -41.590   3.116  -2.739  1.00 20.00     0.065 C 
HETATM    7  C7  UNL     1     -41.831   4.157  -1.670  1.00 20.00     0.045 C 
HETATM    8  C8  UNL     1     -42.359   5.294  -2.553  1.00 20.00     0.139 C 
HETATM    9  C9  UNL     1     -43.417   2.395  -4.462  1.00 20.00     0.065 C 
HETATM   10  N10 UNL     1     -43.341   4.625  -3.429  1.00 20.00    -0.289 NA
ENDROOT
BRANCH   4  11
HETATM   11  O11 UNL     1     -40.071   6.504   0.641  1.00 20.00    -0.361 OA
HETATM   12  H22 UNL     1     -39.184   6.140   0.537  1.00 20.00     0.217 HD
ENDBRANCH   4  11
TORSDOF 1
ENDMDL
MODEL 8
REMARK VINA RESULT:      -4.3     12.288     13.447
REMARK  1 active torsions:
REMARK  status: ('A' for Active; 'I' for Inactive)
REMARK    1  A    between atoms: C4_4  and  O11_11 
ROOT
HETATM    1  C1  UNL     1     -35.073  13.741  -5.666  1.00 20.00     0.034 C 
HETATM    2  C2  UNL     1     -34.820  13.806  -4.343  1.00 20.00     0.003 C 
HETATM    3  C3  UNL     1     -34.289  16.023  -6.077  1.00 20.00     0.017 C 
HETATM    4  C4  UNL     1     -34.612  14.806  -6.560  1.00 20.00     0.062 C 
HETATM    5  C5  UNL     1     -33.869  16.631  -2.458  1.00 20.00     0.004 C 
HETATM    6  C6  UNL     1     -33.654  17.261  -3.820  1.00 20.00     0.065 C 
HETATM    7  C7  UNL     1     -34.447  16.241  -4.605  1.00 20.00     0.045 C 
HETATM    8  C8  UNL     1     -34.024  14.974  -3.852  1.00 20.00     0.139 C 
HETATM    9  C9  UNL     1     -33.764  17.455  -1.217  1.00 20.00     0.065 C 
HETATM   10  N10 UNL     1     -34.156  15.354  -2.432  1.00 20.00    -0.289 NA
ENDROOT
BRANCH   4  11
HETATM   11  O11 UNL     1     -34.588  14.479  -7.894  1.00 20.00    -0.361 OA
HETATM   12  H22 UNL     1     -35.452  14.153  -8.173  1.00 20.00     0.217 HD
ENDBRANCH   4  11
TORSDOF 1
ENDMDL
MODEL 9
REMARK VINA RESULT:      -4.3     10.157     11.006
REMARK  1 active torsions:
REMARK  status: ('A' for Active; 'I' for Inactive)
REMARK    1  A    between atoms: C4_4  and  O11_11 
ROOT
HETATM    1  C1  UNL     1     -41.398   7.403  -0.787  1.00 20.00     0.034 C 
HETATM    2  C2  UNL     1     -40.792   6.199  -0.839  1.00 20.00     0.003 C 
HETATM    3  C3  UNL     1     -43.351   6.638  -2.048  1.00 20.00     0.017 C 
HETATM    4  C4  UNL     1     -42.784   7.553  -1.236  1.00 20.00     0.062 C 
HETATM    5  C5  UNL     1     -41.770   3.363  -2.691  1.00 20.00     0.004 C 
HETATM    6  C6  UNL     1     -43.055   4.143  -2.894  1.00 20.00     0.065 C 
HETATM    7  C7  UNL     1     -42.499   5.489  -2.488  1.00 20.00     0.045 C 
HETATM    8  C8  UNL     1     -41.605   5.041  -1.325  1.00 20.00     0.139 C 
HETATM    9  C9  UNL     1     -41.542   2.078  -3.418  1.00 20.00     0.065 C 
HETATM   10  N10 UNL     1     -40.888   3.872  -1.869  1.00 20.00    -0.289 NA
ENDROOT
BRANCH   4  11
HETATM   11  O11 UNL     1     -43.416   8.696  -0.809  1.00 20.00    -0.361 OA
HETATM   12  H22 UNL     1     -43.506   9.319  -1.540  1.00 20.00     0.217 HD
ENDBRANCH   4  11
TORSDOF 1
ENDMDL
