MODEL 1
REMARK VINA RESULT:      -5.1      0.000      0.000
REMARK  2 active torsions:
REMARK  status: ('A' for Active; 'I' for Inactive)
REMARK    1  A    between atoms: C3_3  and  C6_6 
REMARK    2  A    between atoms: C3_3  and  O10_10 
ROOT
HETATM    1  C1  UNL     1     -33.932   6.390   5.210  1.00 20.00    -0.010 C 
HETATM    2  C2  UNL     1     -34.589   5.248   5.447  1.00 20.00    -0.087 C 
HETATM    3  C4  UNL     1     -35.069   4.614   4.180  1.00 20.00     0.034 C 
HETATM    4  C5  UNL     1     -34.861   5.719   3.138  1.00 20.00     0.023 C 
HETATM    5  C6  UNL     1     -33.871   6.708   3.753  1.00 20.00     0.108 C 
HETATM    6  C7  UNL     1     -34.824   4.609   6.766  1.00 20.00     0.043 C 
ENDROOT
BRANCH   5   7
HETATM    7  C3  UNL     1     -32.470   6.470   3.286  1.00 20.00     0.266 C 
HETATM    8  O9  UNL     1     -32.000   5.363   3.060  1.00 20.00    -0.265 OA
BRANCH   7   9
HETATM    9  O10 UNL     1     -31.823   7.665   3.159  1.00 20.00    -0.326 OA
HETATM   10  C8  UNL     1     -32.061   8.365   1.934  1.00 20.00     0.213 C 
ENDBRANCH   7   9
ENDBRANCH   5   7
TORSDOF 2
ENDMDL
MODEL 2
REMARK VINA RESULT:      -4.3     11.258     12.507
REMARK  2 active torsions:
REMARK  status: ('A' for Active; 'I' for Inactive)
REMARK    1  A    between atoms: C3_3  and  C6_6 
REMARK    2  A    between atoms: C3_3  and  O10_10 
ROOT
HETATM    1  C1  UNL     1     -34.002  15.548  -5.103  1.00 20.00    -0.010 C 
HETATM    2  C2  UNL     1     -34.542  14.542  -5.801  1.00 20.00    -0.087 C 
HETATM    3  C4  UNL     1     -34.582  13.276  -5.005  1.00 20.00     0.034 C 
HETATM    4  C5  UNL     1     -33.693  13.596  -3.798  1.00 20.00     0.023 C 
HETATM    5  C6  UNL     1     -33.590  15.121  -3.735  1.00 20.00     0.108 C 
HETATM    6  C7  UNL     1     -35.085  14.601  -7.182  1.00 20.00     0.043 C 
ENDROOT
BRANCH   5   7
HETATM    7  C3  UNL     1     -34.552  15.713  -2.755  1.00 20.00     0.266 C 
HETATM    8  O9  UNL     1     -35.763  15.541  -2.793  1.00 20.00    -0.265 OA
BRANCH   7   9
HETATM    9  O10 UNL     1     -33.870  16.456  -1.837  1.00 20.00    -0.326 OA
HETATM   10  C8  UNL     1     -34.594  16.779  -0.646  1.00 20.00     0.213 C 
ENDBRANCH   7   9
ENDBRANCH   5   7
TORSDOF 2
ENDMDL
MODEL 3
REMARK VINA RESULT:      -4.3     11.202     12.422
REMARK  2 active torsions:
REMARK  status: ('A' for Active; 'I' for Inactive)
REMARK    1  A    between atoms: C3_3  and  C6_6 
REMARK    2  A    between atoms: C3_3  and  O10_10 
ROOT
HETATM    1  C1  UNL     1     -33.882  14.738  -2.782  1.00 20.00    -0.010 C 
HETATM    2  C2  UNL     1     -34.237  16.008  -2.552  1.00 20.00    -0.087 C 
HETATM    3  C4  UNL     1     -34.005  16.872  -3.751  1.00 20.00     0.034 C 
HETATM    4  C5  UNL     1     -33.160  15.979  -4.665  1.00 20.00     0.023 C 
HETATM    5  C6  UNL     1     -33.353  14.548  -4.164  1.00 20.00     0.108 C 
HETATM    6  C7  UNL     1     -34.822  16.560  -1.304  1.00 20.00     0.043 C 
ENDROOT
BRANCH   5   7
HETATM    7  C3  UNL     1     -34.383  13.805  -4.956  1.00 20.00     0.266 C 
HETATM    8  O9  UNL     1     -34.970  12.810  -4.555  1.00 20.00    -0.265 OA
BRANCH   7   9
HETATM    9  O10 UNL     1     -34.550  14.410  -6.167  1.00 20.00    -0.326 OA
HETATM   10  C8  UNL     1     -35.906  14.663  -6.546  1.00 20.00     0.213 C 
ENDBRANCH   7   9
ENDBRANCH   5   7
TORSDOF 2
ENDMDL
MODEL 4
REMARK VINA RESULT:      -4.2     11.796     12.587
REMARK  2 active torsions:
REMARK  status: ('A' for Active; 'I' for Inactive)
REMARK    1  A    between atoms: C3_3  and  C6_6 
REMARK    2  A    between atoms: C3_3  and  O10_10 
ROOT
HETATM    1  C1  UNL     1     -35.512  15.096  -3.145  1.00 20.00    -0.010 C 
HETATM    2  C2  UNL     1     -34.312  15.563  -2.777  1.00 20.00    -0.087 C 
HETATM    3  C4  UNL     1     -33.204  14.876  -3.511  1.00 20.00     0.034 C 
HETATM    4  C5  UNL     1     -33.910  13.689  -4.176  1.00 20.00     0.023 C 
HETATM    5  C6  UNL     1     -35.402  14.023  -4.176  1.00 20.00     0.108 C 
HETATM    6  C7  UNL     1     -34.035  16.643  -1.797  1.00 20.00     0.043 C 
ENDROOT
BRANCH   5   7
HETATM    7  C3  UNL     1     -35.855  14.590  -5.484  1.00 20.00     0.266 C 
HETATM    8  O9  UNL     1     -36.726  15.441  -5.598  1.00 20.00    -0.265 OA
BRANCH   7   9
HETATM    9  O10 UNL     1     -35.151  14.012  -6.500  1.00 20.00    -0.326 OA
HETATM   10  C8  UNL     1     -34.829  14.876  -7.594  1.00 20.00     0.213 C 
ENDBRANCH   7   9
ENDBRANCH   5   7
TORSDOF 2
ENDMDL
MODEL 5
REMARK VINA RESULT:      -4.2     10.944     12.508
REMARK  2 active torsions:
REMARK  status: ('A' for Active; 'I' for Inactive)
REMARK    1  A    between atoms: C3_3  and  C6_6 
REMARK    2  A    between atoms: C3_3  and  O10_10 
ROOT
HETATM    1  C1  UNL     1     -34.842  13.455  -5.779  1.00 20.00    -0.010 C 
HETATM    2  C2  UNL     1     -35.433  14.464  -6.433  1.00 20.00    -0.087 C 
HETATM    3  C4  UNL     1     -36.312  15.268  -5.528  1.00 20.00     0.034 C 
HETATM    4  C5  UNL     1     -36.403  14.399  -4.269  1.00 20.00     0.023 C 
HETATM    5  C6  UNL     1     -35.233  13.418  -4.340  1.00 20.00     0.108 C 
HETATM    6  C7  UNL     1     -35.263  14.823  -7.863  1.00 20.00     0.043 C 
ENDROOT
BRANCH   5   7
HETATM    7  C3  UNL     1     -34.060  13.875  -3.530  1.00 20.00     0.266 C 
HETATM    8  O9  UNL     1     -32.957  13.347  -3.562  1.00 20.00    -0.265 OA
BRANCH   7   9
HETATM    9  O10 UNL     1     -34.421  14.949  -2.771  1.00 20.00    -0.326 OA
HETATM   10  C8  UNL     1     -33.607  16.115  -2.929  1.00 20.00     0.213 C 
ENDBRANCH   7   9
ENDBRANCH   5   7
TORSDOF 2
ENDMDL
MODEL 6
REMARK VINA RESULT:      -4.1     11.289     12.798
REMARK  2 active torsions:
REMARK  status: ('A' for Active; 'I' for Inactive)
REMARK    1  A    between atoms: C3_3  and  C6_6 
REMARK    2  A    between atoms: C3_3  and  O10_10 
ROOT
HETATM    1  C1  UNL     1     -33.791  15.582  -5.304  1.00 20.00    -0.010 C 
HETATM    2  C2  UNL     1     -34.543  14.551  -5.708  1.00 20.00    -0.087 C 
HETATM    3  C4  UNL     1     -34.560  13.449  -4.696  1.00 20.00     0.034 C 
HETATM    4  C5  UNL     1     -33.441  13.848  -3.728  1.00 20.00     0.023 C 
HETATM    5  C6  UNL     1     -33.182  15.337  -3.964  1.00 20.00     0.108 C 
HETATM    6  C7  UNL     1     -35.317  14.450  -6.971  1.00 20.00     0.043 C 
ENDROOT
BRANCH   5   7
HETATM    7  C3  UNL     1     -33.891  16.200  -2.968  1.00 20.00     0.266 C 
HETATM    8  O9  UNL     1     -34.531  15.768  -2.019  1.00 20.00    -0.265 OA
BRANCH   7   9
HETATM    9  O10 UNL     1     -33.707  17.512  -3.289  1.00 20.00    -0.326 OA
HETATM   10  C8  UNL     1     -33.716  18.423  -2.186  1.00 20.00     0.213 C 
ENDBRANCH   7   9
ENDBRANCH   5   7
TORSDOF 2
ENDMDL
MODEL 7
REMARK VINA RESULT:      -4.1     11.781     12.585
REMARK  2 active torsions:
REMARK  status: ('A' for Active; 'I' for Inactive)
REMARK    1  A    between atoms: C3_3  and  C6_6 
REMARK    2  A    between atoms: C3_3  and  O10_10 
ROOT
HETATM    1  C1  UNL     1     -35.434  15.084  -3.172  1.00 20.00    -0.010 C 
HETATM    2  C2  UNL     1     -34.252  15.577  -2.783  1.00 20.00    -0.087 C 
HETATM    3  C4  UNL     1     -33.113  14.885  -3.462  1.00 20.00     0.034 C 
HETATM    4  C5  UNL     1     -33.783  13.669  -4.111  1.00 20.00     0.023 C 
HETATM    5  C6  UNL     1     -35.278  13.982  -4.166  1.00 20.00     0.108 C 
HETATM    6  C7  UNL     1     -34.019  16.690  -1.828  1.00 20.00     0.043 C 
ENDROOT
BRANCH   5   7
HETATM    7  C3  UNL     1     -35.699  14.504  -5.504  1.00 20.00     0.266 C 
HETATM    8  O9  UNL     1     -35.209  14.143  -6.566  1.00 20.00    -0.265 OA
BRANCH   7   9
HETATM    9  O10 UNL     1     -36.692  15.424  -5.343  1.00 20.00    -0.326 OA
HETATM   10  C8  UNL     1     -37.721  15.398  -6.337  1.00 20.00     0.213 C 
ENDBRANCH   7   9
ENDBRANCH   5   7
TORSDOF 2
ENDMDL
MODEL 8
REMARK VINA RESULT:      -4.0     11.665     13.239
REMARK  2 active torsions:
REMARK  status: ('A' for Active; 'I' for Inactive)
REMARK    1  A    between atoms: C3_3  and  C6_6 
REMARK    2  A    between atoms: C3_3  and  O10_10 
ROOT
HETATM    1  C1  UNL     1     -36.160  15.277  -5.490  1.00 20.00    -0.010 C 
HETATM    2  C2  UNL     1     -36.716  15.036  -6.683  1.00 20.00    -0.087 C 
HETATM    3  C4  UNL     1     -35.709  14.538  -7.672  1.00 20.00     0.034 C 
HETATM    4  C5  UNL     1     -34.373  14.802  -6.970  1.00 20.00     0.023 C 
HETATM    5  C6  UNL     1     -34.696  14.985  -5.486  1.00 20.00     0.108 C 
HETATM    6  C7  UNL     1     -38.146  15.189  -7.050  1.00 20.00     0.043 C 
ENDROOT
BRANCH   5   7
HETATM    7  C3  UNL     1     -34.476  13.732  -4.700  1.00 20.00     0.266 C 
HETATM    8  O9  UNL     1     -34.857  12.624  -5.053  1.00 20.00    -0.265 OA
BRANCH   7   9
HETATM    9  O10 UNL     1     -33.798  14.027  -3.553  1.00 20.00    -0.326 OA
HETATM   10  C8  UNL     1     -32.878  15.118  -3.646  1.00 20.00     0.213 C 
ENDBRANCH   7   9
ENDBRANCH   5   7
TORSDOF 2
ENDMDL
MODEL 9
REMARK VINA RESULT:      -3.9     11.446     13.113
REMARK  2 active torsions:
REMARK  status: ('A' for Active; 'I' for Inactive)
REMARK    1  A    between atoms: C3_3  and  C6_6 
REMARK    2  A    between atoms: C3_3  and  O10_10 
ROOT
HETATM    1  C1  UNL     1     -35.187  15.675  -5.045  1.00 20.00    -0.010 C 
HETATM    2  C2  UNL     1     -34.789  14.762  -5.941  1.00 20.00    -0.087 C 
HETATM    3  C4  UNL     1     -34.796  13.382  -5.364  1.00 20.00     0.034 C 
HETATM    4  C5  UNL     1     -34.974  13.634  -3.863  1.00 20.00     0.023 C 
HETATM    5  C6  UNL     1     -35.518  15.056  -3.728  1.00 20.00     0.108 C 
HETATM    6  C7  UNL     1     -34.405  15.006  -7.354  1.00 20.00     0.043 C 
ENDROOT
BRANCH   5   7
HETATM    7  C3  UNL     1     -37.005  15.081  -3.565  1.00 20.00     0.266 C 
HETATM    8  O9  UNL     1     -37.729  14.110  -3.730  1.00 20.00    -0.265 OA
BRANCH   7   9
HETATM    9  O10 UNL     1     -37.403  16.337  -3.211  1.00 20.00    -0.326 OA
HETATM   10  C8  UNL     1     -38.642  16.771  -3.779  1.00 20.00     0.213 C 
ENDBRANCH   7   9
ENDBRANCH   5   7
TORSDOF 2
ENDMDL
