MODEL 1
REMARK VINA RESULT:      -5.1      0.000      0.000
REMARK  0 active torsions:
REMARK  status: ('A' for Active; 'I' for Inactive)
ROOT
HETATM    1  C1  UNL     1     -34.363  16.558  -6.801  1.00 20.00    -0.039 C 
HETATM    2  C2  UNL     1     -34.819  15.180  -6.622  1.00 20.00     0.034 C 
HETATM    3  C3  UNL     1     -34.417  13.593  -4.690  1.00 20.00     0.224 C 
HETATM    4  C4  UNL     1     -34.700  17.416  -7.770  1.00 20.00     0.021 C 
HETATM    5  C5  UNL     1     -35.374  14.385  -7.543  1.00 20.00     0.044 C 
HETATM    6  C6  UNL     1     -33.469  16.898  -5.618  1.00 20.00     0.065 C 
HETATM    7  C7  UNL     1     -33.672  13.871  -3.394  1.00 20.00     0.105 C 
HETATM    8  C8  UNL     1     -32.972  15.216  -3.657  1.00 20.00     0.035 C 
HETATM    9  C9  UNL     1     -33.955  15.911  -4.572  1.00 20.00     0.098 C 
HETATM   10  N10 UNL     1     -34.488  14.815  -5.345  1.00 20.00    -0.313 N 
HETATM   11  O11 UNL     1     -34.829  12.498  -5.037  1.00 20.00    -0.273 OA
ENDROOT
TORSDOF 0
ENDMDL
MODEL 2
REMARK VINA RESULT:      -4.8      2.660      2.980
REMARK  0 active torsions:
REMARK  status: ('A' for Active; 'I' for Inactive)
ROOT
HETATM    1  C1  UNL     1     -36.243  16.698  -3.039  1.00 20.00    -0.039 C 
HETATM    2  C2  UNL     1     -36.389  15.308  -3.470  1.00 20.00     0.034 C 
HETATM    3  C3  UNL     1     -34.603  13.570  -3.919  1.00 20.00     0.224 C 
HETATM    4  C4  UNL     1     -37.208  17.554  -2.682  1.00 20.00     0.021 C 
HETATM    5  C5  UNL     1     -37.497  14.714  -3.926  1.00 20.00     0.044 C 
HETATM    6  C6  UNL     1     -34.754  17.003  -2.984  1.00 20.00     0.065 C 
HETATM    7  C7  UNL     1     -33.098  13.714  -3.754  1.00 20.00     0.105 C 
HETATM    8  C8  UNL     1     -32.897  15.226  -3.546  1.00 20.00     0.035 C 
HETATM    9  C9  UNL     1     -34.162  15.615  -2.814  1.00 20.00     0.098 C 
HETATM   10  N10 UNL     1     -35.145  14.740  -3.406  1.00 20.00    -0.313 N 
HETATM   11  O11 UNL     1     -35.160  12.609  -4.424  1.00 20.00    -0.273 OA
ENDROOT
TORSDOF 0
ENDMDL
MODEL 3
REMARK VINA RESULT:      -4.6      1.755      3.060
REMARK  0 active torsions:
REMARK  status: ('A' for Active; 'I' for Inactive)
ROOT
HETATM    1  C1  UNL     1     -33.866  17.239  -3.222  1.00 20.00    -0.039 C 
HETATM    2  C2  UNL     1     -33.958  16.926  -4.647  1.00 20.00     0.034 C 
HETATM    3  C3  UNL     1     -34.424  14.709  -5.779  1.00 20.00     0.224 C 
HETATM    4  C4  UNL     1     -33.750  18.442  -2.650  1.00 20.00     0.021 C 
HETATM    5  C5  UNL     1     -33.604  17.709  -5.672  1.00 20.00     0.044 C 
HETATM    6  C6  UNL     1     -34.008  15.930  -2.459  1.00 20.00     0.065 C 
HETATM    7  C7  UNL     1     -34.729  13.372  -5.122  1.00 20.00     0.105 C 
HETATM    8  C8  UNL     1     -34.394  13.610  -3.639  1.00 20.00     0.035 C 
HETATM    9  C9  UNL     1     -34.753  15.068  -3.464  1.00 20.00     0.098 C 
HETATM   10  N10 UNL     1     -34.395  15.632  -4.743  1.00 20.00    -0.313 N 
HETATM   11  O11 UNL     1     -34.235  14.872  -6.974  1.00 20.00    -0.273 OA
ENDROOT
TORSDOF 0
ENDMDL
MODEL 4
REMARK VINA RESULT:      -4.5      3.093      4.009
REMARK  0 active torsions:
REMARK  status: ('A' for Active; 'I' for Inactive)
ROOT
HETATM    1  C1  UNL     1     -34.411  15.455  -4.777  1.00 20.00    -0.039 C 
HETATM    2  C2  UNL     1     -33.885  16.804  -4.577  1.00 20.00     0.034 C 
HETATM    3  C3  UNL     1     -33.612  18.121  -2.431  1.00 20.00     0.224 C 
HETATM    4  C4  UNL     1     -34.421  14.735  -5.904  1.00 20.00     0.021 C 
HETATM    5  C5  UNL     1     -33.628  17.721  -5.517  1.00 20.00     0.044 C 
HETATM    6  C6  UNL     1     -34.894  14.950  -3.425  1.00 20.00     0.065 C 
HETATM    7  C7  UNL     1     -33.917  17.666  -1.012  1.00 20.00     0.105 C 
HETATM    8  C8  UNL     1     -34.701  16.357  -1.210  1.00 20.00     0.035 C 
HETATM    9  C9  UNL     1     -34.076  15.801  -2.470  1.00 20.00     0.098 C 
HETATM   10  N10 UNL     1     -33.785  16.996  -3.225  1.00 20.00    -0.313 N 
HETATM   11  O11 UNL     1     -33.302  19.258  -2.747  1.00 20.00    -0.273 OA
ENDROOT
TORSDOF 0
ENDMDL
MODEL 5
REMARK VINA RESULT:      -4.5      7.292      9.143
REMARK  0 active torsions:
REMARK  status: ('A' for Active; 'I' for Inactive)
ROOT
HETATM    1  C1  UNL     1     -33.564  18.391   3.753  1.00 20.00    -0.039 C 
HETATM    2  C2  UNL     1     -32.494  18.822   2.855  1.00 20.00     0.034 C 
HETATM    3  C3  UNL     1     -32.406  18.782   0.324  1.00 20.00     0.224 C 
HETATM    4  C4  UNL     1     -33.637  18.546   5.080  1.00 20.00     0.021 C 
HETATM    5  C5  UNL     1     -31.237  19.136   3.187  1.00 20.00     0.044 C 
HETATM    6  C6  UNL     1     -34.663  17.784   2.893  1.00 20.00     0.065 C 
HETATM    7  C7  UNL     1     -33.496  18.341  -0.640  1.00 20.00     0.105 C 
HETATM    8  C8  UNL     1     -34.530  17.653   0.268  1.00 20.00     0.035 C 
HETATM    9  C9  UNL     1     -34.401  18.444   1.550  1.00 20.00     0.098 C 
HETATM   10  N10 UNL     1     -32.993  18.758   1.582  1.00 20.00    -0.313 N 
HETATM   11  O11 UNL     1     -31.264  19.068   0.003  1.00 20.00    -0.273 OA
ENDROOT
TORSDOF 0
ENDMDL
MODEL 6
REMARK VINA RESULT:      -4.4      2.757      4.511
REMARK  0 active torsions:
REMARK  status: ('A' for Active; 'I' for Inactive)
ROOT
HETATM    1  C1  UNL     1     -34.449  16.448  -2.120  1.00 20.00    -0.039 C 
HETATM    2  C2  UNL     1     -34.121  17.486  -3.096  1.00 20.00     0.034 C 
HETATM    3  C3  UNL     1     -33.929  17.319  -5.616  1.00 20.00     0.224 C 
HETATM    4  C4  UNL     1     -34.673  16.592  -0.809  1.00 20.00     0.021 C 
HETATM    5  C5  UNL     1     -33.641  18.709  -2.846  1.00 20.00     0.044 C 
HETATM    6  C6  UNL     1     -34.577  15.135  -2.879  1.00 20.00     0.065 C 
HETATM    7  C7  UNL     1     -34.182  16.103  -6.492  1.00 20.00     0.105 C 
HETATM    8  C8  UNL     1     -34.281  14.943  -5.486  1.00 20.00     0.035 C 
HETATM    9  C9  UNL     1     -34.896  15.621  -4.282  1.00 20.00     0.098 C 
HETATM   10  N10 UNL     1     -34.312  16.940  -4.337  1.00 20.00    -0.313 N 
HETATM   11  O11 UNL     1     -33.467  18.378  -6.008  1.00 20.00    -0.273 OA
ENDROOT
TORSDOF 0
ENDMDL
MODEL 7
REMARK VINA RESULT:      -4.4      1.969      3.821
REMARK  0 active torsions:
REMARK  status: ('A' for Active; 'I' for Inactive)
ROOT
HETATM    1  C1  UNL     1     -34.158  16.091  -2.792  1.00 20.00    -0.039 C 
HETATM    2  C2  UNL     1     -34.139  16.760  -4.091  1.00 20.00     0.034 C 
HETATM    3  C3  UNL     1     -34.594  15.810  -6.394  1.00 20.00     0.224 C 
HETATM    4  C4  UNL     1     -34.044  16.645  -1.579  1.00 20.00     0.021 C 
HETATM    5  C5  UNL     1     -33.667  17.981  -4.367  1.00 20.00     0.044 C 
HETATM    6  C6  UNL     1     -34.417  14.613  -3.045  1.00 20.00     0.065 C 
HETATM    7  C7  UNL     1     -35.008  14.391  -6.753  1.00 20.00     0.105 C 
HETATM    8  C8  UNL     1     -34.793  13.608  -5.447  1.00 20.00     0.035 C 
HETATM    9  C9  UNL     1     -35.107  14.650  -4.397  1.00 20.00     0.098 C 
HETATM   10  N10 UNL     1     -34.618  15.863  -5.008  1.00 20.00    -0.313 N 
HETATM   11  O11 UNL     1     -34.296  16.675  -7.202  1.00 20.00    -0.273 OA
ENDROOT
TORSDOF 0
ENDMDL
MODEL 8
REMARK VINA RESULT:      -4.4     11.802     13.590
REMARK  0 active torsions:
REMARK  status: ('A' for Active; 'I' for Inactive)
ROOT
HETATM    1  C1  UNL     1     -32.673   6.996   3.261  1.00 20.00    -0.039 C 
HETATM    2  C2  UNL     1     -33.564   5.842   3.162  1.00 20.00     0.034 C 
HETATM    3  C3  UNL     1     -34.892   4.678   4.978  1.00 20.00     0.224 C 
HETATM    4  C4  UNL     1     -32.088   7.672   2.265  1.00 20.00     0.021 C 
HETATM    5  C5  UNL     1     -33.708   5.017   2.120  1.00 20.00     0.044 C 
HETATM    6  C6  UNL     1     -32.573   7.370   4.733  1.00 20.00     0.065 C 
HETATM    7  C7  UNL     1     -34.989   5.052   6.449  1.00 20.00     0.105 C 
HETATM    8  C8  UNL     1     -33.876   6.098   6.632  1.00 20.00     0.035 C 
HETATM    9  C9  UNL     1     -33.861   6.785   5.285  1.00 20.00     0.098 C 
HETATM   10  N10 UNL     1     -34.171   5.703   4.382  1.00 20.00    -0.313 N 
HETATM   11  O11 UNL     1     -35.356   3.663   4.484  1.00 20.00    -0.273 OA
ENDROOT
TORSDOF 0
ENDMDL
MODEL 9
REMARK VINA RESULT:      -4.3      1.498      2.528
REMARK  0 active torsions:
REMARK  status: ('A' for Active; 'I' for Inactive)
ROOT
HETATM    1  C1  UNL     1     -34.704  16.525  -6.860  1.00 20.00    -0.039 C 
HETATM    2  C2  UNL     1     -34.070  16.751  -5.562  1.00 20.00     0.034 C 
HETATM    3  C3  UNL     1     -33.776  15.156  -3.618  1.00 20.00     0.224 C 
HETATM    4  C4  UNL     1     -34.728  17.343  -7.918  1.00 20.00     0.021 C 
HETATM    5  C5  UNL     1     -33.693  17.923  -5.039  1.00 20.00     0.044 C 
HETATM    6  C6  UNL     1     -35.288  15.120  -6.842  1.00 20.00     0.065 C 
HETATM    7  C7  UNL     1     -34.182  13.692  -3.542  1.00 20.00     0.105 C 
HETATM    8  C8  UNL     1     -35.068  13.495  -4.784  1.00 20.00     0.035 C 
HETATM    9  C9  UNL     1     -34.440  14.449  -5.776  1.00 20.00     0.098 C 
HETATM   10  N10 UNL     1     -34.012  15.538  -4.931  1.00 20.00    -0.313 N 
HETATM   11  O11 UNL     1     -33.353  15.812  -2.680  1.00 20.00    -0.273 OA
ENDROOT
TORSDOF 0
ENDMDL
