MODEL 1
REMARK VINA RESULT:      -4.5      0.000      0.000
REMARK  2 active torsions:
REMARK  status: ('A' for Active; 'I' for Inactive)
REMARK    1  A    between atoms: C3_3  and  C7_7 
REMARK    2  A    between atoms: C6_6  and  O11_11 
ROOT
HETATM    1  C1  UNL     1     -33.703  17.615  -3.431  1.00 20.00    -0.028 C 
HETATM    2  C2  UNL     1     -33.943  17.210  -4.686  1.00 20.00     0.002 C 
HETATM    3  C4  UNL     1     -33.972  16.766  -2.227  1.00 20.00     0.028 C 
HETATM    4  C5  UNL     1     -34.817  15.527  -2.542  1.00 20.00     0.023 C 
HETATM    5  C6  UNL     1     -34.487  15.850  -5.025  1.00 20.00     0.158 C 
HETATM    6  C7  UNL     1     -34.392  14.836  -3.852  1.00 20.00     0.039 C 
HETATM    7  C8  UNL     1     -32.993  14.211  -3.718  1.00 20.00     0.026 C 
ENDROOT
BRANCH   6   8
HETATM    8  C3  UNL     1     -35.370  13.711  -4.095  1.00 20.00     0.243 C 
HETATM    9  O10 UNL     1     -35.038  12.604  -4.505  1.00 20.00    -0.306 OA
ENDBRANCH   6   8
BRANCH   5  10
HETATM   10  O11 UNL     1     -33.779  15.369  -6.167  1.00 20.00    -0.386 OA
HETATM   11  C9  UNL     1     -34.632  15.265  -7.296  1.00 20.00     0.202 C 
ENDBRANCH   5  10
TORSDOF 2
ENDMDL
MODEL 2
REMARK VINA RESULT:      -4.4      1.572      3.100
REMARK  2 active torsions:
REMARK  status: ('A' for Active; 'I' for Inactive)
REMARK    1  A    between atoms: C3_3  and  C7_7 
REMARK    2  A    between atoms: C6_6  and  O11_11 
ROOT
HETATM    1  C1  UNL     1     -33.489  17.240  -4.976  1.00 20.00    -0.028 C 
HETATM    2  C2  UNL     1     -33.637  16.831  -3.709  1.00 20.00     0.002 C 
HETATM    3  C4  UNL     1     -33.934  16.435  -6.158  1.00 20.00     0.028 C 
HETATM    4  C5  UNL     1     -34.293  14.989  -5.800  1.00 20.00     0.023 C 
HETATM    5  C6  UNL     1     -34.288  15.528  -3.333  1.00 20.00     0.158 C 
HETATM    6  C7  UNL     1     -35.099  14.885  -4.490  1.00 20.00     0.039 C 
HETATM    7  C8  UNL     1     -36.498  15.504  -4.651  1.00 20.00     0.026 C 
ENDROOT
BRANCH   6   8
HETATM    8  C3  UNL     1     -35.284  13.414  -4.202  1.00 20.00     0.243 C 
HETATM    9  O10 UNL     1     -34.755  12.525  -4.859  1.00 20.00    -0.306 OA
ENDBRANCH   6   8
BRANCH   5  10
HETATM   10  O11 UNL     1     -35.125  15.769  -2.202  1.00 20.00    -0.386 OA
HETATM   11  C9  UNL     1     -34.470  16.583  -1.240  1.00 20.00     0.202 C 
ENDBRANCH   5  10
TORSDOF 2
ENDMDL
MODEL 3
REMARK VINA RESULT:      -4.4      1.592      1.859
REMARK  2 active torsions:
REMARK  status: ('A' for Active; 'I' for Inactive)
REMARK    1  A    between atoms: C3_3  and  C7_7 
REMARK    2  A    between atoms: C6_6  and  O11_11 
ROOT
HETATM    1  C1  UNL     1     -33.055  16.054  -4.695  1.00 20.00    -0.028 C 
HETATM    2  C2  UNL     1     -33.961  16.006  -5.681  1.00 20.00     0.002 C 
HETATM    3  C4  UNL     1     -33.372  15.724  -3.269  1.00 20.00     0.028 C 
HETATM    4  C5  UNL     1     -34.876  15.622  -2.996  1.00 20.00     0.023 C 
HETATM    5  C6  UNL     1     -35.391  15.593  -5.468  1.00 20.00     0.158 C 
HETATM    6  C7  UNL     1     -35.633  14.876  -4.112  1.00 20.00     0.039 C 
HETATM    7  C8  UNL     1     -35.240  13.389  -4.148  1.00 20.00     0.026 C 
ENDROOT
BRANCH   6   8
HETATM    8  C3  UNL     1     -37.103  14.947  -3.774  1.00 20.00     0.243 C 
HETATM    9  O10 UNL     1     -37.863  13.989  -3.856  1.00 20.00    -0.306 OA
ENDBRANCH   6   8
BRANCH   5  10
HETATM   10  O11 UNL     1     -35.770  14.753  -6.559  1.00 20.00    -0.386 OA
HETATM   11  C9  UNL     1     -34.843  14.848  -7.629  1.00 20.00     0.202 C 
ENDBRANCH   5  10
TORSDOF 2
ENDMDL
MODEL 4
REMARK VINA RESULT:      -4.4      1.684      2.526
REMARK  2 active torsions:
REMARK  status: ('A' for Active; 'I' for Inactive)
REMARK    1  A    between atoms: C3_3  and  C7_7 
REMARK    2  A    between atoms: C6_6  and  O11_11 
ROOT
HETATM    1  C1  UNL     1     -32.700  14.926  -3.764  1.00 20.00    -0.028 C 
HETATM    2  C2  UNL     1     -33.335  16.072  -4.046  1.00 20.00     0.002 C 
HETATM    3  C4  UNL     1     -33.379  13.591  -3.752  1.00 20.00     0.028 C 
HETATM    4  C5  UNL     1     -34.908  13.693  -3.795  1.00 20.00     0.023 C 
HETATM    5  C6  UNL     1     -34.794  16.141  -4.405  1.00 20.00     0.158 C 
HETATM    6  C7  UNL     1     -35.403  14.765  -4.786  1.00 20.00     0.039 C 
HETATM    7  C8  UNL     1     -35.095  14.359  -6.238  1.00 20.00     0.026 C 
ENDROOT
BRANCH   6   8
HETATM    8  C3  UNL     1     -36.905  14.836  -4.645  1.00 20.00     0.243 C 
HETATM    9  O10 UNL     1     -37.541  14.161  -3.843  1.00 20.00    -0.306 OA
ENDBRANCH   6   8
BRANCH   5  10
HETATM   10  O11 UNL     1     -34.935  17.071  -5.479  1.00 20.00    -0.386 OA
HETATM   11  C9  UNL     1     -33.839  17.970  -5.530  1.00 20.00     0.202 C 
ENDBRANCH   5  10
TORSDOF 2
ENDMDL
MODEL 5
REMARK VINA RESULT:      -4.3      1.992      3.319
REMARK  2 active torsions:
REMARK  status: ('A' for Active; 'I' for Inactive)
REMARK    1  A    between atoms: C3_3  and  C7_7 
REMARK    2  A    between atoms: C6_6  and  O11_11 
ROOT
HETATM    1  C1  UNL     1     -33.205  14.447  -3.723  1.00 20.00    -0.028 C 
HETATM    2  C2  UNL     1     -33.695  15.522  -3.090  1.00 20.00     0.002 C 
HETATM    3  C4  UNL     1     -34.066  13.450  -4.436  1.00 20.00     0.028 C 
HETATM    4  C5  UNL     1     -35.557  13.607  -4.119  1.00 20.00     0.023 C 
HETATM    5  C6  UNL     1     -35.160  15.858  -3.044  1.00 20.00     0.158 C 
HETATM    6  C7  UNL     1     -36.005  15.081  -4.090  1.00 20.00     0.039 C 
HETATM    7  C8  UNL     1     -35.935  15.708  -5.494  1.00 20.00     0.026 C 
ENDROOT
BRANCH   6   8
HETATM    8  C3  UNL     1     -37.452  15.095  -3.660  1.00 20.00     0.243 C 
HETATM    9  O10 UNL     1     -38.204  14.134  -3.785  1.00 20.00    -0.306 OA
ENDBRANCH   6   8
BRANCH   5  10
HETATM   10  O11 UNL     1     -35.291  17.267  -3.233  1.00 20.00    -0.386 OA
HETATM   11  C9  UNL     1     -34.130  17.955  -2.795  1.00 20.00     0.202 C 
ENDBRANCH   5  10
TORSDOF 2
ENDMDL
MODEL 6
REMARK VINA RESULT:      -4.3      1.959      3.646
REMARK  2 active torsions:
REMARK  status: ('A' for Active; 'I' for Inactive)
REMARK    1  A    between atoms: C3_3  and  C7_7 
REMARK    2  A    between atoms: C6_6  and  O11_11 
ROOT
HETATM    1  C1  UNL     1     -34.705  13.348  -4.141  1.00 20.00    -0.028 C 
HETATM    2  C2  UNL     1     -35.666  14.241  -4.412  1.00 20.00     0.002 C 
HETATM    3  C4  UNL     1     -33.332  13.732  -3.680  1.00 20.00     0.028 C 
HETATM    4  C5  UNL     1     -33.041  15.228  -3.839  1.00 20.00     0.023 C 
HETATM    5  C6  UNL     1     -35.480  15.726  -4.262  1.00 20.00     0.158 C 
HETATM    6  C7  UNL     1     -34.232  16.112  -3.422  1.00 20.00     0.039 C 
HETATM    7  C8  UNL     1     -34.485  16.020  -1.907  1.00 20.00     0.026 C 
ENDROOT
BRANCH   6   8
HETATM    8  C3  UNL     1     -33.853  17.540  -3.732  1.00 20.00     0.243 C 
HETATM    9  O10 UNL     1     -33.493  17.918  -4.842  1.00 20.00    -0.306 OA
ENDBRANCH   6   8
BRANCH   5  10
HETATM   10  O11 UNL     1     -36.668  16.258  -3.676  1.00 20.00    -0.386 OA
HETATM   11  C9  UNL     1     -37.714  15.299  -3.671  1.00 20.00     0.202 C 
ENDBRANCH   5  10
TORSDOF 2
ENDMDL
MODEL 7
REMARK VINA RESULT:      -4.1      2.089      3.698
REMARK  2 active torsions:
REMARK  status: ('A' for Active; 'I' for Inactive)
REMARK    1  A    between atoms: C3_3  and  C7_7 
REMARK    2  A    between atoms: C6_6  and  O11_11 
ROOT
HETATM    1  C1  UNL     1     -35.976  15.056  -6.992  1.00 20.00    -0.028 C 
HETATM    2  C2  UNL     1     -36.883  15.101  -6.006  1.00 20.00     0.002 C 
HETATM    3  C4  UNL     1     -34.498  15.059  -6.749  1.00 20.00     0.028 C 
HETATM    4  C5  UNL     1     -34.126  15.420  -5.307  1.00 20.00     0.023 C 
HETATM    5  C6  UNL     1     -36.518  15.137  -4.548  1.00 20.00     0.158 C 
HETATM    6  C7  UNL     1     -35.042  14.741  -4.270  1.00 20.00     0.039 C 
HETATM    7  C8  UNL     1     -34.828  13.218  -4.257  1.00 20.00     0.026 C 
ENDROOT
BRANCH   6   8
HETATM    8  C3  UNL     1     -34.640  15.268  -2.914  1.00 20.00     0.243 C 
HETATM    9  O10 UNL     1     -33.644  15.958  -2.725  1.00 20.00    -0.306 OA
ENDBRANCH   6   8
BRANCH   5  10
HETATM   10  O11 UNL     1     -37.413  14.270  -3.852  1.00 20.00    -0.386 OA
HETATM   11  C9  UNL     1     -38.741  14.770  -3.880  1.00 20.00     0.202 C 
ENDBRANCH   5  10
TORSDOF 2
ENDMDL
MODEL 8
REMARK VINA RESULT:      -4.1      1.164      1.210
REMARK  2 active torsions:
REMARK  status: ('A' for Active; 'I' for Inactive)
REMARK    1  A    between atoms: C3_3  and  C7_7 
REMARK    2  A    between atoms: C6_6  and  O11_11 
ROOT
HETATM    1  C1  UNL     1     -35.828  17.485  -4.118  1.00 20.00    -0.028 C 
HETATM    2  C2  UNL     1     -35.716  16.727  -5.218  1.00 20.00     0.002 C 
HETATM    3  C4  UNL     1     -35.424  17.018  -2.753  1.00 20.00     0.028 C 
HETATM    4  C5  UNL     1     -35.161  15.510  -2.687  1.00 20.00     0.023 C 
HETATM    5  C6  UNL     1     -35.152  15.333  -5.206  1.00 20.00     0.158 C 
HETATM    6  C7  UNL     1     -34.374  14.991  -3.907  1.00 20.00     0.039 C 
HETATM    7  C8  UNL     1     -32.937  15.541  -3.913  1.00 20.00     0.026 C 
ENDROOT
BRANCH   6   8
HETATM    8  C3  UNL     1     -34.284  13.491  -3.769  1.00 20.00     0.243 C 
HETATM    9  O10 UNL     1     -35.060  12.714  -4.315  1.00 20.00    -0.306 OA
ENDBRANCH   6   8
BRANCH   5  10
HETATM   10  O11 UNL     1     -34.311  15.194  -6.351  1.00 20.00    -0.386 OA
HETATM   11  C9  UNL     1     -35.026  14.658  -7.454  1.00 20.00     0.202 C 
ENDBRANCH   5  10
TORSDOF 2
ENDMDL
MODEL 9
REMARK VINA RESULT:      -4.1      1.990      3.292
REMARK  2 active torsions:
REMARK  status: ('A' for Active; 'I' for Inactive)
REMARK    1  A    between atoms: C3_3  and  C7_7 
REMARK    2  A    between atoms: C6_6  and  O11_11 
ROOT
HETATM    1  C1  UNL     1     -34.761  14.039  -5.920  1.00 20.00    -0.028 C 
HETATM    2  C2  UNL     1     -34.364  15.317  -5.991  1.00 20.00     0.002 C 
HETATM    3  C4  UNL     1     -34.954  13.309  -4.627  1.00 20.00     0.028 C 
HETATM    4  C5  UNL     1     -34.372  14.055  -3.422  1.00 20.00     0.023 C 
HETATM    5  C6  UNL     1     -34.091  16.165  -4.781  1.00 20.00     0.158 C 
HETATM    6  C7  UNL     1     -34.661  15.569  -3.465  1.00 20.00     0.039 C 
HETATM    7  C8  UNL     1     -36.163  15.850  -3.287  1.00 20.00     0.026 C 
ENDROOT
BRANCH   6   8
HETATM    8  C3  UNL     1     -33.942  16.189  -2.292  1.00 20.00     0.243 C 
HETATM    9  O10 UNL     1     -34.450  16.332  -1.185  1.00 20.00    -0.306 OA
ENDBRANCH   6   8
BRANCH   5  10
HETATM   10  O11 UNL     1     -34.635  17.462  -5.025  1.00 20.00    -0.386 OA
HETATM   11  C9  UNL     1     -33.616  18.398  -5.340  1.00 20.00     0.202 C 
ENDBRANCH   5  10
TORSDOF 2
ENDMDL
