MODEL 1
REMARK VINA RESULT:      -4.3      0.000      0.000
REMARK  1 active torsions:
REMARK  status: ('A' for Active; 'I' for Inactive)
REMARK    1  A    between atoms: C2_2  and  C3_3 
ROOT
HETATM    1  C1  UNL     1     -33.490   6.484   5.461  1.00 20.00     0.011 C 
HETATM    2  C2  UNL     1     -33.399   6.323   4.134  1.00 20.00     0.004 C 
HETATM    3  C4  UNL     1     -34.501   5.722   6.268  1.00 20.00     0.195 C 
HETATM    4  C5  UNL     1     -34.313   5.408   3.382  1.00 20.00     0.069 C 
HETATM    5  C6  UNL     1     -35.524   5.039   4.237  1.00 20.00     0.172 C 
HETATM    6  O8  UNL     1     -35.090   4.639   5.538  1.00 20.00    -0.387 OA
ENDROOT
BRANCH   2   7
HETATM    7  C3  UNL     1     -32.391   7.090   3.402  1.00 20.00     0.248 C 
HETATM    8  O7  UNL     1     -32.490   7.195   2.173  1.00 20.00    -0.274 OA
HETATM    9 CL9  UNL     1     -31.103   7.815   4.341  1.00 20.00    -0.039 Cl
ENDBRANCH   2   7
TORSDOF 1
ENDMDL
MODEL 2
REMARK VINA RESULT:      -4.3     11.404     11.948
REMARK  1 active torsions:
REMARK  status: ('A' for Active; 'I' for Inactive)
REMARK    1  A    between atoms: C2_2  and  C3_3 
ROOT
HETATM    1  C1  UNL     1     -35.792  15.124  -3.435  1.00 20.00     0.011 C 
HETATM    2  C2  UNL     1     -34.510  15.312  -3.093  1.00 20.00     0.004 C 
HETATM    3  C4  UNL     1     -36.220  13.904  -4.198  1.00 20.00     0.195 C 
HETATM    4  C5  UNL     1     -33.437  14.342  -3.476  1.00 20.00     0.069 C 
HETATM    5  C6  UNL     1     -33.930  13.404  -4.575  1.00 20.00     0.172 C 
HETATM    6  O8  UNL     1     -35.214  12.884  -4.224  1.00 20.00    -0.387 OA
ENDROOT
BRANCH   2   7
HETATM    7  C3  UNL     1     -34.154  16.518  -2.346  1.00 20.00     0.248 C 
HETATM    8  O7  UNL     1     -33.566  17.436  -2.931  1.00 20.00    -0.274 OA
HETATM    9 CL9  UNL     1     -34.599  16.569  -0.653  1.00 20.00    -0.039 Cl
ENDBRANCH   2   7
TORSDOF 1
ENDMDL
MODEL 3
REMARK VINA RESULT:      -4.0      9.942     11.111
REMARK  1 active torsions:
REMARK  status: ('A' for Active; 'I' for Inactive)
REMARK    1  A    between atoms: C2_2  and  C3_3 
ROOT
HETATM    1  C1  UNL     1     -42.465   5.262  -2.727  1.00 20.00     0.011 C 
HETATM    2  C2  UNL     1     -41.822   4.207  -2.208  1.00 20.00     0.004 C 
HETATM    3  C4  UNL     1     -42.089   6.664  -2.344  1.00 20.00     0.195 C 
HETATM    4  C5  UNL     1     -40.726   4.363  -1.202  1.00 20.00     0.069 C 
HETATM    5  C6  UNL     1     -40.741   5.769  -0.606  1.00 20.00     0.172 C 
HETATM    6  O8  UNL     1     -40.834   6.734  -1.656  1.00 20.00    -0.387 OA
ENDROOT
BRANCH   2   7
HETATM    7  C3  UNL     1     -42.229   2.865  -2.623  1.00 20.00     0.248 C 
HETATM    8  O7  UNL     1     -43.265   2.378  -2.153  1.00 20.00    -0.274 OA
HETATM    9 CL9  UNL     1     -41.201   2.039  -3.776  1.00 20.00    -0.039 Cl
ENDBRANCH   2   7
TORSDOF 1
ENDMDL
MODEL 4
REMARK VINA RESULT:      -4.0     11.813     12.377
REMARK  1 active torsions:
REMARK  status: ('A' for Active; 'I' for Inactive)
REMARK    1  A    between atoms: C2_2  and  C3_3 
ROOT
HETATM    1  C1  UNL     1     -35.519  13.670  -4.468  1.00 20.00     0.011 C 
HETATM    2  C2  UNL     1     -35.829  14.705  -3.674  1.00 20.00     0.004 C 
HETATM    3  C4  UNL     1     -34.097  13.225  -4.642  1.00 20.00     0.195 C 
HETATM    4  C5  UNL     1     -34.781  15.489  -2.950  1.00 20.00     0.069 C 
HETATM    5  C6  UNL     1     -33.399  15.206  -3.535  1.00 20.00     0.172 C 
HETATM    6  O8  UNL     1     -33.213  13.796  -3.669  1.00 20.00    -0.387 OA
ENDROOT
BRANCH   2   7
HETATM    7  C3  UNL     1     -37.234  15.089  -3.541  1.00 20.00     0.248 C 
HETATM    8  O7  UNL     1     -38.110  14.229  -3.688  1.00 20.00    -0.274 OA
HETATM    9 CL9  UNL     1     -37.570  16.769  -3.174  1.00 20.00    -0.039 Cl
ENDBRANCH   2   7
TORSDOF 1
ENDMDL
MODEL 5
REMARK VINA RESULT:      -4.0      0.329      1.649
REMARK  1 active torsions:
REMARK  status: ('A' for Active; 'I' for Inactive)
REMARK    1  A    between atoms: C2_2  and  C3_3 
ROOT
HETATM    1  C1  UNL     1     -34.155   5.407   3.569  1.00 20.00     0.011 C 
HETATM    2  C2  UNL     1     -33.404   6.320   4.198  1.00 20.00     0.004 C 
HETATM    3  C4  UNL     1     -35.200   4.620   4.306  1.00 20.00     0.195 C 
HETATM    4  C5  UNL     1     -33.538   6.583   5.664  1.00 20.00     0.069 C 
HETATM    5  C6  UNL     1     -34.308   5.453   6.343  1.00 20.00     0.172 C 
HETATM    6  O8  UNL     1     -35.493   5.164   5.599  1.00 20.00    -0.387 OA
ENDROOT
BRANCH   2   7
HETATM    7  C3  UNL     1     -32.405   7.059   3.425  1.00 20.00     0.248 C 
HETATM    8  O7  UNL     1     -32.502   7.091   2.192  1.00 20.00    -0.274 OA
HETATM    9 CL9  UNL     1     -31.129   7.854   4.323  1.00 20.00    -0.039 Cl
ENDBRANCH   2   7
TORSDOF 1
ENDMDL
MODEL 6
REMARK VINA RESULT:      -4.0      1.353      2.093
REMARK  1 active torsions:
REMARK  status: ('A' for Active; 'I' for Inactive)
REMARK    1  A    between atoms: C2_2  and  C3_3 
ROOT
HETATM    1  C1  UNL     1     -33.780   5.775   3.209  1.00 20.00     0.011 C 
HETATM    2  C2  UNL     1     -33.144   6.598   4.054  1.00 20.00     0.004 C 
HETATM    3  C4  UNL     1     -34.919   4.915   3.674  1.00 20.00     0.195 C 
HETATM    4  C5  UNL     1     -33.507   6.681   5.503  1.00 20.00     0.069 C 
HETATM    5  C6  UNL     1     -34.363   5.483   5.911  1.00 20.00     0.172 C 
HETATM    6  O8  UNL     1     -35.415   5.299   4.962  1.00 20.00    -0.387 OA
ENDROOT
BRANCH   2   7
HETATM    7  C3  UNL     1     -32.043   7.415   3.543  1.00 20.00     0.248 C 
HETATM    8  O7  UNL     1     -31.083   7.662   4.282  1.00 20.00    -0.274 OA
HETATM    9 CL9  UNL     1     -32.175   7.986   1.893  1.00 20.00    -0.039 Cl
ENDBRANCH   2   7
TORSDOF 1
ENDMDL
MODEL 7
REMARK VINA RESULT:      -3.9     12.258     13.855
REMARK  1 active torsions:
REMARK  status: ('A' for Active; 'I' for Inactive)
REMARK    1  A    between atoms: C2_2  and  C3_3 
ROOT
HETATM    1  C1  UNL     1     -35.365  14.336  -6.675  1.00 20.00     0.011 C 
HETATM    2  C2  UNL     1     -34.522  14.612  -5.670  1.00 20.00     0.004 C 
HETATM    3  C4  UNL     1     -35.643  15.344  -7.752  1.00 20.00     0.195 C 
HETATM    4  C5  UNL     1     -33.844  15.939  -5.546  1.00 20.00     0.069 C 
HETATM    5  C6  UNL     1     -34.525  16.975  -6.438  1.00 20.00     0.172 C 
HETATM    6  O8  UNL     1     -34.712  16.433  -7.747  1.00 20.00    -0.387 OA
ENDROOT
BRANCH   2   7
HETATM    7  C3  UNL     1     -34.287  13.588  -4.652  1.00 20.00     0.248 C 
HETATM    8  O7  UNL     1     -35.064  12.628  -4.573  1.00 20.00    -0.274 OA
HETATM    9 CL9  UNL     1     -32.898  13.805  -3.608  1.00 20.00    -0.039 Cl
ENDBRANCH   2   7
TORSDOF 1
ENDMDL
MODEL 8
REMARK VINA RESULT:      -3.9     11.337     12.934
REMARK  1 active torsions:
REMARK  status: ('A' for Active; 'I' for Inactive)
REMARK    1  A    between atoms: C2_2  and  C3_3 
ROOT
HETATM    1  C1  UNL     1     -33.523  16.096  -4.767  1.00 20.00     0.011 C 
HETATM    2  C2  UNL     1     -33.863  15.363  -3.699  1.00 20.00     0.004 C 
HETATM    3  C4  UNL     1     -33.503  17.596  -4.704  1.00 20.00     0.195 C 
HETATM    4  C5  UNL     1     -34.270  15.991  -2.403  1.00 20.00     0.069 C 
HETATM    5  C6  UNL     1     -34.606  17.467  -2.605  1.00 20.00     0.172 C 
HETATM    6  O8  UNL     1     -33.570  18.096  -3.363  1.00 20.00    -0.387 OA
ENDROOT
BRANCH   2   7
HETATM    7  C3  UNL     1     -33.860  13.905  -3.820  1.00 20.00     0.248 C 
HETATM    8  O7  UNL     1     -32.830  13.280  -3.537  1.00 20.00    -0.274 OA
HETATM    9 CL9  UNL     1     -35.342  13.147  -4.362  1.00 20.00    -0.039 Cl
ENDBRANCH   2   7
TORSDOF 1
ENDMDL
MODEL 9
REMARK VINA RESULT:      -3.9     12.083     12.385
REMARK  1 active torsions:
REMARK  status: ('A' for Active; 'I' for Inactive)
REMARK    1  A    between atoms: C2_2  and  C3_3 
ROOT
HETATM    1  C1  UNL     1     -33.810  15.211  -3.481  1.00 20.00     0.011 C 
HETATM    2  C2  UNL     1     -34.986  14.737  -3.914  1.00 20.00     0.004 C 
HETATM    3  C4  UNL     1     -33.743  16.275  -2.424  1.00 20.00     0.195 C 
HETATM    4  C5  UNL     1     -36.289  15.260  -3.397  1.00 20.00     0.069 C 
HETATM    5  C6  UNL     1     -36.084  16.587  -2.670  1.00 20.00     0.172 C 
HETATM    6  O8  UNL     1     -34.994  16.470  -1.753  1.00 20.00    -0.387 OA
ENDROOT
BRANCH   2   7
HETATM    7  C3  UNL     1     -34.988  13.697  -4.942  1.00 20.00     0.248 C 
HETATM    8  O7  UNL     1     -34.866  12.514  -4.602  1.00 20.00    -0.274 OA
HETATM    9 CL9  UNL     1     -35.167  14.219  -6.604  1.00 20.00    -0.039 Cl
ENDBRANCH   2   7
TORSDOF 1
ENDMDL
