MODEL 1
REMARK VINA RESULT:      -4.3      0.000      0.000
REMARK  2 active torsions:
REMARK  status: ('A' for Active; 'I' for Inactive)
REMARK    1  A    between atoms: C1_1  and  C4_4 
REMARK    2  A    between atoms: C1_1  and  C6_6 
ROOT
HETATM    1  C1  UNL     1     -34.119   5.935   4.023  1.00 20.00     0.145 C 
HETATM    2  O7  UNL     1     -34.620   5.441   3.019  1.00 20.00    -0.296 OA
ENDROOT
BRANCH   1   3
HETATM    3  C4  UNL     1     -32.814   6.653   3.923  1.00 20.00     0.057 A 
HETATM    4  C2  UNL     1     -31.780   6.125   2.986  1.00 20.00     0.013 A 
HETATM    5  C3  UNL     1     -32.507   7.396   2.666  1.00 20.00     0.013 A 
ENDBRANCH   1   3
BRANCH   1   6
HETATM    6  C6  UNL     1     -34.753   5.887   5.394  1.00 20.00     0.123 C 
HETATM    7  C5  UNL     1     -33.923   6.603   6.442  1.00 20.00     0.030 C 
HETATM    8 BR8  UNL     1     -34.884   3.996   5.843  1.00 20.00    -0.084 Br
ENDBRANCH   1   6
TORSDOF 2
ENDMDL
MODEL 2
REMARK VINA RESULT:      -4.1      1.492      1.943
REMARK  2 active torsions:
REMARK  status: ('A' for Active; 'I' for Inactive)
REMARK    1  A    between atoms: C1_1  and  C4_4 
REMARK    2  A    between atoms: C1_1  and  C6_6 
ROOT
HETATM    1  C1  UNL     1     -33.497   6.163   4.401  1.00 20.00     0.145 C 
HETATM    2  O7  UNL     1     -33.468   6.814   5.438  1.00 20.00    -0.296 OA
ENDROOT
BRANCH   1   3
HETATM    3  C4  UNL     1     -32.432   6.357   3.374  1.00 20.00     0.057 A 
HETATM    4  C2  UNL     1     -32.483   7.576   2.515  1.00 20.00     0.013 A 
HETATM    5  C3  UNL     1     -31.436   7.448   3.581  1.00 20.00     0.013 A 
ENDBRANCH   1   3
BRANCH   1   6
HETATM    6  C6  UNL     1     -34.553   5.129   4.082  1.00 20.00     0.123 C 
HETATM    7  C5  UNL     1     -35.823   5.748   3.532  1.00 20.00     0.030 C 
HETATM    8 BR8  UNL     1     -34.938   4.240   5.772  1.00 20.00    -0.084 Br
ENDBRANCH   1   6
TORSDOF 2
ENDMDL
MODEL 3
REMARK VINA RESULT:      -4.0      2.447      3.836
REMARK  2 active torsions:
REMARK  status: ('A' for Active; 'I' for Inactive)
REMARK    1  A    between atoms: C1_1  and  C4_4 
REMARK    2  A    between atoms: C1_1  and  C6_6 
ROOT
HETATM    1  C1  UNL     1     -34.056   6.150   4.962  1.00 20.00     0.145 C 
HETATM    2  O7  UNL     1     -33.477   6.682   5.902  1.00 20.00    -0.296 OA
ENDROOT
BRANCH   1   3
HETATM    3  C4  UNL     1     -35.051   5.069   5.223  1.00 20.00     0.057 A 
HETATM    4  C2  UNL     1     -34.552   3.721   5.626  1.00 20.00     0.013 A 
HETATM    5  C3  UNL     1     -35.240   4.600   6.626  1.00 20.00     0.013 A 
ENDBRANCH   1   3
BRANCH   1   6
HETATM    6  C6  UNL     1     -33.847   6.532   3.516  1.00 20.00     0.123 C 
HETATM    7  C5  UNL     1     -34.166   5.396   2.563  1.00 20.00     0.030 C 
HETATM    8 BR8  UNL     1     -31.962   7.001   3.367  1.00 20.00    -0.084 Br
ENDBRANCH   1   6
TORSDOF 2
ENDMDL
MODEL 4
REMARK VINA RESULT:      -3.7     11.848     12.576
REMARK  2 active torsions:
REMARK  status: ('A' for Active; 'I' for Inactive)
REMARK    1  A    between atoms: C1_1  and  C4_4 
REMARK    2  A    between atoms: C1_1  and  C6_6 
ROOT
HETATM    1  C1  UNL     1     -34.920  13.817  -4.381  1.00 20.00     0.145 C 
HETATM    2  O7  UNL     1     -35.118  12.618  -4.537  1.00 20.00    -0.296 OA
ENDROOT
BRANCH   1   3
HETATM    3  C4  UNL     1     -33.913  14.277  -3.380  1.00 20.00     0.057 A 
HETATM    4  C2  UNL     1     -32.992  15.390  -3.755  1.00 20.00     0.013 A 
HETATM    5  C3  UNL     1     -34.090  15.623  -2.762  1.00 20.00     0.013 A 
ENDBRANCH   1   3
BRANCH   1   6
HETATM    6  C6  UNL     1     -35.626  14.899  -5.166  1.00 20.00     0.123 C 
HETATM    7  C5  UNL     1     -37.121  14.919  -4.911  1.00 20.00     0.030 C 
HETATM    8 BR8  UNL     1     -35.288  14.489  -7.040  1.00 20.00    -0.084 Br
ENDBRANCH   1   6
TORSDOF 2
ENDMDL
MODEL 5
REMARK VINA RESULT:      -3.7     11.700     12.790
REMARK  2 active torsions:
REMARK  status: ('A' for Active; 'I' for Inactive)
REMARK    1  A    between atoms: C1_1  and  C4_4 
REMARK    2  A    between atoms: C1_1  and  C6_6 
ROOT
HETATM    1  C1  UNL     1     -34.669  13.789  -4.860  1.00 20.00     0.145 C 
HETATM    2  O7  UNL     1     -34.958  12.744  -4.289  1.00 20.00    -0.296 OA
ENDROOT
BRANCH   1   3
HETATM    3  C4  UNL     1     -35.070  13.990  -6.284  1.00 20.00     0.057 A 
HETATM    4  C2  UNL     1     -35.833  15.222  -6.642  1.00 20.00     0.013 A 
HETATM    5  C3  UNL     1     -34.402  15.072  -7.064  1.00 20.00     0.013 A 
ENDBRANCH   1   3
BRANCH   1   6
HETATM    6  C6  UNL     1     -33.930  14.933  -4.205  1.00 20.00     0.123 C 
HETATM    7  C5  UNL     1     -32.617  14.497  -3.586  1.00 20.00     0.030 C 
HETATM    8 BR8  UNL     1     -35.122  15.595  -2.814  1.00 20.00    -0.084 Br
ENDBRANCH   1   6
TORSDOF 2
ENDMDL
MODEL 6
REMARK VINA RESULT:      -3.7     12.574     13.137
REMARK  2 active torsions:
REMARK  status: ('A' for Active; 'I' for Inactive)
REMARK    1  A    between atoms: C1_1  and  C4_4 
REMARK    2  A    between atoms: C1_1  and  C6_6 
ROOT
HETATM    1  C1  UNL     1     -33.623  15.712  -4.367  1.00 20.00     0.145 C 
HETATM    2  O7  UNL     1     -32.850  16.449  -4.968  1.00 20.00    -0.296 OA
ENDROOT
BRANCH   1   3
HETATM    3  C4  UNL     1     -33.604  15.677  -2.875  1.00 20.00     0.057 A 
HETATM    4  C2  UNL     1     -33.776  16.959  -2.130  1.00 20.00     0.013 A 
HETATM    5  C3  UNL     1     -34.876  15.941  -2.142  1.00 20.00     0.013 A 
ENDBRANCH   1   3
BRANCH   1   6
HETATM    6  C6  UNL     1     -34.640  14.823  -5.044  1.00 20.00     0.123 C 
HETATM    7  C5  UNL     1     -34.403  13.352  -4.763  1.00 20.00     0.030 C 
HETATM    8 BR8  UNL     1     -34.445  15.164  -6.951  1.00 20.00    -0.084 Br
ENDBRANCH   1   6
TORSDOF 2
ENDMDL
MODEL 7
REMARK VINA RESULT:      -3.7     11.801     12.592
REMARK  2 active torsions:
REMARK  status: ('A' for Active; 'I' for Inactive)
REMARK    1  A    between atoms: C1_1  and  C4_4 
REMARK    2  A    between atoms: C1_1  and  C6_6 
ROOT
HETATM    1  C1  UNL     1     -33.310  14.829  -3.793  1.00 20.00     0.145 C 
HETATM    2  O7  UNL     1     -32.124  14.748  -3.498  1.00 20.00    -0.296 OA
ENDROOT
BRANCH   1   3
HETATM    3  C4  UNL     1     -34.056  13.605  -4.208  1.00 20.00     0.057 A 
HETATM    4  C2  UNL     1     -35.547  13.627  -4.159  1.00 20.00     0.013 A 
HETATM    5  C3  UNL     1     -34.837  13.646  -5.479  1.00 20.00     0.013 A 
ENDBRANCH   1   3
BRANCH   1   6
HETATM    6  C6  UNL     1     -34.106  16.113  -3.745  1.00 20.00     0.123 C 
HETATM    7  C5  UNL     1     -33.500  17.204  -4.607  1.00 20.00     0.030 C 
HETATM    8 BR8  UNL     1     -34.089  16.669  -1.879  1.00 20.00    -0.084 Br
ENDBRANCH   1   6
TORSDOF 2
ENDMDL
MODEL 8
REMARK VINA RESULT:      -3.6     11.751     12.376
REMARK  2 active torsions:
REMARK  status: ('A' for Active; 'I' for Inactive)
REMARK    1  A    between atoms: C1_1  and  C4_4 
REMARK    2  A    between atoms: C1_1  and  C6_6 
ROOT
HETATM    1  C1  UNL     1     -35.213  15.148  -3.165  1.00 20.00     0.145 C 
HETATM    2  O7  UNL     1     -36.376  15.530  -3.117  1.00 20.00    -0.296 OA
ENDROOT
BRANCH   1   3
HETATM    3  C4  UNL     1     -34.186  15.789  -2.292  1.00 20.00     0.057 A 
HETATM    4  C2  UNL     1     -34.092  17.279  -2.278  1.00 20.00     0.013 A 
HETATM    5  C3  UNL     1     -34.647  16.547  -1.093  1.00 20.00     0.013 A 
ENDBRANCH   1   3
BRANCH   1   6
HETATM    6  C6  UNL     1     -34.728  14.027  -4.055  1.00 20.00     0.123 C 
HETATM    7  C5  UNL     1     -33.304  13.612  -3.742  1.00 20.00     0.030 C 
HETATM    8 BR8  UNL     1     -34.823  14.724  -5.871  1.00 20.00    -0.084 Br
ENDBRANCH   1   6
TORSDOF 2
ENDMDL
MODEL 9
REMARK VINA RESULT:      -3.5     12.306     12.717
REMARK  2 active torsions:
REMARK  status: ('A' for Active; 'I' for Inactive)
REMARK    1  A    between atoms: C1_1  and  C4_4 
REMARK    2  A    between atoms: C1_1  and  C6_6 
ROOT
HETATM    1  C1  UNL     1     -33.547  15.914  -3.527  1.00 20.00     0.145 C 
HETATM    2  O7  UNL     1     -32.778  16.058  -4.470  1.00 20.00    -0.296 OA
ENDROOT
BRANCH   1   3
HETATM    3  C4  UNL     1     -34.169  14.580  -3.275  1.00 20.00     0.057 A 
HETATM    4  C2  UNL     1     -35.335  14.168  -4.110  1.00 20.00     0.013 A 
HETATM    5  C3  UNL     1     -34.001  13.513  -4.304  1.00 20.00     0.013 A 
ENDBRANCH   1   3
BRANCH   1   6
HETATM    6  C6  UNL     1     -33.909  17.014  -2.556  1.00 20.00     0.123 C 
HETATM    7  C5  UNL     1     -34.524  16.481  -1.277  1.00 20.00     0.030 C 
HETATM    8 BR8  UNL     1     -35.205  18.128  -3.490  1.00 20.00    -0.084 Br
ENDBRANCH   1   6
TORSDOF 2
ENDMDL
