MODEL 1
REMARK VINA RESULT:      -4.9      0.000      0.000
REMARK  0 active torsions:
REMARK  status: ('A' for Active; 'I' for Inactive)
ROOT
HETATM    1  C1  UNL     1     -34.362  13.490  -4.168  1.00 20.00     0.095 C 
HETATM    2  C2  UNL     1     -33.852  17.468  -2.315  1.00 20.00     0.007 C 
HETATM    3  C3  UNL     1     -34.490  16.311  -1.539  1.00 20.00     0.008 C 
HETATM    4  C4  UNL     1     -33.289  16.379  -4.620  1.00 20.00     0.276 C 
HETATM    5  C5  UNL     1     -33.726  14.495  -3.301  1.00 20.00     0.330 C 
HETATM    6  C6  UNL     1     -34.349  16.834  -3.634  1.00 20.00     0.021 C 
HETATM    7  C7  UNL     1     -34.736  15.561  -2.867  1.00 20.00     0.038 C 
HETATM    8  N8  UNL     1     -34.865  12.698  -4.851  1.00 20.00    -0.195 NA
HETATM    9  N9  UNL     1     -32.655  15.189  -4.038  1.00 20.00     0.102 N 
HETATM   10  H19 UNL     1     -32.237  14.601  -4.755  1.00 20.00     0.317 HD
ENDROOT
TORSDOF 0
ENDMDL
MODEL 2
REMARK VINA RESULT:      -4.3      2.147      2.769
REMARK  0 active torsions:
REMARK  status: ('A' for Active; 'I' for Inactive)
ROOT
HETATM    1  C1  UNL     1     -37.160  14.518  -4.043  1.00 20.00     0.095 C 
HETATM    2  C2  UNL     1     -32.806  15.155  -3.649  1.00 20.00     0.007 C 
HETATM    3  C3  UNL     1     -33.385  13.749  -3.844  1.00 20.00     0.008 C 
HETATM    4  C4  UNL     1     -34.934  16.666  -3.674  1.00 20.00     0.276 C 
HETATM    5  C5  UNL     1     -35.774  14.652  -4.521  1.00 20.00     0.330 C 
HETATM    6  C6  UNL     1     -34.130  15.586  -2.976  1.00 20.00     0.021 C 
HETATM    7  C7  UNL     1     -34.778  14.269  -3.424  1.00 20.00     0.038 C 
HETATM    8  N8  UNL     1     -38.253  14.413  -3.666  1.00 20.00    -0.195 NA
HETATM    9  N9  UNL     1     -35.500  16.054  -4.883  1.00 20.00     0.102 N 
HETATM   10  H19 UNL     1     -36.338  16.543  -5.192  1.00 20.00     0.317 HD
ENDROOT
TORSDOF 0
ENDMDL
MODEL 3
REMARK VINA RESULT:      -4.2      1.725      3.454
REMARK  0 active torsions:
REMARK  status: ('A' for Active; 'I' for Inactive)
ROOT
HETATM    1  C1  UNL     1     -34.673  16.376  -1.670  1.00 20.00     0.095 C 
HETATM    2  C2  UNL     1     -34.476  13.579  -5.085  1.00 20.00     0.007 C 
HETATM    3  C3  UNL     1     -35.821  13.998  -4.483  1.00 20.00     0.008 C 
HETATM    4  C4  UNL     1     -32.755  14.905  -3.636  1.00 20.00     0.276 C 
HETATM    5  C5  UNL     1     -34.763  15.975  -3.084  1.00 20.00     0.330 C 
HETATM    6  C6  UNL     1     -33.808  13.815  -3.710  1.00 20.00     0.021 C 
HETATM    7  C7  UNL     1     -35.095  14.485  -3.209  1.00 20.00     0.038 C 
HETATM    8  N8  UNL     1     -34.601  16.692  -0.556  1.00 20.00    -0.195 NA
HETATM    9  N9  UNL     1     -33.466  16.185  -3.751  1.00 20.00     0.102 N 
HETATM   10  H19 UNL     1     -32.935  16.945  -3.330  1.00 20.00     0.317 HD
ENDROOT
TORSDOF 0
ENDMDL
MODEL 4
REMARK VINA RESULT:      -4.1      1.888      3.506
REMARK  0 active torsions:
REMARK  status: ('A' for Active; 'I' for Inactive)
ROOT
HETATM    1  C1  UNL     1     -34.060  15.973  -2.648  1.00 20.00     0.095 C 
HETATM    2  C2  UNL     1     -34.389  14.855  -6.910  1.00 20.00     0.007 C 
HETATM    3  C3  UNL     1     -34.252  16.321  -6.485  1.00 20.00     0.008 C 
HETATM    4  C4  UNL     1     -34.328  13.584  -4.630  1.00 20.00     0.276 C 
HETATM    5  C5  UNL     1     -33.564  15.708  -4.008  1.00 20.00     0.330 C 
HETATM    6  C6  UNL     1     -35.059  14.544  -5.551  1.00 20.00     0.021 C 
HETATM    7  C7  UNL     1     -34.666  15.940  -5.046  1.00 20.00     0.038 C 
HETATM    8  N8  UNL     1     -34.452  16.181  -1.575  1.00 20.00    -0.195 NA
HETATM    9  N9  UNL     1     -33.148  14.300  -4.127  1.00 20.00     0.102 N 
HETATM   10  H19 UNL     1     -32.829  13.916  -3.240  1.00 20.00     0.317 HD
ENDROOT
TORSDOF 0
ENDMDL
MODEL 5
REMARK VINA RESULT:      -4.1      1.475      2.200
REMARK  0 active torsions:
REMARK  status: ('A' for Active; 'I' for Inactive)
ROOT
HETATM    1  C1  UNL     1     -35.079  13.976  -4.112  1.00 20.00     0.095 C 
HETATM    2  C2  UNL     1     -33.828  18.059  -2.979  1.00 20.00     0.007 C 
HETATM    3  C3  UNL     1     -33.730  17.577  -4.430  1.00 20.00     0.008 C 
HETATM    4  C4  UNL     1     -34.832  15.988  -1.747  1.00 20.00     0.276 C 
HETATM    5  C5  UNL     1     -35.217  15.437  -3.989  1.00 20.00     0.330 C 
HETATM    6  C6  UNL     1     -33.665  16.597  -2.501  1.00 20.00     0.021 C 
HETATM    7  C7  UNL     1     -33.844  16.113  -3.947  1.00 20.00     0.038 C 
HETATM    8  N8  UNL     1     -34.971  12.825  -4.209  1.00 20.00    -0.195 NA
HETATM    9  N9  UNL     1     -35.902  15.773  -2.729  1.00 20.00     0.102 N 
HETATM   10  H19 UNL     1     -36.541  15.039  -2.430  1.00 20.00     0.317 HD
ENDROOT
TORSDOF 0
ENDMDL
MODEL 6
REMARK VINA RESULT:      -4.0      1.766      2.831
REMARK  0 active torsions:
REMARK  status: ('A' for Active; 'I' for Inactive)
ROOT
HETATM    1  C1  UNL     1     -35.026  13.773  -4.784  1.00 20.00     0.095 C 
HETATM    2  C2  UNL     1     -33.818  17.856  -5.962  1.00 20.00     0.007 C 
HETATM    3  C3  UNL     1     -34.494  16.912  -6.962  1.00 20.00     0.008 C 
HETATM    4  C4  UNL     1     -33.725  16.420  -3.783  1.00 20.00     0.276 C 
HETATM    5  C5  UNL     1     -35.232  15.197  -5.092  1.00 20.00     0.330 C 
HETATM    6  C6  UNL     1     -33.255  16.627  -5.211  1.00 20.00     0.021 C 
HETATM    7  C7  UNL     1     -34.156  15.710  -6.052  1.00 20.00     0.038 C 
HETATM    8  N8  UNL     1     -34.863  12.649  -4.542  1.00 20.00    -0.195 NA
HETATM    9  N9  UNL     1     -35.130  15.998  -3.859  1.00 20.00     0.102 N 
HETATM   10  H19 UNL     1     -35.406  15.472  -3.033  1.00 20.00     0.317 HD
ENDROOT
TORSDOF 0
ENDMDL
MODEL 7
REMARK VINA RESULT:      -4.0      1.585      3.487
REMARK  0 active torsions:
REMARK  status: ('A' for Active; 'I' for Inactive)
ROOT
HETATM    1  C1  UNL     1     -33.897  17.548  -3.365  1.00 20.00     0.095 C 
HETATM    2  C2  UNL     1     -34.908  13.356  -4.329  1.00 20.00     0.007 C 
HETATM    3  C3  UNL     1     -35.991  14.440  -4.283  1.00 20.00     0.008 C 
HETATM    4  C4  UNL     1     -32.732  14.687  -3.773  1.00 20.00     0.276 C 
HETATM    5  C5  UNL     1     -34.238  16.417  -4.244  1.00 20.00     0.330 C 
HETATM    6  C6  UNL     1     -34.079  14.167  -3.306  1.00 20.00     0.021 C 
HETATM    7  C7  UNL     1     -35.036  15.355  -3.483  1.00 20.00     0.038 C 
HETATM    8  N8  UNL     1     -33.629  18.439  -2.671  1.00 20.00    -0.195 NA
HETATM    9  N9  UNL     1     -33.007  15.768  -4.728  1.00 20.00     0.102 N 
HETATM   10  H19 UNL     1     -32.226  16.419  -4.789  1.00 20.00     0.317 HD
ENDROOT
TORSDOF 0
ENDMDL
MODEL 8
REMARK VINA RESULT:      -3.9      1.935      3.751
REMARK  0 active torsions:
REMARK  status: ('A' for Active; 'I' for Inactive)
ROOT
HETATM    1  C1  UNL     1     -33.564  17.544  -4.978  1.00 20.00     0.095 C 
HETATM    2  C2  UNL     1     -34.726  13.283  -4.863  1.00 20.00     0.007 C 
HETATM    3  C3  UNL     1     -35.132  14.181  -6.036  1.00 20.00     0.008 C 
HETATM    4  C4  UNL     1     -33.360  14.903  -3.338  1.00 20.00     0.276 C 
HETATM    5  C5  UNL     1     -33.477  16.119  -5.336  1.00 20.00     0.330 C 
HETATM    6  C6  UNL     1     -34.699  14.526  -3.944  1.00 20.00     0.021 C 
HETATM    7  C7  UNL     1     -34.835  15.431  -5.177  1.00 20.00     0.038 C 
HETATM    8  N8  UNL     1     -33.634  18.668  -4.696  1.00 20.00    -0.195 NA
HETATM    9  N9  UNL     1     -32.536  15.431  -4.433  1.00 20.00     0.102 N 
HETATM   10  H19 UNL     1     -31.809  16.053  -4.087  1.00 20.00     0.317 HD
ENDROOT
TORSDOF 0
ENDMDL
MODEL 9
REMARK VINA RESULT:      -3.9     11.966     12.998
REMARK  0 active torsions:
REMARK  status: ('A' for Active; 'I' for Inactive)
ROOT
HETATM    1  C1  UNL     1     -32.969   6.637   3.296  1.00 20.00     0.095 C 
HETATM    2  C2  UNL     1     -35.294   4.849   6.600  1.00 20.00     0.007 C 
HETATM    3  C3  UNL     1     -34.479   6.129   6.810  1.00 20.00     0.008 C 
HETATM    4  C4  UNL     1     -34.877   4.303   4.081  1.00 20.00     0.276 C 
HETATM    5  C5  UNL     1     -34.107   6.509   4.221  1.00 20.00     0.330 C 
HETATM    6  C6  UNL     1     -34.310   4.428   5.483  1.00 20.00     0.021 C 
HETATM    7  C7  UNL     1     -33.679   5.827   5.523  1.00 20.00     0.038 C 
HETATM    8  N8  UNL     1     -32.071   6.738   2.567  1.00 20.00    -0.195 NA
HETATM    9  N9  UNL     1     -35.155   5.668   3.616  1.00 20.00     0.102 N 
HETATM   10  H19 UNL     1     -35.154   5.723   2.600  1.00 20.00     0.317 HD
ENDROOT
TORSDOF 0
ENDMDL
