MODEL 1
REMARK VINA RESULT:      -4.8      0.000      0.000
REMARK  1 active torsions:
REMARK  status: ('A' for Active; 'I' for Inactive)
REMARK    1  A    between atoms: C1_1  and  C4_4 
ROOT
HETATM    1  C2  UNL     1     -34.984   5.289   3.681  1.00 20.00     0.016 C 
HETATM    2  C3  UNL     1     -33.981   5.564   2.545  1.00 20.00     0.022 C 
HETATM    3  C4  UNL     1     -34.241   6.374   4.506  1.00 20.00     0.090 C 
HETATM    4  C5  UNL     1     -32.995   6.043   3.634  1.00 20.00     0.094 C 
HETATM    5 CL8  UNL     1     -31.855   7.358   3.231  1.00 20.00    -0.124 Cl
ENDROOT
BRANCH   3   6
HETATM    6  C1  UNL     1     -34.125   6.163   6.019  1.00 20.00     0.224 C 
HETATM    7  O6  UNL     1     -33.784   7.070   6.772  1.00 20.00    -0.279 OA
HETATM    8 CL7  UNL     1     -34.526   4.538   6.485  1.00 20.00    -0.043 Cl
ENDBRANCH   3   6
TORSDOF 1
ENDMDL
MODEL 2
REMARK VINA RESULT:      -4.6      2.196      3.431
REMARK  1 active torsions:
REMARK  status: ('A' for Active; 'I' for Inactive)
REMARK    1  A    between atoms: C1_1  and  C4_4 
ROOT
HETATM    1  C2  UNL     1     -34.942   4.307   5.119  1.00 20.00     0.016 C 
HETATM    2  C3  UNL     1     -35.048   4.985   6.499  1.00 20.00     0.022 C 
HETATM    3  C4  UNL     1     -33.764   5.270   4.813  1.00 20.00     0.090 C 
HETATM    4  C5  UNL     1     -34.412   6.234   5.849  1.00 20.00     0.094 C 
HETATM    5 CL8  UNL     1     -33.347   7.265   6.847  1.00 20.00    -0.124 Cl
ENDROOT
BRANCH   3   6
HETATM    6  C1  UNL     1     -33.610   5.773   3.374  1.00 20.00     0.224 C 
HETATM    7  O6  UNL     1     -34.361   5.403   2.478  1.00 20.00    -0.279 OA
HETATM    8 CL7  UNL     1     -32.287   6.888   3.210  1.00 20.00    -0.043 Cl
ENDBRANCH   3   6
TORSDOF 1
ENDMDL
MODEL 3
REMARK VINA RESULT:      -4.4      1.703      3.383
REMARK  1 active torsions:
REMARK  status: ('A' for Active; 'I' for Inactive)
REMARK    1  A    between atoms: C1_1  and  C4_4 
ROOT
HETATM    1  C2  UNL     1     -33.761   5.629   2.630  1.00 20.00     0.016 C 
HETATM    2  C3  UNL     1     -34.803   5.333   3.726  1.00 20.00     0.022 C 
HETATM    3  C4  UNL     1     -32.828   6.151   3.755  1.00 20.00     0.090 C 
HETATM    4  C5  UNL     1     -34.128   6.442   4.562  1.00 20.00     0.094 C 
HETATM    5 CL8  UNL     1     -34.092   6.266   6.340  1.00 20.00    -0.124 Cl
ENDROOT
BRANCH   3   6
HETATM    6  C1  UNL     1     -31.914   7.336   3.430  1.00 20.00     0.224 C 
HETATM    7  O6  UNL     1     -31.043   7.711   4.208  1.00 20.00    -0.279 OA
HETATM    8 CL7  UNL     1     -32.275   8.033   1.880  1.00 20.00    -0.043 Cl
ENDBRANCH   3   6
TORSDOF 1
ENDMDL
MODEL 4
REMARK VINA RESULT:      -4.2      2.329      2.923
REMARK  1 active torsions:
REMARK  status: ('A' for Active; 'I' for Inactive)
REMARK    1  A    between atoms: C1_1  and  C4_4 
ROOT
HETATM    1  C2  UNL     1     -34.359   6.083   6.649  1.00 20.00     0.016 C 
HETATM    2  C3  UNL     1     -33.326   7.157   6.258  1.00 20.00     0.022 C 
HETATM    3  C4  UNL     1     -33.981   5.342   5.339  1.00 20.00     0.090 C 
HETATM    4  C5  UNL     1     -33.555   6.735   4.790  1.00 20.00     0.094 C 
HETATM    5 CL8  UNL     1     -32.180   6.826   3.653  1.00 20.00    -0.124 Cl
ENDROOT
BRANCH   3   6
HETATM    6  C1  UNL     1     -35.094   4.597   4.596  1.00 20.00     0.224 C 
HETATM    7  O6  UNL     1     -35.298   3.400   4.772  1.00 20.00    -0.279 OA
HETATM    8 CL7  UNL     1     -35.978   5.641   3.526  1.00 20.00    -0.043 Cl
ENDBRANCH   3   6
TORSDOF 1
ENDMDL
MODEL 5
REMARK VINA RESULT:      -4.1      2.005      3.784
REMARK  1 active torsions:
REMARK  status: ('A' for Active; 'I' for Inactive)
REMARK    1  A    between atoms: C1_1  and  C4_4 
ROOT
HETATM    1  C2  UNL     1     -33.382   7.069   5.855  1.00 20.00     0.016 C 
HETATM    2  C3  UNL     1     -34.354   6.021   6.432  1.00 20.00     0.022 C 
HETATM    3  C4  UNL     1     -33.737   6.520   4.447  1.00 20.00     0.090 C 
HETATM    4  C5  UNL     1     -34.083   5.182   5.164  1.00 20.00     0.094 C 
HETATM    5 CL8  UNL     1     -35.406   4.175   4.510  1.00 20.00    -0.124 Cl
ENDROOT
BRANCH   3   6
HETATM    6  C1  UNL     1     -32.626   6.494   3.392  1.00 20.00     0.224 C 
HETATM    7  O6  UNL     1     -31.982   5.476   3.160  1.00 20.00    -0.279 OA
HETATM    8 CL7  UNL     1     -32.425   8.035   2.616  1.00 20.00    -0.043 Cl
ENDBRANCH   3   6
TORSDOF 1
ENDMDL
MODEL 6
REMARK VINA RESULT:      -3.9     11.965     12.320
REMARK  1 active torsions:
REMARK  status: ('A' for Active; 'I' for Inactive)
REMARK    1  A    between atoms: C1_1  and  C4_4 
ROOT
HETATM    1  C2  UNL     1     -33.574  13.849  -3.853  1.00 20.00     0.016 C 
HETATM    2  C3  UNL     1     -34.790  13.281  -4.610  1.00 20.00     0.022 C 
HETATM    3  C4  UNL     1     -34.574  14.706  -3.030  1.00 20.00     0.090 C 
HETATM    4  C5  UNL     1     -35.527  14.591  -4.256  1.00 20.00     0.094 C 
HETATM    5 CL8  UNL     1     -37.290  14.526  -3.969  1.00 20.00    -0.124 Cl
ENDROOT
BRANCH   3   6
HETATM    6  C1  UNL     1     -34.129  16.109  -2.606  1.00 20.00     0.224 C 
HETATM    7  O6  UNL     1     -33.521  16.851  -3.370  1.00 20.00    -0.279 OA
HETATM    8 CL7  UNL     1     -34.589  16.472  -0.970  1.00 20.00    -0.043 Cl
ENDBRANCH   3   6
TORSDOF 1
ENDMDL
MODEL 7
REMARK VINA RESULT:      -3.9     11.555     12.534
REMARK  1 active torsions:
REMARK  status: ('A' for Active; 'I' for Inactive)
REMARK    1  A    between atoms: C1_1  and  C4_4 
ROOT
HETATM    1  C2  UNL     1     -35.505  15.919  -4.843  1.00 20.00     0.016 C 
HETATM    2  C3  UNL     1     -35.367  17.081  -3.840  1.00 20.00     0.022 C 
HETATM    3  C4  UNL     1     -35.306  14.953  -3.644  1.00 20.00     0.090 C 
HETATM    4  C5  UNL     1     -34.539  16.121  -2.958  1.00 20.00     0.094 C 
HETATM    5 CL8  UNL     1     -34.645  16.292  -1.182  1.00 20.00    -0.124 Cl
ENDROOT
BRANCH   3   6
HETATM    6  C1  UNL     1     -34.538  13.652  -3.898  1.00 20.00     0.224 C 
HETATM    7  O6  UNL     1     -35.105  12.634  -4.281  1.00 20.00    -0.279 OA
HETATM    8 CL7  UNL     1     -32.839  13.824  -3.581  1.00 20.00    -0.043 Cl
ENDBRANCH   3   6
TORSDOF 1
ENDMDL
MODEL 8
REMARK VINA RESULT:      -3.9      1.898      2.822
REMARK  1 active torsions:
REMARK  status: ('A' for Active; 'I' for Inactive)
REMARK    1  A    between atoms: C1_1  and  C4_4 
ROOT
HETATM    1  C2  UNL     1     -34.262   4.354   6.339  1.00 20.00     0.016 C 
HETATM    2  C3  UNL     1     -35.205   3.825   5.241  1.00 20.00     0.022 C 
HETATM    3  C4  UNL     1     -34.552   5.782   5.803  1.00 20.00     0.090 C 
HETATM    4  C5  UNL     1     -34.862   5.100   4.438  1.00 20.00     0.094 C 
HETATM    5 CL8  UNL     1     -36.122   5.811   3.390  1.00 20.00    -0.124 Cl
ENDROOT
BRANCH   3   6
HETATM    6  C1  UNL     1     -33.411   6.803   5.843  1.00 20.00     0.224 C 
HETATM    7  O6  UNL     1     -33.136   7.422   6.866  1.00 20.00    -0.279 OA
HETATM    8 CL7  UNL     1     -32.607   6.944   4.310  1.00 20.00    -0.043 Cl
ENDBRANCH   3   6
TORSDOF 1
ENDMDL
MODEL 9
REMARK VINA RESULT:      -3.8     12.588     12.984
REMARK  1 active torsions:
REMARK  status: ('A' for Active; 'I' for Inactive)
REMARK    1  A    between atoms: C1_1  and  C4_4 
ROOT
HETATM    1  C2  UNL     1     -33.116  15.056  -3.684  1.00 20.00     0.016 C 
HETATM    2  C3  UNL     1     -33.823  15.960  -2.656  1.00 20.00     0.022 C 
HETATM    3  C4  UNL     1     -34.437  15.067  -4.499  1.00 20.00     0.090 C 
HETATM    4  C5  UNL     1     -35.154  15.348  -3.147  1.00 20.00     0.094 C 
HETATM    5 CL8  UNL     1     -36.615  16.376  -3.147  1.00 20.00    -0.124 Cl
ENDROOT
BRANCH   3   6
HETATM    6  C1  UNL     1     -34.819  13.790  -5.254  1.00 20.00     0.224 C 
HETATM    7  O6  UNL     1     -34.801  12.691  -4.711  1.00 20.00    -0.279 OA
HETATM    8 CL7  UNL     1     -35.261  14.114  -6.903  1.00 20.00    -0.043 Cl
ENDBRANCH   3   6
TORSDOF 1
ENDMDL
