MODEL 1
REMARK VINA RESULT:      -4.3      0.000      0.000
REMARK  3 active torsions:
REMARK  status: ('A' for Active; 'I' for Inactive)
REMARK    1  A    between atoms: C1_1  and  C2_2 
REMARK    2  A    between atoms: C1_1  and  O10_10 
REMARK    3  A    between atoms: C7_7  and  O10_10 
ROOT
HETATM    1  C1  UNL     1     -36.136  14.709  -3.545  1.00 20.00     0.291 C 
HETATM    2  O8  UNL     1     -37.263  14.240  -3.631  1.00 20.00    -0.262 OA
ENDROOT
BRANCH   1   3
HETATM    3  C2  UNL     1     -34.913  13.950  -3.794  1.00 20.00     0.250 A 
HETATM    4  C3  UNL     1     -34.416  13.678  -5.191  1.00 20.00     0.157 A 
HETATM    5  C4  UNL     1     -35.116  14.177  -6.406  1.00 20.00     0.042 C 
HETATM    6  O9  UNL     1     -35.140  12.692  -4.451  1.00 20.00    -0.365 OA
ENDBRANCH   1   3
BRANCH   1   7
HETATM    7  O10 UNL     1     -35.818  15.992  -3.211  1.00 20.00    -0.315 OA
BRANCH   7   8
HETATM    8  C7  UNL     1     -34.535  16.169  -2.601  1.00 20.00     0.123 C 
HETATM    9  C5  UNL     1     -33.789  17.284  -3.317  1.00 20.00     0.040 C 
HETATM   10  C6  UNL     1     -34.722  16.472  -1.122  1.00 20.00     0.040 C 
ENDBRANCH   7   8
ENDBRANCH   1   7
TORSDOF 3
ENDMDL
MODEL 2
REMARK VINA RESULT:      -4.1      1.303      1.859
REMARK  3 active torsions:
REMARK  status: ('A' for Active; 'I' for Inactive)
REMARK    1  A    between atoms: C1_1  and  C2_2 
REMARK    2  A    between atoms: C1_1  and  O10_10 
REMARK    3  A    between atoms: C7_7  and  O10_10 
ROOT
HETATM    1  C1  UNL     1     -34.298  13.933  -3.838  1.00 20.00     0.291 C 
HETATM    2  O8  UNL     1     -33.186  13.453  -3.667  1.00 20.00    -0.262 OA
ENDROOT
BRANCH   1   3
HETATM    3  C2  UNL     1     -35.213  13.522  -4.901  1.00 20.00     0.250 A 
HETATM    4  C3  UNL     1     -35.177  14.153  -6.270  1.00 20.00     0.157 A 
HETATM    5  C4  UNL     1     -34.202  15.214  -6.643  1.00 20.00     0.042 C 
HETATM    6  O9  UNL     1     -36.141  14.548  -5.291  1.00 20.00    -0.365 OA
ENDBRANCH   1   3
BRANCH   1   7
HETATM    7  O10 UNL     1     -34.880  14.915  -3.091  1.00 20.00    -0.315 OA
BRANCH   7   8
HETATM    8  C7  UNL     1     -33.981  15.884  -2.541  1.00 20.00     0.123 C 
HETATM    9  C5  UNL     1     -33.735  16.978  -3.569  1.00 20.00     0.040 C 
HETATM   10  C6  UNL     1     -34.569  16.438  -1.253  1.00 20.00     0.040 C 
ENDBRANCH   7   8
ENDBRANCH   1   7
TORSDOF 3
ENDMDL
MODEL 3
REMARK VINA RESULT:      -4.0      1.507      2.079
REMARK  3 active torsions:
REMARK  status: ('A' for Active; 'I' for Inactive)
REMARK    1  A    between atoms: C1_1  and  C2_2 
REMARK    2  A    between atoms: C1_1  and  O10_10 
REMARK    3  A    between atoms: C7_7  and  O10_10 
ROOT
HETATM    1  C1  UNL     1     -33.474  14.895  -3.708  1.00 20.00     0.291 C 
HETATM    2  O8  UNL     1     -32.691  15.717  -4.165  1.00 20.00    -0.262 OA
ENDROOT
BRANCH   1   3
HETATM    3  C2  UNL     1     -33.694  13.569  -4.280  1.00 20.00     0.250 A 
HETATM    4  C3  UNL     1     -34.707  13.332  -5.371  1.00 20.00     0.157 A 
HETATM    5  C4  UNL     1     -35.532  14.423  -5.956  1.00 20.00     0.042 C 
HETATM    6  O9  UNL     1     -34.999  13.033  -4.004  1.00 20.00    -0.365 OA
ENDBRANCH   1   3
BRANCH   1   7
HETATM    7  O10 UNL     1     -34.265  15.056  -2.609  1.00 20.00    -0.315 OA
BRANCH   7   8
HETATM    8  C7  UNL     1     -34.688  16.398  -2.346  1.00 20.00     0.123 C 
HETATM    9  C5  UNL     1     -36.088  16.601  -2.902  1.00 20.00     0.040 C 
HETATM   10  C6  UNL     1     -34.630  16.656  -0.848  1.00 20.00     0.040 C 
ENDBRANCH   7   8
ENDBRANCH   1   7
TORSDOF 3
ENDMDL
MODEL 4
REMARK VINA RESULT:      -4.0      1.707      2.239
REMARK  3 active torsions:
REMARK  status: ('A' for Active; 'I' for Inactive)
REMARK    1  A    between atoms: C1_1  and  C2_2 
REMARK    2  A    between atoms: C1_1  and  O10_10 
REMARK    3  A    between atoms: C7_7  and  O10_10 
ROOT
HETATM    1  C1  UNL     1     -33.441  15.938  -4.031  1.00 20.00     0.291 C 
HETATM    2  O8  UNL     1     -32.781  16.491  -4.900  1.00 20.00    -0.262 OA
ENDROOT
BRANCH   1   3
HETATM    3  C2  UNL     1     -33.394  14.504  -3.756  1.00 20.00     0.250 A 
HETATM    4  C3  UNL     1     -34.162  13.509  -4.589  1.00 20.00     0.157 A 
HETATM    5  C4  UNL     1     -34.998  13.908  -5.754  1.00 20.00     0.042 C 
HETATM    6  O9  UNL     1     -34.652  13.959  -3.324  1.00 20.00    -0.365 OA
ENDBRANCH   1   3
BRANCH   1   7
HETATM    7  O10 UNL     1     -34.319  16.538  -3.177  1.00 20.00    -0.315 OA
BRANCH   7   8
HETATM    8  C7  UNL     1     -33.754  17.031  -1.958  1.00 20.00     0.123 C 
HETATM    9  C5  UNL     1     -33.599  18.540  -2.052  1.00 20.00     0.040 C 
HETATM   10  C6  UNL     1     -34.643  16.624  -0.793  1.00 20.00     0.040 C 
ENDBRANCH   7   8
ENDBRANCH   1   7
TORSDOF 3
ENDMDL
MODEL 5
REMARK VINA RESULT:      -3.8      2.052      3.036
REMARK  3 active torsions:
REMARK  status: ('A' for Active; 'I' for Inactive)
REMARK    1  A    between atoms: C1_1  and  C2_2 
REMARK    2  A    between atoms: C1_1  and  O10_10 
REMARK    3  A    between atoms: C7_7  and  O10_10 
ROOT
HETATM    1  C1  UNL     1     -35.340  14.631  -5.807  1.00 20.00     0.291 C 
HETATM    2  O8  UNL     1     -35.148  13.978  -6.824  1.00 20.00    -0.262 OA
ENDROOT
BRANCH   1   3
HETATM    3  C2  UNL     1     -35.620  14.043  -4.499  1.00 20.00     0.250 A 
HETATM    4  C3  UNL     1     -34.522  13.737  -3.513  1.00 20.00     0.157 A 
HETATM    5  C4  UNL     1     -33.088  14.029  -3.786  1.00 20.00     0.042 C 
HETATM    6  O9  UNL     1     -35.089  12.717  -4.338  1.00 20.00    -0.365 OA
ENDBRANCH   1   3
BRANCH   1   7
HETATM    7  O10 UNL     1     -35.326  15.990  -5.703  1.00 20.00    -0.315 OA
BRANCH   7   8
HETATM    8  C7  UNL     1     -34.173  16.638  -6.251  1.00 20.00     0.123 C 
HETATM    9  C5  UNL     1     -34.591  17.472  -7.452  1.00 20.00     0.040 C 
HETATM   10  C6  UNL     1     -33.516  17.487  -5.173  1.00 20.00     0.040 C 
ENDBRANCH   7   8
ENDBRANCH   1   7
TORSDOF 3
ENDMDL
MODEL 6
REMARK VINA RESULT:      -3.8      1.247      1.831
REMARK  3 active torsions:
REMARK  status: ('A' for Active; 'I' for Inactive)
REMARK    1  A    between atoms: C1_1  and  C2_2 
REMARK    2  A    between atoms: C1_1  and  O10_10 
REMARK    3  A    between atoms: C7_7  and  O10_10 
ROOT
HETATM    1  C1  UNL     1     -34.790  15.053  -3.299  1.00 20.00     0.291 C 
HETATM    2  O8  UNL     1     -35.958  15.213  -2.972  1.00 20.00    -0.262 OA
ENDROOT
BRANCH   1   3
HETATM    3  C2  UNL     1     -34.238  13.782  -3.764  1.00 20.00     0.250 A 
HETATM    4  C3  UNL     1     -34.400  13.319  -5.189  1.00 20.00     0.157 A 
HETATM    5  C4  UNL     1     -35.107  14.123  -6.223  1.00 20.00     0.042 C 
HETATM    6  O9  UNL     1     -35.240  12.824  -4.144  1.00 20.00    -0.365 OA
ENDBRANCH   1   3
BRANCH   1   7
HETATM    7  O10 UNL     1     -33.810  16.001  -3.293  1.00 20.00    -0.315 OA
BRANCH   7   8
HETATM    8  C7  UNL     1     -34.163  17.254  -3.889  1.00 20.00     0.123 C 
HETATM    9  C5  UNL     1     -33.780  18.383  -2.946  1.00 20.00     0.040 C 
HETATM   10  C6  UNL     1     -33.468  17.381  -5.236  1.00 20.00     0.040 C 
ENDBRANCH   7   8
ENDBRANCH   1   7
TORSDOF 3
ENDMDL
MODEL 7
REMARK VINA RESULT:      -3.7      1.797      3.047
REMARK  3 active torsions:
REMARK  status: ('A' for Active; 'I' for Inactive)
REMARK    1  A    between atoms: C1_1  and  C2_2 
REMARK    2  A    between atoms: C1_1  and  O10_10 
REMARK    3  A    between atoms: C7_7  and  O10_10 
ROOT
HETATM    1  C1  UNL     1     -35.244  13.528  -4.173  1.00 20.00     0.291 C 
HETATM    2  O8  UNL     1     -34.762  12.695  -4.928  1.00 20.00    -0.262 OA
ENDROOT
BRANCH   1   3
HETATM    3  C2  UNL     1     -34.455  14.484  -3.399  1.00 20.00     0.250 A 
HETATM    4  C3  UNL     1     -33.693  15.604  -4.059  1.00 20.00     0.157 A 
HETATM    5  C4  UNL     1     -33.705  15.831  -5.529  1.00 20.00     0.042 C 
HETATM    6  O9  UNL     1     -33.042  14.400  -3.648  1.00 20.00    -0.365 OA
ENDBRANCH   1   3
BRANCH   1   7
HETATM    7  O10 UNL     1     -36.570  13.718  -3.918  1.00 20.00    -0.315 OA
BRANCH   7   8
HETATM    8  C7  UNL     1     -37.082  15.011  -4.255  1.00 20.00     0.123 C 
HETATM    9  C5  UNL     1     -37.242  15.109  -5.764  1.00 20.00     0.040 C 
HETATM   10  C6  UNL     1     -38.401  15.232  -3.530  1.00 20.00     0.040 C 
ENDBRANCH   7   8
ENDBRANCH   1   7
TORSDOF 3
ENDMDL
MODEL 8
REMARK VINA RESULT:      -3.6      1.791      2.526
REMARK  3 active torsions:
REMARK  status: ('A' for Active; 'I' for Inactive)
REMARK    1  A    between atoms: C1_1  and  C2_2 
REMARK    2  A    between atoms: C1_1  and  O10_10 
REMARK    3  A    between atoms: C7_7  and  O10_10 
ROOT
HETATM    1  C1  UNL     1     -34.803  13.771  -4.803  1.00 20.00     0.291 C 
HETATM    2  O8  UNL     1     -34.903  12.552  -4.857  1.00 20.00    -0.262 OA
ENDROOT
BRANCH   1   3
HETATM    3  C2  UNL     1     -34.733  14.639  -5.976  1.00 20.00     0.250 A 
HETATM    4  C3  UNL     1     -35.952  15.336  -6.523  1.00 20.00     0.157 A 
HETATM    5  C4  UNL     1     -37.299  15.211  -5.903  1.00 20.00     0.042 C 
HETATM    6  O9  UNL     1     -35.454  14.132  -7.111  1.00 20.00    -0.365 OA
ENDBRANCH   1   3
BRANCH   1   7
HETATM    7  O10 UNL     1     -34.742  14.528  -3.670  1.00 20.00    -0.315 OA
BRANCH   7   8
HETATM    8  C7  UNL     1     -33.634  15.430  -3.591  1.00 20.00     0.123 C 
HETATM    9  C5  UNL     1     -33.826  16.358  -2.402  1.00 20.00     0.040 C 
HETATM   10  C6  UNL     1     -32.344  14.631  -3.483  1.00 20.00     0.040 C 
ENDBRANCH   7   8
ENDBRANCH   1   7
TORSDOF 3
ENDMDL
MODEL 9
REMARK VINA RESULT:      -3.6      1.496      2.079
REMARK  3 active torsions:
REMARK  status: ('A' for Active; 'I' for Inactive)
REMARK    1  A    between atoms: C1_1  and  C2_2 
REMARK    2  A    between atoms: C1_1  and  O10_10 
REMARK    3  A    between atoms: C7_7  and  O10_10 
ROOT
HETATM    1  C1  UNL     1     -36.567  15.067  -4.272  1.00 20.00     0.291 C 
HETATM    2  O8  UNL     1     -36.923  14.001  -3.788  1.00 20.00    -0.262 OA
ENDROOT
BRANCH   1   3
HETATM    3  C2  UNL     1     -36.998  15.556  -5.579  1.00 20.00     0.250 A 
HETATM    4  C3  UNL     1     -36.218  15.261  -6.835  1.00 20.00     0.157 A 
HETATM    5  C4  UNL     1     -34.977  14.438  -6.839  1.00 20.00     0.042 C 
HETATM    6  O9  UNL     1     -36.098  16.515  -6.160  1.00 20.00    -0.365 OA
ENDBRANCH   1   3
BRANCH   1   7
HETATM    7  O10 UNL     1     -35.728  15.976  -3.698  1.00 20.00    -0.315 OA
BRANCH   7   8
HETATM    8  C7  UNL     1     -34.744  15.432  -2.812  1.00 20.00     0.123 C 
HETATM    9  C5  UNL     1     -33.400  15.386  -3.524  1.00 20.00     0.040 C 
HETATM   10  C6  UNL     1     -34.687  16.276  -1.548  1.00 20.00     0.040 C 
ENDBRANCH   7   8
ENDBRANCH   1   7
TORSDOF 3
ENDMDL
