MODEL 1
REMARK VINA RESULT:      -4.4      0.000      0.000
REMARK  1 active torsions:
REMARK  status: ('A' for Active; 'I' for Inactive)
REMARK    1  A    between atoms: C6_6  and  N10_10 
ROOT
HETATM    1  C1  UNL     1     -32.435  18.997  -0.173  1.00 20.00     0.064 C 
HETATM    2  C2  UNL     1     -34.414  17.500  -0.059  1.00 20.00     0.021 C 
HETATM    3  C3  UNL     1     -34.671  16.463  -1.152  1.00 20.00     0.037 C 
HETATM    4  C4  UNL     1     -33.633  18.306  -2.234  1.00 20.00     0.055 C 
HETATM    5  C5  UNL     1     -33.755  18.704  -0.757  1.00 20.00     0.095 C 
HETATM    6  C6  UNL     1     -33.618  16.779  -2.208  1.00 20.00     0.223 C 
HETATM    7  N9  UNL     1     -31.396  19.229   0.287  1.00 20.00    -0.197 NA
ENDROOT
BRANCH   6   8
HETATM    8  N10 UNL     1     -33.910  16.191  -3.504  1.00 20.00     0.084 N 
HETATM    9  C7  UNL     1     -33.127  14.968  -3.709  1.00 20.00     0.309 C 
HETATM   10  C8  UNL     1     -33.640  17.146  -4.584  1.00 20.00     0.309 C 
ENDBRANCH   6   8
TORSDOF 1
ENDMDL
MODEL 2
REMARK VINA RESULT:      -4.3      1.926      4.864
REMARK  1 active torsions:
REMARK  status: ('A' for Active; 'I' for Inactive)
REMARK    1  A    between atoms: C6_6  and  N10_10 
ROOT
HETATM    1  C1  UNL     1     -34.987  13.786  -4.554  1.00 20.00     0.064 C 
HETATM    2  C2  UNL     1     -34.228  16.075  -5.148  1.00 20.00     0.021 C 
HETATM    3  C3  UNL     1     -33.601  16.987  -4.094  1.00 20.00     0.037 C 
HETATM    4  C4  UNL     1     -35.199  15.660  -2.940  1.00 20.00     0.055 C 
HETATM    5  C5  UNL     1     -35.276  15.223  -4.410  1.00 20.00     0.095 C 
HETATM    6  C6  UNL     1     -33.785  16.216  -2.791  1.00 20.00     0.223 C 
HETATM    7  N9  UNL     1     -34.761  12.655  -4.669  1.00 20.00    -0.197 NA
ENDROOT
BRANCH   6   8
HETATM    8  N10 UNL     1     -33.626  17.044  -1.608  1.00 20.00     0.084 N 
HETATM    9  C7  UNL     1     -34.671  16.748  -0.622  1.00 20.00     0.309 C 
HETATM   10  C8  UNL     1     -33.656  18.468  -1.959  1.00 20.00     0.309 C 
ENDBRANCH   6   8
TORSDOF 1
ENDMDL
MODEL 3
REMARK VINA RESULT:      -4.2      2.901      4.511
REMARK  1 active torsions:
REMARK  status: ('A' for Active; 'I' for Inactive)
REMARK    1  A    between atoms: C6_6  and  N10_10 
ROOT
HETATM    1  C1  UNL     1     -34.454  13.689  -3.905  1.00 20.00     0.064 C 
HETATM    2  C2  UNL     1     -34.761  15.719  -2.508  1.00 20.00     0.021 C 
HETATM    3  C3  UNL     1     -34.582  17.112  -3.108  1.00 20.00     0.037 C 
HETATM    4  C4  UNL     1     -33.052  15.706  -4.261  1.00 20.00     0.055 C 
HETATM    5  C5  UNL     1     -33.762  14.805  -3.240  1.00 20.00     0.095 C 
HETATM    6  C6  UNL     1     -34.046  16.839  -4.509  1.00 20.00     0.223 C 
HETATM    7  N9  UNL     1     -34.999  12.808  -4.428  1.00 20.00    -0.197 NA
ENDROOT
BRANCH   6   8
HETATM    8  N10 UNL     1     -33.431  18.003  -5.125  1.00 20.00     0.084 N 
HETATM    9  C7  UNL     1     -33.563  19.181  -4.262  1.00 20.00     0.309 C 
HETATM   10  C8  UNL     1     -34.026  18.273  -6.438  1.00 20.00     0.309 C 
ENDBRANCH   6   8
TORSDOF 1
ENDMDL
MODEL 4
REMARK VINA RESULT:      -4.1     11.723     12.980
REMARK  1 active torsions:
REMARK  status: ('A' for Active; 'I' for Inactive)
REMARK    1  A    between atoms: C6_6  and  N10_10 
ROOT
HETATM    1  C1  UNL     1     -32.249   7.776   2.310  1.00 20.00     0.064 C 
HETATM    2  C2  UNL     1     -33.396   5.575   2.211  1.00 20.00     0.021 C 
HETATM    3  C3  UNL     1     -34.389   5.164   3.297  1.00 20.00     0.037 C 
HETATM    4  C4  UNL     1     -32.757   6.507   4.382  1.00 20.00     0.055 C 
HETATM    5  C5  UNL     1     -32.327   6.434   2.911  1.00 20.00     0.095 C 
HETATM    6  C6  UNL     1     -34.265   6.268   4.341  1.00 20.00     0.223 C 
HETATM    7  N9  UNL     1     -32.188   8.833   1.837  1.00 20.00    -0.197 NA
ENDROOT
BRANCH   6   8
HETATM    8  N10 UNL     1     -34.813   5.899   5.635  1.00 20.00     0.084 N 
HETATM    9  C7  UNL     1     -34.031   6.498   6.722  1.00 20.00     0.309 C 
HETATM   10  C8  UNL     1     -34.851   4.441   5.789  1.00 20.00     0.309 C 
ENDBRANCH   6   8
TORSDOF 1
ENDMDL
MODEL 5
REMARK VINA RESULT:      -4.1      2.710      5.124
REMARK  1 active torsions:
REMARK  status: ('A' for Active; 'I' for Inactive)
REMARK    1  A    between atoms: C6_6  and  N10_10 
ROOT
HETATM    1  C1  UNL     1     -37.491  14.560  -4.162  1.00 20.00     0.064 C 
HETATM    2  C2  UNL     1     -35.158  13.710  -4.161  1.00 20.00     0.021 C 
HETATM    3  C3  UNL     1     -34.089  14.369  -3.290  1.00 20.00     0.037 C 
HETATM    4  C4  UNL     1     -35.568  16.113  -3.933  1.00 20.00     0.055 C 
HETATM    5  C5  UNL     1     -36.112  14.838  -4.595  1.00 20.00     0.095 C 
HETATM    6  C6  UNL     1     -34.787  15.600  -2.725  1.00 20.00     0.223 C 
HETATM    7  N9  UNL     1     -38.579  14.341  -3.823  1.00 20.00    -0.197 NA
ENDROOT
BRANCH   6   8
HETATM    8  N10 UNL     1     -33.866  16.588  -2.189  1.00 20.00     0.084 N 
HETATM    9  C7  UNL     1     -34.243  16.965  -0.823  1.00 20.00     0.309 C 
HETATM   10  C8  UNL     1     -33.822  17.778  -3.044  1.00 20.00     0.309 C 
ENDBRANCH   6   8
TORSDOF 1
ENDMDL
MODEL 6
REMARK VINA RESULT:      -4.0      2.836      4.966
REMARK  1 active torsions:
REMARK  status: ('A' for Active; 'I' for Inactive)
REMARK    1  A    between atoms: C6_6  and  N10_10 
ROOT
HETATM    1  C1  UNL     1     -36.768  14.367  -4.133  1.00 20.00     0.064 C 
HETATM    2  C2  UNL     1     -34.368  14.041  -3.584  1.00 20.00     0.021 C 
HETATM    3  C3  UNL     1     -33.420  15.236  -3.491  1.00 20.00     0.037 C 
HETATM    4  C4  UNL     1     -35.019  15.801  -5.155  1.00 20.00     0.055 C 
HETATM    5  C5  UNL     1     -35.398  14.394  -4.672  1.00 20.00     0.095 C 
HETATM    6  C6  UNL     1     -34.265  16.410  -3.974  1.00 20.00     0.223 C 
HETATM    7  N9  UNL     1     -37.847  14.345  -3.709  1.00 20.00    -0.197 NA
ENDROOT
BRANCH   6   8
HETATM    8  N10 UNL     1     -33.476  17.571  -4.347  1.00 20.00     0.084 N 
HETATM    9  C7  UNL     1     -33.795  18.716  -3.488  1.00 20.00     0.309 C 
HETATM   10  C8  UNL     1     -33.697  17.922  -5.754  1.00 20.00     0.309 C 
ENDBRANCH   6   8
TORSDOF 1
ENDMDL
MODEL 7
REMARK VINA RESULT:      -3.9      2.512      5.556
REMARK  1 active torsions:
REMARK  status: ('A' for Active; 'I' for Inactive)
REMARK    1  A    between atoms: C6_6  and  N10_10 
ROOT
HETATM    1  C1  UNL     1     -35.803  14.693  -6.686  1.00 20.00     0.064 C 
HETATM    2  C2  UNL     1     -34.734  13.327  -4.908  1.00 20.00     0.021 C 
HETATM    3  C3  UNL     1     -34.336  13.958  -3.575  1.00 20.00     0.037 C 
HETATM    4  C4  UNL     1     -34.060  15.661  -5.208  1.00 20.00     0.055 C 
HETATM    5  C5  UNL     1     -34.543  14.422  -5.974  1.00 20.00     0.095 C 
HETATM    6  C6  UNL     1     -34.582  15.447  -3.788  1.00 20.00     0.223 C 
HETATM    7  N9  UNL     1     -36.795  14.906  -7.248  1.00 20.00    -0.197 NA
ENDROOT
BRANCH   6   8
HETATM    8  N10 UNL     1     -33.912  16.286  -2.809  1.00 20.00     0.084 N 
HETATM    9  C7  UNL     1     -34.628  16.266  -1.529  1.00 20.00     0.309 C 
HETATM   10  C8  UNL     1     -33.793  17.663  -3.297  1.00 20.00     0.309 C 
ENDBRANCH   6   8
TORSDOF 1
ENDMDL
MODEL 8
REMARK VINA RESULT:      -3.9      2.283      3.325
REMARK  1 active torsions:
REMARK  status: ('A' for Active; 'I' for Inactive)
REMARK    1  A    between atoms: C6_6  and  N10_10 
ROOT
HETATM    1  C1  UNL     1     -34.360  16.658  -1.192  1.00 20.00     0.064 C 
HETATM    2  C2  UNL     1     -34.063  17.368  -3.553  1.00 20.00     0.021 C 
HETATM    3  C3  UNL     1     -34.766  16.621  -4.686  1.00 20.00     0.037 C 
HETATM    4  C4  UNL     1     -34.290  14.988  -3.027  1.00 20.00     0.055 C 
HETATM    5  C5  UNL     1     -33.738  16.313  -2.480  1.00 20.00     0.095 C 
HETATM    6  C6  UNL     1     -35.392  15.416  -3.994  1.00 20.00     0.223 C 
HETATM    7  N9  UNL     1     -34.850  16.930  -0.176  1.00 20.00    -0.197 NA
ENDROOT
BRANCH   6   8
HETATM    8  N10 UNL     1     -35.775  14.359  -4.915  1.00 20.00     0.084 N 
HETATM    9  C7  UNL     1     -34.790  13.273  -4.900  1.00 20.00     0.309 C 
HETATM   10  C8  UNL     1     -35.925  14.884  -6.276  1.00 20.00     0.309 C 
ENDBRANCH   6   8
TORSDOF 1
ENDMDL
MODEL 9
REMARK VINA RESULT:      -3.9      1.697      4.482
REMARK  1 active torsions:
REMARK  status: ('A' for Active; 'I' for Inactive)
REMARK    1  A    between atoms: C6_6  and  N10_10 
ROOT
HETATM    1  C1  UNL     1     -33.943  14.232  -3.652  1.00 20.00     0.064 C 
HETATM    2  C2  UNL     1     -33.906  16.678  -4.082  1.00 20.00     0.021 C 
HETATM    3  C3  UNL     1     -33.735  17.669  -2.932  1.00 20.00     0.037 C 
HETATM    4  C4  UNL     1     -34.937  15.827  -2.032  1.00 20.00     0.055 C 
HETATM    5  C5  UNL     1     -34.698  15.488  -3.510  1.00 20.00     0.095 C 
HETATM    6  C6  UNL     1     -33.807  16.795  -1.685  1.00 20.00     0.223 C 
HETATM    7  N9  UNL     1     -33.349  13.242  -3.766  1.00 20.00    -0.197 NA
ENDROOT
BRANCH   6   8
HETATM    8  N10 UNL     1     -34.064  17.549  -0.469  1.00 20.00     0.084 N 
HETATM    9  C7  UNL     1     -35.354  18.240  -0.548  1.00 20.00     0.309 C 
HETATM   10  C8  UNL     1     -32.990  18.515  -0.219  1.00 20.00     0.309 C 
ENDBRANCH   6   8
TORSDOF 1
ENDMDL
