MODEL 1
REMARK VINA RESULT:      -4.9      0.000      0.000
REMARK  1 active torsions:
REMARK  status: ('A' for Active; 'I' for Inactive)
REMARK    1  A    between atoms: C2_2  and  C3_3 
ROOT
HETATM    1  C1  UNL     1     -35.861  15.341  -3.098  1.00 20.00    -0.011 C 
HETATM    2  C2  UNL     1     -34.606  15.768  -2.894  1.00 20.00    -0.019 C 
HETATM    3  C4  UNL     1     -35.078  13.307  -4.192  1.00 20.00     0.010 C 
HETATM    4  C5  UNL     1     -33.624  13.808  -3.942  1.00 20.00     0.011 C 
HETATM    5  C6  UNL     1     -35.852  14.627  -4.439  1.00 20.00     0.017 C 
HETATM    6  C7  UNL     1     -33.768  15.347  -4.079  1.00 20.00     0.030 C 
HETATM    7  C8  UNL     1     -34.819  15.497  -5.212  1.00 20.00    -0.033 C 
HETATM    8  C9  UNL     1     -35.276  16.950  -5.475  1.00 20.00     0.016 C 
HETATM    9  C10 UNL     1     -34.387  14.927  -6.577  1.00 20.00     0.016 C 
ENDROOT
BRANCH   2  10
HETATM   10  C3  UNL     1     -34.136  16.493  -1.732  1.00 20.00     0.265 C 
HETATM   11  O11 UNL     1     -34.703  16.458  -0.636  1.00 20.00    -0.302 OA
ENDBRANCH   2  10
TORSDOF 1
ENDMDL
MODEL 2
REMARK VINA RESULT:      -4.8      1.907      3.003
REMARK  1 active torsions:
REMARK  status: ('A' for Active; 'I' for Inactive)
REMARK    1  A    between atoms: C2_2  and  C3_3 
ROOT
HETATM    1  C1  UNL     1     -35.793  16.300  -4.752  1.00 20.00    -0.011 C 
HETATM    2  C2  UNL     1     -36.305  15.274  -4.055  1.00 20.00    -0.019 C 
HETATM    3  C4  UNL     1     -34.320  14.817  -6.008  1.00 20.00     0.010 C 
HETATM    4  C5  UNL     1     -34.927  13.632  -5.199  1.00 20.00     0.011 C 
HETATM    5  C6  UNL     1     -34.327  15.971  -4.973  1.00 20.00     0.017 C 
HETATM    6  C7  UNL     1     -35.198  14.273  -3.813  1.00 20.00     0.030 C 
HETATM    7  C8  UNL     1     -33.998  15.243  -3.638  1.00 20.00    -0.033 C 
HETATM    8  C9  UNL     1     -34.077  16.142  -2.383  1.00 20.00     0.016 C 
HETATM    9  C10 UNL     1     -32.616  14.563  -3.595  1.00 20.00     0.016 C 
ENDROOT
BRANCH   2  10
HETATM   10  C3  UNL     1     -37.680  15.144  -3.624  1.00 20.00     0.265 C 
HETATM   11  O11 UNL     1     -38.359  14.132  -3.822  1.00 20.00    -0.302 OA
ENDBRANCH   2  10
TORSDOF 1
ENDMDL
MODEL 3
REMARK VINA RESULT:      -4.7      2.073      3.380
REMARK  1 active torsions:
REMARK  status: ('A' for Active; 'I' for Inactive)
REMARK    1  A    between atoms: C2_2  and  C3_3 
ROOT
HETATM    1  C1  UNL     1     -33.157  15.163  -3.425  1.00 20.00    -0.011 C 
HETATM    2  C2  UNL     1     -34.209  14.761  -4.153  1.00 20.00    -0.019 C 
HETATM    3  C4  UNL     1     -34.597  16.291  -1.813  1.00 20.00     0.010 C 
HETATM    4  C5  UNL     1     -35.813  15.812  -2.662  1.00 20.00     0.011 C 
HETATM    5  C6  UNL     1     -33.512  16.540  -2.892  1.00 20.00     0.017 C 
HETATM    6  C7  UNL     1     -35.254  15.852  -4.108  1.00 20.00     0.030 C 
HETATM    7  C8  UNL     1     -34.332  17.101  -4.088  1.00 20.00    -0.033 C 
HETATM    8  C9  UNL     1     -33.512  17.314  -5.382  1.00 20.00     0.016 C 
HETATM    9  C10 UNL     1     -35.052  18.435  -3.810  1.00 20.00     0.016 C 
ENDROOT
BRANCH   2  10
HETATM   10  C3  UNL     1     -34.327  13.497  -4.847  1.00 20.00     0.265 C 
HETATM   11  O11 UNL     1     -35.045  12.573  -4.454  1.00 20.00    -0.302 OA
ENDBRANCH   2  10
TORSDOF 1
ENDMDL
MODEL 4
REMARK VINA RESULT:      -4.7      1.987      3.430
REMARK  1 active torsions:
REMARK  status: ('A' for Active; 'I' for Inactive)
REMARK    1  A    between atoms: C2_2  and  C3_3 
ROOT
HETATM    1  C1  UNL     1     -33.273  15.880  -3.869  1.00 20.00    -0.011 C 
HETATM    2  C2  UNL     1     -34.174  14.970  -3.471  1.00 20.00    -0.019 C 
HETATM    3  C4  UNL     1     -33.698  17.276  -1.916  1.00 20.00     0.010 C 
HETATM    4  C5  UNL     1     -34.737  16.209  -1.458  1.00 20.00     0.011 C 
HETATM    5  C6  UNL     1     -33.828  17.232  -3.459  1.00 20.00     0.017 C 
HETATM    6  C7  UNL     1     -35.317  15.702  -2.804  1.00 20.00     0.030 C 
HETATM    7  C8  UNL     1     -35.350  16.988  -3.673  1.00 20.00    -0.033 C 
HETATM    8  C9  UNL     1     -35.759  16.757  -5.147  1.00 20.00     0.016 C 
HETATM    9  C10 UNL     1     -36.266  18.106  -3.142  1.00 20.00     0.016 C 
ENDROOT
BRANCH   2  10
HETATM   10  C3  UNL     1     -34.064  13.536  -3.639  1.00 20.00     0.265 C 
HETATM   11  O11 UNL     1     -34.940  12.847  -4.169  1.00 20.00    -0.302 OA
ENDBRANCH   2  10
TORSDOF 1
ENDMDL
MODEL 5
REMARK VINA RESULT:      -4.7      2.027      3.476
REMARK  1 active torsions:
REMARK  status: ('A' for Active; 'I' for Inactive)
REMARK    1  A    between atoms: C2_2  and  C3_3 
ROOT
HETATM    1  C1  UNL     1     -35.591  15.289  -4.105  1.00 20.00    -0.011 C 
HETATM    2  C2  UNL     1     -34.367  14.754  -3.986  1.00 20.00    -0.019 C 
HETATM    3  C4  UNL     1     -34.709  17.258  -5.242  1.00 20.00     0.010 C 
HETATM    4  C5  UNL     1     -33.293  16.624  -5.106  1.00 20.00     0.011 C 
HETATM    5  C6  UNL     1     -35.414  16.789  -3.944  1.00 20.00     0.017 C 
HETATM    6  C7  UNL     1     -33.385  15.879  -3.748  1.00 20.00     0.030 C 
HETATM    7  C8  UNL     1     -34.269  16.826  -2.893  1.00 20.00    -0.033 C 
HETATM    8  C9  UNL     1     -34.656  16.263  -1.505  1.00 20.00     0.016 C 
HETATM    9  C10 UNL     1     -33.668  18.221  -2.639  1.00 20.00     0.016 C 
ENDROOT
BRANCH   2  10
HETATM   10  C3  UNL     1     -34.043  13.347  -4.082  1.00 20.00     0.265 C 
HETATM   11  O11 UNL     1     -34.792  12.513  -4.601  1.00 20.00    -0.302 OA
ENDBRANCH   2  10
TORSDOF 1
ENDMDL
MODEL 6
REMARK VINA RESULT:      -4.7     11.100     12.696
REMARK  1 active torsions:
REMARK  status: ('A' for Active; 'I' for Inactive)
REMARK    1  A    between atoms: C2_2  and  C3_3 
ROOT
HETATM    1  C1  UNL     1     -41.054   6.975  -1.181  1.00 20.00    -0.011 C 
HETATM    2  C2  UNL     1     -42.049   6.726  -2.046  1.00 20.00    -0.019 C 
HETATM    3  C4  UNL     1     -40.540   4.601  -0.963  1.00 20.00     0.010 C 
HETATM    4  C5  UNL     1     -41.692   4.324  -1.975  1.00 20.00     0.011 C 
HETATM    5  C6  UNL     1     -41.067   5.832  -0.182  1.00 20.00     0.017 C 
HETATM    6  C7  UNL     1     -42.718   5.435  -1.632  1.00 20.00     0.030 C 
HETATM    7  C8  UNL     1     -42.595   5.557  -0.089  1.00 20.00    -0.033 C 
HETATM    8  C9  UNL     1     -43.416   6.711   0.531  1.00 20.00     0.016 C 
HETATM    9  C10 UNL     1     -42.977   4.287   0.694  1.00 20.00     0.016 C 
ENDROOT
BRANCH   2  10
HETATM   10  C3  UNL     1     -42.407   7.545  -3.185  1.00 20.00     0.265 C 
HETATM   11  O11 UNL     1     -43.104   7.137  -4.119  1.00 20.00    -0.302 OA
ENDBRANCH   2  10
TORSDOF 1
ENDMDL
MODEL 7
REMARK VINA RESULT:      -4.6      1.002      2.407
REMARK  1 active torsions:
REMARK  status: ('A' for Active; 'I' for Inactive)
REMARK    1  A    between atoms: C2_2  and  C3_3 
ROOT
HETATM    1  C1  UNL     1     -33.686  16.675  -3.704  1.00 20.00    -0.011 C 
HETATM    2  C2  UNL     1     -34.226  16.268  -2.546  1.00 20.00    -0.019 C 
HETATM    3  C4  UNL     1     -35.689  16.057  -4.950  1.00 20.00     0.010 C 
HETATM    4  C5  UNL     1     -36.310  15.595  -3.598  1.00 20.00     0.011 C 
HETATM    5  C6  UNL     1     -34.189  15.714  -4.767  1.00 20.00     0.017 C 
HETATM    6  C7  UNL     1     -35.078  15.051  -2.828  1.00 20.00     0.030 C 
HETATM    7  C8  UNL     1     -34.232  14.390  -3.950  1.00 20.00    -0.033 C 
HETATM    8  C9  UNL     1     -32.847  13.876  -3.491  1.00 20.00     0.016 C 
HETATM    9  C10 UNL     1     -34.914  13.210  -4.666  1.00 20.00     0.016 C 
ENDROOT
BRANCH   2  10
HETATM   10  C3  UNL     1     -34.036  16.894  -1.255  1.00 20.00     0.265 C 
HETATM   11  O11 UNL     1     -34.770  16.681  -0.285  1.00 20.00    -0.302 OA
ENDBRANCH   2  10
TORSDOF 1
ENDMDL
MODEL 8
REMARK VINA RESULT:      -4.6      2.055      3.445
REMARK  1 active torsions:
REMARK  status: ('A' for Active; 'I' for Inactive)
REMARK    1  A    between atoms: C2_2  and  C3_3 
ROOT
HETATM    1  C1  UNL     1     -34.473  14.845  -3.068  1.00 20.00    -0.011 C 
HETATM    2  C2  UNL     1     -35.588  15.294  -3.660  1.00 20.00    -0.019 C 
HETATM    3  C4  UNL     1     -34.565  16.600  -1.377  1.00 20.00     0.010 C 
HETATM    4  C5  UNL     1     -35.865  17.109  -2.069  1.00 20.00     0.011 C 
HETATM    5  C6  UNL     1     -33.731  16.075  -2.574  1.00 20.00     0.017 C 
HETATM    6  C7  UNL     1     -35.595  16.803  -3.565  1.00 20.00     0.030 C 
HETATM    7  C8  UNL     1     -34.075  17.084  -3.707  1.00 20.00    -0.033 C 
HETATM    8  C9  UNL     1     -33.481  16.721  -5.088  1.00 20.00     0.016 C 
HETATM    9  C10 UNL     1     -33.655  18.539  -3.427  1.00 20.00     0.016 C 
ENDROOT
BRANCH   2  10
HETATM   10  C3  UNL     1     -36.613  14.475  -4.271  1.00 20.00     0.265 C 
HETATM   11  O11 UNL     1     -37.676  14.190  -3.711  1.00 20.00    -0.302 OA
ENDBRANCH   2  10
TORSDOF 1
ENDMDL
MODEL 9
REMARK VINA RESULT:      -4.5      2.375      3.807
REMARK  1 active torsions:
REMARK  status: ('A' for Active; 'I' for Inactive)
REMARK    1  A    between atoms: C2_2  and  C3_3 
ROOT
HETATM    1  C1  UNL     1     -34.848  13.686  -5.334  1.00 20.00    -0.011 C 
HETATM    2  C2  UNL     1     -34.692  14.897  -5.888  1.00 20.00    -0.019 C 
HETATM    3  C4  UNL     1     -36.651  14.484  -3.899  1.00 20.00     0.010 C 
HETATM    4  C5  UNL     1     -36.467  15.884  -4.556  1.00 20.00     0.011 C 
HETATM    5  C6  UNL     1     -35.203  13.930  -3.878  1.00 20.00     0.017 C 
HETATM    6  C7  UNL     1     -34.940  15.937  -4.820  1.00 20.00     0.030 C 
HETATM    7  C8  UNL     1     -34.350  15.198  -3.589  1.00 20.00    -0.033 C 
HETATM    8  C9  UNL     1     -32.821  14.968  -3.651  1.00 20.00     0.016 C 
HETATM    9  C10 UNL     1     -34.630  15.872  -2.232  1.00 20.00     0.016 C 
ENDROOT
BRANCH   2  10
HETATM   10  C3  UNL     1     -34.360  15.160  -7.273  1.00 20.00     0.265 C 
HETATM   11  O11 UNL     1     -34.656  16.208  -7.853  1.00 20.00    -0.302 OA
ENDBRANCH   2  10
TORSDOF 1
ENDMDL
