MODEL 1
REMARK VINA RESULT:      -4.7      0.000      0.000
REMARK  3 active torsions:
REMARK  status: ('A' for Active; 'I' for Inactive)
REMARK    1  A    between atoms: C3_3  and  C7_7 
REMARK    2  A    between atoms: C4_4  and  O11_11 
REMARK    3  A    between atoms: C7_7  and  C8_8 
ROOT
HETATM    1  C1  UNL     1     -33.305  14.423  -3.688  1.00 20.00     0.180 C 
HETATM    2  C2  UNL     1     -35.594  15.406  -3.861  1.00 20.00     0.180 C 
HETATM    3  C3  UNL     1     -34.431  15.109  -2.913  1.00 20.00     0.034 C 
HETATM    4  C4  UNL     1     -34.904  13.602  -5.224  1.00 20.00     0.412 C 
HETATM    5  O9  UNL     1     -33.806  13.270  -4.366  1.00 20.00    -0.339 OA
HETATM    6  O10 UNL     1     -35.998  14.212  -4.532  1.00 20.00    -0.339 OA
ENDROOT
BRANCH   3   7
HETATM    7  C7  UNL     1     -33.941  16.371  -2.216  1.00 20.00     0.008 C 
BRANCH   7   8
HETATM    8  C8  UNL     1     -34.646  16.577  -0.878  1.00 20.00    -0.004 C 
HETATM    9  C5  UNL     1     -34.086  17.777  -0.134  1.00 20.00     0.005 C 
ENDBRANCH   7   8
ENDBRANCH   3   7
BRANCH   4  10
HETATM   10  O11 UNL     1     -34.497  14.345  -6.374  1.00 20.00    -0.344 OA
HETATM   11  C6  UNL     1     -35.515  14.365  -7.362  1.00 20.00     0.207 C 
ENDBRANCH   4  10
TORSDOF 3
ENDMDL
MODEL 2
REMARK VINA RESULT:      -4.2      1.199      1.613
REMARK  3 active torsions:
REMARK  status: ('A' for Active; 'I' for Inactive)
REMARK    1  A    between atoms: C3_3  and  C7_7 
REMARK    2  A    between atoms: C4_4  and  O11_11 
REMARK    3  A    between atoms: C7_7  and  C8_8 
ROOT
HETATM    1  C1  UNL     1     -33.863  16.466  -4.884  1.00 20.00     0.180 C 
HETATM    2  C2  UNL     1     -34.304  14.470  -3.450  1.00 20.00     0.180 C 
HETATM    3  C3  UNL     1     -33.453  15.731  -3.607  1.00 20.00     0.034 C 
HETATM    4  C4  UNL     1     -34.594  14.411  -5.795  1.00 20.00     0.412 C 
HETATM    5  O9  UNL     1     -33.795  15.581  -6.003  1.00 20.00    -0.339 OA
HETATM    6  O10 UNL     1     -34.217  13.670  -4.629  1.00 20.00    -0.339 OA
ENDROOT
BRANCH   3   7
HETATM    7  C7  UNL     1     -33.559  16.634  -2.385  1.00 20.00     0.008 C 
BRANCH   7   8
HETATM    8  C8  UNL     1     -34.741  16.241  -1.504  1.00 20.00    -0.004 C 
HETATM    9  C5  UNL     1     -34.758  17.036  -0.209  1.00 20.00     0.005 C 
ENDBRANCH   7   8
ENDBRANCH   3   7
BRANCH   4  10
HETATM   10  O11 UNL     1     -35.994  14.685  -5.844  1.00 20.00    -0.344 OA
HETATM   11  C6  UNL     1     -36.422  14.946  -7.171  1.00 20.00     0.207 C 
ENDBRANCH   4  10
TORSDOF 3
ENDMDL
MODEL 3
REMARK VINA RESULT:      -4.2      1.515      2.594
REMARK  3 active torsions:
REMARK  status: ('A' for Active; 'I' for Inactive)
REMARK    1  A    between atoms: C3_3  and  C7_7 
REMARK    2  A    between atoms: C4_4  and  O11_11 
REMARK    3  A    between atoms: C7_7  and  C8_8 
ROOT
HETATM    1  C1  UNL     1     -35.832  16.580  -3.722  1.00 20.00     0.180 C 
HETATM    2  C2  UNL     1     -34.731  14.365  -3.383  1.00 20.00     0.180 C 
HETATM    3  C3  UNL     1     -34.495  15.871  -3.501  1.00 20.00     0.034 C 
HETATM    4  C4  UNL     1     -36.687  14.600  -4.690  1.00 20.00     0.412 C 
HETATM    5  O9  UNL     1     -36.509  16.013  -4.845  1.00 20.00    -0.339 OA
HETATM    6  O10 UNL     1     -35.455  13.891  -4.520  1.00 20.00    -0.339 OA
ENDROOT
BRANCH   3   7
HETATM    7  C7  UNL     1     -33.767  16.421  -2.282  1.00 20.00     0.008 C 
BRANCH   7   8
HETATM    8  C8  UNL     1     -34.689  16.490  -1.068  1.00 20.00    -0.004 C 
HETATM    9  C5  UNL     1     -34.271  17.598  -0.115  1.00 20.00     0.005 C 
ENDBRANCH   7   8
ENDBRANCH   3   7
BRANCH   4  10
HETATM   10  O11 UNL     1     -37.653  14.273  -3.691  1.00 20.00    -0.344 OA
HETATM   11  C6  UNL     1     -38.951  14.701  -4.070  1.00 20.00     0.207 C 
ENDBRANCH   4  10
TORSDOF 3
ENDMDL
MODEL 4
REMARK VINA RESULT:      -4.1      1.652      2.300
REMARK  3 active torsions:
REMARK  status: ('A' for Active; 'I' for Inactive)
REMARK    1  A    between atoms: C3_3  and  C7_7 
REMARK    2  A    between atoms: C4_4  and  O11_11 
REMARK    3  A    between atoms: C7_7  and  C8_8 
ROOT
HETATM    1  C1  UNL     1     -35.485  16.483  -3.993  1.00 20.00     0.180 C 
HETATM    2  C2  UNL     1     -33.115  15.819  -3.570  1.00 20.00     0.180 C 
HETATM    3  C3  UNL     1     -34.296  16.634  -3.042  1.00 20.00     0.034 C 
HETATM    4  C4  UNL     1     -33.976  16.048  -5.759  1.00 20.00     0.412 C 
HETATM    5  O9  UNL     1     -35.096  16.827  -5.323  1.00 20.00    -0.339 OA
HETATM    6  O10 UNL     1     -32.826  16.190  -4.918  1.00 20.00    -0.339 OA
ENDROOT
BRANCH   3   7
HETATM    7  C7  UNL     1     -34.664  16.230  -1.620  1.00 20.00     0.008 C 
BRANCH   7   8
HETATM    8  C8  UNL     1     -34.131  17.233  -0.601  1.00 20.00    -0.004 C 
HETATM    9  C5  UNL     1     -35.092  17.404   0.564  1.00 20.00     0.005 C 
ENDBRANCH   7   8
ENDBRANCH   3   7
BRANCH   4  10
HETATM   10  O11 UNL     1     -34.316  14.682  -6.000  1.00 20.00    -0.344 OA
HETATM   11  C6  UNL     1     -35.069  14.541  -7.194  1.00 20.00     0.207 C 
ENDBRANCH   4  10
TORSDOF 3
ENDMDL
MODEL 5
REMARK VINA RESULT:      -4.1      1.445      1.794
REMARK  3 active torsions:
REMARK  status: ('A' for Active; 'I' for Inactive)
REMARK    1  A    between atoms: C3_3  and  C7_7 
REMARK    2  A    between atoms: C4_4  and  O11_11 
REMARK    3  A    between atoms: C7_7  and  C8_8 
ROOT
HETATM    1  C1  UNL     1     -33.689  16.959  -3.739  1.00 20.00     0.180 C 
HETATM    2  C2  UNL     1     -34.607  14.653  -3.471  1.00 20.00     0.180 C 
HETATM    3  C3  UNL     1     -33.928  15.818  -2.749  1.00 20.00     0.034 C 
HETATM    4  C4  UNL     1     -33.633  15.380  -5.498  1.00 20.00     0.412 C 
HETATM    5  O9  UNL     1     -32.964  16.482  -4.873  1.00 20.00    -0.339 OA
HETATM    6  O10 UNL     1     -33.843  14.273  -4.616  1.00 20.00    -0.339 OA
ENDROOT
BRANCH   3   7
HETATM    7  C7  UNL     1     -34.742  16.282  -1.549  1.00 20.00     0.008 C 
BRANCH   7   8
HETATM    8  C8  UNL     1     -34.001  17.356  -0.756  1.00 20.00    -0.004 C 
HETATM    9  C5  UNL     1     -34.692  17.647   0.565  1.00 20.00     0.005 C 
ENDBRANCH   7   8
ENDBRANCH   3   7
BRANCH   4  10
HETATM   10  O11 UNL     1     -34.825  15.775  -6.178  1.00 20.00    -0.344 OA
HETATM   11  C6  UNL     1     -35.170  14.848  -7.194  1.00 20.00     0.207 C 
ENDBRANCH   4  10
TORSDOF 3
ENDMDL
MODEL 6
REMARK VINA RESULT:      -3.9      1.609      4.569
REMARK  3 active torsions:
REMARK  status: ('A' for Active; 'I' for Inactive)
REMARK    1  A    between atoms: C3_3  and  C7_7 
REMARK    2  A    between atoms: C4_4  and  O11_11 
REMARK    3  A    between atoms: C7_7  and  C8_8 
ROOT
HETATM    1  C1  UNL     1     -34.824  13.410  -4.986  1.00 20.00     0.180 C 
HETATM    2  C2  UNL     1     -34.243  15.785  -5.491  1.00 20.00     0.180 C 
HETATM    3  C3  UNL     1     -34.453  14.396  -6.095  1.00 20.00     0.034 C 
HETATM    4  C4  UNL     1     -33.672  14.771  -3.434  1.00 20.00     0.412 C 
HETATM    5  O9  UNL     1     -33.842  13.446  -3.949  1.00 20.00    -0.339 OA
HETATM    6  O10 UNL     1     -33.286  15.721  -4.433  1.00 20.00    -0.339 OA
ENDROOT
BRANCH   3   7
HETATM    7  C7  UNL     1     -35.505  14.418  -7.196  1.00 20.00     0.008 C 
BRANCH   7   8
HETATM    8  C8  UNL     1     -36.412  15.639  -7.075  1.00 20.00    -0.004 C 
HETATM    9  C5  UNL     1     -37.880  15.247  -7.114  1.00 20.00     0.005 C 
ENDBRANCH   7   8
ENDBRANCH   3   7
BRANCH   4  10
HETATM   10  O11 UNL     1     -34.790  15.209  -2.662  1.00 20.00    -0.344 OA
HETATM   11  C6  UNL     1     -34.433  16.272  -1.793  1.00 20.00     0.207 C 
ENDBRANCH   4  10
TORSDOF 3
ENDMDL
MODEL 7
REMARK VINA RESULT:      -3.8     11.807     13.481
REMARK  3 active torsions:
REMARK  status: ('A' for Active; 'I' for Inactive)
REMARK    1  A    between atoms: C3_3  and  C7_7 
REMARK    2  A    between atoms: C4_4  and  O11_11 
REMARK    3  A    between atoms: C7_7  and  C8_8 
ROOT
HETATM    1  C1  UNL     1     -41.171   4.525  -1.241  1.00 20.00     0.180 C 
HETATM    2  C2  UNL     1     -42.908   5.218  -2.895  1.00 20.00     0.180 C 
HETATM    3  C3  UNL     1     -41.848   4.167  -2.565  1.00 20.00     0.034 C 
HETATM    4  C4  UNL     1     -41.694   6.799  -1.625  1.00 20.00     0.412 C 
HETATM    5  O9  UNL     1     -40.665   5.860  -1.294  1.00 20.00    -0.339 OA
HETATM    6  O10 UNL     1     -42.328   6.523  -2.878  1.00 20.00    -0.339 OA
ENDROOT
BRANCH   3   7
HETATM    7  C7  UNL     1     -42.442   2.765  -2.526  1.00 20.00     0.008 C 
BRANCH   7   8
HETATM    8  C8  UNL     1     -41.856   1.881  -3.623  1.00 20.00    -0.004 C 
HETATM    9  C5  UNL     1     -42.751   1.851  -4.850  1.00 20.00     0.005 C 
ENDBRANCH   7   8
ENDBRANCH   3   7
BRANCH   4  10
HETATM   10  O11 UNL     1     -42.630   6.986  -0.563  1.00 20.00    -0.344 OA
HETATM   11  C6  UNL     1     -43.344   8.202  -0.714  1.00 20.00     0.207 C 
ENDBRANCH   4  10
TORSDOF 3
ENDMDL
MODEL 8
REMARK VINA RESULT:      -3.7      2.672      4.343
REMARK  3 active torsions:
REMARK  status: ('A' for Active; 'I' for Inactive)
REMARK    1  A    between atoms: C3_3  and  C7_7 
REMARK    2  A    between atoms: C4_4  and  O11_11 
REMARK    3  A    between atoms: C7_7  and  C8_8 
ROOT
HETATM    1  C1  UNL     1     -33.899  16.149  -2.596  1.00 20.00     0.180 C 
HETATM    2  C2  UNL     1     -33.315  16.123  -5.023  1.00 20.00     0.180 C 
HETATM    3  C3  UNL     1     -33.053  15.462  -3.669  1.00 20.00     0.034 C 
HETATM    4  C4  UNL     1     -33.899  18.120  -3.901  1.00 20.00     0.412 C 
HETATM    5  O9  UNL     1     -33.657  17.556  -2.607  1.00 20.00    -0.339 OA
HETATM    6  O10 UNL     1     -33.098  17.532  -4.932  1.00 20.00    -0.339 OA
ENDROOT
BRANCH   3   7
HETATM    7  C7  UNL     1     -33.322  13.964  -3.718  1.00 20.00     0.008 C 
BRANCH   7   8
HETATM    8  C8  UNL     1     -34.300  13.609  -4.834  1.00 20.00    -0.004 C 
HETATM    9  C5  UNL     1     -35.727  13.525  -4.317  1.00 20.00     0.005 C 
ENDBRANCH   7   8
ENDBRANCH   3   7
BRANCH   4  10
HETATM   10  O11 UNL     1     -35.287  18.155  -4.236  1.00 20.00    -0.344 OA
HETATM   11  C6  UNL     1     -35.963  19.176  -3.520  1.00 20.00     0.207 C 
ENDBRANCH   4  10
TORSDOF 3
ENDMDL
MODEL 9
REMARK VINA RESULT:      -3.7      2.101      2.549
REMARK  3 active torsions:
REMARK  status: ('A' for Active; 'I' for Inactive)
REMARK    1  A    between atoms: C3_3  and  C7_7 
REMARK    2  A    between atoms: C4_4  and  O11_11 
REMARK    3  A    between atoms: C7_7  and  C8_8 
ROOT
HETATM    1  C1  UNL     1     -35.916  14.263  -3.767  1.00 20.00     0.180 C 
HETATM    2  C2  UNL     1     -36.316  16.727  -3.750  1.00 20.00     0.180 C 
HETATM    3  C3  UNL     1     -35.626  15.570  -3.027  1.00 20.00     0.034 C 
HETATM    4  C4  UNL     1     -37.922  15.208  -4.586  1.00 20.00     0.412 C 
HETATM    5  O9  UNL     1     -37.325  14.088  -3.922  1.00 20.00    -0.339 OA
HETATM    6  O10 UNL     1     -37.708  16.449  -3.906  1.00 20.00    -0.339 OA
ENDROOT
BRANCH   3   7
HETATM    7  C7  UNL     1     -34.129  15.811  -2.886  1.00 20.00     0.008 C 
BRANCH   7   8
HETATM    8  C8  UNL     1     -33.834  16.892  -1.850  1.00 20.00    -0.004 C 
HETATM    9  C5  UNL     1     -34.669  16.701  -0.595  1.00 20.00     0.005 C 
ENDBRANCH   7   8
ENDBRANCH   3   7
BRANCH   4  10
HETATM   10  O11 UNL     1     -37.578  15.273  -5.971  1.00 20.00    -0.344 OA
HETATM   11  C6  UNL     1     -38.577  15.948  -6.718  1.00 20.00     0.207 C 
ENDBRANCH   4  10
TORSDOF 3
ENDMDL
