MODEL 1
REMARK VINA RESULT:      -6.0      0.000      0.000
REMARK  0 active torsions:
REMARK  status: ('A' for Active; 'I' for Inactive)
ROOT
HETATM    1  C1  UNL     1     -34.421   5.405   6.510  1.00 20.00     0.044 A 
HETATM    2  C2  UNL     1     -35.205   4.520   5.867  1.00 20.00     0.014 A 
HETATM    3  C3  UNL     1     -33.647   6.371   5.763  1.00 20.00     0.156 A 
HETATM    4  C4  UNL     1     -33.689   6.415   4.422  1.00 20.00     0.202 A 
HETATM    5  C5  UNL     1     -35.322   4.461   4.395  1.00 20.00     0.224 A 
HETATM    6  C6  UNL     1     -34.503   5.491   3.615  1.00 20.00     0.293 A 
HETATM    7  O7  UNL     1     -35.937   5.501   3.622  1.00 20.00    -0.328 OA
HETATM    8  F8  UNL     1     -32.880   7.240   6.452  1.00 20.00    -0.203 F 
HETATM    9  F9  UNL     1     -32.949   7.345   3.780  1.00 20.00    -0.201 F 
HETATM   10  F10 UNL     1     -33.907   5.026   2.448  1.00 20.00    -0.200 F 
ENDROOT
TORSDOF 0
ENDMDL
MODEL 2
REMARK VINA RESULT:      -5.4      1.504      2.879
REMARK  0 active torsions:
REMARK  status: ('A' for Active; 'I' for Inactive)
ROOT
HETATM    1  C1  UNL     1     -34.674   5.241   3.411  1.00 20.00     0.044 A 
HETATM    2  C2  UNL     1     -35.383   4.807   4.469  1.00 20.00     0.014 A 
HETATM    3  C3  UNL     1     -33.566   6.151   3.600  1.00 20.00     0.156 A 
HETATM    4  C4  UNL     1     -33.216   6.584   4.822  1.00 20.00     0.202 A 
HETATM    5  C5  UNL     1     -35.103   5.225   5.859  1.00 20.00     0.224 A 
HETATM    6  C6  UNL     1     -33.926   6.183   6.047  1.00 20.00     0.293 A 
HETATM    7  O7  UNL     1     -33.909   4.845   6.559  1.00 20.00    -0.328 OA
HETATM    8  F8  UNL     1     -32.882   6.553   2.509  1.00 20.00    -0.203 F 
HETATM    9  F9  UNL     1     -32.168   7.428   4.934  1.00 20.00    -0.201 F 
HETATM   10  F10 UNL     1     -34.114   7.189   6.989  1.00 20.00    -0.200 F 
ENDROOT
TORSDOF 0
ENDMDL
MODEL 3
REMARK VINA RESULT:      -5.0      1.958      2.736
REMARK  0 active torsions:
REMARK  status: ('A' for Active; 'I' for Inactive)
ROOT
HETATM    1  C1  UNL     1     -34.259   6.219   6.438  1.00 20.00     0.044 A 
HETATM    2  C2  UNL     1     -33.638   7.045   5.575  1.00 20.00     0.014 A 
HETATM    3  C3  UNL     1     -34.855   4.989   5.968  1.00 20.00     0.156 A 
HETATM    4  C4  UNL     1     -34.805   4.636   4.674  1.00 20.00     0.202 A 
HETATM    5  C5  UNL     1     -33.533   6.772   4.127  1.00 20.00     0.224 A 
HETATM    6  C6  UNL     1     -34.162   5.465   3.642  1.00 20.00     0.293 A 
HETATM    7  O7  UNL     1     -32.748   5.696   3.593  1.00 20.00    -0.328 OA
HETATM    8  F8  UNL     1     -35.462   4.192   6.871  1.00 20.00    -0.203 F 
HETATM    9  F9  UNL     1     -35.375   3.470   4.297  1.00 20.00    -0.201 F 
HETATM   10  F10 UNL     1     -34.828   5.534   2.424  1.00 20.00    -0.200 F 
ENDROOT
TORSDOF 0
ENDMDL
MODEL 4
REMARK VINA RESULT:      -4.9      1.571      2.387
REMARK  0 active torsions:
REMARK  status: ('A' for Active; 'I' for Inactive)
ROOT
HETATM    1  C1  UNL     1     -35.240   4.917   4.712  1.00 20.00     0.044 A 
HETATM    2  C2  UNL     1     -34.839   5.010   3.431  1.00 20.00     0.014 A 
HETATM    3  C3  UNL     1     -34.562   5.670   5.744  1.00 20.00     0.156 A 
HETATM    4  C4  UNL     1     -33.528   6.477   5.457  1.00 20.00     0.202 A 
HETATM    5  C5  UNL     1     -33.705   5.851   2.995  1.00 20.00     0.224 A 
HETATM    6  C6  UNL     1     -33.000   6.648   4.094  1.00 20.00     0.293 A 
HETATM    7  O7  UNL     1     -33.738   7.285   3.043  1.00 20.00    -0.328 OA
HETATM    8  F8  UNL     1     -35.004   5.549   7.013  1.00 20.00    -0.203 F 
HETATM    9  F9  UNL     1     -32.941   7.160   6.464  1.00 20.00    -0.201 F 
HETATM   10  F10 UNL     1     -31.615   6.719   3.991  1.00 20.00    -0.200 F 
ENDROOT
TORSDOF 0
ENDMDL
MODEL 5
REMARK VINA RESULT:      -4.7     12.341     13.535
REMARK  0 active torsions:
REMARK  status: ('A' for Active; 'I' for Inactive)
ROOT
HETATM    1  C1  UNL     1     -34.188  15.897  -6.269  1.00 20.00     0.044 A 
HETATM    2  C2  UNL     1     -33.446  16.429  -5.281  1.00 20.00     0.014 A 
HETATM    3  C3  UNL     1     -34.663  14.535  -6.172  1.00 20.00     0.156 A 
HETATM    4  C4  UNL     1     -34.382  13.770  -5.104  1.00 20.00     0.202 A 
HETATM    5  C5  UNL     1     -33.059  15.682  -4.065  1.00 20.00     0.224 A 
HETATM    6  C6  UNL     1     -33.572  14.244  -3.971  1.00 20.00     0.293 A 
HETATM    7  O7  UNL     1     -34.009  15.271  -3.071  1.00 20.00    -0.328 OA
HETATM    8  F8  UNL     1     -35.408  14.048  -7.185  1.00 20.00    -0.203 F 
HETATM    9  F9  UNL     1     -34.860  12.507  -5.069  1.00 20.00    -0.201 F 
HETATM   10  F10 UNL     1     -32.676  13.320  -3.445  1.00 20.00    -0.200 F 
ENDROOT
TORSDOF 0
ENDMDL
MODEL 6
REMARK VINA RESULT:      -4.7      8.295      9.368
REMARK  0 active torsions:
REMARK  status: ('A' for Active; 'I' for Inactive)
ROOT
HETATM    1  C1  UNL     1     -41.981   6.939  -2.266  1.00 20.00     0.044 A 
HETATM    2  C2  UNL     1     -42.366   5.693  -2.598  1.00 20.00     0.014 A 
HETATM    3  C3  UNL     1     -41.195   7.165  -1.074  1.00 20.00     0.156 A 
HETATM    4  C4  UNL     1     -40.828   6.151  -0.275  1.00 20.00     0.202 A 
HETATM    5  C5  UNL     1     -42.037   4.500  -1.790  1.00 20.00     0.224 A 
HETATM    6  C6  UNL     1     -41.201   4.751  -0.535  1.00 20.00     0.293 A 
HETATM    7  O7  UNL     1     -40.699   4.002  -1.649  1.00 20.00    -0.328 OA
HETATM    8  F8  UNL     1     -40.828   8.430  -0.786  1.00 20.00    -0.203 F 
HETATM    9  F9  UNL     1     -40.088   6.425   0.821  1.00 20.00    -0.201 F 
HETATM   10  F10 UNL     1     -41.557   4.006   0.584  1.00 20.00    -0.200 F 
ENDROOT
TORSDOF 0
ENDMDL
MODEL 7
REMARK VINA RESULT:      -4.6      8.789      9.709
REMARK  0 active torsions:
REMARK  status: ('A' for Active; 'I' for Inactive)
ROOT
HETATM    1  C1  UNL     1     -40.891   4.626  -0.745  1.00 20.00     0.044 A 
HETATM    2  C2  UNL     1     -41.615   4.241  -1.812  1.00 20.00     0.014 A 
HETATM    3  C3  UNL     1     -40.760   6.029  -0.422  1.00 20.00     0.156 A 
HETATM    4  C4  UNL     1     -41.352   6.977  -1.165  1.00 20.00     0.202 A 
HETATM    5  C5  UNL     1     -42.299   5.191  -2.713  1.00 20.00     0.224 A 
HETATM    6  C6  UNL     1     -42.159   6.672  -2.358  1.00 20.00     0.293 A 
HETATM    7  O7  UNL     1     -43.417   5.989  -2.297  1.00 20.00    -0.328 OA
HETATM    8  F8  UNL     1     -40.028   6.366   0.660  1.00 20.00    -0.203 F 
HETATM    9  F9  UNL     1     -41.198   8.271  -0.808  1.00 20.00    -0.201 F 
HETATM   10  F10 UNL     1     -41.990   7.536  -3.435  1.00 20.00    -0.200 F 
ENDROOT
TORSDOF 0
ENDMDL
MODEL 8
REMARK VINA RESULT:      -4.6      8.842     10.229
REMARK  0 active torsions:
REMARK  status: ('A' for Active; 'I' for Inactive)
ROOT
HETATM    1  C1  UNL     1     -42.026   7.416  -1.917  1.00 20.00     0.044 A 
HETATM    2  C2  UNL     1     -41.275   7.361  -0.801  1.00 20.00     0.014 A 
HETATM    3  C3  UNL     1     -42.324   6.209  -2.655  1.00 20.00     0.156 A 
HETATM    4  C4  UNL     1     -41.870   5.011  -2.251  1.00 20.00     0.202 A 
HETATM    5  C5  UNL     1     -40.707   6.106  -0.268  1.00 20.00     0.224 A 
HETATM    6  C6  UNL     1     -41.034   4.834  -1.053  1.00 20.00     0.293 A 
HETATM    7  O7  UNL     1     -41.518   5.055   0.278  1.00 20.00    -0.328 OA
HETATM    8  F8  UNL     1     -43.085   6.314  -3.764  1.00 20.00    -0.203 F 
HETATM    9  F9  UNL     1     -42.189   3.919  -2.979  1.00 20.00    -0.201 F 
HETATM   10  F10 UNL     1     -39.995   3.918  -1.175  1.00 20.00    -0.200 F 
ENDROOT
TORSDOF 0
ENDMDL
MODEL 9
REMARK VINA RESULT:      -4.5     12.501     13.623
REMARK  0 active torsions:
REMARK  status: ('A' for Active; 'I' for Inactive)
ROOT
HETATM    1  C1  UNL     1     -34.813  14.251  -5.996  1.00 20.00     0.044 A 
HETATM    2  C2  UNL     1     -34.728  13.444  -4.922  1.00 20.00     0.014 A 
HETATM    3  C3  UNL     1     -34.208  15.563  -5.972  1.00 20.00     0.156 A 
HETATM    4  C4  UNL     1     -33.548  16.010  -4.891  1.00 20.00     0.202 A 
HETATM    5  C5  UNL     1     -34.043  13.830  -3.671  1.00 20.00     0.224 A 
HETATM    6  C6  UNL     1     -33.401  15.219  -3.659  1.00 20.00     0.293 A 
HETATM    7  O7  UNL     1     -32.622  14.017  -3.589  1.00 20.00    -0.328 OA
HETATM    8  F8  UNL     1     -34.315  16.333  -7.074  1.00 20.00    -0.203 F 
HETATM    9  F9  UNL     1     -32.998  17.243  -4.932  1.00 20.00    -0.201 F 
HETATM   10  F10 UNL     1     -33.527  15.929  -2.470  1.00 20.00    -0.200 F 
ENDROOT
TORSDOF 0
ENDMDL
