MODEL 1
REMARK VINA RESULT:      -4.6      0.000      0.000
REMARK  0 active torsions:
REMARK  status: ('A' for Active; 'I' for Inactive)
ROOT
HETATM    1  C1  UNL     1     -34.672  16.625  -0.711  1.00 20.00     0.015 C 
HETATM    2  C2  UNL     1     -34.664  16.274  -1.859  1.00 20.00    -0.075 C 
HETATM    3  C3  UNL     1     -32.564  14.772  -3.705  1.00 20.00     0.034 C 
HETATM    4  C4  UNL     1     -36.905  15.382  -3.925  1.00 20.00     0.034 C 
HETATM    5  C5  UNL     1     -33.282  16.099  -3.899  1.00 20.00     0.057 C 
HETATM    6  C6  UNL     1     -35.833  16.458  -4.027  1.00 20.00     0.057 C 
HETATM    7  C7  UNL     1     -33.673  13.761  -3.938  1.00 20.00     0.275 C 
HETATM    8  C8  UNL     1     -36.099  14.101  -4.060  1.00 20.00     0.275 C 
HETATM    9  C9  UNL     1     -34.654  15.843  -3.273  1.00 20.00     0.221 C 
HETATM   10  N10 UNL     1     -34.857  14.377  -3.328  1.00 20.00     0.110 N 
ENDROOT
TORSDOF 0
ENDMDL
MODEL 2
REMARK VINA RESULT:      -4.6      1.338      2.481
REMARK  0 active torsions:
REMARK  status: ('A' for Active; 'I' for Inactive)
ROOT
HETATM    1  C1  UNL     1     -34.630  16.309  -1.444  1.00 20.00     0.015 C 
HETATM    2  C2  UNL     1     -34.390  15.909  -2.548  1.00 20.00    -0.075 C 
HETATM    3  C3  UNL     1     -35.219  13.329  -4.203  1.00 20.00     0.034 C 
HETATM    4  C4  UNL     1     -33.735  17.304  -5.325  1.00 20.00     0.034 C 
HETATM    5  C5  UNL     1     -33.848  13.904  -3.887  1.00 20.00     0.057 C 
HETATM    6  C6  UNL     1     -32.975  16.241  -4.546  1.00 20.00     0.057 C 
HETATM    7  C7  UNL     1     -35.759  14.310  -5.230  1.00 20.00     0.275 C 
HETATM    8  C8  UNL     1     -34.930  16.531  -5.857  1.00 20.00     0.275 C 
HETATM    9  C9  UNL     1     -34.092  15.414  -3.910  1.00 20.00     0.221 C 
HETATM   10  N10 UNL     1     -35.285  15.617  -4.765  1.00 20.00     0.110 N 
ENDROOT
TORSDOF 0
ENDMDL
MODEL 3
REMARK VINA RESULT:      -4.5      1.144      1.744
REMARK  0 active torsions:
REMARK  status: ('A' for Active; 'I' for Inactive)
ROOT
HETATM    1  C1  UNL     1     -34.597  16.511  -1.067  1.00 20.00     0.015 C 
HETATM    2  C2  UNL     1     -34.291  16.279  -2.203  1.00 20.00    -0.075 C 
HETATM    3  C3  UNL     1     -33.507  13.649  -3.799  1.00 20.00     0.034 C 
HETATM    4  C4  UNL     1     -34.989  17.600  -5.006  1.00 20.00     0.034 C 
HETATM    5  C5  UNL     1     -32.774  14.973  -3.652  1.00 20.00     0.057 C 
HETATM    6  C6  UNL     1     -33.645  17.296  -4.360  1.00 20.00     0.057 C 
HETATM    7  C7  UNL     1     -34.659  14.011  -4.721  1.00 20.00     0.275 C 
HETATM    8  C8  UNL     1     -35.487  16.218  -5.395  1.00 20.00     0.275 C 
HETATM    9  C9  UNL     1     -33.912  15.994  -3.604  1.00 20.00     0.221 C 
HETATM   10  N10 UNL     1     -35.059  15.354  -4.289  1.00 20.00     0.110 N 
ENDROOT
TORSDOF 0
ENDMDL
MODEL 4
REMARK VINA RESULT:      -4.4      1.150      3.039
REMARK  0 active torsions:
REMARK  status: ('A' for Active; 'I' for Inactive)
ROOT
HETATM    1  C1  UNL     1     -34.649  16.759  -0.547  1.00 20.00     0.015 C 
HETATM    2  C2  UNL     1     -34.775  16.320  -1.656  1.00 20.00    -0.075 C 
HETATM    3  C3  UNL     1     -36.751  16.917  -4.067  1.00 20.00     0.034 C 
HETATM    4  C4  UNL     1     -32.785  15.058  -3.786  1.00 20.00     0.034 C 
HETATM    5  C5  UNL     1     -36.412  15.611  -3.365  1.00 20.00     0.057 C 
HETATM    6  C6  UNL     1     -34.081  14.519  -3.198  1.00 20.00     0.057 C 
HETATM    7  C7  UNL     1     -35.493  17.194  -4.872  1.00 20.00     0.275 C 
HETATM    8  C8  UNL     1     -33.277  16.156  -4.714  1.00 20.00     0.275 C 
HETATM    9  C9  UNL     1     -34.931  15.778  -3.023  1.00 20.00     0.221 C 
HETATM   10  N10 UNL     1     -34.400  16.764  -3.992  1.00 20.00     0.110 N 
ENDROOT
TORSDOF 0
ENDMDL
MODEL 5
REMARK VINA RESULT:      -4.3      1.143      2.065
REMARK  0 active torsions:
REMARK  status: ('A' for Active; 'I' for Inactive)
ROOT
HETATM    1  C1  UNL     1     -34.623  16.567  -0.890  1.00 20.00     0.015 C 
HETATM    2  C2  UNL     1     -34.773  16.360  -2.062  1.00 20.00    -0.075 C 
HETATM    3  C3  UNL     1     -33.818  17.820  -4.714  1.00 20.00     0.034 C 
HETATM    4  C4  UNL     1     -35.192  13.749  -3.821  1.00 20.00     0.034 C 
HETATM    5  C5  UNL     1     -35.209  17.416  -4.252  1.00 20.00     0.057 C 
HETATM    6  C6  UNL     1     -36.018  15.024  -3.726  1.00 20.00     0.057 C 
HETATM    7  C7  UNL     1     -33.193  16.485  -5.080  1.00 20.00     0.275 C 
HETATM    8  C8  UNL     1     -33.960  14.210  -4.580  1.00 20.00     0.275 C 
HETATM    9  C9  UNL     1     -34.959  16.105  -3.506  1.00 20.00     0.221 C 
HETATM   10  N10 UNL     1     -33.699  15.558  -4.062  1.00 20.00     0.110 N 
ENDROOT
TORSDOF 0
ENDMDL
MODEL 6
REMARK VINA RESULT:      -4.3      1.581      3.044
REMARK  0 active torsions:
REMARK  status: ('A' for Active; 'I' for Inactive)
ROOT
HETATM    1  C1  UNL     1     -34.619  14.843  -7.174  1.00 20.00     0.015 C 
HETATM    2  C2  UNL     1     -34.711  14.721  -5.984  1.00 20.00    -0.075 C 
HETATM    3  C3  UNL     1     -32.655  14.876  -3.570  1.00 20.00     0.034 C 
HETATM    4  C4  UNL     1     -37.017  15.258  -3.867  1.00 20.00     0.034 C 
HETATM    5  C5  UNL     1     -33.634  13.782  -3.969  1.00 20.00     0.057 C 
HETATM    6  C6  UNL     1     -36.197  14.006  -4.145  1.00 20.00     0.057 C 
HETATM    7  C7  UNL     1     -33.573  15.952  -3.017  1.00 20.00     0.275 C 
HETATM    8  C8  UNL     1     -36.010  16.167  -3.183  1.00 20.00     0.275 C 
HETATM    9  C9  UNL     1     -34.825  14.568  -4.518  1.00 20.00     0.221 C 
HETATM   10  N10 UNL     1     -34.750  15.908  -3.890  1.00 20.00     0.110 N 
ENDROOT
TORSDOF 0
ENDMDL
MODEL 7
REMARK VINA RESULT:      -4.2      1.820      3.318
REMARK  0 active torsions:
REMARK  status: ('A' for Active; 'I' for Inactive)
ROOT
HETATM    1  C1  UNL     1     -37.601  14.845  -3.810  1.00 20.00     0.015 C 
HETATM    2  C2  UNL     1     -36.445  14.797  -4.129  1.00 20.00    -0.075 C 
HETATM    3  C3  UNL     1     -34.915  14.628  -6.905  1.00 20.00     0.034 C 
HETATM    4  C4  UNL     1     -33.745  15.896  -2.870  1.00 20.00     0.034 C 
HETATM    5  C5  UNL     1     -34.826  13.745  -5.670  1.00 20.00     0.057 C 
HETATM    6  C6  UNL     1     -34.140  14.490  -3.298  1.00 20.00     0.057 C 
HETATM    7  C7  UNL     1     -34.208  15.895  -6.455  1.00 20.00     0.275 C 
HETATM    8  C8  UNL     1     -33.555  16.604  -4.201  1.00 20.00     0.275 C 
HETATM    9  C9  UNL     1     -35.021  14.737  -4.522  1.00 20.00     0.221 C 
HETATM   10  N10 UNL     1     -34.615  16.058  -5.056  1.00 20.00     0.110 N 
ENDROOT
TORSDOF 0
ENDMDL
MODEL 8
REMARK VINA RESULT:      -4.2     11.048     12.636
REMARK  0 active torsions:
REMARK  status: ('A' for Active; 'I' for Inactive)
ROOT
HETATM    1  C1  UNL     1     -43.322   5.018   1.345  1.00 20.00     0.015 C 
HETATM    2  C2  UNL     1     -42.695   5.273   0.354  1.00 20.00    -0.075 C 
HETATM    3  C3  UNL     1     -42.165   3.760  -2.386  1.00 20.00     0.034 C 
HETATM    4  C4  UNL     1     -41.891   7.958  -1.139  1.00 20.00     0.034 C 
HETATM    5  C5  UNL     1     -41.192   4.340  -1.371  1.00 20.00     0.057 C 
HETATM    6  C6  UNL     1     -41.031   6.807  -0.636  1.00 20.00     0.057 C 
HETATM    7  C7  UNL     1     -42.734   5.005  -3.044  1.00 20.00     0.275 C 
HETATM    8  C8  UNL     1     -42.582   7.351  -2.347  1.00 20.00     0.275 C 
HETATM    9  C9  UNL     1     -41.922   5.586  -0.867  1.00 20.00     0.221 C 
HETATM   10  N10 UNL     1     -42.863   5.968  -1.945  1.00 20.00     0.110 N 
ENDROOT
TORSDOF 0
ENDMDL
MODEL 9
REMARK VINA RESULT:      -4.2      1.932      3.522
REMARK  0 active torsions:
REMARK  status: ('A' for Active; 'I' for Inactive)
ROOT
HETATM    1  C1  UNL     1     -37.451  14.767  -4.211  1.00 20.00     0.015 C 
HETATM    2  C2  UNL     1     -36.340  14.686  -4.656  1.00 20.00    -0.075 C 
HETATM    3  C3  UNL     1     -34.717  16.275  -6.874  1.00 20.00     0.034 C 
HETATM    4  C4  UNL     1     -33.541  13.742  -3.489  1.00 20.00     0.034 C 
HETATM    5  C5  UNL     1     -34.988  14.786  -6.722  1.00 20.00     0.057 C 
HETATM    6  C6  UNL     1     -34.299  13.297  -4.732  1.00 20.00     0.057 C 
HETATM    7  C7  UNL     1     -33.705  16.539  -5.773  1.00 20.00     0.275 C 
HETATM    8  C8  UNL     1     -33.049  15.124  -3.880  1.00 20.00     0.275 C 
HETATM    9  C9  UNL     1     -34.971  14.586  -5.206  1.00 20.00     0.221 C 
HETATM   10  N10 UNL     1     -34.153  15.694  -4.661  1.00 20.00     0.110 N 
ENDROOT
TORSDOF 0
ENDMDL
