MODEL 1
REMARK VINA RESULT:      -5.1      0.000      0.000
REMARK  1 active torsions:
REMARK  status: ('A' for Active; 'I' for Inactive)
REMARK    1  A    between atoms: C3_3  and  C8_8 
ROOT
HETATM    1  C1  UNL     1     -34.725  17.447  -2.439  1.00 20.00    -0.025 C 
HETATM    2  C2  UNL     1     -34.488  16.285  -1.813  1.00 20.00    -0.024 C 
HETATM    3  C4  UNL     1     -36.310  15.947  -3.178  1.00 20.00     0.018 C 
HETATM    4  C5  UNL     1     -35.485  17.127  -3.704  1.00 20.00     0.013 C 
HETATM    5  C6  UNL     1     -35.074  15.186  -2.670  1.00 20.00     0.024 C 
HETATM    6  C7  UNL     1     -34.555  16.402  -4.721  1.00 20.00     0.005 C 
HETATM    7  C8  UNL     1     -34.228  15.047  -3.976  1.00 20.00     0.027 C 
HETATM    8  C10 UNL     1     -33.370  17.244  -5.176  1.00 20.00     0.012 C 
HETATM    9  C11 UNL     1     -32.746  14.765  -3.712  1.00 20.00     0.024 C 
ENDROOT
BRANCH   7  10
HETATM   10  C3  UNL     1     -34.758  13.867  -4.758  1.00 20.00     0.132 C 
HETATM   11  C9  UNL     1     -35.078  14.104  -6.209  1.00 20.00     0.091 C 
HETATM   12  O12 UNL     1     -34.917  12.765  -4.235  1.00 20.00    -0.298 OA
ENDBRANCH   7  10
TORSDOF 1
ENDMDL
MODEL 2
REMARK VINA RESULT:      -5.0      1.419      2.456
REMARK  1 active torsions:
REMARK  status: ('A' for Active; 'I' for Inactive)
REMARK    1  A    between atoms: C3_3  and  C8_8 
ROOT
HETATM    1  C1  UNL     1     -32.680  15.199  -3.775  1.00 20.00    -0.025 C 
HETATM    2  C2  UNL     1     -33.280  14.003  -3.686  1.00 20.00    -0.024 C 
HETATM    3  C4  UNL     1     -34.595  15.499  -2.532  1.00 20.00     0.018 C 
HETATM    4  C5  UNL     1     -33.741  16.251  -3.558  1.00 20.00     0.013 C 
HETATM    5  C6  UNL     1     -34.747  14.257  -3.426  1.00 20.00     0.024 C 
HETATM    6  C7  UNL     1     -34.714  16.291  -4.773  1.00 20.00     0.005 C 
HETATM    7  C8  UNL     1     -35.397  14.868  -4.709  1.00 20.00     0.027 C 
HETATM    8  C10 UNL     1     -34.040  16.676  -6.085  1.00 20.00     0.012 C 
HETATM    9  C11 UNL     1     -35.235  13.986  -5.951  1.00 20.00     0.024 C 
ENDROOT
BRANCH   7  10
HETATM   10  C3  UNL     1     -36.884  15.001  -4.468  1.00 20.00     0.132 C 
HETATM   11  C9  UNL     1     -37.545  16.249  -4.985  1.00 20.00     0.091 C 
HETATM   12  O12 UNL     1     -37.522  14.129  -3.880  1.00 20.00    -0.298 OA
ENDBRANCH   7  10
TORSDOF 1
ENDMDL
MODEL 3
REMARK VINA RESULT:      -5.0      1.362      3.051
REMARK  1 active torsions:
REMARK  status: ('A' for Active; 'I' for Inactive)
REMARK    1  A    between atoms: C3_3  and  C8_8 
ROOT
HETATM    1  C1  UNL     1     -35.486  16.929  -6.761  1.00 20.00    -0.025 C 
HETATM    2  C2  UNL     1     -36.446  16.052  -6.433  1.00 20.00    -0.024 C 
HETATM    3  C4  UNL     1     -34.599  14.822  -7.041  1.00 20.00     0.018 C 
HETATM    4  C5  UNL     1     -34.161  16.222  -6.601  1.00 20.00     0.013 C 
HETATM    5  C6  UNL     1     -35.762  14.765  -6.036  1.00 20.00     0.024 C 
HETATM    6  C7  UNL     1     -33.864  15.974  -5.092  1.00 20.00     0.005 C 
HETATM    7  C8  UNL     1     -35.017  14.977  -4.679  1.00 20.00     0.027 C 
HETATM    8  C10 UNL     1     -33.730  17.254  -4.275  1.00 20.00     0.012 C 
HETATM    9  C11 UNL     1     -35.939  15.445  -3.547  1.00 20.00     0.024 C 
ENDROOT
BRANCH   7  10
HETATM   10  C3  UNL     1     -34.443  13.649  -4.242  1.00 20.00     0.132 C 
HETATM   11  C9  UNL     1     -33.066  13.672  -3.637  1.00 20.00     0.091 C 
HETATM   12  O12 UNL     1     -35.072  12.600  -4.373  1.00 20.00    -0.298 OA
ENDBRANCH   7  10
TORSDOF 1
ENDMDL
MODEL 4
REMARK VINA RESULT:      -4.9      1.114      2.668
REMARK  1 active torsions:
REMARK  status: ('A' for Active; 'I' for Inactive)
REMARK    1  A    between atoms: C3_3  and  C8_8 
ROOT
HETATM    1  C1  UNL     1     -34.822  17.902  -4.225  1.00 20.00    -0.025 C 
HETATM    2  C2  UNL     1     -35.527  17.151  -5.083  1.00 20.00    -0.024 C 
HETATM    3  C4  UNL     1     -33.368  16.354  -5.117  1.00 20.00     0.018 C 
HETATM    4  C5  UNL     1     -33.624  17.089  -3.797  1.00 20.00     0.013 C 
HETATM    5  C6  UNL     1     -34.810  15.827  -5.214  1.00 20.00     0.024 C 
HETATM    6  C7  UNL     1     -34.075  15.907  -2.888  1.00 20.00     0.005 C 
HETATM    7  C8  UNL     1     -34.948  15.034  -3.875  1.00 20.00     0.027 C 
HETATM    8  C10 UNL     1     -34.736  16.350  -1.589  1.00 20.00     0.012 C 
HETATM    9  C11 UNL     1     -36.403  14.797  -3.457  1.00 20.00     0.024 C 
ENDROOT
BRANCH   7  10
HETATM   10  C3  UNL     1     -34.329  13.669  -4.069  1.00 20.00     0.132 C 
HETATM   11  C9  UNL     1     -32.948  13.464  -3.506  1.00 20.00     0.091 C 
HETATM   12  O12 UNL     1     -34.925  12.768  -4.656  1.00 20.00    -0.298 OA
ENDBRANCH   7  10
TORSDOF 1
ENDMDL
MODEL 5
REMARK VINA RESULT:      -4.9      1.780      3.662
REMARK  1 active torsions:
REMARK  status: ('A' for Active; 'I' for Inactive)
REMARK    1  A    between atoms: C3_3  and  C8_8 
ROOT
HETATM    1  C1  UNL     1     -34.882  13.539  -5.604  1.00 20.00    -0.025 C 
HETATM    2  C2  UNL     1     -35.269  14.743  -6.050  1.00 20.00    -0.024 C 
HETATM    3  C4  UNL     1     -36.433  14.345  -4.104  1.00 20.00     0.018 C 
HETATM    4  C5  UNL     1     -35.154  13.502  -4.119  1.00 20.00     0.013 C 
HETATM    5  C6  UNL     1     -35.783  15.518  -4.858  1.00 20.00     0.024 C 
HETATM    6  C7  UNL     1     -34.172  14.450  -3.370  1.00 20.00     0.005 C 
HETATM    7  C8  UNL     1     -34.585  15.872  -3.920  1.00 20.00     0.027 C 
HETATM    8  C10 UNL     1     -32.708  14.051  -3.512  1.00 20.00     0.012 C 
HETATM    9  C11 UNL     1     -33.480  16.669  -4.621  1.00 20.00     0.024 C 
ENDROOT
BRANCH   7  10
HETATM   10  C3  UNL     1     -35.103  16.747  -2.801  1.00 20.00     0.132 C 
HETATM   11  C9  UNL     1     -34.659  16.397  -1.407  1.00 20.00     0.091 C 
HETATM   12  O12 UNL     1     -35.849  17.699  -3.021  1.00 20.00    -0.298 OA
ENDBRANCH   7  10
TORSDOF 1
ENDMDL
MODEL 6
REMARK VINA RESULT:      -4.9      1.570      3.127
REMARK  1 active torsions:
REMARK  status: ('A' for Active; 'I' for Inactive)
REMARK    1  A    between atoms: C3_3  and  C8_8 
ROOT
HETATM    1  C1  UNL     1     -32.940  15.650  -4.212  1.00 20.00    -0.025 C 
HETATM    2  C2  UNL     1     -33.576  16.101  -5.302  1.00 20.00    -0.024 C 
HETATM    3  C4  UNL     1     -34.333  13.960  -4.926  1.00 20.00     0.018 C 
HETATM    4  C5  UNL     1     -33.788  14.550  -3.621  1.00 20.00     0.013 C 
HETATM    5  C6  UNL     1     -34.860  15.314  -5.429  1.00 20.00     0.024 C 
HETATM    6  C7  UNL     1     -35.089  15.146  -3.006  1.00 20.00     0.005 C 
HETATM    7  C8  UNL     1     -35.831  15.725  -4.276  1.00 20.00     0.027 C 
HETATM    8  C10 UNL     1     -34.836  16.111  -1.854  1.00 20.00     0.012 C 
HETATM    9  C11 UNL     1     -36.141  17.225  -4.249  1.00 20.00     0.024 C 
ENDROOT
BRANCH   7  10
HETATM   10  C3  UNL     1     -37.149  15.017  -4.492  1.00 20.00     0.132 C 
HETATM   11  C9  UNL     1     -37.916  15.379  -5.735  1.00 20.00     0.091 C 
HETATM   12  O12 UNL     1     -37.573  14.184  -3.692  1.00 20.00    -0.298 OA
ENDBRANCH   7  10
TORSDOF 1
ENDMDL
MODEL 7
REMARK VINA RESULT:      -4.7      1.573      3.603
REMARK  1 active torsions:
REMARK  status: ('A' for Active; 'I' for Inactive)
REMARK    1  A    between atoms: C3_3  and  C8_8 
ROOT
HETATM    1  C1  UNL     1     -36.393  15.142  -6.873  1.00 20.00    -0.025 C 
HETATM    2  C2  UNL     1     -35.219  14.501  -6.960  1.00 20.00    -0.024 C 
HETATM    3  C4  UNL     1     -34.788  16.561  -6.028  1.00 20.00     0.018 C 
HETATM    4  C5  UNL     1     -36.255  16.187  -5.792  1.00 20.00     0.013 C 
HETATM    5  C6  UNL     1     -34.300  15.106  -5.924  1.00 20.00     0.024 C 
HETATM    6  C7  UNL     1     -36.159  15.504  -4.395  1.00 20.00     0.005 C 
HETATM    7  C8  UNL     1     -34.800  14.706  -4.498  1.00 20.00     0.027 C 
HETATM    8  C10 UNL     1     -37.402  14.708  -4.016  1.00 20.00     0.012 C 
HETATM    9  C11 UNL     1     -34.892  13.191  -4.290  1.00 20.00     0.024 C 
ENDROOT
BRANCH   7  10
HETATM   10  C3  UNL     1     -33.802  15.219  -3.486  1.00 20.00     0.132 C 
HETATM   11  C9  UNL     1     -34.353  16.010  -2.331  1.00 20.00     0.091 C 
HETATM   12  O12 UNL     1     -32.597  14.999  -3.600  1.00 20.00    -0.298 OA
ENDBRANCH   7  10
TORSDOF 1
ENDMDL
MODEL 8
REMARK VINA RESULT:      -4.6      1.387      3.054
REMARK  1 active torsions:
REMARK  status: ('A' for Active; 'I' for Inactive)
REMARK    1  A    between atoms: C3_3  and  C8_8 
ROOT
HETATM    1  C1  UNL     1     -33.229  16.387  -5.329  1.00 20.00    -0.025 C 
HETATM    2  C2  UNL     1     -33.911  17.313  -4.639  1.00 20.00    -0.024 C 
HETATM    3  C4  UNL     1     -35.419  16.273  -6.032  1.00 20.00     0.018 C 
HETATM    4  C5  UNL     1     -34.223  15.347  -5.787  1.00 20.00     0.013 C 
HETATM    5  C6  UNL     1     -35.359  16.882  -4.621  1.00 20.00     0.024 C 
HETATM    6  C7  UNL     1     -34.737  14.523  -4.570  1.00 20.00     0.005 C 
HETATM    7  C8  UNL     1     -35.506  15.612  -3.722  1.00 20.00     0.027 C 
HETATM    8  C10 UNL     1     -33.645  13.736  -3.857  1.00 20.00     0.012 C 
HETATM    9  C11 UNL     1     -35.009  15.823  -2.288  1.00 20.00     0.024 C 
ENDROOT
BRANCH   7  10
HETATM   10  C3  UNL     1     -36.975  15.272  -3.621  1.00 20.00     0.132 C 
HETATM   11  C9  UNL     1     -37.917  16.411  -3.338  1.00 20.00     0.091 C 
HETATM   12  O12 UNL     1     -37.381  14.120  -3.765  1.00 20.00    -0.298 OA
ENDBRANCH   7  10
TORSDOF 1
ENDMDL
MODEL 9
REMARK VINA RESULT:      -4.6      2.041      3.060
REMARK  1 active torsions:
REMARK  status: ('A' for Active; 'I' for Inactive)
REMARK    1  A    between atoms: C3_3  and  C8_8 
ROOT
HETATM    1  C1  UNL     1     -33.861  13.890  -3.779  1.00 20.00    -0.025 C 
HETATM    2  C2  UNL     1     -34.503  13.200  -4.733  1.00 20.00    -0.024 C 
HETATM    3  C4  UNL     1     -36.066  14.552  -3.719  1.00 20.00     0.018 C 
HETATM    4  C5  UNL     1     -34.666  15.138  -3.509  1.00 20.00     0.013 C 
HETATM    5  C6  UNL     1     -35.729  13.997  -5.114  1.00 20.00     0.024 C 
HETATM    6  C7  UNL     1     -34.573  16.110  -4.723  1.00 20.00     0.005 C 
HETATM    7  C8  UNL     1     -35.286  15.291  -5.870  1.00 20.00     0.027 C 
HETATM    8  C10 UNL     1     -33.159  16.606  -5.004  1.00 20.00     0.012 C 
HETATM    9  C11 UNL     1     -34.443  15.005  -7.118  1.00 20.00     0.024 C 
ENDROOT
BRANCH   7  10
HETATM   10  C3  UNL     1     -36.528  16.009  -6.346  1.00 20.00     0.132 C 
HETATM   11  C9  UNL     1     -37.498  15.210  -7.174  1.00 20.00     0.091 C 
HETATM   12  O12 UNL     1     -36.737  17.189  -6.068  1.00 20.00    -0.298 OA
ENDBRANCH   7  10
TORSDOF 1
ENDMDL
