MODEL 1
REMARK VINA RESULT:      -5.0      0.000      0.000
REMARK  2 active torsions:
REMARK  status: ('A' for Active; 'I' for Inactive)
REMARK    1  A    between atoms: C1_1  and  C10_10 
REMARK    2  A    between atoms: C1_1  and  C11_11 
ROOT
HETATM    1  C2  UNL     1     -40.782   7.204  -0.419  1.00 20.00     0.009 C 
HETATM    2  C3  UNL     1     -43.277   7.217  -0.793  1.00 20.00     0.010 C 
HETATM    3  C4  UNL     1     -42.263   5.399   0.538  1.00 20.00     0.010 C 
HETATM    4  C5  UNL     1     -41.921   6.651  -2.604  1.00 20.00     0.022 C 
HETATM    5  C6  UNL     1     -40.907   4.830  -1.270  1.00 20.00     0.022 C 
HETATM    6  C7  UNL     1     -41.925   7.598  -1.401  1.00 20.00    -0.013 C 
HETATM    7  C8  UNL     1     -40.869   5.703  -0.013  1.00 20.00    -0.013 C 
HETATM    8  C9  UNL     1     -43.130   5.690  -0.696  1.00 20.00     0.002 C 
HETATM    9  C10 UNL     1     -42.213   5.315  -1.913  1.00 20.00     0.026 C 
ENDROOT
BRANCH   9  10
HETATM   10  C1  UNL     1     -42.815   4.295  -2.823  1.00 20.00     0.149 C 
HETATM   11  O12 UNL     1     -43.417   4.639  -3.838  1.00 20.00    -0.296 OA
BRANCH  10  12
HETATM   12  C11 UNL     1     -42.630   2.853  -2.406  1.00 20.00     0.193 C 
HETATM   13 CL13 UNL     1     -41.651   1.979  -3.593  1.00 20.00    -0.123 Cl
ENDBRANCH  10  12
ENDBRANCH   9  10
TORSDOF 2
ENDMDL
MODEL 2
REMARK VINA RESULT:      -5.0     11.268     12.515
REMARK  2 active torsions:
REMARK  status: ('A' for Active; 'I' for Inactive)
REMARK    1  A    between atoms: C1_1  and  C10_10 
REMARK    2  A    between atoms: C1_1  and  C11_11 
ROOT
HETATM    1  C2  UNL     1     -33.281  15.903  -4.401  1.00 20.00     0.009 C 
HETATM    2  C3  UNL     1     -34.197  13.560  -4.191  1.00 20.00     0.010 C 
HETATM    3  C4  UNL     1     -34.431  14.763  -6.337  1.00 20.00     0.010 C 
HETATM    4  C5  UNL     1     -35.354  15.269  -3.105  1.00 20.00     0.022 C 
HETATM    5  C6  UNL     1     -35.589  16.471  -5.255  1.00 20.00     0.022 C 
HETATM    6  C7  UNL     1     -33.916  14.860  -3.433  1.00 20.00    -0.013 C 
HETATM    7  C8  UNL     1     -34.160  16.112  -5.671  1.00 20.00    -0.013 C 
HETATM    8  C9  UNL     1     -35.220  14.047  -5.230  1.00 20.00     0.002 C 
HETATM    9  C10 UNL     1     -35.992  15.200  -4.496  1.00 20.00     0.026 C 
ENDROOT
BRANCH   9  10
HETATM   10  C1  UNL     1     -37.472  15.001  -4.462  1.00 20.00     0.149 C 
HETATM   11  O12 UNL     1     -37.973  14.158  -3.720  1.00 20.00    -0.296 OA
BRANCH  10  12
HETATM   12  C11 UNL     1     -38.276  15.889  -5.385  1.00 20.00     0.193 C 
HETATM   13 CL13 UNL     1     -38.478  15.124  -6.968  1.00 20.00    -0.123 Cl
ENDBRANCH  10  12
ENDBRANCH   9  10
TORSDOF 2
ENDMDL
MODEL 3
REMARK VINA RESULT:      -5.0     12.153     13.518
REMARK  2 active torsions:
REMARK  status: ('A' for Active; 'I' for Inactive)
REMARK    1  A    between atoms: C1_1  and  C10_10 
REMARK    2  A    between atoms: C1_1  and  C11_11 
ROOT
HETATM    1  C2  UNL     1     -34.711  14.404  -5.985  1.00 20.00     0.009 C 
HETATM    2  C3  UNL     1     -33.056  16.016  -4.970  1.00 20.00     0.010 C 
HETATM    3  C4  UNL     1     -33.576  13.910  -3.786  1.00 20.00     0.010 C 
HETATM    4  C5  UNL     1     -35.311  16.608  -4.909  1.00 20.00     0.022 C 
HETATM    5  C6  UNL     1     -35.829  14.499  -3.723  1.00 20.00     0.022 C 
HETATM    6  C7  UNL     1     -34.315  15.903  -5.833  1.00 20.00    -0.013 C 
HETATM    7  C8  UNL     1     -34.855  13.707  -4.599  1.00 20.00    -0.013 C 
HETATM    8  C9  UNL     1     -33.566  15.439  -3.639  1.00 20.00     0.002 C 
HETATM    9  C10 UNL     1     -35.084  15.836  -3.606  1.00 20.00     0.026 C 
ENDROOT
BRANCH   9  10
HETATM   10  C1  UNL     1     -35.475  16.602  -2.385  1.00 20.00     0.149 C 
HETATM   11  O12 UNL     1     -36.445  17.358  -2.403  1.00 20.00    -0.296 OA
BRANCH  10  12
HETATM   12  C11 UNL     1     -34.608  16.381  -1.166  1.00 20.00     0.193 C 
HETATM   13 CL13 UNL     1     -33.535  17.763  -0.902  1.00 20.00    -0.123 Cl
ENDBRANCH  10  12
ENDBRANCH   9  10
TORSDOF 2
ENDMDL
MODEL 4
REMARK VINA RESULT:      -5.0     11.260     12.598
REMARK  2 active torsions:
REMARK  status: ('A' for Active; 'I' for Inactive)
REMARK    1  A    between atoms: C1_1  and  C10_10 
REMARK    2  A    between atoms: C1_1  and  C11_11 
ROOT
HETATM    1  C2  UNL     1     -33.172  14.397  -3.723  1.00 20.00     0.009 C 
HETATM    2  C3  UNL     1     -34.443  14.673  -5.886  1.00 20.00     0.010 C 
HETATM    3  C4  UNL     1     -34.148  16.625  -4.399  1.00 20.00     0.010 C 
HETATM    4  C5  UNL     1     -35.498  13.514  -4.159  1.00 20.00     0.022 C 
HETATM    5  C6  UNL     1     -35.202  15.470  -2.672  1.00 20.00     0.022 C 
HETATM    6  C7  UNL     1     -34.101  13.696  -4.759  1.00 20.00    -0.013 C 
HETATM    7  C8  UNL     1     -33.793  15.731  -3.210  1.00 20.00    -0.013 C 
HETATM    8  C9  UNL     1     -35.201  15.760  -5.107  1.00 20.00     0.002 C 
HETATM    9  C10 UNL     1     -35.905  14.975  -3.943  1.00 20.00     0.026 C 
ENDROOT
BRANCH   9  10
HETATM   10  C1  UNL     1     -37.384  15.179  -3.894  1.00 20.00     0.149 C 
HETATM   11  O12 UNL     1     -38.137  14.243  -3.628  1.00 20.00    -0.296 OA
BRANCH  10  12
HETATM   12  C11 UNL     1     -37.863  16.582  -4.190  1.00 20.00     0.193 C 
HETATM   13 CL13 UNL     1     -38.144  17.477  -2.690  1.00 20.00    -0.123 Cl
ENDBRANCH  10  12
ENDBRANCH   9  10
TORSDOF 2
ENDMDL
MODEL 5
REMARK VINA RESULT:      -4.9     11.325     12.565
REMARK  2 active torsions:
REMARK  status: ('A' for Active; 'I' for Inactive)
REMARK    1  A    between atoms: C1_1  and  C10_10 
REMARK    2  A    between atoms: C1_1  and  C11_11 
ROOT
HETATM    1  C2  UNL     1     -33.213  15.955  -4.461  1.00 20.00     0.009 C 
HETATM    2  C3  UNL     1     -34.089  13.748  -3.607  1.00 20.00     0.010 C 
HETATM    3  C4  UNL     1     -34.642  14.460  -5.908  1.00 20.00     0.010 C 
HETATM    4  C5  UNL     1     -35.068  15.691  -2.769  1.00 20.00     0.022 C 
HETATM    5  C6  UNL     1     -35.622  16.402  -5.073  1.00 20.00     0.022 C 
HETATM    6  C7  UNL     1     -33.697  15.171  -3.204  1.00 20.00    -0.013 C 
HETATM    7  C8  UNL     1     -34.272  15.912  -5.604  1.00 20.00    -0.013 C 
HETATM    8  C9  UNL     1     -35.256  14.031  -4.568  1.00 20.00     0.002 C 
HETATM    9  C10 UNL     1     -35.909  15.342  -4.002  1.00 20.00     0.026 C 
ENDROOT
BRANCH   9  10
HETATM   10  C1  UNL     1     -37.367  15.206  -3.709  1.00 20.00     0.149 C 
HETATM   11  O12 UNL     1     -37.915  14.106  -3.757  1.00 20.00    -0.296 OA
BRANCH  10  12
HETATM   12  C11 UNL     1     -38.089  16.488  -3.361  1.00 20.00     0.193 C 
HETATM   13 CL13 UNL     1     -39.718  16.145  -2.761  1.00 20.00    -0.123 Cl
ENDBRANCH  10  12
ENDBRANCH   9  10
TORSDOF 2
ENDMDL
MODEL 6
REMARK VINA RESULT:      -4.9     11.558     12.784
REMARK  2 active torsions:
REMARK  status: ('A' for Active; 'I' for Inactive)
REMARK    1  A    between atoms: C1_1  and  C10_10 
REMARK    2  A    between atoms: C1_1  and  C11_11 
ROOT
HETATM    1  C2  UNL     1     -34.992  16.374  -2.034  1.00 20.00     0.009 C 
HETATM    2  C3  UNL     1     -33.498  16.800  -4.022  1.00 20.00     0.010 C 
HETATM    3  C4  UNL     1     -35.942  17.067  -4.267  1.00 20.00     0.010 C 
HETATM    4  C5  UNL     1     -33.804  14.585  -3.361  1.00 20.00     0.022 C 
HETATM    5  C6  UNL     1     -36.252  14.854  -3.608  1.00 20.00     0.022 C 
HETATM    6  C7  UNL     1     -33.663  15.977  -2.742  1.00 20.00    -0.013 C 
HETATM    7  C8  UNL     1     -36.211  16.257  -2.998  1.00 20.00    -0.013 C 
HETATM    8  C9  UNL     1     -34.719  16.328  -4.828  1.00 20.00     0.002 C 
HETATM    9  C10 UNL     1     -34.924  14.838  -4.376  1.00 20.00     0.026 C 
ENDROOT
BRANCH   9  10
HETATM   10  C1  UNL     1     -34.931  13.866  -5.510  1.00 20.00     0.149 C 
HETATM   11  O12 UNL     1     -34.873  12.656  -5.297  1.00 20.00    -0.296 OA
BRANCH  10  12
HETATM   12  C11 UNL     1     -35.009  14.471  -6.893  1.00 20.00     0.193 C 
HETATM   13 CL13 UNL     1     -36.687  14.826  -7.326  1.00 20.00    -0.123 Cl
ENDBRANCH  10  12
ENDBRANCH   9  10
TORSDOF 2
ENDMDL
MODEL 7
REMARK VINA RESULT:      -4.9     11.814     13.147
REMARK  2 active torsions:
REMARK  status: ('A' for Active; 'I' for Inactive)
REMARK    1  A    between atoms: C1_1  and  C10_10 
REMARK    2  A    between atoms: C1_1  and  C11_11 
ROOT
HETATM    1  C2  UNL     1     -34.741  15.682  -2.416  1.00 20.00     0.009 C 
HETATM    2  C3  UNL     1     -35.886  14.085  -3.999  1.00 20.00     0.010 C 
HETATM    3  C4  UNL     1     -33.419  14.086  -3.856  1.00 20.00     0.010 C 
HETATM    4  C5  UNL     1     -35.855  16.342  -4.583  1.00 20.00     0.022 C 
HETATM    5  C6  UNL     1     -33.385  16.342  -4.440  1.00 20.00     0.022 C 
HETATM    6  C7  UNL     1     -35.978  15.462  -3.338  1.00 20.00    -0.013 C 
HETATM    7  C8  UNL     1     -33.406  15.462  -3.188  1.00 20.00    -0.013 C 
HETATM    8  C9  UNL     1     -34.599  14.247  -4.825  1.00 20.00     0.002 C 
HETATM    9  C10 UNL     1     -34.581  15.768  -5.212  1.00 20.00     0.026 C 
ENDROOT
BRANCH   9  10
HETATM   10  C1  UNL     1     -34.482  16.010  -6.682  1.00 20.00     0.149 C 
HETATM   11  O12 UNL     1     -34.173  17.119  -7.115  1.00 20.00    -0.296 OA
BRANCH  10  12
HETATM   12  C11 UNL     1     -34.784  14.820  -7.565  1.00 20.00     0.193 C 
HETATM   13 CL13 UNL     1     -36.516  14.728  -7.918  1.00 20.00    -0.123 Cl
ENDBRANCH  10  12
ENDBRANCH   9  10
TORSDOF 2
ENDMDL
MODEL 8
REMARK VINA RESULT:      -4.9     11.907     13.091
REMARK  2 active torsions:
REMARK  status: ('A' for Active; 'I' for Inactive)
REMARK    1  A    between atoms: C1_1  and  C10_10 
REMARK    2  A    between atoms: C1_1  and  C11_11 
ROOT
HETATM    1  C2  UNL     1     -36.752  15.090  -7.126  1.00 20.00     0.009 C 
HETATM    2  C3  UNL     1     -36.000  16.944  -5.588  1.00 20.00     0.010 C 
HETATM    3  C4  UNL     1     -34.337  15.814  -7.025  1.00 20.00     0.010 C 
HETATM    4  C5  UNL     1     -36.553  14.897  -4.617  1.00 20.00     0.022 C 
HETATM    5  C6  UNL     1     -34.886  13.768  -6.055  1.00 20.00     0.022 C 
HETATM    6  C7  UNL     1     -37.005  15.803  -5.764  1.00 20.00    -0.013 C 
HETATM    7  C8  UNL     1     -35.271  14.627  -7.263  1.00 20.00    -0.013 C 
HETATM    8  C9  UNL     1     -34.676  16.162  -5.568  1.00 20.00     0.002 C 
HETATM    9  C10 UNL     1     -35.055  14.784  -4.918  1.00 20.00     0.026 C 
ENDROOT
BRANCH   9  10
HETATM   10  C1  UNL     1     -34.232  14.442  -3.719  1.00 20.00     0.149 C 
HETATM   11  O12 UNL     1     -34.083  13.271  -3.375  1.00 20.00    -0.296 OA
BRANCH  10  12
HETATM   12  C11 UNL     1     -33.619  15.616  -2.988  1.00 20.00     0.193 C 
HETATM   13 CL13 UNL     1     -34.656  16.130  -1.650  1.00 20.00    -0.123 Cl
ENDBRANCH  10  12
ENDBRANCH   9  10
TORSDOF 2
ENDMDL
MODEL 9
REMARK VINA RESULT:      -4.8     11.787     13.182
REMARK  2 active torsions:
REMARK  status: ('A' for Active; 'I' for Inactive)
REMARK    1  A    between atoms: C1_1  and  C10_10 
REMARK    2  A    between atoms: C1_1  and  C11_11 
ROOT
HETATM    1  C2  UNL     1     -33.321  13.712  -3.801  1.00 20.00     0.009 C 
HETATM    2  C3  UNL     1     -34.584  15.619  -2.734  1.00 20.00     0.010 C 
HETATM    3  C4  UNL     1     -35.826  13.918  -4.027  1.00 20.00     0.010 C 
HETATM    4  C5  UNL     1     -33.289  16.103  -4.612  1.00 20.00     0.022 C 
HETATM    5  C6  UNL     1     -34.535  14.401  -5.906  1.00 20.00     0.022 C 
HETATM    6  C7  UNL     1     -33.254  15.208  -3.371  1.00 20.00    -0.013 C 
HETATM    7  C8  UNL     1     -34.550  13.435  -4.718  1.00 20.00    -0.013 C 
HETATM    8  C9  UNL     1     -35.544  15.424  -3.919  1.00 20.00     0.002 C 
HETATM    9  C10 UNL     1     -34.667  15.747  -5.180  1.00 20.00     0.026 C 
ENDROOT
BRANCH   9  10
HETATM   10  C1  UNL     1     -35.244  16.812  -6.053  1.00 20.00     0.149 C 
HETATM   11  O12 UNL     1     -34.535  17.414  -6.858  1.00 20.00    -0.296 OA
BRANCH  10  12
HETATM   12  C11 UNL     1     -36.720  17.082  -5.870  1.00 20.00     0.193 C 
HETATM   13 CL13 UNL     1     -37.687  15.919  -6.788  1.00 20.00    -0.123 Cl
ENDBRANCH  10  12
ENDBRANCH   9  10
TORSDOF 2
ENDMDL
