MODEL 1
REMARK VINA RESULT:      -5.5      0.000      0.000
REMARK  1 active torsions:
REMARK  status: ('A' for Active; 'I' for Inactive)
REMARK    1  A    between atoms: C3_3  and  C7_7 
ROOT
HETATM    1  C1  UNL     1     -34.841   4.776   5.958  1.00 20.00    -0.030 C 
HETATM    2  C2  UNL     1     -33.895   5.711   6.143  1.00 20.00    -0.025 C 
HETATM    3  C4  UNL     1     -35.609   4.693   4.668  1.00 20.00     0.027 C 
HETATM    4  C5  UNL     1     -34.817   5.205   3.457  1.00 20.00     0.010 C 
HETATM    5  C6  UNL     1     -33.572   6.738   5.148  1.00 20.00     0.025 A 
HETATM    6  C7  UNL     1     -32.599   6.446   4.038  1.00 20.00     0.085 A 
HETATM    7  C8  UNL     1     -34.084   6.488   3.746  1.00 20.00     0.007 A 
ENDROOT
BRANCH   6   8
HETATM    8  C3  UNL     1     -31.748   7.528   3.528  1.00 20.00     0.224 C 
HETATM    9  O9  UNL     1     -30.882   8.052   4.224  1.00 20.00    -0.279 OA
HETATM   10 CL10 UNL     1     -32.127   7.938   1.882  1.00 20.00    -0.043 Cl
ENDBRANCH   6   8
TORSDOF 1
ENDMDL
MODEL 2
REMARK VINA RESULT:      -5.1      0.672      1.727
REMARK  1 active torsions:
REMARK  status: ('A' for Active; 'I' for Inactive)
REMARK    1  A    between atoms: C3_3  and  C7_7 
ROOT
HETATM    1  C1  UNL     1     -35.537   4.916   4.279  1.00 20.00    -0.030 C 
HETATM    2  C2  UNL     1     -34.754   5.260   3.245  1.00 20.00    -0.025 C 
HETATM    3  C4  UNL     1     -35.063   5.068   5.698  1.00 20.00     0.027 C 
HETATM    4  C5  UNL     1     -34.042   6.200   5.877  1.00 20.00     0.010 C 
HETATM    5  C6  UNL     1     -33.382   5.752   3.402  1.00 20.00     0.025 A 
HETATM    6  C7  UNL     1     -33.121   7.212   3.658  1.00 20.00     0.085 A 
HETATM    7  C8  UNL     1     -32.999   6.215   4.791  1.00 20.00     0.007 A 
ENDROOT
BRANCH   6   8
HETATM    8  C3  UNL     1     -31.899   7.825   3.122  1.00 20.00     0.224 C 
HETATM    9  O9  UNL     1     -30.874   7.916   3.791  1.00 20.00    -0.279 OA
HETATM   10 CL10 UNL     1     -32.106   8.376   1.486  1.00 20.00    -0.043 Cl
ENDBRANCH   6   8
TORSDOF 1
ENDMDL
MODEL 3
REMARK VINA RESULT:      -4.8     11.341     12.505
REMARK  1 active torsions:
REMARK  status: ('A' for Active; 'I' for Inactive)
REMARK    1  A    between atoms: C3_3  and  C7_7 
ROOT
HETATM    1  C1  UNL     1     -34.332  13.373  -4.866  1.00 20.00    -0.030 C 
HETATM    2  C2  UNL     1     -34.353  13.732  -3.573  1.00 20.00    -0.025 C 
HETATM    3  C4  UNL     1     -34.669  14.357  -5.952  1.00 20.00     0.027 C 
HETATM    4  C5  UNL     1     -34.345  15.810  -5.573  1.00 20.00     0.010 C 
HETATM    5  C6  UNL     1     -34.746  15.067  -3.114  1.00 20.00     0.025 A 
HETATM    6  C7  UNL     1     -33.737  16.184  -3.065  1.00 20.00     0.085 A 
HETATM    7  C8  UNL     1     -34.773  16.150  -4.170  1.00 20.00     0.007 A 
ENDROOT
BRANCH   6   8
HETATM    8  C3  UNL     1     -33.853  17.208  -2.020  1.00 20.00     0.224 C 
HETATM    9  O9  UNL     1     -33.411  18.343  -2.175  1.00 20.00    -0.279 OA
HETATM   10 CL10 UNL     1     -34.666  16.609  -0.604  1.00 20.00    -0.043 Cl
ENDBRANCH   6   8
TORSDOF 1
ENDMDL
MODEL 4
REMARK VINA RESULT:      -4.7     11.805     12.767
REMARK  1 active torsions:
REMARK  status: ('A' for Active; 'I' for Inactive)
REMARK    1  A    between atoms: C3_3  and  C7_7 
ROOT
HETATM    1  C1  UNL     1     -34.510  17.203  -1.787  1.00 20.00    -0.030 C 
HETATM    2  C2  UNL     1     -34.782  15.897  -1.930  1.00 20.00    -0.025 C 
HETATM    3  C4  UNL     1     -33.690  17.943  -2.807  1.00 20.00     0.027 C 
HETATM    4  C5  UNL     1     -33.807  17.353  -4.220  1.00 20.00     0.010 C 
HETATM    5  C6  UNL     1     -34.273  15.084  -3.039  1.00 20.00     0.025 A 
HETATM    6  C7  UNL     1     -35.006  15.042  -4.353  1.00 20.00     0.085 A 
HETATM    7  C8  UNL     1     -33.731  15.850  -4.227  1.00 20.00     0.007 A 
ENDROOT
BRANCH   6   8
HETATM    8  C3  UNL     1     -34.984  13.806  -5.146  1.00 20.00     0.224 C 
HETATM    9  O9  UNL     1     -34.810  12.708  -4.626  1.00 20.00    -0.279 OA
HETATM   10 CL10 UNL     1     -35.230  14.112  -6.840  1.00 20.00    -0.043 Cl
ENDBRANCH   6   8
TORSDOF 1
ENDMDL
MODEL 5
REMARK VINA RESULT:      -4.6     11.127     12.282
REMARK  1 active torsions:
REMARK  status: ('A' for Active; 'I' for Inactive)
REMARK    1  A    between atoms: C3_3  and  C7_7 
ROOT
HETATM    1  C1  UNL     1     -35.424  17.642  -1.194  1.00 20.00    -0.030 C 
HETATM    2  C2  UNL     1     -34.630  16.560  -1.197  1.00 20.00    -0.025 C 
HETATM    3  C4  UNL     1     -35.996  18.191  -2.471  1.00 20.00     0.027 C 
HETATM    4  C5  UNL     1     -36.195  17.121  -3.554  1.00 20.00     0.010 C 
HETATM    5  C6  UNL     1     -34.219  15.867  -2.422  1.00 20.00     0.025 A 
HETATM    6  C7  UNL     1     -35.102  14.812  -3.034  1.00 20.00     0.085 A 
HETATM    7  C8  UNL     1     -35.020  16.186  -3.665  1.00 20.00     0.007 A 
ENDROOT
BRANCH   6   8
HETATM    8  C3  UNL     1     -34.484  13.677  -3.730  1.00 20.00     0.224 C 
HETATM    9  O9  UNL     1     -35.156  12.834  -4.317  1.00 20.00    -0.279 OA
HETATM   10 CL10 UNL     1     -32.749  13.700  -3.608  1.00 20.00    -0.043 Cl
ENDBRANCH   6   8
TORSDOF 1
ENDMDL
MODEL 6
REMARK VINA RESULT:      -4.6     11.581     12.629
REMARK  1 active torsions:
REMARK  status: ('A' for Active; 'I' for Inactive)
REMARK    1  A    between atoms: C3_3  and  C7_7 
ROOT
HETATM    1  C1  UNL     1     -33.762  18.660  -1.992  1.00 20.00    -0.030 C 
HETATM    2  C2  UNL     1     -33.725  18.020  -3.171  1.00 20.00    -0.025 C 
HETATM    3  C4  UNL     1     -34.511  18.089  -0.820  1.00 20.00     0.027 C 
HETATM    4  C5  UNL     1     -34.588  16.555  -0.841  1.00 20.00     0.010 C 
HETATM    5  C6  UNL     1     -34.436  16.764  -3.429  1.00 20.00     0.025 A 
HETATM    6  C7  UNL     1     -33.808  15.444  -3.067  1.00 20.00     0.085 A 
HETATM    7  C8  UNL     1     -34.917  16.012  -2.206  1.00 20.00     0.007 A 
ENDROOT
BRANCH   6   8
HETATM    8  C3  UNL     1     -34.090  14.266  -3.897  1.00 20.00     0.224 C 
HETATM    9  O9  UNL     1     -34.066  13.129  -3.434  1.00 20.00    -0.279 OA
HETATM   10 CL10 UNL     1     -34.444  14.695  -5.544  1.00 20.00    -0.043 Cl
ENDBRANCH   6   8
TORSDOF 1
ENDMDL
MODEL 7
REMARK VINA RESULT:      -4.6     11.523     12.717
REMARK  1 active torsions:
REMARK  status: ('A' for Active; 'I' for Inactive)
REMARK    1  A    between atoms: C3_3  and  C7_7 
ROOT
HETATM    1  C1  UNL     1     -34.497  14.798  -6.064  1.00 20.00    -0.030 C 
HETATM    2  C2  UNL     1     -34.072  15.980  -5.592  1.00 20.00    -0.025 C 
HETATM    3  C4  UNL     1     -34.525  13.576  -5.189  1.00 20.00     0.027 C 
HETATM    4  C5  UNL     1     -34.722  13.902  -3.701  1.00 20.00     0.010 C 
HETATM    5  C6  UNL     1     -33.563  16.168  -4.230  1.00 20.00     0.025 A 
HETATM    6  C7  UNL     1     -34.511  16.428  -3.090  1.00 20.00     0.085 A 
HETATM    7  C8  UNL     1     -33.877  15.061  -3.247  1.00 20.00     0.007 A 
ENDROOT
BRANCH   6   8
HETATM    8  C3  UNL     1     -34.079  17.285  -1.980  1.00 20.00     0.224 C 
HETATM    9  O9  UNL     1     -33.382  18.278  -2.164  1.00 20.00    -0.279 OA
HETATM   10 CL10 UNL     1     -34.667  16.715  -0.446  1.00 20.00    -0.043 Cl
ENDBRANCH   6   8
TORSDOF 1
ENDMDL
MODEL 8
REMARK VINA RESULT:      -4.6     12.503     14.002
REMARK  1 active torsions:
REMARK  status: ('A' for Active; 'I' for Inactive)
REMARK    1  A    between atoms: C3_3  and  C7_7 
ROOT
HETATM    1  C1  UNL     1     -34.183  18.053  -6.338  1.00 20.00    -0.030 C 
HETATM    2  C2  UNL     1     -33.701  17.339  -5.308  1.00 20.00    -0.025 C 
HETATM    3  C4  UNL     1     -34.592  17.387  -7.622  1.00 20.00     0.027 C 
HETATM    4  C5  UNL     1     -35.067  15.940  -7.428  1.00 20.00     0.010 C 
HETATM    5  C6  UNL     1     -33.489  15.889  -5.362  1.00 20.00     0.025 A 
HETATM    6  C7  UNL     1     -34.619  14.941  -5.062  1.00 20.00     0.085 A 
HETATM    7  C8  UNL     1     -34.180  15.161  -6.494  1.00 20.00     0.007 A 
ENDROOT
BRANCH   6   8
HETATM    8  C3  UNL     1     -34.323  13.654  -4.420  1.00 20.00     0.224 C 
HETATM    9  O9  UNL     1     -35.079  12.693  -4.520  1.00 20.00    -0.279 OA
HETATM   10 CL10 UNL     1     -32.821  13.691  -3.545  1.00 20.00    -0.043 Cl
ENDBRANCH   6   8
TORSDOF 1
ENDMDL
MODEL 9
REMARK VINA RESULT:      -4.4     12.268     13.494
REMARK  1 active torsions:
REMARK  status: ('A' for Active; 'I' for Inactive)
REMARK    1  A    between atoms: C3_3  and  C7_7 
ROOT
HETATM    1  C1  UNL     1     -33.318  13.654  -3.788  1.00 20.00    -0.030 C 
HETATM    2  C2  UNL     1     -32.922  14.921  -3.591  1.00 20.00    -0.025 C 
HETATM    3  C4  UNL     1     -34.562  13.340  -4.572  1.00 20.00     0.027 C 
HETATM    4  C5  UNL     1     -34.891  14.400  -5.634  1.00 20.00     0.010 C 
HETATM    5  C6  UNL     1     -33.677  16.084  -4.068  1.00 20.00     0.025 A 
HETATM    6  C7  UNL     1     -33.488  16.592  -5.473  1.00 20.00     0.085 A 
HETATM    7  C8  UNL     1     -34.732  15.805  -5.116  1.00 20.00     0.007 A 
ENDROOT
BRANCH   6   8
HETATM    8  C3  UNL     1     -33.613  18.031  -5.737  1.00 20.00     0.224 C 
HETATM    9  O9  UNL     1     -33.357  18.870  -4.879  1.00 20.00    -0.279 OA
HETATM   10 CL10 UNL     1     -34.151  18.353  -7.358  1.00 20.00    -0.043 Cl
ENDBRANCH   6   8
TORSDOF 1
ENDMDL
