MODEL 1
REMARK VINA RESULT:      -5.1      0.000      0.000
REMARK  1 active torsions:
REMARK  status: ('A' for Active; 'I' for Inactive)
REMARK    1  A    between atoms: C3_3  and  C9_9 
ROOT
HETATM    1  C1  UNL     1     -34.601  15.130  -6.635  1.00 20.00    -0.030 C 
HETATM    2  C2  UNL     1     -33.865  15.959  -5.881  1.00 20.00    -0.026 C 
HETATM    3  C4  UNL     1     -36.079  14.942  -6.430  1.00 20.00     0.031 C 
HETATM    4  C5  UNL     1     -34.313  16.095  -3.418  1.00 20.00     0.022 C 
HETATM    5  C6  UNL     1     -35.959  17.043  -5.052  1.00 20.00     0.013 C 
HETATM    6  C7  UNL     1     -36.549  14.898  -3.887  1.00 20.00     0.018 C 
HETATM    7  C8  UNL     1     -34.471  16.793  -4.779  1.00 20.00     0.009 C 
HETATM    8  C9  UNL     1     -35.149  14.817  -3.269  1.00 20.00     0.073 C 
HETATM    9  C10 UNL     1     -36.659  15.691  -5.208  1.00 20.00    -0.010 C 
ENDROOT
BRANCH   8  10
HETATM   10  C3  UNL     1     -34.402  13.613  -3.774  1.00 20.00     0.223 C 
HETATM   11  O11 UNL     1     -34.983  12.665  -4.296  1.00 20.00    -0.279 OA
HETATM   12 CL12 UNL     1     -32.689  13.753  -3.522  1.00 20.00    -0.043 Cl
ENDBRANCH   8  10
TORSDOF 1
ENDMDL
MODEL 2
REMARK VINA RESULT:      -5.0      2.149      2.987
REMARK  1 active torsions:
REMARK  status: ('A' for Active; 'I' for Inactive)
REMARK    1  A    between atoms: C3_3  and  C9_9 
ROOT
HETATM    1  C1  UNL     1     -34.661  13.469  -5.168  1.00 20.00    -0.030 C 
HETATM    2  C2  UNL     1     -34.580  13.624  -3.839  1.00 20.00    -0.026 C 
HETATM    3  C4  UNL     1     -34.453  14.604  -6.133  1.00 20.00     0.031 C 
HETATM    4  C5  UNL     1     -35.526  15.695  -2.789  1.00 20.00     0.022 C 
HETATM    5  C6  UNL     1     -33.445  15.824  -4.178  1.00 20.00     0.013 C 
HETATM    6  C7  UNL     1     -35.577  16.719  -5.156  1.00 20.00     0.018 C 
HETATM    7  C8  UNL     1     -34.245  14.951  -3.205  1.00 20.00     0.009 C 
HETATM    8  C9  UNL     1     -36.380  16.177  -3.969  1.00 20.00     0.073 C 
HETATM    9  C10 UNL     1     -34.254  15.985  -5.467  1.00 20.00    -0.010 C 
ENDROOT
BRANCH   8  10
HETATM   10  C3  UNL     1     -37.352  15.117  -4.410  1.00 20.00     0.223 C 
HETATM   11  O11 UNL     1     -37.754  14.249  -3.640  1.00 20.00    -0.279 OA
HETATM   12 CL12 UNL     1     -37.796  15.292  -6.080  1.00 20.00    -0.043 Cl
ENDBRANCH   8  10
TORSDOF 1
ENDMDL
MODEL 3
REMARK VINA RESULT:      -5.0      2.392      3.429
REMARK  1 active torsions:
REMARK  status: ('A' for Active; 'I' for Inactive)
REMARK    1  A    between atoms: C3_3  and  C9_9 
ROOT
HETATM    1  C1  UNL     1     -33.867  15.871  -5.869  1.00 20.00    -0.030 C 
HETATM    2  C2  UNL     1     -34.489  14.688  -5.984  1.00 20.00    -0.026 C 
HETATM    3  C4  UNL     1     -33.212  16.323  -4.593  1.00 20.00     0.031 C 
HETATM    4  C5  UNL     1     -35.882  13.848  -4.076  1.00 20.00     0.022 C 
HETATM    5  C6  UNL     1     -33.385  13.918  -3.878  1.00 20.00     0.013 C 
HETATM    6  C7  UNL     1     -34.720  15.626  -2.611  1.00 20.00     0.018 C 
HETATM    7  C8  UNL     1     -34.557  13.703  -4.843  1.00 20.00     0.009 C 
HETATM    8  C9  UNL     1     -36.011  15.162  -3.294  1.00 20.00     0.073 C 
HETATM    9  C10 UNL     1     -33.413  15.369  -3.393  1.00 20.00    -0.010 C 
ENDROOT
BRANCH   8  10
HETATM   10  C3  UNL     1     -36.593  16.253  -4.151  1.00 20.00     0.223 C 
HETATM   11  O11 UNL     1     -36.301  17.434  -3.980  1.00 20.00    -0.279 OA
HETATM   12 CL12 UNL     1     -37.681  15.630  -5.354  1.00 20.00    -0.043 Cl
ENDBRANCH   8  10
TORSDOF 1
ENDMDL
MODEL 4
REMARK VINA RESULT:      -5.0      2.133      3.473
REMARK  1 active torsions:
REMARK  status: ('A' for Active; 'I' for Inactive)
REMARK    1  A    between atoms: C3_3  and  C9_9 
ROOT
HETATM    1  C1  UNL     1     -35.102  13.407  -4.180  1.00 20.00    -0.030 C 
HETATM    2  C2  UNL     1     -36.086  14.267  -3.877  1.00 20.00    -0.026 C 
HETATM    3  C4  UNL     1     -33.647  13.742  -4.004  1.00 20.00     0.031 C 
HETATM    4  C5  UNL     1     -35.795  16.698  -4.418  1.00 20.00     0.022 C 
HETATM    5  C6  UNL     1     -34.458  15.648  -2.577  1.00 20.00     0.013 C 
HETATM    6  C7  UNL     1     -33.283  16.199  -4.727  1.00 20.00     0.018 C 
HETATM    7  C8  UNL     1     -35.807  15.635  -3.306  1.00 20.00     0.009 C 
HETATM    8  C9  UNL     1     -34.613  16.574  -5.389  1.00 20.00     0.073 C 
HETATM    9  C10 UNL     1     -33.371  15.196  -3.555  1.00 20.00    -0.010 C 
ENDROOT
BRANCH   8  10
HETATM   10  C3  UNL     1     -34.935  15.643  -6.526  1.00 20.00     0.223 C 
HETATM   11  O11 UNL     1     -34.063  14.988  -7.091  1.00 20.00    -0.279 OA
HETATM   12 CL12 UNL     1     -36.631  15.631  -6.901  1.00 20.00    -0.043 Cl
ENDBRANCH   8  10
TORSDOF 1
ENDMDL
MODEL 5
REMARK VINA RESULT:      -4.9      2.275      3.499
REMARK  1 active torsions:
REMARK  status: ('A' for Active; 'I' for Inactive)
REMARK    1  A    between atoms: C3_3  and  C9_9 
ROOT
HETATM    1  C1  UNL     1     -35.938  15.227  -3.125  1.00 20.00    -0.030 C 
HETATM    2  C2  UNL     1     -34.734  15.738  -2.826  1.00 20.00    -0.026 C 
HETATM    3  C4  UNL     1     -36.126  14.126  -4.132  1.00 20.00     0.031 C 
HETATM    4  C5  UNL     1     -33.068  16.099  -4.665  1.00 20.00     0.022 C 
HETATM    5  C6  UNL     1     -33.644  13.775  -3.924  1.00 20.00     0.013 C 
HETATM    6  C7  UNL     1     -34.543  14.571  -6.129  1.00 20.00     0.018 C 
HETATM    7  C8  UNL     1     -33.465  15.227  -3.461  1.00 20.00     0.009 C 
HETATM    8  C9  UNL     1     -34.023  15.987  -5.861  1.00 20.00     0.073 C 
HETATM    9  C10 UNL     1     -34.837  13.711  -4.879  1.00 20.00    -0.010 C 
ENDROOT
BRANCH   8  10
HETATM   10  C3  UNL     1     -35.157  16.969  -5.749  1.00 20.00     0.223 C 
HETATM   11  O11 UNL     1     -36.267  16.729  -6.215  1.00 20.00    -0.279 OA
HETATM   12 CL12 UNL     1     -34.689  18.415  -4.908  1.00 20.00    -0.043 Cl
ENDBRANCH   8  10
TORSDOF 1
ENDMDL
MODEL 6
REMARK VINA RESULT:      -4.9      2.118      3.205
REMARK  1 active torsions:
REMARK  status: ('A' for Active; 'I' for Inactive)
REMARK    1  A    between atoms: C3_3  and  C9_9 
ROOT
HETATM    1  C1  UNL     1     -36.720  15.792  -4.552  1.00 20.00    -0.030 C 
HETATM    2  C2  UNL     1     -36.377  14.722  -3.820  1.00 20.00    -0.026 C 
HETATM    3  C4  UNL     1     -35.921  16.254  -5.740  1.00 20.00     0.031 C 
HETATM    4  C5  UNL     1     -33.956  14.314  -3.312  1.00 20.00     0.022 C 
HETATM    5  C6  UNL     1     -34.827  13.992  -5.640  1.00 20.00     0.013 C 
HETATM    6  C7  UNL     1     -33.409  16.012  -5.176  1.00 20.00     0.018 C 
HETATM    7  C8  UNL     1     -35.170  13.878  -4.150  1.00 20.00     0.009 C 
HETATM    8  C9  UNL     1     -33.411  15.702  -3.675  1.00 20.00     0.073 C 
HETATM    9  C10 UNL     1     -34.612  15.469  -5.979  1.00 20.00    -0.010 C 
ENDROOT
BRANCH   8  10
HETATM   10  C3  UNL     1     -34.110  16.784  -2.899  1.00 20.00     0.223 C 
HETATM   11  O11 UNL     1     -34.266  17.911  -3.359  1.00 20.00    -0.279 OA
HETATM   12 CL12 UNL     1     -34.636  16.232  -1.337  1.00 20.00    -0.043 Cl
ENDBRANCH   8  10
TORSDOF 1
ENDMDL
MODEL 7
REMARK VINA RESULT:      -4.8      1.542      2.308
REMARK  1 active torsions:
REMARK  status: ('A' for Active; 'I' for Inactive)
REMARK    1  A    between atoms: C3_3  and  C9_9 
ROOT
HETATM    1  C1  UNL     1     -34.333  16.800  -5.884  1.00 20.00    -0.030 C 
HETATM    2  C2  UNL     1     -35.401  16.971  -5.091  1.00 20.00    -0.026 C 
HETATM    3  C4  UNL     1     -34.047  15.505  -6.593  1.00 20.00     0.031 C 
HETATM    4  C5  UNL     1     -36.109  15.104  -3.575  1.00 20.00     0.022 C 
HETATM    5  C6  UNL     1     -36.429  14.907  -6.053  1.00 20.00     0.013 C 
HETATM    6  C7  UNL     1     -34.601  13.557  -4.985  1.00 20.00     0.018 C 
HETATM    7  C8  UNL     1     -36.418  15.880  -4.868  1.00 20.00     0.009 C 
HETATM    8  C9  UNL     1     -34.830  14.260  -3.642  1.00 20.00     0.073 C 
HETATM    9  C10 UNL     1     -35.015  14.353  -6.243  1.00 20.00    -0.010 C 
ENDROOT
BRANCH   8  10
HETATM   10  C3  UNL     1     -33.623  15.063  -3.238  1.00 20.00     0.223 C 
HETATM   11  O11 UNL     1     -32.510  14.832  -3.701  1.00 20.00    -0.279 OA
HETATM   12 CL12 UNL     1     -34.018  16.297  -2.080  1.00 20.00    -0.043 Cl
ENDBRANCH   8  10
TORSDOF 1
ENDMDL
MODEL 8
REMARK VINA RESULT:      -4.8      1.584      2.589
REMARK  1 active torsions:
REMARK  status: ('A' for Active; 'I' for Inactive)
REMARK    1  A    between atoms: C3_3  and  C9_9 
ROOT
HETATM    1  C1  UNL     1     -35.514  13.455  -4.294  1.00 20.00    -0.030 C 
HETATM    2  C2  UNL     1     -34.716  13.586  -5.365  1.00 20.00    -0.026 C 
HETATM    3  C4  UNL     1     -36.561  14.472  -3.932  1.00 20.00     0.031 C 
HETATM    4  C5  UNL     1     -33.807  15.850  -5.943  1.00 20.00     0.022 C 
HETATM    5  C6  UNL     1     -36.240  15.348  -6.268  1.00 20.00     0.013 C 
HETATM    6  C7  UNL     1     -35.584  16.830  -4.351  1.00 20.00     0.018 C 
HETATM    7  C8  UNL     1     -34.826  14.757  -6.309  1.00 20.00     0.009 C 
HETATM    8  C9  UNL     1     -34.099  16.557  -4.613  1.00 20.00     0.073 C 
HETATM    9  C10 UNL     1     -36.566  15.735  -4.824  1.00 20.00    -0.010 C 
ENDROOT
BRANCH   8  10
HETATM   10  C3  UNL     1     -33.469  15.830  -3.457  1.00 20.00     0.223 C 
HETATM   11  O11 UNL     1     -32.491  15.103  -3.607  1.00 20.00    -0.279 OA
HETATM   12 CL12 UNL     1     -34.285  16.155  -1.958  1.00 20.00    -0.043 Cl
ENDBRANCH   8  10
TORSDOF 1
ENDMDL
MODEL 9
REMARK VINA RESULT:      -4.8      2.089      3.264
REMARK  1 active torsions:
REMARK  status: ('A' for Active; 'I' for Inactive)
REMARK    1  A    between atoms: C3_3  and  C9_9 
ROOT
HETATM    1  C1  UNL     1     -35.327  16.990  -3.258  1.00 20.00    -0.030 C 
HETATM    2  C2  UNL     1     -34.940  17.147  -4.533  1.00 20.00    -0.026 C 
HETATM    3  C4  UNL     1     -34.789  15.899  -2.374  1.00 20.00     0.031 C 
HETATM    4  C5  UNL     1     -34.587  15.117  -5.962  1.00 20.00     0.022 C 
HETATM    5  C6  UNL     1     -32.985  15.648  -4.110  1.00 20.00     0.013 C 
HETATM    6  C7  UNL     1     -34.583  13.739  -3.782  1.00 20.00     0.018 C 
HETATM    7  C8  UNL     1     -33.909  16.252  -5.174  1.00 20.00     0.009 C 
HETATM    8  C9  UNL     1     -35.313  14.092  -5.082  1.00 20.00     0.073 C 
HETATM    9  C10 UNL     1     -33.844  14.903  -3.085  1.00 20.00    -0.010 C 
ENDROOT
BRANCH   8  10
HETATM   10  C3  UNL     1     -36.732  14.511  -4.810  1.00 20.00     0.223 C 
HETATM   11  O11 UNL     1     -37.318  14.181  -3.783  1.00 20.00    -0.279 OA
HETATM   12 CL12 UNL     1     -37.384  15.481  -6.096  1.00 20.00    -0.043 Cl
ENDBRANCH   8  10
TORSDOF 1
ENDMDL
