MODEL 1
REMARK VINA RESULT:      -4.6      0.000      0.000
REMARK  0 active torsions:
REMARK  status: ('A' for Active; 'I' for Inactive)
ROOT
HETATM    1  C1  UNL     1     -35.279  16.100  -2.228  1.00 20.00    -0.014 C 
HETATM    2  C2  UNL     1     -33.958  16.124  -2.472  1.00 20.00    -0.004 C 
HETATM    3  C3  UNL     1     -34.534  13.621  -4.153  1.00 20.00     0.203 A 
HETATM    4  C4  UNL     1     -36.061  15.405  -3.310  1.00 20.00     0.126 C 
HETATM    5  C5  UNL     1     -33.092  14.064  -3.834  1.00 20.00     0.126 A 
HETATM    6  C6  UNL     1     -33.655  15.502  -3.790  1.00 20.00     0.042 A 
HETATM    7  C7  UNL     1     -33.166  16.469  -4.852  1.00 20.00     0.038 C 
HETATM    8  N8  UNL     1     -34.974  14.918  -4.147  1.00 20.00    -0.237 NA
HETATM    9  O9  UNL     1     -35.113  12.563  -4.248  1.00 20.00    -0.280 OA
ENDROOT
TORSDOF 0
ENDMDL
MODEL 2
REMARK VINA RESULT:      -4.2      0.913      2.395
REMARK  0 active torsions:
REMARK  status: ('A' for Active; 'I' for Inactive)
ROOT
HETATM    1  C1  UNL     1     -33.272  16.508  -4.564  1.00 20.00    -0.014 C 
HETATM    2  C2  UNL     1     -34.418  16.894  -3.976  1.00 20.00    -0.004 C 
HETATM    3  C3  UNL     1     -34.961  13.880  -3.757  1.00 20.00     0.203 A 
HETATM    4  C4  UNL     1     -32.836  15.129  -4.147  1.00 20.00     0.126 C 
HETATM    5  C5  UNL     1     -36.053  14.921  -3.442  1.00 20.00     0.126 A 
HETATM    6  C6  UNL     1     -34.896  15.855  -3.023  1.00 20.00     0.042 A 
HETATM    7  C7  UNL     1     -34.821  16.252  -1.561  1.00 20.00     0.038 C 
HETATM    8  N8  UNL     1     -33.975  14.730  -3.332  1.00 20.00    -0.237 NA
HETATM    9  O9  UNL     1     -34.929  12.793  -4.289  1.00 20.00    -0.280 OA
ENDROOT
TORSDOF 0
ENDMDL
MODEL 3
REMARK VINA RESULT:      -4.1      1.471      1.824
REMARK  0 active torsions:
REMARK  status: ('A' for Active; 'I' for Inactive)
ROOT
HETATM    1  C1  UNL     1     -34.374  16.102  -2.420  1.00 20.00    -0.014 C 
HETATM    2  C2  UNL     1     -33.758  15.254  -3.262  1.00 20.00    -0.004 C 
HETATM    3  C3  UNL     1     -36.614  14.443  -4.044  1.00 20.00     0.203 A 
HETATM    4  C4  UNL     1     -35.759  16.475  -2.875  1.00 20.00     0.126 C 
HETATM    5  C5  UNL     1     -35.388  13.639  -4.522  1.00 20.00     0.126 A 
HETATM    6  C6  UNL     1     -34.615  14.974  -4.447  1.00 20.00     0.042 A 
HETATM    7  C7  UNL     1     -34.099  15.550  -5.753  1.00 20.00     0.038 C 
HETATM    8  N8  UNL     1     -35.895  15.608  -4.037  1.00 20.00    -0.237 NA
HETATM    9  O9  UNL     1     -37.737  14.174  -3.681  1.00 20.00    -0.280 OA
ENDROOT
TORSDOF 0
ENDMDL
MODEL 4
REMARK VINA RESULT:      -4.1      1.643      2.697
REMARK  0 active torsions:
REMARK  status: ('A' for Active; 'I' for Inactive)
ROOT
HETATM    1  C1  UNL     1     -34.415  15.372  -6.376  1.00 20.00    -0.014 C 
HETATM    2  C2  UNL     1     -33.827  15.721  -5.219  1.00 20.00    -0.004 C 
HETATM    3  C3  UNL     1     -36.250  14.350  -3.927  1.00 20.00     0.203 A 
HETATM    4  C4  UNL     1     -35.318  14.176  -6.235  1.00 20.00     0.126 C 
HETATM    5  C5  UNL     1     -35.260  15.189  -3.095  1.00 20.00     0.126 A 
HETATM    6  C6  UNL     1     -34.195  14.772  -4.133  1.00 20.00     0.042 A 
HETATM    7  C7  UNL     1     -33.059  13.894  -3.645  1.00 20.00     0.038 C 
HETATM    8  N8  UNL     1     -35.260  13.972  -4.795  1.00 20.00    -0.237 NA
HETATM    9  O9  UNL     1     -37.447  14.174  -3.928  1.00 20.00    -0.280 OA
ENDROOT
TORSDOF 0
ENDMDL
MODEL 5
REMARK VINA RESULT:      -4.0      1.443      1.966
REMARK  0 active torsions:
REMARK  status: ('A' for Active; 'I' for Inactive)
ROOT
HETATM    1  C1  UNL     1     -33.381  16.104  -3.483  1.00 20.00    -0.014 C 
HETATM    2  C2  UNL     1     -33.551  16.429  -4.776  1.00 20.00    -0.004 C 
HETATM    3  C3  UNL     1     -34.958  13.707  -4.957  1.00 20.00     0.203 A 
HETATM    4  C4  UNL     1     -34.417  15.133  -2.983  1.00 20.00     0.126 C 
HETATM    5  C5  UNL     1     -34.612  14.521  -6.220  1.00 20.00     0.126 A 
HETATM    6  C6  UNL     1     -34.768  15.772  -5.328  1.00 20.00     0.042 A 
HETATM    7  C7  UNL     1     -35.906  16.719  -5.658  1.00 20.00     0.038 C 
HETATM    8  N8  UNL     1     -35.128  14.848  -4.221  1.00 20.00    -0.237 NA
HETATM    9  O9  UNL     1     -34.960  12.534  -4.657  1.00 20.00    -0.280 OA
ENDROOT
TORSDOF 0
ENDMDL
MODEL 6
REMARK VINA RESULT:      -4.0      1.476      2.780
REMARK  0 active torsions:
REMARK  status: ('A' for Active; 'I' for Inactive)
ROOT
HETATM    1  C1  UNL     1     -34.051  16.147  -5.965  1.00 20.00    -0.014 C 
HETATM    2  C2  UNL     1     -35.230  15.510  -5.859  1.00 20.00    -0.004 C 
HETATM    3  C3  UNL     1     -33.731  13.712  -3.873  1.00 20.00     0.203 A 
HETATM    4  C4  UNL     1     -33.188  15.986  -4.742  1.00 20.00     0.126 C 
HETATM    5  C5  UNL     1     -35.142  13.352  -4.381  1.00 20.00     0.126 A 
HETATM    6  C6  UNL     1     -35.366  14.874  -4.520  1.00 20.00     0.042 A 
HETATM    7  C7  UNL     1     -36.413  15.504  -3.621  1.00 20.00     0.038 C 
HETATM    8  N8  UNL     1     -33.996  15.051  -3.972  1.00 20.00    -0.237 NA
HETATM    9  O9  UNL     1     -32.723  13.095  -3.610  1.00 20.00    -0.280 OA
ENDROOT
TORSDOF 0
ENDMDL
MODEL 7
REMARK VINA RESULT:      -4.0      1.945      3.239
REMARK  0 active torsions:
REMARK  status: ('A' for Active; 'I' for Inactive)
ROOT
HETATM    1  C1  UNL     1     -34.677  13.235  -5.284  1.00 20.00    -0.014 C 
HETATM    2  C2  UNL     1     -34.946  13.428  -3.981  1.00 20.00    -0.004 C 
HETATM    3  C3  UNL     1     -33.763  16.219  -4.467  1.00 20.00     0.203 A 
HETATM    4  C4  UNL     1     -34.638  14.519  -6.069  1.00 20.00     0.126 C 
HETATM    5  C5  UNL     1     -34.075  15.712  -3.045  1.00 20.00     0.126 A 
HETATM    6  C6  UNL     1     -35.191  14.870  -3.703  1.00 20.00     0.042 A 
HETATM    7  C7  UNL     1     -36.623  15.212  -3.337  1.00 20.00     0.038 C 
HETATM    8  N8  UNL     1     -34.794  15.488  -4.995  1.00 20.00    -0.237 NA
HETATM    9  O9  UNL     1     -32.891  16.887  -4.976  1.00 20.00    -0.280 OA
ENDROOT
TORSDOF 0
ENDMDL
MODEL 8
REMARK VINA RESULT:      -4.0     11.099     12.316
REMARK  0 active torsions:
REMARK  status: ('A' for Active; 'I' for Inactive)
ROOT
HETATM    1  C1  UNL     1     -41.202   3.972  -2.021  1.00 20.00    -0.014 C 
HETATM    2  C2  UNL     1     -40.812   4.614  -0.906  1.00 20.00    -0.004 C 
HETATM    3  C3  UNL     1     -42.033   7.080  -2.269  1.00 20.00     0.203 A 
HETATM    4  C4  UNL     1     -42.358   4.646  -2.710  1.00 20.00     0.126 C 
HETATM    5  C5  UNL     1     -41.184   7.204  -0.988  1.00 20.00     0.126 A 
HETATM    6  C6  UNL     1     -41.691   5.787  -0.640  1.00 20.00     0.042 A 
HETATM    7  C7  UNL     1     -42.580   5.650   0.581  1.00 20.00     0.038 C 
HETATM    8  N8  UNL     1     -42.488   5.844  -1.894  1.00 20.00    -0.237 NA
HETATM    9  O9  UNL     1     -42.168   7.726  -3.283  1.00 20.00    -0.280 OA
ENDROOT
TORSDOF 0
ENDMDL
MODEL 9
REMARK VINA RESULT:      -3.9      1.772      2.693
REMARK  0 active torsions:
REMARK  status: ('A' for Active; 'I' for Inactive)
ROOT
HETATM    1  C1  UNL     1     -34.788  13.352  -4.185  1.00 20.00    -0.014 C 
HETATM    2  C2  UNL     1     -33.686  13.974  -3.732  1.00 20.00    -0.004 C 
HETATM    3  C3  UNL     1     -34.594  16.257  -5.573  1.00 20.00     0.203 A 
HETATM    4  C4  UNL     1     -35.851  14.310  -4.651  1.00 20.00     0.126 C 
HETATM    5  C5  UNL     1     -33.205  16.266  -4.903  1.00 20.00     0.126 A 
HETATM    6  C6  UNL     1     -33.865  15.452  -3.767  1.00 20.00     0.042 A 
HETATM    7  C7  UNL     1     -33.955  16.113  -2.405  1.00 20.00     0.038 C 
HETATM    8  N8  UNL     1     -35.140  15.574  -4.520  1.00 20.00    -0.237 NA
HETATM    9  O9  UNL     1     -35.037  16.589  -6.650  1.00 20.00    -0.280 OA
ENDROOT
TORSDOF 0
ENDMDL
