MODEL 1
REMARK VINA RESULT:      -5.6      0.000      0.000
REMARK  1 active torsions:
REMARK  status: ('A' for Active; 'I' for Inactive)
REMARK    1  A    between atoms: C5_5  and  C7_7 
ROOT
HETATM    1  C1  UNL     1     -34.775   4.309   6.039  1.00 20.00    -0.003 A 
HETATM    2  C2  UNL     1     -34.510   5.630   6.571  1.00 20.00    -0.003 A 
HETATM    3  C3  UNL     1     -34.627   4.359   4.703  1.00 20.00    -0.012 A 
HETATM    4  C4  UNL     1     -34.208   6.443   5.542  1.00 20.00    -0.012 A 
HETATM    5  C6  UNL     1     -34.782   6.326   3.015  1.00 20.00     0.032 A 
HETATM    6  C7  UNL     1     -33.317   5.954   3.122  1.00 20.00     0.072 A 
HETATM    7  C8  UNL     1     -34.250   5.712   4.267  1.00 20.00     0.006 A 
ENDROOT
BRANCH   6   8
HETATM    8  C5  UNL     1     -32.312   7.024   3.178  1.00 20.00     0.128 C 
HETATM    9  C9  UNL     1     -32.238   7.945   1.990  1.00 20.00     0.091 C 
HETATM   10  O10 UNL     1     -31.569   7.161   4.147  1.00 20.00    -0.298 OA
ENDBRANCH   6   8
TORSDOF 1
ENDMDL
MODEL 2
REMARK VINA RESULT:      -4.8     11.678     12.546
REMARK  1 active torsions:
REMARK  status: ('A' for Active; 'I' for Inactive)
REMARK    1  A    between atoms: C5_5  and  C7_7 
ROOT
HETATM    1  C1  UNL     1     -34.128  18.039  -2.279  1.00 20.00    -0.003 A 
HETATM    2  C2  UNL     1     -34.691  17.093  -1.337  1.00 20.00    -0.003 A 
HETATM    3  C3  UNL     1     -33.696  17.354  -3.353  1.00 20.00    -0.012 A 
HETATM    4  C4  UNL     1     -34.585  15.861  -1.867  1.00 20.00    -0.012 A 
HETATM    5  C6  UNL     1     -32.981  14.875  -3.653  1.00 20.00     0.032 A 
HETATM    6  C7  UNL     1     -34.321  15.033  -4.343  1.00 20.00     0.072 A 
HETATM    7  C8  UNL     1     -33.950  15.914  -3.192  1.00 20.00     0.006 A 
ENDROOT
BRANCH   6   8
HETATM    8  C5  UNL     1     -35.330  13.976  -4.193  1.00 20.00     0.128 C 
HETATM    9  C9  UNL     1     -36.756  14.422  -4.017  1.00 20.00     0.091 C 
HETATM   10  O10 UNL     1     -35.024  12.785  -4.213  1.00 20.00    -0.298 OA
ENDBRANCH   6   8
TORSDOF 1
ENDMDL
MODEL 3
REMARK VINA RESULT:      -4.7      1.806      3.874
REMARK  1 active torsions:
REMARK  status: ('A' for Active; 'I' for Inactive)
REMARK    1  A    between atoms: C5_5  and  C7_7 
ROOT
HETATM    1  C1  UNL     1     -32.232   7.989   2.658  1.00 20.00    -0.003 A 
HETATM    2  C2  UNL     1     -31.445   7.034   3.411  1.00 20.00    -0.003 A 
HETATM    3  C3  UNL     1     -33.471   7.487   2.509  1.00 20.00    -0.012 A 
HETATM    4  C4  UNL     1     -32.230   5.979   3.698  1.00 20.00    -0.012 A 
HETATM    5  C6  UNL     1     -34.369   5.051   2.559  1.00 20.00     0.032 A 
HETATM    6  C7  UNL     1     -34.838   5.718   3.836  1.00 20.00     0.072 A 
HETATM    7  C8  UNL     1     -33.584   6.171   3.157  1.00 20.00     0.006 A 
ENDROOT
BRANCH   6   8
HETATM    8  C5  UNL     1     -34.787   4.964   5.096  1.00 20.00     0.128 C 
HETATM    9  C9  UNL     1     -34.386   5.731   6.327  1.00 20.00     0.091 C 
HETATM   10  O10 UNL     1     -35.061   3.767   5.142  1.00 20.00    -0.298 OA
ENDBRANCH   6   8
TORSDOF 1
ENDMDL
MODEL 4
REMARK VINA RESULT:      -4.7     11.625     12.494
REMARK  1 active torsions:
REMARK  status: ('A' for Active; 'I' for Inactive)
REMARK    1  A    between atoms: C5_5  and  C7_7 
ROOT
HETATM    1  C1  UNL     1     -35.173  13.207  -4.276  1.00 20.00    -0.003 A 
HETATM    2  C2  UNL     1     -36.215  14.213  -4.228  1.00 20.00    -0.003 A 
HETATM    3  C3  UNL     1     -33.993  13.816  -4.057  1.00 20.00    -0.012 A 
HETATM    4  C4  UNL     1     -35.637  15.403  -3.980  1.00 20.00    -0.012 A 
HETATM    5  C6  UNL     1     -33.227  16.276  -4.382  1.00 20.00     0.032 A 
HETATM    6  C7  UNL     1     -33.338  16.045  -2.889  1.00 20.00     0.072 A 
HETATM    7  C8  UNL     1     -34.180  15.260  -3.845  1.00 20.00     0.006 A 
ENDROOT
BRANCH   6   8
HETATM    8  C5  UNL     1     -33.928  17.093  -2.046  1.00 20.00     0.128 C 
HETATM    9  C9  UNL     1     -34.616  16.641  -0.787  1.00 20.00     0.091 C 
HETATM   10  O10 UNL     1     -33.860  18.282  -2.353  1.00 20.00    -0.298 OA
ENDBRANCH   6   8
TORSDOF 1
ENDMDL
MODEL 5
REMARK VINA RESULT:      -4.5     11.723     12.766
REMARK  1 active torsions:
REMARK  status: ('A' for Active; 'I' for Inactive)
REMARK    1  A    between atoms: C5_5  and  C7_7 
ROOT
HETATM    1  C1  UNL     1     -35.040  13.524  -4.139  1.00 20.00    -0.003 A 
HETATM    2  C2  UNL     1     -33.613  13.764  -4.079  1.00 20.00    -0.003 A 
HETATM    3  C3  UNL     1     -35.664  14.556  -3.542  1.00 20.00    -0.012 A 
HETATM    4  C4  UNL     1     -33.411  14.935  -3.447  1.00 20.00    -0.012 A 
HETATM    5  C6  UNL     1     -34.864  16.265  -1.758  1.00 20.00     0.032 A 
HETATM    6  C7  UNL     1     -34.967  17.015  -3.070  1.00 20.00     0.072 A 
HETATM    7  C8  UNL     1     -34.690  15.545  -3.054  1.00 20.00     0.006 A 
ENDROOT
BRANCH   6   8
HETATM    8  C5  UNL     1     -33.916  17.979  -3.424  1.00 20.00     0.128 C 
HETATM    9  C9  UNL     1     -33.558  18.083  -4.882  1.00 20.00     0.091 C 
HETATM   10  O10 UNL     1     -33.359  18.668  -2.573  1.00 20.00    -0.298 OA
ENDBRANCH   6   8
TORSDOF 1
ENDMDL
MODEL 6
REMARK VINA RESULT:      -4.4     11.504     12.345
REMARK  1 active torsions:
REMARK  status: ('A' for Active; 'I' for Inactive)
REMARK    1  A    between atoms: C5_5  and  C7_7 
ROOT
HETATM    1  C1  UNL     1     -34.062  17.691  -0.371  1.00 20.00    -0.003 A 
HETATM    2  C2  UNL     1     -33.425  18.196  -1.571  1.00 20.00    -0.003 A 
HETATM    3  C3  UNL     1     -34.778  16.602  -0.703  1.00 20.00    -0.012 A 
HETATM    4  C4  UNL     1     -33.773  17.397  -2.596  1.00 20.00    -0.012 A 
HETATM    5  C6  UNL     1     -35.807  15.827  -2.958  1.00 20.00     0.032 A 
HETATM    6  C7  UNL     1     -34.628  14.917  -2.678  1.00 20.00     0.072 A 
HETATM    7  C8  UNL     1     -34.656  16.313  -2.141  1.00 20.00     0.006 A 
ENDROOT
BRANCH   6   8
HETATM    8  C5  UNL     1     -33.733  14.548  -3.782  1.00 20.00     0.128 C 
HETATM    9  C9  UNL     1     -34.322  13.700  -4.876  1.00 20.00     0.091 C 
HETATM   10  O10 UNL     1     -32.560  14.916  -3.812  1.00 20.00    -0.298 OA
ENDBRANCH   6   8
TORSDOF 1
ENDMDL
MODEL 7
REMARK VINA RESULT:      -4.4     11.456     13.180
REMARK  1 active torsions:
REMARK  status: ('A' for Active; 'I' for Inactive)
REMARK    1  A    between atoms: C5_5  and  C7_7 
ROOT
HETATM    1  C1  UNL     1     -34.794  14.724  -7.145  1.00 20.00    -0.003 A 
HETATM    2  C2  UNL     1     -34.112  15.946  -6.767  1.00 20.00    -0.003 A 
HETATM    3  C3  UNL     1     -35.005  14.001  -6.030  1.00 20.00    -0.012 A 
HETATM    4  C4  UNL     1     -33.930  15.928  -5.434  1.00 20.00    -0.012 A 
HETATM    5  C6  UNL     1     -33.805  13.978  -3.727  1.00 20.00     0.032 A 
HETATM    6  C7  UNL     1     -35.156  14.628  -3.512  1.00 20.00     0.072 A 
HETATM    7  C8  UNL     1     -34.481  14.699  -4.845  1.00 20.00     0.006 A 
ENDROOT
BRANCH   6   8
HETATM    8  C5  UNL     1     -35.249  15.812  -2.647  1.00 20.00     0.128 C 
HETATM    9  C9  UNL     1     -36.331  16.805  -2.974  1.00 20.00     0.091 C 
HETATM   10  O10 UNL     1     -34.482  15.981  -1.701  1.00 20.00    -0.298 OA
ENDBRANCH   6   8
TORSDOF 1
ENDMDL
MODEL 8
REMARK VINA RESULT:      -4.3      1.469      2.432
REMARK  1 active torsions:
REMARK  status: ('A' for Active; 'I' for Inactive)
REMARK    1  A    between atoms: C5_5  and  C7_7 
ROOT
HETATM    1  C1  UNL     1     -34.792   5.669   4.895  1.00 20.00    -0.003 A 
HETATM    2  C2  UNL     1     -35.165   5.556   3.499  1.00 20.00    -0.003 A 
HETATM    3  C3  UNL     1     -33.537   6.151   4.955  1.00 20.00    -0.012 A 
HETATM    4  C4  UNL     1     -34.127   5.974   2.753  1.00 20.00    -0.012 A 
HETATM    5  C6  UNL     1     -31.583   6.112   3.245  1.00 20.00     0.032 A 
HETATM    6  C7  UNL     1     -32.091   7.538   3.298  1.00 20.00     0.072 A 
HETATM    7  C8  UNL     1     -33.004   6.393   3.605  1.00 20.00     0.006 A 
ENDROOT
BRANCH   6   8
HETATM    8  C5  UNL     1     -32.221   8.296   2.047  1.00 20.00     0.128 C 
HETATM    9  C9  UNL     1     -32.903   9.634   2.135  1.00 20.00     0.091 C 
HETATM   10  O10 UNL     1     -31.792   7.860   0.981  1.00 20.00    -0.298 OA
ENDBRANCH   6   8
TORSDOF 1
ENDMDL
MODEL 9
REMARK VINA RESULT:      -4.3     11.596     14.186
REMARK  1 active torsions:
REMARK  status: ('A' for Active; 'I' for Inactive)
REMARK    1  A    between atoms: C5_5  and  C7_7 
ROOT
HETATM    1  C1  UNL     1     -34.660  18.191  -6.220  1.00 20.00    -0.003 A 
HETATM    2  C2  UNL     1     -33.505  17.736  -5.474  1.00 20.00    -0.003 A 
HETATM    3  C3  UNL     1     -35.322  17.109  -6.669  1.00 20.00    -0.012 A 
HETATM    4  C4  UNL     1     -33.499  16.390  -5.491  1.00 20.00    -0.012 A 
HETATM    5  C6  UNL     1     -34.548  14.673  -7.129  1.00 20.00     0.032 A 
HETATM    6  C7  UNL     1     -35.408  14.632  -5.883  1.00 20.00     0.072 A 
HETATM    7  C8  UNL     1     -34.650  15.871  -6.244  1.00 20.00     0.006 A 
ENDROOT
BRANCH   6   8
HETATM    8  C5  UNL     1     -34.989  13.791  -4.754  1.00 20.00     0.128 C 
HETATM    9  C9  UNL     1     -34.993  14.433  -3.394  1.00 20.00     0.091 C 
HETATM   10  O10 UNL     1     -34.654  12.619  -4.913  1.00 20.00    -0.298 OA
ENDBRANCH   6   8
TORSDOF 1
ENDMDL
