MODEL 1
REMARK VINA RESULT:      -4.8      0.000      0.000
REMARK  0 active torsions:
REMARK  status: ('A' for Active; 'I' for Inactive)
ROOT
HETATM    1  C1  UNL     1     -33.869   5.387   2.816  1.00 20.00     0.148 A 
HETATM    2  C2  UNL     1     -32.756   6.896   3.892  1.00 20.00     0.218 A 
HETATM    3  C3  UNL     1     -34.290   5.329   4.112  1.00 20.00     0.061 A 
HETATM    4  C4  UNL     1     -35.125   4.727   5.060  1.00 20.00     0.037 A 
HETATM    5  C5  UNL     1     -34.933   5.296   6.267  1.00 20.00     0.077 A 
HETATM    6  C6  UNL     1     -33.898   6.348   6.102  1.00 20.00     0.253 A 
HETATM    7  N7  UNL     1     -32.903   6.375   2.685  1.00 20.00    -0.253 NA
HETATM    8  N8  UNL     1     -33.584   6.280   4.770  1.00 20.00    -0.272 N 
HETATM    9  O9  UNL     1     -33.390   7.124   6.881  1.00 20.00    -0.268 OA
ENDROOT
TORSDOF 0
ENDMDL
MODEL 2
REMARK VINA RESULT:      -4.6      1.625      2.218
REMARK  0 active torsions:
REMARK  status: ('A' for Active; 'I' for Inactive)
ROOT
HETATM    1  C1  UNL     1     -32.815   7.101   3.977  1.00 20.00     0.148 A 
HETATM    2  C2  UNL     1     -33.705   5.374   3.028  1.00 20.00     0.218 A 
HETATM    3  C3  UNL     1     -33.535   6.458   4.940  1.00 20.00     0.061 A 
HETATM    4  C4  UNL     1     -33.958   6.417   6.274  1.00 20.00     0.037 A 
HETATM    5  C5  UNL     1     -34.745   5.342   6.472  1.00 20.00     0.077 A 
HETATM    6  C6  UNL     1     -34.850   4.623   5.177  1.00 20.00     0.253 A 
HETATM    7  N7  UNL     1     -32.926   6.413   2.777  1.00 20.00    -0.253 NA
HETATM    8  N8  UNL     1     -34.085   5.381   4.330  1.00 20.00    -0.272 N 
HETATM    9  O9  UNL     1     -35.434   3.615   4.846  1.00 20.00    -0.268 OA
ENDROOT
TORSDOF 0
ENDMDL
MODEL 3
REMARK VINA RESULT:      -4.3      1.428      2.880
REMARK  0 active torsions:
REMARK  status: ('A' for Active; 'I' for Inactive)
ROOT
HETATM    1  C1  UNL     1     -35.159   5.078   5.559  1.00 20.00     0.148 A 
HETATM    2  C2  UNL     1     -33.618   6.493   6.105  1.00 20.00     0.218 A 
HETATM    3  C3  UNL     1     -34.475   5.366   4.415  1.00 20.00     0.061 A 
HETATM    4  C4  UNL     1     -34.324   5.154   3.040  1.00 20.00     0.037 A 
HETATM    5  C5  UNL     1     -33.297   5.892   2.572  1.00 20.00     0.077 A 
HETATM    6  C6  UNL     1     -32.732   6.644   3.721  1.00 20.00     0.253 A 
HETATM    7  N7  UNL     1     -34.615   5.791   6.618  1.00 20.00    -0.253 NA
HETATM    8  N8  UNL     1     -33.515   6.252   4.774  1.00 20.00    -0.272 N 
HETATM    9  O9  UNL     1     -31.814   7.428   3.812  1.00 20.00    -0.268 OA
ENDROOT
TORSDOF 0
ENDMDL
MODEL 4
REMARK VINA RESULT:      -4.3     12.524     13.660
REMARK  0 active torsions:
REMARK  status: ('A' for Active; 'I' for Inactive)
ROOT
HETATM    1  C1  UNL     1     -34.771  13.107  -4.816  1.00 20.00     0.148 A 
HETATM    2  C2  UNL     1     -33.686  14.564  -3.644  1.00 20.00     0.218 A 
HETATM    3  C3  UNL     1     -34.591  14.194  -5.620  1.00 20.00     0.061 A 
HETATM    4  C4  UNL     1     -34.796  14.790  -6.870  1.00 20.00     0.037 A 
HETATM    5  C5  UNL     1     -34.254  16.024  -6.883  1.00 20.00     0.077 A 
HETATM    6  C6  UNL     1     -33.649  16.258  -5.547  1.00 20.00     0.253 A 
HETATM    7  N7  UNL     1     -34.199  13.347  -3.575  1.00 20.00    -0.253 NA
HETATM    8  N8  UNL     1     -33.911  15.095  -4.872  1.00 20.00    -0.272 N 
HETATM    9  O9  UNL     1     -33.054  17.199  -5.073  1.00 20.00    -0.268 OA
ENDROOT
TORSDOF 0
ENDMDL
MODEL 5
REMARK VINA RESULT:      -4.2     12.491     13.705
REMARK  0 active torsions:
REMARK  status: ('A' for Active; 'I' for Inactive)
ROOT
HETATM    1  C1  UNL     1     -34.172  13.673  -3.576  1.00 20.00     0.148 A 
HETATM    2  C2  UNL     1     -34.963  13.547  -5.584  1.00 20.00     0.218 A 
HETATM    3  C3  UNL     1     -33.845  14.844  -4.195  1.00 20.00     0.061 A 
HETATM    4  C4  UNL     1     -33.224  16.095  -4.111  1.00 20.00     0.037 A 
HETATM    5  C5  UNL     1     -33.345  16.746  -5.284  1.00 20.00     0.077 A 
HETATM    6  C6  UNL     1     -34.099  15.861  -6.208  1.00 20.00     0.253 A 
HETATM    7  N7  UNL     1     -34.875  12.862  -4.456  1.00 20.00    -0.253 NA
HETATM    8  N8  UNL     1     -34.348  14.748  -5.449  1.00 20.00    -0.272 N 
HETATM    9  O9  UNL     1     -34.456  15.994  -7.357  1.00 20.00    -0.268 OA
ENDROOT
TORSDOF 0
ENDMDL
MODEL 6
REMARK VINA RESULT:      -4.2     12.363     13.473
REMARK  0 active torsions:
REMARK  status: ('A' for Active; 'I' for Inactive)
ROOT
HETATM    1  C1  UNL     1     -33.738  16.684  -5.819  1.00 20.00     0.148 A 
HETATM    2  C2  UNL     1     -34.596  14.923  -6.732  1.00 20.00     0.218 A 
HETATM    3  C3  UNL     1     -33.760  15.720  -4.855  1.00 20.00     0.061 A 
HETATM    4  C4  UNL     1     -33.475  15.360  -3.533  1.00 20.00     0.037 A 
HETATM    5  C5  UNL     1     -33.832  14.078  -3.320  1.00 20.00     0.077 A 
HETATM    6  C6  UNL     1     -34.392  13.555  -4.592  1.00 20.00     0.253 A 
HETATM    7  N7  UNL     1     -34.265  16.175  -6.997  1.00 20.00    -0.253 NA
HETATM    8  N8  UNL     1     -34.300  14.626  -5.443  1.00 20.00    -0.272 N 
HETATM    9  O9  UNL     1     -34.842  12.476  -4.905  1.00 20.00    -0.268 OA
ENDROOT
TORSDOF 0
ENDMDL
MODEL 7
REMARK VINA RESULT:      -4.1     11.953     12.692
REMARK  0 active torsions:
REMARK  status: ('A' for Active; 'I' for Inactive)
ROOT
HETATM    1  C1  UNL     1     -35.921  16.577  -3.068  1.00 20.00     0.148 A 
HETATM    2  C2  UNL     1     -36.832  14.763  -3.812  1.00 20.00     0.218 A 
HETATM    3  C3  UNL     1     -34.901  15.711  -3.333  1.00 20.00     0.061 A 
HETATM    4  C4  UNL     1     -33.522  15.472  -3.337  1.00 20.00     0.037 A 
HETATM    5  C5  UNL     1     -33.275  14.228  -3.793  1.00 20.00     0.077 A 
HETATM    6  C6  UNL     1     -34.584  13.603  -4.112  1.00 20.00     0.253 A 
HETATM    7  N7  UNL     1     -37.133  15.974  -3.372  1.00 20.00    -0.253 NA
HETATM    8  N8  UNL     1     -35.489  14.583  -3.797  1.00 20.00    -0.272 N 
HETATM    9  O9  UNL     1     -34.886  12.513  -4.544  1.00 20.00    -0.268 OA
ENDROOT
TORSDOF 0
ENDMDL
MODEL 8
REMARK VINA RESULT:      -4.1     11.833     12.346
REMARK  0 active torsions:
REMARK  status: ('A' for Active; 'I' for Inactive)
ROOT
HETATM    1  C1  UNL     1     -33.556  13.620  -3.829  1.00 20.00     0.148 A 
HETATM    2  C2  UNL     1     -35.626  13.499  -4.442  1.00 20.00     0.218 A 
HETATM    3  C3  UNL     1     -34.188  14.694  -3.273  1.00 20.00     0.061 A 
HETATM    4  C4  UNL     1     -34.095  15.843  -2.480  1.00 20.00     0.037 A 
HETATM    5  C5  UNL     1     -35.301  16.437  -2.391  1.00 20.00     0.077 A 
HETATM    6  C6  UNL     1     -36.258  15.622  -3.182  1.00 20.00     0.253 A 
HETATM    7  N7  UNL     1     -34.467  12.874  -4.563  1.00 20.00    -0.253 NA
HETATM    8  N8  UNL     1     -35.481  14.602  -3.666  1.00 20.00    -0.272 N 
HETATM    9  O9  UNL     1     -37.441  15.740  -3.407  1.00 20.00    -0.268 OA
ENDROOT
TORSDOF 0
ENDMDL
MODEL 9
REMARK VINA RESULT:      -4.1     12.307     13.429
REMARK  0 active torsions:
REMARK  status: ('A' for Active; 'I' for Inactive)
ROOT
HETATM    1  C1  UNL     1     -33.623  16.891  -4.308  1.00 20.00     0.148 A 
HETATM    2  C2  UNL     1     -33.998  15.162  -3.066  1.00 20.00     0.218 A 
HETATM    3  C3  UNL     1     -34.049  15.899  -5.143  1.00 20.00     0.061 A 
HETATM    4  C4  UNL     1     -34.352  15.500  -6.449  1.00 20.00     0.037 A 
HETATM    5  C5  UNL     1     -34.758  14.214  -6.453  1.00 20.00     0.077 A 
HETATM    6  C6  UNL     1     -34.718  13.732  -5.049  1.00 20.00     0.253 A 
HETATM    7  N7  UNL     1     -33.594  16.419  -3.004  1.00 20.00    -0.253 NA
HETATM    8  N8  UNL     1     -34.279  14.826  -4.350  1.00 20.00    -0.272 N 
HETATM    9  O9  UNL     1     -34.986  12.665  -4.543  1.00 20.00    -0.268 OA
ENDROOT
TORSDOF 0
ENDMDL
