MODEL 1
REMARK VINA RESULT:      -4.1      0.000      0.000
REMARK  1 active torsions:
REMARK  status: ('A' for Active; 'I' for Inactive)
REMARK    1  A    between atoms: C2_2  and  C5_5 
ROOT
HETATM    1  C1  UNL     1     -32.706   6.853   3.925  1.00 20.00     0.270 A 
HETATM    2  C2  UNL     1     -33.839   5.862   4.013  1.00 20.00     0.181 A 
HETATM    3  O6  UNL     1     -34.053   7.274   4.164  1.00 20.00    -0.336 OA
HETATM    4 CL7  UNL     1     -31.950   7.288   2.418  1.00 20.00    -0.091 Cl
HETATM    5 CL8  UNL     1     -34.474   5.102   2.556  1.00 20.00    -0.084 Cl
ENDROOT
BRANCH   2   6
HETATM    6  C5  UNL     1     -34.045   5.076   5.306  1.00 20.00     0.032 C 
HETATM    7  C3  UNL     1     -34.394   6.016   6.457  1.00 20.00     0.014 C 
HETATM    8  C4  UNL     1     -35.136   4.022   5.124  1.00 20.00     0.014 C 
ENDBRANCH   2   6
TORSDOF 1
ENDMDL
MODEL 2
REMARK VINA RESULT:      -3.9      1.889      2.079
REMARK  1 active torsions:
REMARK  status: ('A' for Active; 'I' for Inactive)
REMARK    1  A    between atoms: C2_2  and  C5_5 
ROOT
HETATM    1  C1  UNL     1     -32.891   6.542   2.902  1.00 20.00     0.270 A 
HETATM    2  C2  UNL     1     -33.495   6.022   4.182  1.00 20.00     0.181 A 
HETATM    3  O6  UNL     1     -32.267   5.497   3.654  1.00 20.00    -0.336 OA
HETATM    4 CL7  UNL     1     -32.092   8.086   2.797  1.00 20.00    -0.091 Cl
HETATM    5 CL8  UNL     1     -33.395   6.969   5.665  1.00 20.00    -0.084 Cl
ENDROOT
BRANCH   2   6
HETATM    6  C5  UNL     1     -34.657   5.034   4.113  1.00 20.00     0.032 C 
HETATM    7  C3  UNL     1     -34.872   4.362   5.466  1.00 20.00     0.014 C 
HETATM    8  C4  UNL     1     -35.932   5.737   3.653  1.00 20.00     0.014 C 
ENDBRANCH   2   6
TORSDOF 1
ENDMDL
MODEL 3
REMARK VINA RESULT:      -3.8     11.978     12.585
REMARK  1 active torsions:
REMARK  status: ('A' for Active; 'I' for Inactive)
REMARK    1  A    between atoms: C2_2  and  C5_5 
ROOT
HETATM    1  C1  UNL     1     -33.174  15.070  -3.410  1.00 20.00     0.270 A 
HETATM    2  C2  UNL     1     -34.177  16.038  -2.836  1.00 20.00     0.181 A 
HETATM    3  O6  UNL     1     -33.503  16.292  -4.078  1.00 20.00    -0.336 OA
HETATM    4 CL7  UNL     1     -33.636  13.563  -4.152  1.00 20.00    -0.091 Cl
HETATM    5 CL8  UNL     1     -35.902  15.685  -2.913  1.00 20.00    -0.084 Cl
ENDROOT
BRANCH   2   6
HETATM    6  C5  UNL     1     -33.750  16.977  -1.711  1.00 20.00     0.032 C 
HETATM    7  C3  UNL     1     -33.728  18.424  -2.197  1.00 20.00     0.014 C 
HETATM    8  C4  UNL     1     -34.678  16.828  -0.507  1.00 20.00     0.014 C 
ENDBRANCH   2   6
TORSDOF 1
ENDMDL
MODEL 4
REMARK VINA RESULT:      -3.8     12.161     12.854
REMARK  1 active torsions:
REMARK  status: ('A' for Active; 'I' for Inactive)
REMARK    1  A    between atoms: C2_2  and  C5_5 
ROOT
HETATM    1  C1  UNL     1     -35.131  16.028  -2.894  1.00 20.00     0.270 A 
HETATM    2  C2  UNL     1     -34.261  15.389  -3.946  1.00 20.00     0.181 A 
HETATM    3  O6  UNL     1     -34.529  16.800  -3.938  1.00 20.00    -0.336 OA
HETATM    4 CL7  UNL     1     -34.597  16.280  -1.255  1.00 20.00    -0.091 Cl
HETATM    5 CL8  UNL     1     -32.620  14.879  -3.557  1.00 20.00    -0.084 Cl
ENDROOT
BRANCH   2   6
HETATM    6  C5  UNL     1     -34.917  14.654  -5.112  1.00 20.00     0.032 C 
HETATM    7  C3  UNL     1     -34.366  15.158  -6.444  1.00 20.00     0.014 C 
HETATM    8  C4  UNL     1     -34.709  13.146  -4.981  1.00 20.00     0.014 C 
ENDBRANCH   2   6
TORSDOF 1
ENDMDL
MODEL 5
REMARK VINA RESULT:      -3.7     12.095     13.256
REMARK  1 active torsions:
REMARK  status: ('A' for Active; 'I' for Inactive)
REMARK    1  A    between atoms: C2_2  and  C5_5 
ROOT
HETATM    1  C1  UNL     1     -33.691  17.169  -5.032  1.00 20.00     0.270 A 
HETATM    2  C2  UNL     1     -33.862  16.138  -3.945  1.00 20.00     0.181 A 
HETATM    3  O6  UNL     1     -32.662  16.221  -4.730  1.00 20.00    -0.336 OA
HETATM    4 CL7  UNL     1     -33.399  18.853  -4.696  1.00 20.00    -0.091 Cl
HETATM    5 CL8  UNL     1     -33.748  16.603  -2.249  1.00 20.00    -0.084 Cl
ENDROOT
BRANCH   2   6
HETATM    6  C5  UNL     1     -34.686  14.885  -4.227  1.00 20.00     0.032 C 
HETATM    7  C3  UNL     1     -33.907  13.630  -3.840  1.00 20.00     0.014 C 
HETATM    8  C4  UNL     1     -36.019  14.940  -3.483  1.00 20.00     0.014 C 
ENDBRANCH   2   6
TORSDOF 1
ENDMDL
MODEL 6
REMARK VINA RESULT:      -3.7      2.369      3.798
REMARK  1 active torsions:
REMARK  status: ('A' for Active; 'I' for Inactive)
REMARK    1  A    between atoms: C2_2  and  C5_5 
ROOT
HETATM    1  C1  UNL     1     -34.877   4.437   5.084  1.00 20.00     0.270 A 
HETATM    2  C2  UNL     1     -34.105   5.685   4.740  1.00 20.00     0.181 A 
HETATM    3  O6  UNL     1     -35.485   5.522   4.374  1.00 20.00    -0.336 OA
HETATM    4 CL7  UNL     1     -35.427   4.085   6.699  1.00 20.00    -0.091 Cl
HETATM    5 CL8  UNL     1     -33.738   6.879   5.984  1.00 20.00    -0.084 Cl
ENDROOT
BRANCH   2   6
HETATM    6  C5  UNL     1     -33.155   5.671   3.545  1.00 20.00     0.032 C 
HETATM    7  C3  UNL     1     -33.934   5.519   2.241  1.00 20.00     0.014 C 
HETATM    8  C4  UNL     1     -32.306   6.940   3.519  1.00 20.00     0.014 C 
ENDBRANCH   2   6
TORSDOF 1
ENDMDL
MODEL 7
REMARK VINA RESULT:      -3.7     12.047     12.908
REMARK  1 active torsions:
REMARK  status: ('A' for Active; 'I' for Inactive)
REMARK    1  A    between atoms: C2_2  and  C5_5 
ROOT
HETATM    1  C1  UNL     1     -34.848  15.370  -6.145  1.00 20.00     0.270 A 
HETATM    2  C2  UNL     1     -34.733  14.856  -4.733  1.00 20.00     0.181 A 
HETATM    3  O6  UNL     1     -35.807  15.718  -5.141  1.00 20.00    -0.336 OA
HETATM    4 CL7  UNL     1     -35.359  14.367  -7.475  1.00 20.00    -0.091 Cl
HETATM    5 CL8  UNL     1     -35.143  13.184  -4.356  1.00 20.00    -0.084 Cl
ENDROOT
BRANCH   2   6
HETATM    6  C5  UNL     1     -33.752  15.522  -3.773  1.00 20.00     0.032 C 
HETATM    7  C3  UNL     1     -34.428  15.827  -2.439  1.00 20.00     0.014 C 
HETATM    8  C4  UNL     1     -32.523  14.639  -3.563  1.00 20.00     0.014 C 
ENDBRANCH   2   6
TORSDOF 1
ENDMDL
MODEL 8
REMARK VINA RESULT:      -3.6     12.919     13.506
REMARK  1 active torsions:
REMARK  status: ('A' for Active; 'I' for Inactive)
REMARK    1  A    between atoms: C2_2  and  C5_5 
ROOT
HETATM    1  C1  UNL     1     -33.899  16.763  -3.731  1.00 20.00     0.270 A 
HETATM    2  C2  UNL     1     -34.150  15.551  -4.592  1.00 20.00     0.181 A 
HETATM    3  O6  UNL     1     -32.905  16.266  -4.632  1.00 20.00    -0.336 OA
HETATM    4 CL7  UNL     1     -33.601  16.657  -2.018  1.00 20.00    -0.091 Cl
HETATM    5 CL8  UNL     1     -34.128  13.936  -3.886  1.00 20.00    -0.084 Cl
ENDROOT
BRANCH   2   6
HETATM    6  C5  UNL     1     -34.976  15.698  -5.867  1.00 20.00     0.032 C 
HETATM    7  C3  UNL     1     -34.239  15.089  -7.058  1.00 20.00     0.014 C 
HETATM    8  C4  UNL     1     -36.348  15.049  -5.695  1.00 20.00     0.014 C 
ENDBRANCH   2   6
TORSDOF 1
ENDMDL
MODEL 9
REMARK VINA RESULT:      -3.5     11.933     12.857
REMARK  1 active torsions:
REMARK  status: ('A' for Active; 'I' for Inactive)
REMARK    1  A    between atoms: C2_2  and  C5_5 
ROOT
HETATM    1  C1  UNL     1     -36.693  14.835  -4.186  1.00 20.00     0.270 A 
HETATM    2  C2  UNL     1     -35.318  14.539  -4.727  1.00 20.00     0.181 A 
HETATM    3  O6  UNL     1     -36.134  13.518  -4.131  1.00 20.00    -0.336 OA
HETATM    4 CL7  UNL     1     -38.070  15.115  -5.216  1.00 20.00    -0.091 Cl
HETATM    5 CL8  UNL     1     -35.044  14.439  -6.465  1.00 20.00    -0.084 Cl
ENDROOT
BRANCH   2   6
HETATM    6  C5  UNL     1     -34.092  14.899  -3.891  1.00 20.00     0.032 C 
HETATM    7  C3  UNL     1     -33.202  13.676  -3.686  1.00 20.00     0.014 C 
HETATM    8  C4  UNL     1     -33.307  16.031  -4.551  1.00 20.00     0.014 C 
ENDBRANCH   2   6
TORSDOF 1
ENDMDL
