MODEL 1
REMARK VINA RESULT:      -4.3      0.000      0.000
REMARK  1 active torsions:
REMARK  status: ('A' for Active; 'I' for Inactive)
REMARK    1  A    between atoms: C1_1  and  C3_3 
REMARK       I    between atoms: C3_3  and  N8_8 
ROOT
HETATM    1  C3  UNL     1     -33.038   6.673   4.119  1.00 20.00     0.243 C 
HETATM    2  C4  UNL     1     -35.037   5.192   3.393  1.00 20.00     0.151 A 
HETATM    3  C5  UNL     1     -35.050   5.328   4.979  1.00 20.00     0.101 A 
HETATM    4  C7  UNL     1     -34.682   4.178   5.842  1.00 20.00     0.034 C 
HETATM    5  N8  UNL     1     -34.123   5.890   4.141  1.00 20.00    -0.341 N 
HETATM    6  O9  UNL     1     -32.472   7.131   5.107  1.00 20.00    -0.268 OA
ENDROOT
BRANCH   1   7
HETATM    7  C1  UNL     1     -32.532   6.971   2.768  1.00 20.00     0.070 C 
HETATM    8  C2  UNL     1     -32.227   8.206   2.349  1.00 20.00    -0.026 C 
HETATM    9  C6  UNL     1     -31.717   8.513   0.978  1.00 20.00     0.036 C 
ENDBRANCH   1   7
TORSDOF 1
ENDMDL
MODEL 2
REMARK VINA RESULT:      -4.3     11.484     12.287
REMARK  1 active torsions:
REMARK  status: ('A' for Active; 'I' for Inactive)
REMARK    1  A    between atoms: C1_1  and  C3_3 
REMARK       I    between atoms: C3_3  and  N8_8 
ROOT
HETATM    1  C3  UNL     1     -33.549  15.671  -4.178  1.00 20.00     0.243 C 
HETATM    2  C4  UNL     1     -35.169  13.649  -4.249  1.00 20.00     0.151 A 
HETATM    3  C5  UNL     1     -34.646  13.939  -5.725  1.00 20.00     0.101 A 
HETATM    4  C7  UNL     1     -35.546  14.528  -6.747  1.00 20.00     0.034 C 
HETATM    5  N8  UNL     1     -34.305  14.654  -4.606  1.00 20.00    -0.341 N 
HETATM    6  O9  UNL     1     -32.860  16.394  -4.892  1.00 20.00    -0.268 OA
ENDROOT
BRANCH   1   7
HETATM    7  C1  UNL     1     -33.592  15.888  -2.721  1.00 20.00     0.070 C 
HETATM    8  C2  UNL     1     -34.595  16.521  -2.098  1.00 20.00    -0.026 C 
HETATM    9  C6  UNL     1     -34.641  16.746  -0.622  1.00 20.00     0.036 C 
ENDBRANCH   1   7
TORSDOF 1
ENDMDL
MODEL 3
REMARK VINA RESULT:      -4.0     11.357     12.245
REMARK  1 active torsions:
REMARK  status: ('A' for Active; 'I' for Inactive)
REMARK    1  A    between atoms: C1_1  and  C3_3 
REMARK       I    between atoms: C3_3  and  N8_8 
ROOT
HETATM    1  C3  UNL     1     -34.253  14.282  -4.202  1.00 20.00     0.243 C 
HETATM    2  C4  UNL     1     -33.786  16.820  -3.957  1.00 20.00     0.151 A 
HETATM    3  C5  UNL     1     -33.687  16.139  -2.520  1.00 20.00     0.101 A 
HETATM    4  C7  UNL     1     -34.738  16.368  -1.499  1.00 20.00     0.034 C 
HETATM    5  N8  UNL     1     -33.986  15.489  -3.690  1.00 20.00    -0.341 N 
HETATM    6  O9  UNL     1     -34.361  13.244  -3.557  1.00 20.00    -0.268 OA
ENDROOT
BRANCH   1   7
HETATM    7  C1  UNL     1     -34.420  14.269  -5.666  1.00 20.00     0.070 C 
HETATM    8  C2  UNL     1     -35.576  14.558  -6.280  1.00 20.00    -0.026 C 
HETATM    9  C6  UNL     1     -35.752  14.542  -7.763  1.00 20.00     0.036 C 
ENDBRANCH   1   7
TORSDOF 1
ENDMDL
MODEL 4
REMARK VINA RESULT:      -4.0     11.446     12.442
REMARK  1 active torsions:
REMARK  status: ('A' for Active; 'I' for Inactive)
REMARK    1  A    between atoms: C1_1  and  C3_3 
REMARK       I    between atoms: C3_3  and  N8_8 
ROOT
HETATM    1  C3  UNL     1     -34.357  14.928  -3.555  1.00 20.00     0.243 C 
HETATM    2  C4  UNL     1     -35.297  16.656  -5.243  1.00 20.00     0.151 A 
HETATM    3  C5  UNL     1     -35.511  15.192  -5.834  1.00 20.00     0.101 A 
HETATM    4  C7  UNL     1     -34.700  14.712  -6.979  1.00 20.00     0.034 C 
HETATM    5  N8  UNL     1     -34.913  15.486  -4.636  1.00 20.00    -0.341 N 
HETATM    6  O9  UNL     1     -34.177  13.725  -3.389  1.00 20.00    -0.268 OA
ENDROOT
BRANCH   1   7
HETATM    7  C1  UNL     1     -33.950  15.891  -2.516  1.00 20.00     0.070 C 
HETATM    8  C2  UNL     1     -34.739  16.255  -1.496  1.00 20.00    -0.026 C 
HETATM    9  C6  UNL     1     -34.332  17.234  -0.444  1.00 20.00     0.036 C 
ENDBRANCH   1   7
TORSDOF 1
ENDMDL
MODEL 5
REMARK VINA RESULT:      -3.9     11.252     11.842
REMARK  1 active torsions:
REMARK  status: ('A' for Active; 'I' for Inactive)
REMARK    1  A    between atoms: C1_1  and  C3_3 
REMARK       I    between atoms: C3_3  and  N8_8 
ROOT
HETATM    1  C3  UNL     1     -34.967  15.990  -2.625  1.00 20.00     0.243 C 
HETATM    2  C4  UNL     1     -32.840  14.921  -3.650  1.00 20.00     0.151 A 
HETATM    3  C5  UNL     1     -34.085  14.583  -4.584  1.00 20.00     0.101 A 
HETATM    4  C7  UNL     1     -34.642  13.209  -4.638  1.00 20.00     0.034 C 
HETATM    5  N8  UNL     1     -34.137  15.307  -3.421  1.00 20.00    -0.341 N 
HETATM    6  O9  UNL     1     -36.179  16.097  -2.786  1.00 20.00    -0.268 OA
ENDROOT
BRANCH   1   7
HETATM    7  C1  UNL     1     -34.309  16.640  -1.478  1.00 20.00     0.070 C 
HETATM    8  C2  UNL     1     -34.979  17.197  -0.460  1.00 20.00    -0.026 C 
HETATM    9  C6  UNL     1     -34.316  17.861   0.703  1.00 20.00     0.036 C 
ENDBRANCH   1   7
TORSDOF 1
ENDMDL
MODEL 6
REMARK VINA RESULT:      -3.8     11.399     11.847
REMARK  1 active torsions:
REMARK  status: ('A' for Active; 'I' for Inactive)
REMARK    1  A    between atoms: C1_1  and  C3_3 
REMARK       I    between atoms: C3_3  and  N8_8 
ROOT
HETATM    1  C3  UNL     1     -34.272  15.722  -2.942  1.00 20.00     0.243 C 
HETATM    2  C4  UNL     1     -36.649  14.894  -3.556  1.00 20.00     0.151 A 
HETATM    3  C5  UNL     1     -35.579  13.988  -4.312  1.00 20.00     0.101 A 
HETATM    4  C7  UNL     1     -35.386  14.108  -5.778  1.00 20.00     0.034 C 
HETATM    5  N8  UNL     1     -35.287  15.042  -3.486  1.00 20.00    -0.341 N 
HETATM    6  O9  UNL     1     -33.081  15.523  -3.166  1.00 20.00    -0.268 OA
ENDROOT
BRANCH   1   7
HETATM    7  C1  UNL     1     -34.685  16.785  -2.008  1.00 20.00     0.070 C 
HETATM    8  C2  UNL     1     -34.721  16.626  -0.678  1.00 20.00    -0.026 C 
HETATM    9  C6  UNL     1     -35.144  17.699   0.272  1.00 20.00     0.036 C 
ENDBRANCH   1   7
TORSDOF 1
ENDMDL
MODEL 7
REMARK VINA RESULT:      -3.7     11.695     12.733
REMARK  1 active torsions:
REMARK  status: ('A' for Active; 'I' for Inactive)
REMARK    1  A    between atoms: C1_1  and  C3_3 
REMARK       I    between atoms: C3_3  and  N8_8 
ROOT
HETATM    1  C3  UNL     1     -33.379  15.855  -4.034  1.00 20.00     0.243 C 
HETATM    2  C4  UNL     1     -34.689  17.946  -3.240  1.00 20.00     0.151 A 
HETATM    3  C5  UNL     1     -33.876  17.352  -2.006  1.00 20.00     0.101 A 
HETATM    4  C7  UNL     1     -34.577  16.655  -0.901  1.00 20.00     0.034 C 
HETATM    5  N8  UNL     1     -33.891  16.830  -3.274  1.00 20.00    -0.341 N 
HETATM    6  O9  UNL     1     -32.633  14.964  -3.639  1.00 20.00    -0.268 OA
ENDROOT
BRANCH   1   7
HETATM    7  C1  UNL     1     -33.784  15.914  -5.449  1.00 20.00     0.070 C 
HETATM    8  C2  UNL     1     -34.401  14.907  -6.083  1.00 20.00    -0.026 C 
HETATM    9  C6  UNL     1     -34.810  14.960  -7.519  1.00 20.00     0.036 C 
ENDBRANCH   1   7
TORSDOF 1
ENDMDL
MODEL 8
REMARK VINA RESULT:      -3.7     11.392     12.401
REMARK  1 active torsions:
REMARK  status: ('A' for Active; 'I' for Inactive)
REMARK    1  A    between atoms: C1_1  and  C3_3 
REMARK       I    between atoms: C3_3  and  N8_8 
ROOT
HETATM    1  C3  UNL     1     -33.901  17.031  -2.218  1.00 20.00     0.243 C 
HETATM    2  C4  UNL     1     -34.171  14.654  -3.217  1.00 20.00     0.151 A 
HETATM    3  C5  UNL     1     -33.360  15.556  -4.250  1.00 20.00     0.101 A 
HETATM    4  C7  UNL     1     -33.990  16.014  -5.512  1.00 20.00     0.034 C 
HETATM    5  N8  UNL     1     -33.848  15.976  -3.040  1.00 20.00    -0.341 N 
HETATM    6  O9  UNL     1     -33.449  18.145  -2.463  1.00 20.00    -0.268 OA
ENDROOT
BRANCH   1   7
HETATM    7  C1  UNL     1     -34.572  16.765  -0.933  1.00 20.00     0.070 C 
HETATM    8  C2  UNL     1     -34.661  17.668   0.053  1.00 20.00    -0.026 C 
HETATM    9  C6  UNL     1     -35.336  17.401   1.359  1.00 20.00     0.036 C 
ENDBRANCH   1   7
TORSDOF 1
ENDMDL
MODEL 9
REMARK VINA RESULT:      -3.6     12.019     12.597
REMARK  1 active torsions:
REMARK  status: ('A' for Active; 'I' for Inactive)
REMARK    1  A    between atoms: C1_1  and  C3_3 
REMARK       I    between atoms: C3_3  and  N8_8 
ROOT
HETATM    1  C3  UNL     1     -32.670  18.798   0.126  1.00 20.00     0.243 C 
HETATM    2  C4  UNL     1     -34.329  18.556   2.103  1.00 20.00     0.151 A 
HETATM    3  C5  UNL     1     -33.003  19.263   2.630  1.00 20.00     0.101 A 
HETATM    4  C7  UNL     1     -32.054  18.536   3.509  1.00 20.00     0.034 C 
HETATM    5  N8  UNL     1     -33.221  18.839   1.345  1.00 20.00    -0.341 N 
HETATM    6  O9  UNL     1     -31.543  19.190  -0.158  1.00 20.00    -0.268 OA
ENDROOT
BRANCH   1   7
HETATM    7  C1  UNL     1     -33.542  18.222  -0.914  1.00 20.00     0.070 C 
HETATM    8  C2  UNL     1     -33.997  16.962  -0.882  1.00 20.00    -0.026 C 
HETATM    9  C6  UNL     1     -34.877  16.374  -1.936  1.00 20.00     0.036 C 
ENDBRANCH   1   7
TORSDOF 1
ENDMDL
