MODEL 1
REMARK VINA RESULT:      -5.7      0.000      0.000
REMARK  2 active torsions:
REMARK  status: ('A' for Active; 'I' for Inactive)
REMARK    1  A    between atoms: C3_3  and  C9_9 
REMARK    2  A    between atoms: C9_9  and  N10_10 
ROOT
HETATM    1  C1  UNL     1     -33.664   6.315   3.930  1.00 20.00     0.040 C 
HETATM    2  C4  UNL     1     -33.023   6.648   5.257  1.00 20.00     0.057 C 
HETATM    3  C5  UNL     1     -34.077   6.610   6.356  1.00 20.00     0.006 C 
HETATM    4  C6  UNL     1     -34.768   5.247   6.457  1.00 20.00     0.004 C 
HETATM    5  C7  UNL     1     -34.849   4.498   5.124  1.00 20.00     0.043 C 
HETATM    6  C8  UNL     1     -34.890   5.435   3.926  1.00 20.00     0.217 C 
HETATM    7  N10 UNL     1     -33.186   6.763   2.816  1.00 20.00    -0.292 NA
HETATM    8  F11 UNL     1     -34.952   4.682   2.794  1.00 20.00    -0.243 F 
ENDROOT
BRANCH   7   9
HETATM    9  C9  UNL     1     -32.003   7.597   2.963  1.00 20.00     0.175 C 
BRANCH   9  10
HETATM   10  C3  UNL     1     -31.822   8.430   1.735  1.00 20.00    -0.015 C 
HETATM   11  C2  UNL     1     -32.474   9.576   1.507  1.00 20.00     0.008 C 
ENDBRANCH   9  10
ENDBRANCH   7   9
TORSDOF 2
ENDMDL
MODEL 2
REMARK VINA RESULT:      -5.4      1.696      2.265
REMARK  2 active torsions:
REMARK  status: ('A' for Active; 'I' for Inactive)
REMARK    1  A    between atoms: C3_3  and  C9_9 
REMARK    2  A    between atoms: C9_9  and  N10_10 
ROOT
HETATM    1  C1  UNL     1     -33.418   6.266   4.554  1.00 20.00     0.040 C 
HETATM    2  C4  UNL     1     -34.433   5.494   3.743  1.00 20.00     0.057 C 
HETATM    3  C5  UNL     1     -34.770   4.191   4.456  1.00 20.00     0.006 C 
HETATM    4  C6  UNL     1     -35.322   4.423   5.866  1.00 20.00     0.004 C 
HETATM    5  C7  UNL     1     -34.781   5.687   6.538  1.00 20.00     0.043 C 
HETATM    6  C8  UNL     1     -33.390   6.063   6.049  1.00 20.00     0.217 C 
HETATM    7  N10 UNL     1     -32.588   7.085   3.996  1.00 20.00    -0.292 NA
HETATM    8  F11 UNL     1     -33.000   7.198   6.692  1.00 20.00    -0.243 F 
ENDROOT
BRANCH   7   9
HETATM    9  C9  UNL     1     -32.724   7.188   2.552  1.00 20.00     0.175 C 
BRANCH   9  10
HETATM   10  C3  UNL     1     -31.901   8.331   2.051  1.00 20.00    -0.015 C 
HETATM   11  C2  UNL     1     -32.292   9.164   1.080  1.00 20.00     0.008 C 
ENDBRANCH   9  10
ENDBRANCH   7   9
TORSDOF 2
ENDMDL
MODEL 3
REMARK VINA RESULT:      -4.7     10.941     11.768
REMARK  2 active torsions:
REMARK  status: ('A' for Active; 'I' for Inactive)
REMARK    1  A    between atoms: C3_3  and  C9_9 
REMARK    2  A    between atoms: C9_9  and  N10_10 
ROOT
HETATM    1  C1  UNL     1     -34.122  15.689  -3.042  1.00 20.00     0.040 C 
HETATM    2  C4  UNL     1     -35.577  15.295  -2.936  1.00 20.00     0.057 C 
HETATM    3  C5  UNL     1     -35.990  14.531  -4.186  1.00 20.00     0.006 C 
HETATM    4  C6  UNL     1     -35.142  13.274  -4.410  1.00 20.00     0.004 C 
HETATM    5  C7  UNL     1     -33.713  13.394  -3.876  1.00 20.00     0.043 C 
HETATM    6  C8  UNL     1     -33.204  14.828  -3.874  1.00 20.00     0.217 C 
HETATM    7  N10 UNL     1     -33.658  16.734  -2.439  1.00 20.00    -0.292 NA
HETATM    8  F11 UNL     1     -31.938  14.834  -3.377  1.00 20.00    -0.243 F 
ENDROOT
BRANCH   7   9
HETATM    9  C9  UNL     1     -34.647  17.473  -1.670  1.00 20.00     0.175 C 
BRANCH   9  10
HETATM   10  C3  UNL     1     -34.253  17.488  -0.228  1.00 20.00    -0.015 C 
HETATM   11  C2  UNL     1     -35.125  17.447   0.785  1.00 20.00     0.008 C 
ENDBRANCH   9  10
ENDBRANCH   7   9
TORSDOF 2
ENDMDL
MODEL 4
REMARK VINA RESULT:      -4.6     11.231     12.513
REMARK  2 active torsions:
REMARK  status: ('A' for Active; 'I' for Inactive)
REMARK    1  A    between atoms: C3_3  and  C9_9 
REMARK    2  A    between atoms: C9_9  and  N10_10 
ROOT
HETATM    1  C1  UNL     1     -34.022  15.495  -4.010  1.00 20.00     0.040 C 
HETATM    2  C4  UNL     1     -34.408  16.509  -5.062  1.00 20.00     0.057 C 
HETATM    3  C5  UNL     1     -34.050  15.973  -6.442  1.00 20.00     0.006 C 
HETATM    4  C6  UNL     1     -34.740  14.640  -6.748  1.00 20.00     0.004 C 
HETATM    5  C7  UNL     1     -35.006  13.785  -5.506  1.00 20.00     0.043 C 
HETATM    6  C8  UNL     1     -33.999  14.036  -4.394  1.00 20.00     0.217 C 
HETATM    7  N10 UNL     1     -33.719  15.852  -2.805  1.00 20.00    -0.292 NA
HETATM    8  F11 UNL     1     -34.321  13.243  -3.336  1.00 20.00    -0.243 F 
ENDROOT
BRANCH   7   9
HETATM    9  C9  UNL     1     -33.784  17.286  -2.569  1.00 20.00     0.175 C 
BRANCH   9  10
HETATM   10  C3  UNL     1     -33.837  17.550  -1.098  1.00 20.00    -0.015 C 
HETATM   11  C2  UNL     1     -34.729  16.994  -0.271  1.00 20.00     0.008 C 
ENDBRANCH   9  10
ENDBRANCH   7   9
TORSDOF 2
ENDMDL
MODEL 5
REMARK VINA RESULT:      -4.4     11.109     11.896
REMARK  2 active torsions:
REMARK  status: ('A' for Active; 'I' for Inactive)
REMARK    1  A    between atoms: C3_3  and  C9_9 
REMARK    2  A    between atoms: C9_9  and  N10_10 
ROOT
HETATM    1  C1  UNL     1     -34.859  15.661  -3.085  1.00 20.00     0.040 C 
HETATM    2  C4  UNL     1     -33.464  15.238  -3.480  1.00 20.00     0.057 C 
HETATM    3  C5  UNL     1     -33.439  13.737  -3.734  1.00 20.00     0.006 C 
HETATM    4  C6  UNL     1     -34.425  13.313  -4.828  1.00 20.00     0.004 C 
HETATM    5  C7  UNL     1     -35.662  14.208  -4.922  1.00 20.00     0.043 C 
HETATM    6  C8  UNL     1     -36.026  14.849  -3.591  1.00 20.00     0.217 C 
HETATM    7  N10 UNL     1     -35.066  16.694  -2.335  1.00 20.00    -0.292 NA
HETATM    8  F11 UNL     1     -37.126  15.629  -3.775  1.00 20.00    -0.243 F 
ENDROOT
BRANCH   7   9
HETATM    9  C9  UNL     1     -33.857  17.387  -1.920  1.00 20.00     0.175 C 
BRANCH   9  10
HETATM   10  C3  UNL     1     -33.892  17.617  -0.443  1.00 20.00    -0.015 C 
HETATM   11  C2  UNL     1     -34.941  17.325   0.333  1.00 20.00     0.008 C 
ENDBRANCH   9  10
ENDBRANCH   7   9
TORSDOF 2
ENDMDL
MODEL 6
REMARK VINA RESULT:      -4.4     10.270     11.120
REMARK  2 active torsions:
REMARK  status: ('A' for Active; 'I' for Inactive)
REMARK    1  A    between atoms: C3_3  and  C9_9 
REMARK    2  A    between atoms: C9_9  and  N10_10 
ROOT
HETATM    1  C1  UNL     1     -42.549   6.104  -2.770  1.00 20.00     0.040 C 
HETATM    2  C4  UNL     1     -41.493   6.835  -1.974  1.00 20.00     0.057 C 
HETATM    3  C5  UNL     1     -41.231   6.091  -0.671  1.00 20.00     0.006 C 
HETATM    4  C6  UNL     1     -40.779   4.646  -0.903  1.00 20.00     0.004 C 
HETATM    5  C7  UNL     1     -41.343   4.023  -2.181  1.00 20.00     0.043 C 
HETATM    6  C8  UNL     1     -42.688   4.613  -2.579  1.00 20.00     0.217 C 
HETATM    7  N10 UNL     1     -43.321   6.725  -3.600  1.00 20.00    -0.292 NA
HETATM    8  F11 UNL     1     -43.102   4.007  -3.725  1.00 20.00    -0.243 F 
ENDROOT
BRANCH   7   9
HETATM    9  C9  UNL     1     -43.080   8.156  -3.689  1.00 20.00     0.175 C 
BRANCH   9  10
HETATM   10  C3  UNL     1     -42.725   8.519  -5.095  1.00 20.00    -0.015 C 
HETATM   11  C2  UNL     1     -41.816   9.444  -5.422  1.00 20.00     0.008 C 
ENDBRANCH   9  10
ENDBRANCH   7   9
TORSDOF 2
ENDMDL
MODEL 7
REMARK VINA RESULT:      -4.3      9.443     10.930
REMARK  2 active torsions:
REMARK  status: ('A' for Active; 'I' for Inactive)
REMARK    1  A    between atoms: C3_3  and  C9_9 
REMARK    2  A    between atoms: C9_9  and  N10_10 
ROOT
HETATM    1  C1  UNL     1     -42.365   4.700  -1.357  1.00 20.00     0.040 C 
HETATM    2  C4  UNL     1     -42.146   5.650  -2.511  1.00 20.00     0.057 C 
HETATM    3  C5  UNL     1     -42.186   7.085  -2.005  1.00 20.00     0.006 C 
HETATM    4  C6  UNL     1     -41.134   7.353  -0.925  1.00 20.00     0.004 C 
HETATM    5  C7  UNL     1     -40.794   6.124  -0.079  1.00 20.00     0.043 C 
HETATM    6  C8  UNL     1     -41.953   5.144   0.025  1.00 20.00     0.217 C 
HETATM    7  N10 UNL     1     -42.890   3.532  -1.531  1.00 20.00    -0.292 NA
HETATM    8  F11 UNL     1     -41.554   4.086   0.783  1.00 20.00    -0.243 F 
ENDROOT
BRANCH   7   9
HETATM    9  C9  UNL     1     -43.239   3.230  -2.911  1.00 20.00     0.175 C 
BRANCH   9  10
HETATM   10  C3  UNL     1     -42.550   1.975  -3.339  1.00 20.00    -0.015 C 
HETATM   11  C2  UNL     1     -41.283   1.926  -3.766  1.00 20.00     0.008 C 
ENDBRANCH   9  10
ENDBRANCH   7   9
TORSDOF 2
ENDMDL
MODEL 8
REMARK VINA RESULT:      -4.3     11.370     13.080
REMARK  2 active torsions:
REMARK  status: ('A' for Active; 'I' for Inactive)
REMARK    1  A    between atoms: C3_3  and  C9_9 
REMARK    2  A    between atoms: C9_9  and  N10_10 
ROOT
HETATM    1  C1  UNL     1     -34.987  15.287  -4.730  1.00 20.00     0.040 C 
HETATM    2  C4  UNL     1     -35.197  16.694  -5.240  1.00 20.00     0.057 C 
HETATM    3  C5  UNL     1     -34.354  16.914  -6.489  1.00 20.00     0.006 C 
HETATM    4  C6  UNL     1     -34.690  15.917  -7.603  1.00 20.00     0.004 C 
HETATM    5  C7  UNL     1     -35.175  14.560  -7.089  1.00 20.00     0.043 C 
HETATM    6  C8  UNL     1     -34.608  14.214  -5.721  1.00 20.00     0.217 C 
HETATM    7  N10 UNL     1     -35.127  14.993  -3.479  1.00 20.00    -0.292 NA
HETATM    8  F11 UNL     1     -35.101  13.002  -5.345  1.00 20.00    -0.243 F 
ENDROOT
BRANCH   7   9
HETATM    9  C9  UNL     1     -35.496  16.118  -2.635  1.00 20.00     0.175 C 
BRANCH   9  10
HETATM   10  C3  UNL     1     -34.510  16.252  -1.519  1.00 20.00    -0.015 C 
HETATM   11  C2  UNL     1     -34.724  16.978  -0.416  1.00 20.00     0.008 C 
ENDBRANCH   9  10
ENDBRANCH   7   9
TORSDOF 2
ENDMDL
MODEL 9
REMARK VINA RESULT:      -4.3     11.111     12.223
REMARK  2 active torsions:
REMARK  status: ('A' for Active; 'I' for Inactive)
REMARK    1  A    between atoms: C3_3  and  C9_9 
REMARK    2  A    between atoms: C9_9  and  N10_10 
ROOT
HETATM    1  C1  UNL     1     -36.154  14.600  -3.668  1.00 20.00     0.040 C 
HETATM    2  C4  UNL     1     -36.000  15.976  -3.063  1.00 20.00     0.057 C 
HETATM    3  C5  UNL     1     -34.741  16.019  -2.208  1.00 20.00     0.006 C 
HETATM    4  C6  UNL     1     -33.480  15.675  -3.007  1.00 20.00     0.004 C 
HETATM    5  C7  UNL     1     -33.731  14.708  -4.167  1.00 20.00     0.043 C 
HETATM    6  C8  UNL     1     -34.910  13.781  -3.914  1.00 20.00     0.217 C 
HETATM    7  N10 UNL     1     -37.315  14.121  -3.975  1.00 20.00    -0.292 NA
HETATM    8  F11 UNL     1     -35.061  12.971  -4.997  1.00 20.00    -0.243 F 
ENDROOT
BRANCH   7   9
HETATM    9  C9  UNL     1     -38.427  15.013  -3.688  1.00 20.00     0.175 C 
BRANCH   9  10
HETATM   10  C3  UNL     1     -39.606  14.628  -4.523  1.00 20.00    -0.015 C 
HETATM   11  C2  UNL     1     -39.736  14.934  -5.819  1.00 20.00     0.008 C 
ENDBRANCH   9  10
ENDBRANCH   7   9
TORSDOF 2
ENDMDL
