MODEL 1
REMARK VINA RESULT:      -3.5      0.000      0.000
REMARK  1 active torsions:
REMARK  status: ('A' for Active; 'I' for Inactive)
REMARK    1  A    between atoms: C1_1  and  C3_3 
ROOT
HETATM    1  C2  UNL     1     -32.811  14.821  -3.646  1.00 20.00     0.103 A 
HETATM    2  C3  UNL     1     -34.285  15.045  -3.413  1.00 20.00     0.073 A 
HETATM    3  C5  UNL     1     -34.687  15.824  -2.190  1.00 20.00     0.036 C 
HETATM    4  S7  UNL     1     -33.541  15.975  -4.689  1.00 20.00    -0.149 SA
ENDROOT
BRANCH   2   5
HETATM    5  C1  UNL     1     -35.216  14.005  -3.900  1.00 20.00     0.142 C 
HETATM    6  C4  UNL     1     -36.649  14.418  -4.097  1.00 20.00     0.092 C 
HETATM    7  O6  UNL     1     -34.836  12.859  -4.136  1.00 20.00    -0.297 OA
ENDBRANCH   2   5
TORSDOF 1
ENDMDL
MODEL 2
REMARK VINA RESULT:      -3.4     12.108     12.356
REMARK  1 active torsions:
REMARK  status: ('A' for Active; 'I' for Inactive)
REMARK    1  A    between atoms: C1_1  and  C3_3 
ROOT
HETATM    1  C2  UNL     1     -33.516   7.335   3.669  1.00 20.00     0.103 A 
HETATM    2  C3  UNL     1     -34.176   6.071   4.162  1.00 20.00     0.073 A 
HETATM    3  C5  UNL     1     -35.330   5.530   3.361  1.00 20.00     0.036 C 
HETATM    4  S7  UNL     1     -32.602   5.899   3.427  1.00 20.00    -0.149 SA
ENDROOT
BRANCH   2   5
HETATM    5  C1  UNL     1     -34.181   5.830   5.620  1.00 20.00     0.142 C 
HETATM    6  C4  UNL     1     -34.690   4.493   6.084  1.00 20.00     0.092 C 
HETATM    7  O6  UNL     1     -33.784   6.681   6.416  1.00 20.00    -0.297 OA
ENDBRANCH   2   5
TORSDOF 1
ENDMDL
MODEL 3
REMARK VINA RESULT:      -3.3      1.569      1.963
REMARK  1 active torsions:
REMARK  status: ('A' for Active; 'I' for Inactive)
REMARK    1  A    between atoms: C1_1  and  C3_3 
ROOT
HETATM    1  C2  UNL     1     -34.215  16.221  -4.335  1.00 20.00     0.103 A 
HETATM    2  C3  UNL     1     -33.963  14.763  -4.038  1.00 20.00     0.073 A 
HETATM    3  C5  UNL     1     -32.594  14.382  -3.540  1.00 20.00     0.036 C 
HETATM    4  S7  UNL     1     -34.963  15.634  -2.902  1.00 20.00    -0.149 SA
ENDROOT
BRANCH   2   5
HETATM    5  C1  UNL     1     -34.702  13.767  -4.841  1.00 20.00     0.142 C 
HETATM    6  C4  UNL     1     -35.095  14.178  -6.234  1.00 20.00     0.092 C 
HETATM    7  O6  UNL     1     -34.980  12.655  -4.393  1.00 20.00    -0.297 OA
ENDBRANCH   2   5
TORSDOF 1
ENDMDL
MODEL 4
REMARK VINA RESULT:      -3.3      1.779      2.484
REMARK  1 active torsions:
REMARK  status: ('A' for Active; 'I' for Inactive)
REMARK    1  A    between atoms: C1_1  and  C3_3 
ROOT
HETATM    1  C2  UNL     1     -34.096  15.844  -5.770  1.00 20.00     0.103 A 
HETATM    2  C3  UNL     1     -35.071  14.813  -5.258  1.00 20.00     0.073 A 
HETATM    3  C5  UNL     1     -36.455  15.283  -4.896  1.00 20.00     0.036 C 
HETATM    4  S7  UNL     1     -34.712  14.773  -6.966  1.00 20.00    -0.149 SA
ENDROOT
BRANCH   2   5
HETATM    5  C1  UNL     1     -34.518  13.667  -4.507  1.00 20.00     0.142 C 
HETATM    6  C4  UNL     1     -33.257  13.917  -3.724  1.00 20.00     0.092 C 
HETATM    7  O6  UNL     1     -35.063  12.564  -4.518  1.00 20.00    -0.297 OA
ENDBRANCH   2   5
TORSDOF 1
ENDMDL
MODEL 5
REMARK VINA RESULT:      -3.3     12.231     12.506
REMARK  1 active torsions:
REMARK  status: ('A' for Active; 'I' for Inactive)
REMARK    1  A    between atoms: C1_1  and  C3_3 
ROOT
HETATM    1  C2  UNL     1     -35.632   5.019   4.782  1.00 20.00     0.103 A 
HETATM    2  C3  UNL     1     -34.249   5.620   4.854  1.00 20.00     0.073 A 
HETATM    3  C5  UNL     1     -33.953   6.549   6.001  1.00 20.00     0.036 C 
HETATM    4  S7  UNL     1     -34.394   3.931   5.271  1.00 20.00    -0.149 SA
ENDROOT
BRANCH   2   5
HETATM    5  C1  UNL     1     -33.545   5.860   3.577  1.00 20.00     0.142 C 
HETATM    6  C4  UNL     1     -32.321   6.732   3.634  1.00 20.00     0.092 C 
HETATM    7  O6  UNL     1     -33.938   5.367   2.521  1.00 20.00    -0.297 OA
ENDBRANCH   2   5
TORSDOF 1
ENDMDL
MODEL 6
REMARK VINA RESULT:      -3.2      1.978      2.436
REMARK  1 active torsions:
REMARK  status: ('A' for Active; 'I' for Inactive)
REMARK    1  A    between atoms: C1_1  and  C3_3 
ROOT
HETATM    1  C2  UNL     1     -36.257  16.111  -4.637  1.00 20.00     0.103 A 
HETATM    2  C3  UNL     1     -35.533  14.959  -3.987  1.00 20.00     0.073 A 
HETATM    3  C5  UNL     1     -34.648  15.268  -2.809  1.00 20.00     0.036 C 
HETATM    4  S7  UNL     1     -37.249  15.075  -3.691  1.00 20.00    -0.149 SA
ENDROOT
BRANCH   2   5
HETATM    5  C1  UNL     1     -35.153  13.820  -4.849  1.00 20.00     0.142 C 
HETATM    6  C4  UNL     1     -34.972  14.111  -6.313  1.00 20.00     0.092 C 
HETATM    7  O6  UNL     1     -34.989  12.690  -4.390  1.00 20.00    -0.297 OA
ENDBRANCH   2   5
TORSDOF 1
ENDMDL
MODEL 7
REMARK VINA RESULT:      -3.1      1.673      2.293
REMARK  1 active torsions:
REMARK  status: ('A' for Active; 'I' for Inactive)
REMARK    1  A    between atoms: C1_1  and  C3_3 
ROOT
HETATM    1  C2  UNL     1     -34.936  16.460  -4.971  1.00 20.00     0.103 A 
HETATM    2  C3  UNL     1     -34.713  15.028  -5.393  1.00 20.00     0.073 A 
HETATM    3  C5  UNL     1     -34.452  14.765  -6.852  1.00 20.00     0.036 C 
HETATM    4  S7  UNL     1     -33.413  15.801  -4.521  1.00 20.00    -0.149 SA
ENDROOT
BRANCH   2   5
HETATM    5  C1  UNL     1     -35.405  13.976  -4.620  1.00 20.00     0.142 C 
HETATM    6  C4  UNL     1     -36.693  14.366  -3.946  1.00 20.00     0.092 C 
HETATM    7  O6  UNL     1     -34.952  12.835  -4.534  1.00 20.00    -0.297 OA
ENDBRANCH   2   5
TORSDOF 1
ENDMDL
MODEL 8
REMARK VINA RESULT:      -3.1      0.859      2.086
REMARK  1 active torsions:
REMARK  status: ('A' for Active; 'I' for Inactive)
REMARK    1  A    between atoms: C1_1  and  C3_3 
ROOT
HETATM    1  C2  UNL     1     -34.687  15.768  -2.491  1.00 20.00     0.103 A 
HETATM    2  C3  UNL     1     -35.272  14.869  -3.551  1.00 20.00     0.073 A 
HETATM    3  C5  UNL     1     -36.772  14.809  -3.663  1.00 20.00     0.036 C 
HETATM    4  S7  UNL     1     -34.535  16.353  -4.100  1.00 20.00    -0.149 SA
ENDROOT
BRANCH   2   5
HETATM    5  C1  UNL     1     -34.509  13.656  -3.912  1.00 20.00     0.142 C 
HETATM    6  C4  UNL     1     -33.042  13.655  -3.578  1.00 20.00     0.092 C 
HETATM    7  O6  UNL     1     -35.048  12.693  -4.457  1.00 20.00    -0.297 OA
ENDBRANCH   2   5
TORSDOF 1
ENDMDL
MODEL 9
REMARK VINA RESULT:      -3.1      1.773      2.933
REMARK  1 active torsions:
REMARK  status: ('A' for Active; 'I' for Inactive)
REMARK    1  A    between atoms: C1_1  and  C3_3 
ROOT
HETATM    1  C2  UNL     1     -36.664  15.136  -3.470  1.00 20.00     0.103 A 
HETATM    2  C3  UNL     1     -35.231  14.768  -3.765  1.00 20.00     0.073 A 
HETATM    3  C5  UNL     1     -34.951  13.355  -4.204  1.00 20.00     0.036 C 
HETATM    4  S7  UNL     1     -36.040  15.776  -4.938  1.00 20.00    -0.149 SA
ENDROOT
BRANCH   2   5
HETATM    5  C1  UNL     1     -34.177  15.470  -3.003  1.00 20.00     0.142 C 
HETATM    6  C4  UNL     1     -34.608  16.177  -1.747  1.00 20.00     0.092 C 
HETATM    7  O6  UNL     1     -33.005  15.473  -3.376  1.00 20.00    -0.297 OA
ENDBRANCH   2   5
TORSDOF 1
ENDMDL
