MODEL 1
REMARK VINA RESULT:      -4.3      0.000      0.000
REMARK  1 active torsions:
REMARK  status: ('A' for Active; 'I' for Inactive)
REMARK    1  A    between atoms: C1_1  and  C2_2 
ROOT
HETATM    1  C2  UNL     1     -34.830   6.337   4.835  1.00 20.00     0.154 A 
HETATM    2  C3  UNL     1     -35.329   4.922   5.074  1.00 20.00     0.073 A 
HETATM    3  C4  UNL     1     -35.189   5.450   3.692  1.00 20.00     0.259 A 
HETATM    4  C5  UNL     1     -34.431   3.833   5.554  1.00 20.00     0.017 C 
HETATM    5  F7  UNL     1     -36.306   5.714   2.931  1.00 20.00    -0.205 F 
HETATM    6  F8  UNL     1     -34.221   4.965   2.840  1.00 20.00    -0.205 F 
ENDROOT
BRANCH   1   7
HETATM    7  C1  UNL     1     -33.425   6.685   5.073  1.00 20.00     0.229 C 
HETATM    8  O6  UNL     1     -32.588   6.638   4.177  1.00 20.00    -0.279 OA
HETATM    9 CL9  UNL     1     -33.136   7.149   6.722  1.00 20.00    -0.043 Cl
ENDBRANCH   1   7
TORSDOF 1
ENDMDL
MODEL 2
REMARK VINA RESULT:      -4.2      1.635      1.786
REMARK  1 active torsions:
REMARK  status: ('A' for Active; 'I' for Inactive)
REMARK    1  A    between atoms: C1_1  and  C2_2 
ROOT
HETATM    1  C2  UNL     1     -34.001   6.673   3.732  1.00 20.00     0.154 A 
HETATM    2  C3  UNL     1     -34.592   6.374   5.100  1.00 20.00     0.073 A 
HETATM    3  C4  UNL     1     -34.991   5.574   3.913  1.00 20.00     0.259 A 
HETATM    4  C5  UNL     1     -33.792   5.747   6.190  1.00 20.00     0.017 C 
HETATM    5  F7  UNL     1     -36.260   5.689   3.391  1.00 20.00    -0.205 F 
HETATM    6  F8  UNL     1     -34.616   4.255   3.785  1.00 20.00    -0.205 F 
ENDROOT
BRANCH   1   7
HETATM    7  C1  UNL     1     -32.602   6.352   3.435  1.00 20.00     0.229 C 
HETATM    8  O6  UNL     1     -32.282   5.291   2.905  1.00 20.00    -0.279 OA
HETATM    9 CL9  UNL     1     -31.520   7.624   3.916  1.00 20.00    -0.043 Cl
ENDBRANCH   1   7
TORSDOF 1
ENDMDL
MODEL 3
REMARK VINA RESULT:      -4.1     12.195     12.746
REMARK  1 active torsions:
REMARK  status: ('A' for Active; 'I' for Inactive)
REMARK    1  A    between atoms: C1_1  and  C2_2 
ROOT
HETATM    1  C2  UNL     1     -34.605  14.822  -3.351  1.00 20.00     0.154 A 
HETATM    2  C3  UNL     1     -33.650  15.291  -4.436  1.00 20.00     0.073 A 
HETATM    3  C4  UNL     1     -33.778  13.845  -4.115  1.00 20.00     0.259 A 
HETATM    4  C5  UNL     1     -34.132  15.812  -5.746  1.00 20.00     0.017 C 
HETATM    5  F7  UNL     1     -32.745  13.175  -3.498  1.00 20.00    -0.205 F 
HETATM    6  F8  UNL     1     -34.359  12.969  -5.004  1.00 20.00    -0.205 F 
ENDROOT
BRANCH   1   7
HETATM    7  C1  UNL     1     -36.055  14.868  -3.558  1.00 20.00     0.229 C 
HETATM    8  O6  UNL     1     -36.694  13.868  -3.872  1.00 20.00    -0.279 OA
HETATM    9 CL9  UNL     1     -36.702  16.462  -3.309  1.00 20.00    -0.043 Cl
ENDBRANCH   1   7
TORSDOF 1
ENDMDL
MODEL 4
REMARK VINA RESULT:      -4.0      9.030      9.660
REMARK  1 active torsions:
REMARK  status: ('A' for Active; 'I' for Inactive)
REMARK    1  A    between atoms: C1_1  and  C2_2 
ROOT
HETATM    1  C2  UNL     1     -41.005   4.723  -0.969  1.00 20.00     0.154 A 
HETATM    2  C3  UNL     1     -41.705   4.555   0.369  1.00 20.00     0.073 A 
HETATM    3  C4  UNL     1     -41.200   5.886  -0.057  1.00 20.00     0.259 A 
HETATM    4  C5  UNL     1     -43.171   4.308   0.471  1.00 20.00     0.017 C 
HETATM    5  F7  UNL     1     -40.122   6.458   0.581  1.00 20.00    -0.205 F 
HETATM    6  F8  UNL     1     -42.068   6.904  -0.383  1.00 20.00    -0.205 F 
ENDROOT
BRANCH   1   7
HETATM    7  C1  UNL     1     -41.759   4.648  -2.224  1.00 20.00     0.229 C 
HETATM    8  O6  UNL     1     -42.227   5.649  -2.757  1.00 20.00    -0.279 OA
HETATM    9 CL9  UNL     1     -41.887   3.018  -2.814  1.00 20.00    -0.043 Cl
ENDBRANCH   1   7
TORSDOF 1
ENDMDL
MODEL 5
REMARK VINA RESULT:      -4.0     12.321     12.876
REMARK  1 active torsions:
REMARK  status: ('A' for Active; 'I' for Inactive)
REMARK    1  A    between atoms: C1_1  and  C2_2 
ROOT
HETATM    1  C2  UNL     1     -34.461  14.111  -3.410  1.00 20.00     0.154 A 
HETATM    2  C3  UNL     1     -34.225  15.406  -2.652  1.00 20.00     0.073 A 
HETATM    3  C4  UNL     1     -33.327  15.010  -3.768  1.00 20.00     0.259 A 
HETATM    4  C5  UNL     1     -35.124  16.586  -2.797  1.00 20.00     0.017 C 
HETATM    5  F7  UNL     1     -32.030  14.627  -3.515  1.00 20.00    -0.205 F 
HETATM    6  F8  UNL     1     -33.323  15.705  -4.957  1.00 20.00    -0.205 F 
ENDROOT
BRANCH   1   7
HETATM    7  C1  UNL     1     -35.600  13.975  -4.324  1.00 20.00     0.229 C 
HETATM    8  O6  UNL     1     -36.753  13.903  -3.911  1.00 20.00    -0.279 OA
HETATM    9 CL9  UNL     1     -35.102  13.935  -5.989  1.00 20.00    -0.043 Cl
ENDBRANCH   1   7
TORSDOF 1
ENDMDL
MODEL 6
REMARK VINA RESULT:      -4.0     12.680     13.234
REMARK  1 active torsions:
REMARK  status: ('A' for Active; 'I' for Inactive)
REMARK    1  A    between atoms: C1_1  and  C2_2 
ROOT
HETATM    1  C2  UNL     1     -34.895  14.989  -4.015  1.00 20.00     0.154 A 
HETATM    2  C3  UNL     1     -34.318  16.375  -4.249  1.00 20.00     0.073 A 
HETATM    3  C4  UNL     1     -33.838  15.538  -3.119  1.00 20.00     0.259 A 
HETATM    4  C5  UNL     1     -33.413  16.674  -5.395  1.00 20.00     0.017 C 
HETATM    5  F7  UNL     1     -34.139  15.884  -1.820  1.00 20.00    -0.205 F 
HETATM    6  F8  UNL     1     -32.567  15.008  -3.116  1.00 20.00    -0.205 F 
ENDROOT
BRANCH   1   7
HETATM    7  C1  UNL     1     -34.578  13.882  -4.923  1.00 20.00     0.229 C 
HETATM    8  O6  UNL     1     -33.889  12.931  -4.565  1.00 20.00    -0.279 OA
HETATM    9 CL9  UNL     1     -35.281  14.103  -6.497  1.00 20.00    -0.043 Cl
ENDBRANCH   1   7
TORSDOF 1
ENDMDL
MODEL 7
REMARK VINA RESULT:      -4.0      2.315      2.740
REMARK  1 active torsions:
REMARK  status: ('A' for Active; 'I' for Inactive)
REMARK    1  A    between atoms: C1_1  and  C2_2 
ROOT
HETATM    1  C2  UNL     1     -33.728   5.094   4.410  1.00 20.00     0.154 A 
HETATM    2  C3  UNL     1     -35.175   4.886   3.994  1.00 20.00     0.073 A 
HETATM    3  C4  UNL     1     -34.765   4.717   5.412  1.00 20.00     0.259 A 
HETATM    4  C5  UNL     1     -36.059   6.019   3.600  1.00 20.00     0.017 C 
HETATM    5  F7  UNL     1     -34.752   3.467   5.989  1.00 20.00    -0.205 F 
HETATM    6  F8  UNL     1     -35.172   5.608   6.380  1.00 20.00    -0.205 F 
ENDROOT
BRANCH   1   7
HETATM    7  C1  UNL     1     -33.143   6.439   4.438  1.00 20.00     0.229 C 
HETATM    8  O6  UNL     1     -33.077   7.092   5.475  1.00 20.00    -0.279 OA
HETATM    9 CL9  UNL     1     -32.589   6.944   2.871  1.00 20.00    -0.043 Cl
ENDBRANCH   1   7
TORSDOF 1
ENDMDL
MODEL 8
REMARK VINA RESULT:      -4.0     12.728     13.226
REMARK  1 active torsions:
REMARK  status: ('A' for Active; 'I' for Inactive)
REMARK    1  A    between atoms: C1_1  and  C2_2 
ROOT
HETATM    1  C2  UNL     1     -34.406  13.908  -5.094  1.00 20.00     0.154 A 
HETATM    2  C3  UNL     1     -34.946  14.066  -3.682  1.00 20.00     0.073 A 
HETATM    3  C4  UNL     1     -33.491  14.199  -3.954  1.00 20.00     0.259 A 
HETATM    4  C5  UNL     1     -35.741  15.254  -3.264  1.00 20.00     0.017 C 
HETATM    5  F7  UNL     1     -32.609  13.240  -3.509  1.00 20.00    -0.205 F 
HETATM    6  F8  UNL     1     -32.857  15.417  -3.848  1.00 20.00    -0.205 F 
ENDROOT
BRANCH   1   7
HETATM    7  C1  UNL     1     -34.655  14.936  -6.110  1.00 20.00     0.229 C 
HETATM    8  O6  UNL     1     -33.795  15.753  -6.424  1.00 20.00    -0.279 OA
HETATM    9 CL9  UNL     1     -36.260  14.833  -6.767  1.00 20.00    -0.043 Cl
ENDBRANCH   1   7
TORSDOF 1
ENDMDL
MODEL 9
REMARK VINA RESULT:      -3.9     12.829     13.269
REMARK  1 active torsions:
REMARK  status: ('A' for Active; 'I' for Inactive)
REMARK    1  A    between atoms: C1_1  and  C2_2 
ROOT
HETATM    1  C2  UNL     1     -34.416  15.190  -4.556  1.00 20.00     0.154 A 
HETATM    2  C3  UNL     1     -34.624  14.911  -3.077  1.00 20.00     0.073 A 
HETATM    3  C4  UNL     1     -33.401  14.432  -3.771  1.00 20.00     0.259 A 
HETATM    4  C5  UNL     1     -34.530  15.982  -2.045  1.00 20.00     0.017 C 
HETATM    5  F7  UNL     1     -33.209  13.087  -3.997  1.00 20.00    -0.205 F 
HETATM    6  F8  UNL     1     -32.167  14.978  -3.493  1.00 20.00    -0.205 F 
ENDROOT
BRANCH   1   7
HETATM    7  C1  UNL     1     -34.110  16.545  -5.026  1.00 20.00     0.229 C 
HETATM    8  O6  UNL     1     -32.958  16.907  -5.246  1.00 20.00    -0.279 OA
HETATM    9 CL9  UNL     1     -35.542  17.511  -5.215  1.00 20.00    -0.043 Cl
ENDBRANCH   1   7
TORSDOF 1
ENDMDL
