MODEL 1
REMARK VINA RESULT:      -4.1      0.000      0.000
REMARK  1 active torsions:
REMARK  status: ('A' for Active; 'I' for Inactive)
REMARK    1  A    between atoms: C1_1  and  C4_4 
ROOT
HETATM    1  C2  UNL     1     -34.288  15.366  -2.718  1.00 20.00     0.038 C 
HETATM    2  C3  UNL     1     -33.169  15.991  -4.430  1.00 20.00     0.038 C 
HETATM    3  C4  UNL     1     -33.606  14.612  -3.884  1.00 20.00     0.076 C 
HETATM    4  C5  UNL     1     -34.298  16.650  -3.591  1.00 20.00     0.035 C 
HETATM    5  C6  UNL     1     -33.841  17.897  -2.838  1.00 20.00     0.032 C 
HETATM    6 CL9  UNL     1     -35.834  16.972  -4.477  1.00 20.00    -0.120 Cl
ENDROOT
BRANCH   3   7
HETATM    7  C1  UNL     1     -34.491  13.736  -4.782  1.00 20.00     0.223 C 
HETATM    8  O7  UNL     1     -35.025  12.713  -4.361  1.00 20.00    -0.279 OA
HETATM    9 CL8  UNL     1     -34.618  14.370  -6.394  1.00 20.00    -0.043 Cl
ENDBRANCH   3   7
TORSDOF 1
ENDMDL
MODEL 2
REMARK VINA RESULT:      -4.0      1.792      2.018
REMARK  1 active torsions:
REMARK  status: ('A' for Active; 'I' for Inactive)
REMARK    1  A    between atoms: C1_1  and  C4_4 
ROOT
HETATM    1  C2  UNL     1     -33.439  16.081  -4.623  1.00 20.00     0.038 C 
HETATM    2  C3  UNL     1     -35.560  15.806  -4.609  1.00 20.00     0.038 C 
HETATM    3  C4  UNL     1     -34.371  14.928  -5.063  1.00 20.00     0.076 C 
HETATM    4  C5  UNL     1     -34.581  16.623  -3.722  1.00 20.00     0.035 C 
HETATM    5  C6  UNL     1     -34.778  18.133  -3.836  1.00 20.00     0.032 C 
HETATM    6 CL9  UNL     1     -34.504  16.124  -1.992  1.00 20.00    -0.120 Cl
ENDROOT
BRANCH   3   7
HETATM    7  C1  UNL     1     -34.190  13.564  -4.382  1.00 20.00     0.223 C 
HETATM    8  O7  UNL     1     -35.025  12.670  -4.494  1.00 20.00    -0.279 OA
HETATM    9 CL8  UNL     1     -32.709  13.476  -3.479  1.00 20.00    -0.043 Cl
ENDBRANCH   3   7
TORSDOF 1
ENDMDL
MODEL 3
REMARK VINA RESULT:      -4.0      1.894      2.109
REMARK  1 active torsions:
REMARK  status: ('A' for Active; 'I' for Inactive)
REMARK    1  A    between atoms: C1_1  and  C4_4 
ROOT
HETATM    1  C2  UNL     1     -35.913  15.540  -4.806  1.00 20.00     0.038 C 
HETATM    2  C3  UNL     1     -34.829  15.751  -2.974  1.00 20.00     0.038 C 
HETATM    3  C4  UNL     1     -35.418  14.540  -3.735  1.00 20.00     0.076 C 
HETATM    4  C5  UNL     1     -34.860  16.562  -4.299  1.00 20.00     0.035 C 
HETATM    5  C6  UNL     1     -35.417  17.973  -4.130  1.00 20.00     0.032 C 
HETATM    6 CL9  UNL     1     -33.312  16.598  -5.220  1.00 20.00    -0.120 Cl
ENDROOT
BRANCH   3   7
HETATM    7  C1  UNL     1     -34.450  13.437  -4.182  1.00 20.00     0.223 C 
HETATM    8  O7  UNL     1     -34.807  12.527  -4.926  1.00 20.00    -0.279 OA
HETATM    9 CL8  UNL     1     -32.860  13.653  -3.517  1.00 20.00    -0.043 Cl
ENDBRANCH   3   7
TORSDOF 1
ENDMDL
MODEL 4
REMARK VINA RESULT:      -3.9      2.283      2.837
REMARK  1 active torsions:
REMARK  status: ('A' for Active; 'I' for Inactive)
REMARK    1  A    between atoms: C1_1  and  C4_4 
ROOT
HETATM    1  C2  UNL     1     -34.867  13.635  -3.875  1.00 20.00     0.038 C 
HETATM    2  C3  UNL     1     -34.660  15.489  -4.924  1.00 20.00     0.038 C 
HETATM    3  C4  UNL     1     -35.788  14.436  -4.826  1.00 20.00     0.076 C 
HETATM    4  C5  UNL     1     -34.071  14.939  -3.596  1.00 20.00     0.035 C 
HETATM    5  C6  UNL     1     -32.557  14.745  -3.641  1.00 20.00     0.032 C 
HETATM    6 CL9  UNL     1     -34.550  15.834  -2.107  1.00 20.00    -0.120 Cl
ENDROOT
BRANCH   3   7
HETATM    7  C1  UNL     1     -37.148  14.895  -4.283  1.00 20.00     0.223 C 
HETATM    8  O7  UNL     1     -37.925  14.111  -3.743  1.00 20.00    -0.279 OA
HETATM    9 CL8  UNL     1     -37.413  16.593  -4.531  1.00 20.00    -0.043 Cl
ENDBRANCH   3   7
TORSDOF 1
ENDMDL
MODEL 5
REMARK VINA RESULT:      -3.9     11.799     12.498
REMARK  1 active torsions:
REMARK  status: ('A' for Active; 'I' for Inactive)
REMARK    1  A    between atoms: C1_1  and  C4_4 
ROOT
HETATM    1  C2  UNL     1     -34.492   6.521   3.606  1.00 20.00     0.038 C 
HETATM    2  C3  UNL     1     -32.904   5.179   4.112  1.00 20.00     0.038 C 
HETATM    3  C4  UNL     1     -33.055   6.313   3.072  1.00 20.00     0.076 C 
HETATM    4  C5  UNL     1     -34.077   5.801   4.919  1.00 20.00     0.035 C 
HETATM    5  C6  UNL     1     -35.099   4.770   5.392  1.00 20.00     0.032 C 
HETATM    6 CL9  UNL     1     -33.595   6.884   6.275  1.00 20.00    -0.120 Cl
ENDROOT
BRANCH   3   7
HETATM    7  C1  UNL     1     -32.083   7.497   3.161  1.00 20.00     0.223 C 
HETATM    8  O7  UNL     1     -31.251   7.584   4.061  1.00 20.00    -0.279 OA
HETATM    9 CL8  UNL     1     -32.319   8.636   1.871  1.00 20.00    -0.043 Cl
ENDBRANCH   3   7
TORSDOF 1
ENDMDL
MODEL 6
REMARK VINA RESULT:      -3.9      2.539      3.116
REMARK  1 active torsions:
REMARK  status: ('A' for Active; 'I' for Inactive)
REMARK    1  A    between atoms: C1_1  and  C4_4 
ROOT
HETATM    1  C2  UNL     1     -34.482  14.890  -7.071  1.00 20.00     0.038 C 
HETATM    2  C3  UNL     1     -35.900  16.012  -5.928  1.00 20.00     0.038 C 
HETATM    3  C4  UNL     1     -35.576  14.505  -6.046  1.00 20.00     0.076 C 
HETATM    4  C5  UNL     1     -34.489  16.332  -6.494  1.00 20.00     0.035 C 
HETATM    5  C6  UNL     1     -34.501  17.415  -7.570  1.00 20.00     0.032 C 
HETATM    6 CL9  UNL     1     -33.221  16.677  -5.261  1.00 20.00    -0.120 Cl
ENDROOT
BRANCH   3   7
HETATM    7  C1  UNL     1     -35.134  13.767  -4.776  1.00 20.00     0.223 C 
HETATM    8  O7  UNL     1     -34.658  12.635  -4.819  1.00 20.00    -0.279 OA
HETATM    9 CL8  UNL     1     -35.393  14.716  -3.344  1.00 20.00    -0.043 Cl
ENDBRANCH   3   7
TORSDOF 1
ENDMDL
MODEL 7
REMARK VINA RESULT:      -3.9      1.323      1.645
REMARK  1 active torsions:
REMARK  status: ('A' for Active; 'I' for Inactive)
REMARK    1  A    between atoms: C1_1  and  C4_4 
ROOT
HETATM    1  C2  UNL     1     -35.814  16.281  -4.266  1.00 20.00     0.038 C 
HETATM    2  C3  UNL     1     -34.524  15.400  -2.804  1.00 20.00     0.038 C 
HETATM    3  C4  UNL     1     -35.648  14.846  -3.711  1.00 20.00     0.076 C 
HETATM    4  C5  UNL     1     -34.379  16.609  -3.769  1.00 20.00     0.035 C 
HETATM    5  C6  UNL     1     -34.281  17.950  -3.046  1.00 20.00     0.032 C 
HETATM    6 CL9  UNL     1     -33.079  16.459  -5.006  1.00 20.00    -0.120 Cl
ENDROOT
BRANCH   3   7
HETATM    7  C1  UNL     1     -35.282  13.735  -4.704  1.00 20.00     0.223 C 
HETATM    8  O7  UNL     1     -34.940  12.617  -4.326  1.00 20.00    -0.279 OA
HETATM    9 CL8  UNL     1     -35.414  14.262  -6.354  1.00 20.00    -0.043 Cl
ENDBRANCH   3   7
TORSDOF 1
ENDMDL
MODEL 8
REMARK VINA RESULT:      -3.9      1.484      1.642
REMARK  1 active torsions:
REMARK  status: ('A' for Active; 'I' for Inactive)
REMARK    1  A    between atoms: C1_1  and  C4_4 
ROOT
HETATM    1  C2  UNL     1     -35.513  15.935  -3.861  1.00 20.00     0.038 C 
HETATM    2  C3  UNL     1     -33.743  16.024  -2.662  1.00 20.00     0.038 C 
HETATM    3  C4  UNL     1     -34.665  14.871  -3.125  1.00 20.00     0.076 C 
HETATM    4  C5  UNL     1     -34.289  16.891  -3.830  1.00 20.00     0.035 C 
HETATM    5  C6  UNL     1     -34.644  18.316  -3.410  1.00 20.00     0.032 C 
HETATM    6 CL9  UNL     1     -33.280  16.904  -5.322  1.00 20.00    -0.120 Cl
ENDROOT
BRANCH   3   7
HETATM    7  C1  UNL     1     -34.040  13.750  -3.966  1.00 20.00     0.223 C 
HETATM    8  O7  UNL     1     -33.036  13.148  -3.594  1.00 20.00    -0.279 OA
HETATM    9 CL8  UNL     1     -34.914  13.474  -5.441  1.00 20.00    -0.043 Cl
ENDBRANCH   3   7
TORSDOF 1
ENDMDL
MODEL 9
REMARK VINA RESULT:      -3.9      1.850      2.269
REMARK  1 active torsions:
REMARK  status: ('A' for Active; 'I' for Inactive)
REMARK    1  A    between atoms: C1_1  and  C4_4 
ROOT
HETATM    1  C2  UNL     1     -35.101  16.148  -4.523  1.00 20.00     0.038 C 
HETATM    2  C3  UNL     1     -32.969  16.141  -4.696  1.00 20.00     0.038 C 
HETATM    3  C4  UNL     1     -33.970  15.393  -3.786  1.00 20.00     0.076 C 
HETATM    4  C5  UNL     1     -34.123  16.404  -5.702  1.00 20.00     0.035 C 
HETATM    5  C6  UNL     1     -34.159  17.840  -6.219  1.00 20.00     0.032 C 
HETATM    6 CL9  UNL     1     -34.238  15.236  -7.070  1.00 20.00    -0.120 Cl
ENDROOT
BRANCH   3   7
HETATM    7  C1  UNL     1     -33.980  13.859  -3.845  1.00 20.00     0.223 C 
HETATM    8  O7  UNL     1     -32.983  13.196  -3.573  1.00 20.00    -0.279 OA
HETATM    9 CL8  UNL     1     -35.527  13.233  -4.327  1.00 20.00    -0.043 Cl
ENDBRANCH   3   7
TORSDOF 1
ENDMDL
