MODEL 1
REMARK VINA RESULT:      -4.9      0.000      0.000
REMARK  1 active torsions:
REMARK  status: ('A' for Active; 'I' for Inactive)
REMARK    1  A    between atoms: C3_3  and  C8_8 
ROOT
HETATM    1  C1  UNL     1     -34.140  17.202  -2.788  1.00 20.00    -0.025 C 
HETATM    2  C2  UNL     1     -34.472  16.105  -2.092  1.00 20.00    -0.022 C 
HETATM    3  C4  UNL     1     -32.936  15.444  -3.687  1.00 20.00     0.021 C 
HETATM    4  C5  UNL     1     -34.824  16.184  -4.939  1.00 20.00     0.063 C 
HETATM    5  C6  UNL     1     -33.625  16.739  -4.131  1.00 20.00     0.012 C 
HETATM    6  C7  UNL     1     -34.187  14.911  -2.975  1.00 20.00     0.059 C 
HETATM    7  C8  UNL     1     -35.217  14.916  -4.130  1.00 20.00     0.202 C 
HETATM    8  F11 UNL     1     -36.474  15.049  -3.634  1.00 20.00    -0.231 F 
ENDROOT
BRANCH   7   9
HETATM    9  C3  UNL     1     -35.123  13.661  -4.941  1.00 20.00     0.338 C 
HETATM   10  O9  UNL     1     -35.030  12.533  -4.479  1.00 20.00    -0.256 OA
HETATM   11  F10 UNL     1     -35.185  13.777  -6.275  1.00 20.00    -0.161 F 
ENDBRANCH   7   9
TORSDOF 1
ENDMDL
MODEL 2
REMARK VINA RESULT:      -4.9      1.466      1.890
REMARK  1 active torsions:
REMARK  status: ('A' for Active; 'I' for Inactive)
REMARK    1  A    between atoms: C3_3  and  C8_8 
ROOT
HETATM    1  C1  UNL     1     -34.934  17.750  -3.584  1.00 20.00    -0.025 C 
HETATM    2  C2  UNL     1     -35.974  16.919  -3.748  1.00 20.00    -0.022 C 
HETATM    3  C4  UNL     1     -34.575  15.936  -2.194  1.00 20.00     0.021 C 
HETATM    4  C5  UNL     1     -33.293  16.003  -4.202  1.00 20.00     0.063 C 
HETATM    5  C6  UNL     1     -33.783  16.924  -3.058  1.00 20.00     0.012 C 
HETATM    6  C7  UNL     1     -35.512  15.538  -3.342  1.00 20.00     0.059 C 
HETATM    7  C8  UNL     1     -34.499  15.043  -4.401  1.00 20.00     0.202 C 
HETATM    8  F11 UNL     1     -35.016  15.195  -5.648  1.00 20.00    -0.231 F 
ENDROOT
BRANCH   7   9
HETATM    9  C3  UNL     1     -34.140  13.607  -4.174  1.00 20.00     0.338 C 
HETATM   10  O9  UNL     1     -34.856  12.654  -4.443  1.00 20.00    -0.256 OA
HETATM   11  F10 UNL     1     -32.925  13.342  -3.673  1.00 20.00    -0.161 F 
ENDBRANCH   7   9
TORSDOF 1
ENDMDL
MODEL 3
REMARK VINA RESULT:      -4.8      1.681      2.153
REMARK  1 active torsions:
REMARK  status: ('A' for Active; 'I' for Inactive)
REMARK    1  A    between atoms: C3_3  and  C8_8 
ROOT
HETATM    1  C1  UNL     1     -34.838  17.712  -4.775  1.00 20.00    -0.025 C 
HETATM    2  C2  UNL     1     -33.656  17.397  -4.223  1.00 20.00    -0.022 C 
HETATM    3  C4  UNL     1     -34.000  15.910  -5.958  1.00 20.00     0.021 C 
HETATM    4  C5  UNL     1     -35.747  15.440  -4.407  1.00 20.00     0.063 C 
HETATM    5  C6  UNL     1     -35.343  16.476  -5.483  1.00 20.00     0.012 C 
HETATM    6  C7  UNL     1     -33.380  15.948  -4.555  1.00 20.00     0.059 C 
HETATM    7  C8  UNL     1     -34.381  15.078  -3.758  1.00 20.00     0.202 C 
HETATM    8  F11 UNL     1     -34.375  15.439  -2.449  1.00 20.00    -0.231 F 
ENDROOT
BRANCH   7   9
HETATM    9  C3  UNL     1     -34.049  13.623  -3.884  1.00 20.00     0.338 C 
HETATM   10  O9  UNL     1     -34.838  12.749  -4.211  1.00 20.00    -0.256 OA
HETATM   11  F10 UNL     1     -32.780  13.253  -3.659  1.00 20.00    -0.161 F 
ENDBRANCH   7   9
TORSDOF 1
ENDMDL
MODEL 4
REMARK VINA RESULT:      -4.7      2.409      3.675
REMARK  1 active torsions:
REMARK  status: ('A' for Active; 'I' for Inactive)
REMARK    1  A    between atoms: C3_3  and  C8_8 
ROOT
HETATM    1  C1  UNL     1     -34.793  13.801  -5.675  1.00 20.00    -0.025 C 
HETATM    2  C2  UNL     1     -34.333  13.263  -4.536  1.00 20.00    -0.022 C 
HETATM    3  C4  UNL     1     -36.025  14.724  -3.949  1.00 20.00     0.021 C 
HETATM    4  C5  UNL     1     -34.339  16.109  -4.905  1.00 20.00     0.063 C 
HETATM    5  C6  UNL     1     -35.450  15.113  -5.315  1.00 20.00     0.012 C 
HETATM    6  C7  UNL     1     -34.675  14.223  -3.418  1.00 20.00     0.059 C 
HETATM    7  C8  UNL     1     -33.797  15.485  -3.589  1.00 20.00     0.202 C 
HETATM    8  F11 UNL     1     -32.495  15.131  -3.741  1.00 20.00    -0.231 F 
ENDROOT
BRANCH   7   9
HETATM    9  C3  UNL     1     -33.938  16.403  -2.413  1.00 20.00     0.338 C 
HETATM   10  O9  UNL     1     -33.667  17.594  -2.418  1.00 20.00    -0.256 OA
HETATM   11  F10 UNL     1     -34.434  15.888  -1.280  1.00 20.00    -0.161 F 
ENDBRANCH   7   9
TORSDOF 1
ENDMDL
MODEL 5
REMARK VINA RESULT:      -4.7     11.470     12.405
REMARK  1 active torsions:
REMARK  status: ('A' for Active; 'I' for Inactive)
REMARK    1  A    between atoms: C3_3  and  C8_8 
ROOT
HETATM    1  C1  UNL     1     -35.038   4.519   4.595  1.00 20.00    -0.025 C 
HETATM    2  C2  UNL     1     -34.092   4.969   5.434  1.00 20.00    -0.022 C 
HETATM    3  C4  UNL     1     -34.957   6.817   4.350  1.00 20.00     0.021 C 
HETATM    4  C5  UNL     1     -33.936   5.531   2.624  1.00 20.00     0.063 C 
HETATM    5  C6  UNL     1     -35.204   5.558   3.511  1.00 20.00     0.012 C 
HETATM    6  C7  UNL     1     -33.621   6.303   4.901  1.00 20.00     0.059 C 
HETATM    7  C8  UNL     1     -32.835   6.043   3.594  1.00 20.00     0.202 C 
HETATM    8  F11 UNL     1     -31.902   5.077   3.794  1.00 20.00    -0.231 F 
ENDROOT
BRANCH   7   9
HETATM    9  C3  UNL     1     -32.172   7.295   3.107  1.00 20.00     0.338 C 
HETATM   10  O9  UNL     1     -32.435   7.865   2.059  1.00 20.00    -0.256 OA
HETATM   11  F10 UNL     1     -31.244   7.855   3.896  1.00 20.00    -0.161 F 
ENDBRANCH   7   9
TORSDOF 1
ENDMDL
MODEL 6
REMARK VINA RESULT:      -4.6      2.355      3.594
REMARK  1 active torsions:
REMARK  status: ('A' for Active; 'I' for Inactive)
REMARK    1  A    between atoms: C3_3  and  C8_8 
ROOT
HETATM    1  C1  UNL     1     -35.063  13.994  -5.647  1.00 20.00    -0.025 C 
HETATM    2  C2  UNL     1     -34.195  15.005  -5.797  1.00 20.00    -0.022 C 
HETATM    3  C4  UNL     1     -33.637  13.932  -3.828  1.00 20.00     0.021 C 
HETATM    4  C5  UNL     1     -35.816  14.814  -3.437  1.00 20.00     0.063 C 
HETATM    5  C6  UNL     1     -35.104  13.656  -4.176  1.00 20.00     0.012 C 
HETATM    6  C7  UNL     1     -33.665  15.347  -4.423  1.00 20.00     0.059 C 
HETATM    7  C8  UNL     1     -34.816  15.991  -3.615  1.00 20.00     0.202 C 
HETATM    8  F11 UNL     1     -35.391  16.988  -4.336  1.00 20.00    -0.231 F 
ENDROOT
BRANCH   7   9
HETATM    9  C3  UNL     1     -34.320  16.532  -2.309  1.00 20.00     0.338 C 
HETATM   10  O9  UNL     1     -33.623  17.528  -2.182  1.00 20.00    -0.256 OA
HETATM   11  F10 UNL     1     -34.701  15.900  -1.190  1.00 20.00    -0.161 F 
ENDBRANCH   7   9
TORSDOF 1
ENDMDL
MODEL 7
REMARK VINA RESULT:      -4.6      1.338      2.269
REMARK  1 active torsions:
REMARK  status: ('A' for Active; 'I' for Inactive)
REMARK    1  A    between atoms: C3_3  and  C8_8 
ROOT
HETATM    1  C1  UNL     1     -33.672  17.533  -4.097  1.00 20.00    -0.025 C 
HETATM    2  C2  UNL     1     -33.264  16.751  -5.107  1.00 20.00    -0.022 C 
HETATM    3  C4  UNL     1     -35.562  16.543  -4.989  1.00 20.00     0.021 C 
HETATM    4  C5  UNL     1     -34.770  15.648  -2.928  1.00 20.00     0.063 C 
HETATM    5  C6  UNL     1     -35.010  17.003  -3.636  1.00 20.00     0.012 C 
HETATM    6  C7  UNL     1     -34.325  15.694  -5.312  1.00 20.00     0.059 C 
HETATM    7  C8  UNL     1     -34.288  14.740  -4.094  1.00 20.00     0.202 C 
HETATM    8  F11 UNL     1     -33.016  14.322  -3.867  1.00 20.00    -0.231 F 
ENDROOT
BRANCH   7   9
HETATM    9  C3  UNL     1     -35.179  13.555  -4.311  1.00 20.00     0.338 C 
HETATM   10  O9  UNL     1     -34.822  12.487  -4.786  1.00 20.00    -0.256 OA
HETATM   11  F10 UNL     1     -36.457  13.658  -3.920  1.00 20.00    -0.161 F 
ENDBRANCH   7   9
TORSDOF 1
ENDMDL
MODEL 8
REMARK VINA RESULT:      -4.6      2.223      3.213
REMARK  1 active torsions:
REMARK  status: ('A' for Active; 'I' for Inactive)
REMARK    1  A    between atoms: C3_3  and  C8_8 
ROOT
HETATM    1  C1  UNL     1     -35.798  16.622  -7.043  1.00 20.00    -0.025 C 
HETATM    2  C2  UNL     1     -34.472  16.489  -6.890  1.00 20.00    -0.022 C 
HETATM    3  C4  UNL     1     -35.317  14.371  -7.265  1.00 20.00     0.021 C 
HETATM    4  C5  UNL     1     -36.286  15.048  -5.196  1.00 20.00     0.063 C 
HETATM    5  C6  UNL     1     -36.421  15.284  -6.720  1.00 20.00     0.012 C 
HETATM    6  C7  UNL     1     -34.213  15.064  -6.455  1.00 20.00     0.059 C 
HETATM    7  C8  UNL     1     -34.749  14.901  -5.013  1.00 20.00     0.202 C 
HETATM    8  F11 UNL     1     -34.275  15.899  -4.223  1.00 20.00    -0.231 F 
ENDROOT
BRANCH   7   9
HETATM    9  C3  UNL     1     -34.360  13.573  -4.440  1.00 20.00     0.338 C 
HETATM   10  O9  UNL     1     -35.096  12.601  -4.359  1.00 20.00    -0.256 OA
HETATM   11  F10 UNL     1     -33.096  13.425  -4.019  1.00 20.00    -0.161 F 
ENDBRANCH   7   9
TORSDOF 1
ENDMDL
MODEL 9
REMARK VINA RESULT:      -4.5      1.655      2.446
REMARK  1 active torsions:
REMARK  status: ('A' for Active; 'I' for Inactive)
REMARK    1  A    between atoms: C3_3  and  C8_8 
ROOT
HETATM    1  C1  UNL     1     -35.136  17.186  -6.695  1.00 20.00    -0.025 C 
HETATM    2  C2  UNL     1     -35.560  17.258  -5.425  1.00 20.00    -0.022 C 
HETATM    3  C4  UNL     1     -33.504  16.206  -5.383  1.00 20.00     0.021 C 
HETATM    4  C5  UNL     1     -34.913  14.723  -6.604  1.00 20.00     0.063 C 
HETATM    5  C6  UNL     1     -34.139  16.053  -6.769  1.00 20.00     0.012 C 
HETATM    6  C7  UNL     1     -34.854  16.165  -4.655  1.00 20.00     0.059 C 
HETATM    7  C8  UNL     1     -35.415  14.805  -5.135  1.00 20.00     0.202 C 
HETATM    8  F11 UNL     1     -36.772  14.823  -5.105  1.00 20.00    -0.231 F 
ENDROOT
BRANCH   7   9
HETATM    9  C3  UNL     1     -34.904  13.682  -4.286  1.00 20.00     0.338 C 
HETATM   10  O9  UNL     1     -34.902  12.504  -4.609  1.00 20.00    -0.256 OA
HETATM   11  F10 UNL     1     -34.373  13.995  -3.096  1.00 20.00    -0.161 F 
ENDBRANCH   7   9
TORSDOF 1
ENDMDL
