MODEL 1
REMARK VINA RESULT:      -4.6      0.000      0.000
REMARK  0 active torsions:
REMARK  status: ('A' for Active; 'I' for Inactive)
ROOT
HETATM    1  C1  UNL     1     -34.730  17.021  -0.086  1.00 20.00     0.017 C 
HETATM    2  C2  UNL     1     -34.744  16.818  -1.269  1.00 20.00    -0.057 C 
HETATM    3  C3  UNL     1     -33.409  15.891  -4.521  1.00 20.00     0.182 C 
HETATM    4  C4  UNL     1     -35.837  15.319  -4.396  1.00 20.00     0.182 C 
HETATM    5  C5  UNL     1     -34.761  16.570  -2.714  1.00 20.00     0.341 C 
HETATM    6  C6  UNL     1     -34.471  14.854  -4.932  1.00 20.00    -0.004 C 
HETATM    7  C7  UNL     1     -34.118  13.484  -4.320  1.00 20.00     0.019 C 
HETATM    8  C8  UNL     1     -34.520  14.725  -6.459  1.00 20.00     0.019 C 
HETATM    9  O9  UNL     1     -33.459  16.137  -3.115  1.00 20.00    -0.350 OA
HETATM   10  O10 UNL     1     -35.766  15.593  -2.996  1.00 20.00    -0.350 OA
ENDROOT
TORSDOF 0
ENDMDL
MODEL 2
REMARK VINA RESULT:      -4.4      0.987      2.067
REMARK  0 active torsions:
REMARK  status: ('A' for Active; 'I' for Inactive)
ROOT
HETATM    1  C1  UNL     1     -34.645  16.897  -0.370  1.00 20.00     0.017 C 
HETATM    2  C2  UNL     1     -34.445  16.427  -1.457  1.00 20.00    -0.057 C 
HETATM    3  C3  UNL     1     -35.262  14.779  -4.593  1.00 20.00     0.182 C 
HETATM    4  C4  UNL     1     -33.358  16.360  -4.926  1.00 20.00     0.182 C 
HETATM    5  C5  UNL     1     -34.200  15.854  -2.784  1.00 20.00     0.341 C 
HETATM    6  C6  UNL     1     -34.636  15.792  -5.569  1.00 20.00    -0.004 C 
HETATM    7  C7  UNL     1     -35.632  16.938  -5.832  1.00 20.00     0.019 C 
HETATM    8  C8  UNL     1     -34.297  15.104  -6.897  1.00 20.00     0.019 C 
HETATM    9  O9  UNL     1     -35.439  15.364  -3.301  1.00 20.00    -0.350 OA
HETATM   10  O10 UNL     1     -33.630  16.866  -3.618  1.00 20.00    -0.350 OA
ENDROOT
TORSDOF 0
ENDMDL
MODEL 3
REMARK VINA RESULT:      -4.1      1.143      4.132
REMARK  0 active torsions:
REMARK  status: ('A' for Active; 'I' for Inactive)
ROOT
HETATM    1  C1  UNL     1     -34.744  14.774  -7.629  1.00 20.00     0.017 C 
HETATM    2  C2  UNL     1     -34.727  14.863  -6.432  1.00 20.00    -0.057 C 
HETATM    3  C3  UNL     1     -33.404  15.735  -3.159  1.00 20.00     0.182 C 
HETATM    4  C4  UNL     1     -35.899  15.830  -3.129  1.00 20.00     0.182 C 
HETATM    5  C5  UNL     1     -34.705  14.970  -4.970  1.00 20.00     0.341 C 
HETATM    6  C6  UNL     1     -34.618  16.503  -2.605  1.00 20.00    -0.004 C 
HETATM    7  C7  UNL     1     -34.568  17.965  -3.090  1.00 20.00     0.019 C 
HETATM    8  C8  UNL     1     -34.600  16.481  -1.072  1.00 20.00     0.019 C 
HETATM    9  O9  UNL     1     -33.489  15.612  -4.580  1.00 20.00    -0.350 OA
HETATM   10  O10 UNL     1     -35.860  15.703  -4.551  1.00 20.00    -0.350 OA
ENDROOT
TORSDOF 0
ENDMDL
MODEL 4
REMARK VINA RESULT:      -4.0     11.254     12.626
REMARK  0 active torsions:
REMARK  status: ('A' for Active; 'I' for Inactive)
ROOT
HETATM    1  C1  UNL     1     -42.318   8.694  -4.866  1.00 20.00     0.017 C 
HETATM    2  C2  UNL     1     -42.356   8.116  -3.814  1.00 20.00    -0.057 C 
HETATM    3  C3  UNL     1     -43.417   5.599  -1.416  1.00 20.00     0.182 C 
HETATM    4  C4  UNL     1     -41.062   6.286  -0.952  1.00 20.00     0.182 C 
HETATM    5  C5  UNL     1     -42.402   7.411  -2.530  1.00 20.00     0.341 C 
HETATM    6  C6  UNL     1     -42.034   5.093  -0.968  1.00 20.00    -0.004 C 
HETATM    7  C7  UNL     1     -41.528   4.030  -1.963  1.00 20.00     0.019 C 
HETATM    8  C8  UNL     1     -42.127   4.469   0.430  1.00 20.00     0.019 C 
HETATM    9  O9  UNL     1     -43.319   6.320  -2.645  1.00 20.00    -0.350 OA
HETATM   10  O10 UNL     1     -41.081   6.973  -2.204  1.00 20.00    -0.350 OA
ENDROOT
TORSDOF 0
ENDMDL
MODEL 5
REMARK VINA RESULT:      -4.0     11.221     12.359
REMARK  0 active torsions:
REMARK  status: ('A' for Active; 'I' for Inactive)
ROOT
HETATM    1  C1  UNL     1     -31.839   8.606   1.619  1.00 20.00     0.017 C 
HETATM    2  C2  UNL     1     -32.203   7.743   2.370  1.00 20.00    -0.057 C 
HETATM    3  C3  UNL     1     -33.932   6.302   5.225  1.00 20.00     0.182 C 
HETATM    4  C4  UNL     1     -33.790   4.630   3.375  1.00 20.00     0.182 C 
HETATM    5  C5  UNL     1     -32.648   6.690   3.287  1.00 20.00     0.341 C 
HETATM    6  C6  UNL     1     -34.687   5.169   4.504  1.00 20.00    -0.004 C 
HETATM    7  C7  UNL     1     -35.994   5.722   3.904  1.00 20.00     0.019 C 
HETATM    8  C8  UNL     1     -35.022   4.046   5.493  1.00 20.00     0.019 C 
HETATM    9  O9  UNL     1     -33.476   7.282   4.290  1.00 20.00    -0.350 OA
HETATM   10  O10 UNL     1     -33.342   5.693   2.532  1.00 20.00    -0.350 OA
ENDROOT
TORSDOF 0
ENDMDL
MODEL 6
REMARK VINA RESULT:      -3.9      1.620      2.386
REMARK  0 active torsions:
REMARK  status: ('A' for Active; 'I' for Inactive)
ROOT
HETATM    1  C1  UNL     1     -35.221  17.513   1.099  1.00 20.00     0.017 C 
HETATM    2  C2  UNL     1     -34.707  17.315   0.032  1.00 20.00    -0.057 C 
HETATM    3  C3  UNL     1     -33.986  15.540  -3.058  1.00 20.00     0.182 C 
HETATM    4  C4  UNL     1     -33.775  18.002  -3.414  1.00 20.00     0.182 C 
HETATM    5  C5  UNL     1     -34.078  17.073  -1.270  1.00 20.00     0.341 C 
HETATM    6  C6  UNL     1     -34.238  16.683  -4.058  1.00 20.00    -0.004 C 
HETATM    7  C7  UNL     1     -35.743  16.766  -4.377  1.00 20.00     0.019 C 
HETATM    8  C8  UNL     1     -33.462  16.428  -5.356  1.00 20.00     0.019 C 
HETATM    9  O9  UNL     1     -34.574  15.837  -1.790  1.00 20.00    -0.350 OA
HETATM   10  O10 UNL     1     -34.374  18.177  -2.129  1.00 20.00    -0.350 OA
ENDROOT
TORSDOF 0
ENDMDL
MODEL 7
REMARK VINA RESULT:      -3.9      1.941      3.504
REMARK  0 active torsions:
REMARK  status: ('A' for Active; 'I' for Inactive)
ROOT
HETATM    1  C1  UNL     1     -39.567  14.753  -4.311  1.00 20.00     0.017 C 
HETATM    2  C2  UNL     1     -38.409  14.782  -3.997  1.00 20.00    -0.057 C 
HETATM    3  C3  UNL     1     -34.939  13.702  -3.903  1.00 20.00     0.182 C 
HETATM    4  C4  UNL     1     -35.072  16.182  -3.638  1.00 20.00     0.182 C 
HETATM    5  C5  UNL     1     -36.994  14.818  -3.614  1.00 20.00     0.341 C 
HETATM    6  C6  UNL     1     -34.260  15.036  -4.268  1.00 20.00    -0.004 C 
HETATM    7  C7  UNL     1     -34.239  15.202  -5.800  1.00 20.00     0.019 C 
HETATM    8  C8  UNL     1     -32.821  15.057  -3.739  1.00 20.00     0.019 C 
HETATM    9  O9  UNL     1     -36.324  13.728  -4.250  1.00 20.00    -0.350 OA
HETATM   10  O10 UNL     1     -36.451  16.083  -3.998  1.00 20.00    -0.350 OA
ENDROOT
TORSDOF 0
ENDMDL
MODEL 8
REMARK VINA RESULT:      -3.8     12.283     13.806
REMARK  0 active torsions:
REMARK  status: ('A' for Active; 'I' for Inactive)
ROOT
HETATM    1  C1  UNL     1     -42.422   1.453  -3.345  1.00 20.00     0.017 C 
HETATM    2  C2  UNL     1     -42.075   2.564  -3.049  1.00 20.00    -0.057 C 
HETATM    3  C3  UNL     1     -42.363   6.166  -2.655  1.00 20.00     0.182 C 
HETATM    4  C4  UNL     1     -40.860   5.229  -0.895  1.00 20.00     0.182 C 
HETATM    5  C5  UNL     1     -41.651   3.920  -2.688  1.00 20.00     0.341 C 
HETATM    6  C6  UNL     1     -41.946   6.282  -1.177  1.00 20.00    -0.004 C 
HETATM    7  C7  UNL     1     -43.166   6.017  -0.275  1.00 20.00     0.019 C 
HETATM    8  C8  UNL     1     -41.404   7.688  -0.891  1.00 20.00     0.019 C 
HETATM    9  O9  UNL     1     -42.722   4.821  -2.975  1.00 20.00    -0.350 OA
HETATM   10  O10 UNL     1     -41.294   3.931  -1.303  1.00 20.00    -0.350 OA
ENDROOT
TORSDOF 0
ENDMDL
MODEL 9
REMARK VINA RESULT:      -3.8     12.278     13.744
REMARK  0 active torsions:
REMARK  status: ('A' for Active; 'I' for Inactive)
ROOT
HETATM    1  C1  UNL     1     -41.542   2.021  -3.414  1.00 20.00     0.017 C 
HETATM    2  C2  UNL     1     -42.072   2.957  -2.882  1.00 20.00    -0.057 C 
HETATM    3  C3  UNL     1     -42.742   5.369  -0.245  1.00 20.00     0.182 C 
HETATM    4  C4  UNL     1     -43.162   6.403  -2.479  1.00 20.00     0.182 C 
HETATM    5  C5  UNL     1     -42.718   4.101  -2.232  1.00 20.00     0.341 C 
HETATM    6  C6  UNL     1     -42.614   6.666  -1.066  1.00 20.00    -0.004 C 
HETATM    7  C7  UNL     1     -41.131   7.074  -1.156  1.00 20.00     0.019 C 
HETATM    8  C8  UNL     1     -43.407   7.794  -0.394  1.00 20.00     0.019 C 
HETATM    9  O9  UNL     1     -42.141   4.272  -0.936  1.00 20.00    -0.350 OA
HETATM   10  O10 UNL     1     -42.540   5.254  -3.058  1.00 20.00    -0.350 OA
ENDROOT
TORSDOF 0
ENDMDL
