MODEL 1
REMARK VINA RESULT:      -5.0      0.000      0.000
REMARK  3 active torsions:
REMARK  status: ('A' for Active; 'I' for Inactive)
REMARK    1  A    between atoms: C1_1  and  C7_7 
REMARK    2  A    between atoms: C2_2  and  C8_8 
REMARK    3  A    between atoms: C4_4  and  C9_9 
ROOT
HETATM    1  C8  UNL     1     -34.588   5.024   3.379  1.00 20.00     0.233 A 
HETATM    2  C9  UNL     1     -34.913   4.693   4.799  1.00 20.00     0.186 A 
HETATM    3  O10 UNL     1     -35.755   5.540   4.005  1.00 20.00    -0.358 OA
ENDROOT
BRANCH   1   4
HETATM    4  C2  UNL     1     -33.642   6.090   3.053  1.00 20.00    -0.071 C 
HETATM    5  C1  UNL     1     -32.865   6.966   2.786  1.00 20.00    -0.099 C 
BRANCH   5   6
HETATM    6  C7  UNL     1     -31.919   8.032   2.461  1.00 20.00     0.065 A 
HETATM    7  C5  UNL     1     -32.471   9.329   1.975  1.00 20.00     0.018 A 
HETATM    8  C6  UNL     1     -31.761   8.410   1.026  1.00 20.00     0.018 A 
ENDBRANCH   5   6
ENDBRANCH   1   4
BRANCH   2   9
HETATM    9  C4  UNL     1     -34.107   5.198   5.901  1.00 20.00    -0.002 C 
HETATM   10  C3  UNL     1     -34.360   6.339   6.551  1.00 20.00     0.009 C 
ENDBRANCH   2   9
TORSDOF 3
ENDMDL
MODEL 2
REMARK VINA RESULT:      -4.7     10.900     12.055
REMARK  3 active torsions:
REMARK  status: ('A' for Active; 'I' for Inactive)
REMARK    1  A    between atoms: C1_1  and  C7_7 
REMARK    2  A    between atoms: C2_2  and  C8_8 
REMARK    3  A    between atoms: C4_4  and  C9_9 
ROOT
HETATM    1  C8  UNL     1     -35.495  13.669  -4.156  1.00 20.00     0.233 A 
HETATM    2  C9  UNL     1     -35.107  13.588  -5.596  1.00 20.00     0.186 A 
HETATM    3  O10 UNL     1     -34.461  12.796  -4.590  1.00 20.00    -0.358 OA
ENDROOT
BRANCH   1   4
HETATM    4  C2  UNL     1     -34.971  14.729  -3.295  1.00 20.00    -0.071 C 
HETATM    5  C1  UNL     1     -34.541  15.598  -2.586  1.00 20.00    -0.099 C 
BRANCH   5   6
HETATM    6  C7  UNL     1     -34.017  16.656  -1.725  1.00 20.00     0.065 A 
HETATM    7  C5  UNL     1     -34.688  16.882  -0.412  1.00 20.00     0.018 A 
HETATM    8  C6  UNL     1     -34.856  17.873  -1.526  1.00 20.00     0.018 A 
ENDBRANCH   5   6
ENDBRANCH   1   4
BRANCH   2   9
HETATM    9  C4  UNL     1     -34.444  14.696  -6.268  1.00 20.00    -0.002 C 
HETATM   10  C3  UNL     1     -34.666  15.039  -7.542  1.00 20.00     0.009 C 
ENDBRANCH   2   9
TORSDOF 3
ENDMDL
MODEL 3
REMARK VINA RESULT:      -4.6      1.899      5.058
REMARK  3 active torsions:
REMARK  status: ('A' for Active; 'I' for Inactive)
REMARK    1  A    between atoms: C1_1  and  C7_7 
REMARK    2  A    between atoms: C2_2  and  C8_8 
REMARK    3  A    between atoms: C4_4  and  C9_9 
ROOT
HETATM    1  C8  UNL     1     -31.709   6.623   2.912  1.00 20.00     0.233 A 
HETATM    2  C9  UNL     1     -31.644   7.986   2.304  1.00 20.00     0.186 A 
HETATM    3  O10 UNL     1     -31.113   7.710   3.607  1.00 20.00    -0.358 OA
ENDROOT
BRANCH   1   4
HETATM    4  C2  UNL     1     -32.919   6.158   3.588  1.00 20.00    -0.071 C 
HETATM    5  C1  UNL     1     -33.912   5.775   4.145  1.00 20.00    -0.099 C 
BRANCH   5   6
HETATM    6  C7  UNL     1     -35.122   5.310   4.821  1.00 20.00     0.065 A 
HETATM    7  C5  UNL     1     -35.063   5.120   6.299  1.00 20.00     0.018 A 
HETATM    8  C6  UNL     1     -35.118   3.930   5.387  1.00 20.00     0.018 A 
ENDBRANCH   5   6
ENDBRANCH   1   4
BRANCH   2   9
HETATM    9  C4  UNL     1     -32.845   8.784   2.098  1.00 20.00    -0.002 C 
HETATM   10  C3  UNL     1     -32.835  10.055   1.684  1.00 20.00     0.009 C 
ENDBRANCH   2   9
TORSDOF 3
ENDMDL
MODEL 4
REMARK VINA RESULT:      -4.4     10.826     11.855
REMARK  3 active torsions:
REMARK  status: ('A' for Active; 'I' for Inactive)
REMARK    1  A    between atoms: C1_1  and  C7_7 
REMARK    2  A    between atoms: C2_2  and  C8_8 
REMARK    3  A    between atoms: C4_4  and  C9_9 
ROOT
HETATM    1  C8  UNL     1     -34.909  17.008  -0.094  1.00 20.00     0.233 A 
HETATM    2  C9  UNL     1     -34.082  18.171   0.348  1.00 20.00     0.186 A 
HETATM    3  O10 UNL     1     -35.351  18.343  -0.299  1.00 20.00    -0.358 OA
ENDROOT
BRANCH   1   4
HETATM    4  C2  UNL     1     -34.641  16.333  -1.363  1.00 20.00    -0.071 C 
HETATM    5  C1  UNL     1     -34.421  15.780  -2.406  1.00 20.00    -0.099 C 
BRANCH   5   6
HETATM    6  C7  UNL     1     -34.153  15.106  -3.675  1.00 20.00     0.065 A 
HETATM    7  C5  UNL     1     -34.755  13.758  -3.888  1.00 20.00     0.018 A 
HETATM    8  C6  UNL     1     -33.280  13.897  -3.651  1.00 20.00     0.018 A 
ENDBRANCH   5   6
ENDBRANCH   1   4
BRANCH   2   9
HETATM    9  C4  UNL     1     -32.820  18.496  -0.301  1.00 20.00    -0.002 C 
HETATM   10  C3  UNL     1     -31.811  19.132   0.303  1.00 20.00     0.009 C 
ENDBRANCH   2   9
TORSDOF 3
ENDMDL
MODEL 5
REMARK VINA RESULT:      -4.1     11.020     12.162
REMARK  3 active torsions:
REMARK  status: ('A' for Active; 'I' for Inactive)
REMARK    1  A    between atoms: C1_1  and  C7_7 
REMARK    2  A    between atoms: C2_2  and  C8_8 
REMARK    3  A    between atoms: C4_4  and  C9_9 
ROOT
HETATM    1  C8  UNL     1     -33.513  16.586  -3.932  1.00 20.00     0.233 A 
HETATM    2  C9  UNL     1     -33.678  15.297  -4.668  1.00 20.00     0.186 A 
HETATM    3  O10 UNL     1     -34.607  16.380  -4.816  1.00 20.00    -0.358 OA
ENDROOT
BRANCH   1   4
HETATM    4  C2  UNL     1     -33.964  16.726  -2.548  1.00 20.00    -0.071 C 
HETATM    5  C1  UNL     1     -34.334  16.840  -1.412  1.00 20.00    -0.099 C 
BRANCH   5   6
HETATM    6  C7  UNL     1     -34.785  16.980  -0.028  1.00 20.00     0.065 A 
HETATM    7  C5  UNL     1     -35.731  18.089   0.287  1.00 20.00     0.018 A 
HETATM    8  C6  UNL     1     -34.304  18.162   0.746  1.00 20.00     0.018 A 
ENDBRANCH   5   6
ENDBRANCH   1   4
BRANCH   2   9
HETATM    9  C4  UNL     1     -34.016  14.063  -3.973  1.00 20.00    -0.002 C 
HETATM   10  C3  UNL     1     -35.057  13.286  -4.291  1.00 20.00     0.009 C 
ENDBRANCH   2   9
TORSDOF 3
ENDMDL
MODEL 6
REMARK VINA RESULT:      -4.1     11.094     12.349
REMARK  3 active torsions:
REMARK  status: ('A' for Active; 'I' for Inactive)
REMARK    1  A    between atoms: C1_1  and  C7_7 
REMARK    2  A    between atoms: C2_2  and  C8_8 
REMARK    3  A    between atoms: C4_4  and  C9_9 
ROOT
HETATM    1  C8  UNL     1     -34.707  14.958  -3.268  1.00 20.00     0.233 A 
HETATM    2  C9  UNL     1     -33.958  15.152  -4.546  1.00 20.00     0.186 A 
HETATM    3  O10 UNL     1     -33.505  14.246  -3.530  1.00 20.00    -0.358 OA
ENDROOT
BRANCH   1   4
HETATM    4  C2  UNL     1     -34.543  15.888  -2.151  1.00 20.00    -0.071 C 
HETATM    5  C1  UNL     1     -34.410  16.652  -1.234  1.00 20.00    -0.099 C 
BRANCH   5   6
HETATM    6  C7  UNL     1     -34.246  17.581  -0.118  1.00 20.00     0.065 A 
HETATM    7  C5  UNL     1     -35.232  17.509   0.999  1.00 20.00     0.018 A 
HETATM    8  C6  UNL     1     -35.259  18.665   0.042  1.00 20.00     0.018 A 
ENDBRANCH   5   6
ENDBRANCH   1   4
BRANCH   2   9
HETATM    9  C4  UNL     1     -33.273  16.402  -4.843  1.00 20.00    -0.002 C 
HETATM   10  C3  UNL     1     -33.689  17.281  -5.762  1.00 20.00     0.009 C 
ENDBRANCH   2   9
TORSDOF 3
ENDMDL
MODEL 7
REMARK VINA RESULT:      -4.1     11.620     12.646
REMARK  3 active torsions:
REMARK  status: ('A' for Active; 'I' for Inactive)
REMARK    1  A    between atoms: C1_1  and  C7_7 
REMARK    2  A    between atoms: C2_2  and  C8_8 
REMARK    3  A    between atoms: C4_4  and  C9_9 
ROOT
HETATM    1  C8  UNL     1     -33.162  15.528  -3.990  1.00 20.00     0.233 A 
HETATM    2  C9  UNL     1     -33.928  15.643  -5.268  1.00 20.00     0.186 A 
HETATM    3  O10 UNL     1     -32.930  16.602  -4.891  1.00 20.00    -0.358 OA
ENDROOT
BRANCH   1   4
HETATM    4  C2  UNL     1     -33.728  16.003  -2.728  1.00 20.00    -0.071 C 
HETATM    5  C1  UNL     1     -34.191  16.393  -1.692  1.00 20.00    -0.099 C 
BRANCH   5   6
HETATM    6  C7  UNL     1     -34.756  16.868  -0.430  1.00 20.00     0.065 A 
HETATM    7  C5  UNL     1     -35.437  18.195  -0.428  1.00 20.00     0.018 A 
HETATM    8  C6  UNL     1     -34.100  18.033   0.233  1.00 20.00     0.018 A 
ENDBRANCH   5   6
ENDBRANCH   1   4
BRANCH   2   9
HETATM    9  C4  UNL     1     -35.351  15.953  -5.275  1.00 20.00    -0.002 C 
HETATM   10  C3  UNL     1     -36.300  15.098  -5.670  1.00 20.00     0.009 C 
ENDBRANCH   2   9
TORSDOF 3
ENDMDL
MODEL 8
REMARK VINA RESULT:      -4.1      9.240     10.825
REMARK  3 active torsions:
REMARK  status: ('A' for Active; 'I' for Inactive)
REMARK    1  A    between atoms: C1_1  and  C7_7 
REMARK    2  A    between atoms: C2_2  and  C8_8 
REMARK    3  A    between atoms: C4_4  and  C9_9 
ROOT
HETATM    1  C8  UNL     1     -40.678   5.138  -0.678  1.00 20.00     0.233 A 
HETATM    2  C9  UNL     1     -41.059   6.582  -0.628  1.00 20.00     0.186 A 
HETATM    3  O10 UNL     1     -41.669   5.606   0.228  1.00 20.00    -0.358 OA
ENDROOT
BRANCH   1   4
HETATM    4  C2  UNL     1     -41.254   4.243  -1.681  1.00 20.00    -0.071 C 
HETATM    5  C1  UNL     1     -41.726   3.507  -2.504  1.00 20.00    -0.099 C 
BRANCH   5   6
HETATM    6  C7  UNL     1     -42.301   2.611  -3.506  1.00 20.00     0.065 A 
HETATM    7  C5  UNL     1     -42.533   1.190  -3.118  1.00 20.00     0.018 A 
HETATM    8  C6  UNL     1     -41.427   1.541  -4.069  1.00 20.00     0.018 A 
ENDBRANCH   5   6
ENDBRANCH   1   4
BRANCH   2   9
HETATM    9  C4  UNL     1     -41.774   7.218  -1.726  1.00 20.00    -0.002 C 
HETATM   10  C3  UNL     1     -42.939   7.860  -1.587  1.00 20.00     0.009 C 
ENDBRANCH   2   9
TORSDOF 3
ENDMDL
MODEL 9
REMARK VINA RESULT:      -4.0     11.018     11.892
REMARK  3 active torsions:
REMARK  status: ('A' for Active; 'I' for Inactive)
REMARK    1  A    between atoms: C1_1  and  C7_7 
REMARK    2  A    between atoms: C2_2  and  C8_8 
REMARK    3  A    between atoms: C4_4  and  C9_9 
ROOT
HETATM    1  C8  UNL     1     -36.927  15.558  -3.907  1.00 20.00     0.233 A 
HETATM    2  C9  UNL     1     -36.511  14.628  -5.000  1.00 20.00     0.186 A 
HETATM    3  O10 UNL     1     -37.211  14.167  -3.836  1.00 20.00    -0.358 OA
ENDROOT
BRANCH   1   4
HETATM    4  C2  UNL     1     -35.985  15.963  -2.865  1.00 20.00    -0.071 C 
HETATM    5  C1  UNL     1     -35.212  16.295  -2.008  1.00 20.00    -0.099 C 
BRANCH   5   6
HETATM    6  C7  UNL     1     -34.270  16.699  -0.966  1.00 20.00     0.065 A 
HETATM    7  C5  UNL     1     -34.812  17.424   0.220  1.00 20.00     0.018 A 
HETATM    8  C6  UNL     1     -33.994  18.156  -0.802  1.00 20.00     0.018 A 
ENDBRANCH   5   6
ENDBRANCH   1   4
BRANCH   2   9
HETATM    9  C4  UNL     1     -35.108  14.322  -5.244  1.00 20.00    -0.002 C 
HETATM   10  C3  UNL     1     -34.520  13.175  -4.886  1.00 20.00     0.009 C 
ENDBRANCH   2   9
TORSDOF 3
ENDMDL
