MODEL 1
REMARK VINA RESULT:      -4.3      0.000      0.000
REMARK  1 active torsions:
REMARK  status: ('A' for Active; 'I' for Inactive)
REMARK    1  A    between atoms: C1_1  and  C5_5 
ROOT
HETATM    1  C2  UNL     1     -36.325  15.770  -4.376  1.00 20.00     0.013 C 
HETATM    2  C3  UNL     1     -35.744  16.840  -3.458  1.00 20.00     0.009 C 
HETATM    3  C4  UNL     1     -34.614  14.812  -2.897  1.00 20.00     0.021 C 
HETATM    4  C5  UNL     1     -35.710  14.448  -3.908  1.00 20.00     0.055 C 
HETATM    5  C6  UNL     1     -34.353  16.318  -3.082  1.00 20.00    -0.047 C 
HETATM    6  C8  UNL     1     -33.843  16.962  -1.790  1.00 20.00     0.015 C 
HETATM    7  C9  UNL     1     -33.335  16.574  -4.205  1.00 20.00     0.015 C 
ENDROOT
BRANCH   4   8
HETATM    8  C1  UNL     1     -35.162  13.661  -5.060  1.00 20.00     0.127 C 
HETATM    9  C7  UNL     1     -35.244  14.304  -6.418  1.00 20.00     0.091 C 
HETATM   10  O10 UNL     1     -34.668  12.545  -4.904  1.00 20.00    -0.298 OA
ENDBRANCH   4   8
TORSDOF 1
ENDMDL
MODEL 2
REMARK VINA RESULT:      -4.3     11.326     12.523
REMARK  1 active torsions:
REMARK  status: ('A' for Active; 'I' for Inactive)
REMARK    1  A    between atoms: C1_1  and  C5_5 
ROOT
HETATM    1  C2  UNL     1     -34.629   6.563   3.040  1.00 20.00     0.013 C 
HETATM    2  C3  UNL     1     -35.353   5.700   4.068  1.00 20.00     0.009 C 
HETATM    3  C4  UNL     1     -33.040   5.127   4.243  1.00 20.00     0.021 C 
HETATM    4  C5  UNL     1     -33.175   6.083   3.049  1.00 20.00     0.055 C 
HETATM    5  C6  UNL     1     -34.285   5.365   5.116  1.00 20.00    -0.047 C 
HETATM    6  C8  UNL     1     -34.659   4.113   5.915  1.00 20.00     0.015 C 
HETATM    7  C9  UNL     1     -34.069   6.535   6.090  1.00 20.00     0.015 C 
ENDROOT
BRANCH   4   8
HETATM    8  C1  UNL     1     -32.219   7.233   3.150  1.00 20.00     0.127 C 
HETATM    9  C7  UNL     1     -32.233   8.225   2.019  1.00 20.00     0.091 C 
HETATM   10  O10 UNL     1     -31.461   7.361   4.111  1.00 20.00    -0.298 OA
ENDBRANCH   4   8
TORSDOF 1
ENDMDL
MODEL 3
REMARK VINA RESULT:      -4.2      1.967      3.827
REMARK  1 active torsions:
REMARK  status: ('A' for Active; 'I' for Inactive)
REMARK    1  A    between atoms: C1_1  and  C5_5 
ROOT
HETATM    1  C2  UNL     1     -34.589  14.026  -3.560  1.00 20.00     0.013 C 
HETATM    2  C3  UNL     1     -34.369  13.625  -5.015  1.00 20.00     0.009 C 
HETATM    3  C4  UNL     1     -36.222  15.132  -5.023  1.00 20.00     0.021 C 
HETATM    4  C5  UNL     1     -35.869  14.867  -3.553  1.00 20.00     0.055 C 
HETATM    5  C6  UNL     1     -34.960  14.781  -5.831  1.00 20.00    -0.047 C 
HETATM    6  C8  UNL     1     -35.309  14.339  -7.255  1.00 20.00     0.015 C 
HETATM    7  C9  UNL     1     -33.991  15.973  -5.899  1.00 20.00     0.015 C 
ENDROOT
BRANCH   4   8
HETATM    8  C1  UNL     1     -35.681  16.143  -2.790  1.00 20.00     0.127 C 
HETATM    9  C7  UNL     1     -34.577  16.164  -1.768  1.00 20.00     0.091 C 
HETATM   10  O10 UNL     1     -36.393  17.126  -2.990  1.00 20.00    -0.298 OA
ENDBRANCH   4   8
TORSDOF 1
ENDMDL
MODEL 4
REMARK VINA RESULT:      -4.2      1.221      2.253
REMARK  1 active torsions:
REMARK  status: ('A' for Active; 'I' for Inactive)
REMARK    1  A    between atoms: C1_1  and  C5_5 
ROOT
HETATM    1  C2  UNL     1     -33.344  16.010  -4.538  1.00 20.00     0.013 C 
HETATM    2  C3  UNL     1     -33.915  17.276  -3.908  1.00 20.00     0.009 C 
HETATM    3  C4  UNL     1     -35.717  15.711  -3.980  1.00 20.00     0.021 C 
HETATM    4  C5  UNL     1     -34.538  15.068  -4.722  1.00 20.00     0.055 C 
HETATM    5  C6  UNL     1     -35.106  16.793  -3.072  1.00 20.00    -0.047 C 
HETATM    6  C8  UNL     1     -36.098  17.928  -2.804  1.00 20.00     0.015 C 
HETATM    7  C9  UNL     1     -34.646  16.202  -1.730  1.00 20.00     0.015 C 
ENDROOT
BRANCH   4   8
HETATM    8  C1  UNL     1     -34.237  13.695  -4.200  1.00 20.00     0.127 C 
HETATM    9  C7  UNL     1     -32.913  13.508  -3.512  1.00 20.00     0.091 C 
HETATM   10  O10 UNL     1     -35.035  12.767  -4.327  1.00 20.00    -0.298 OA
ENDBRANCH   4   8
TORSDOF 1
ENDMDL
MODEL 5
REMARK VINA RESULT:      -4.2      1.075      2.033
REMARK  1 active torsions:
REMARK  status: ('A' for Active; 'I' for Inactive)
REMARK    1  A    between atoms: C1_1  and  C5_5 
ROOT
HETATM    1  C2  UNL     1     -34.118  15.144  -2.760  1.00 20.00     0.013 C 
HETATM    2  C3  UNL     1     -34.005  16.665  -2.704  1.00 20.00     0.009 C 
HETATM    3  C4  UNL     1     -33.456  16.050  -4.946  1.00 20.00     0.021 C 
HETATM    4  C5  UNL     1     -33.617  14.746  -4.152  1.00 20.00     0.055 C 
HETATM    5  C6  UNL     1     -34.219  17.125  -4.150  1.00 20.00    -0.047 C 
HETATM    6  C8  UNL     1     -33.632  18.520  -4.386  1.00 20.00     0.015 C 
HETATM    7  C9  UNL     1     -35.710  17.140  -4.520  1.00 20.00     0.015 C 
ENDROOT
BRANCH   4   8
HETATM    8  C1  UNL     1     -34.566  13.801  -4.825  1.00 20.00     0.127 C 
HETATM    9  C7  UNL     1     -34.967  14.136  -6.236  1.00 20.00     0.091 C 
HETATM   10  O10 UNL     1     -34.995  12.800  -4.253  1.00 20.00    -0.298 OA
ENDBRANCH   4   8
TORSDOF 1
ENDMDL
MODEL 6
REMARK VINA RESULT:      -4.2      1.705      3.001
REMARK  1 active torsions:
REMARK  status: ('A' for Active; 'I' for Inactive)
REMARK    1  A    between atoms: C1_1  and  C5_5 
ROOT
HETATM    1  C2  UNL     1     -36.464  14.997  -4.971  1.00 20.00     0.013 C 
HETATM    2  C3  UNL     1     -36.425  16.015  -6.106  1.00 20.00     0.009 C 
HETATM    3  C4  UNL     1     -34.219  15.971  -5.190  1.00 20.00     0.021 C 
HETATM    4  C5  UNL     1     -35.094  15.087  -4.291  1.00 20.00     0.055 C 
HETATM    5  C6  UNL     1     -34.955  16.059  -6.540  1.00 20.00    -0.047 C 
HETATM    6  C8  UNL     1     -34.627  17.362  -7.274  1.00 20.00     0.015 C 
HETATM    7  C9  UNL     1     -34.601  14.870  -7.447  1.00 20.00     0.015 C 
ENDROOT
BRANCH   4   8
HETATM    8  C1  UNL     1     -34.491  13.729  -4.094  1.00 20.00     0.127 C 
HETATM    9  C7  UNL     1     -33.068  13.684  -3.610  1.00 20.00     0.091 C 
HETATM   10  O10 UNL     1     -35.129  12.700  -4.317  1.00 20.00    -0.298 OA
ENDBRANCH   4   8
TORSDOF 1
ENDMDL
MODEL 7
REMARK VINA RESULT:      -4.1     10.863     12.145
REMARK  1 active torsions:
REMARK  status: ('A' for Active; 'I' for Inactive)
REMARK    1  A    between atoms: C1_1  and  C5_5 
ROOT
HETATM    1  C2  UNL     1     -41.203   7.335  -1.443  1.00 20.00     0.013 C 
HETATM    2  C3  UNL     1     -40.966   6.311  -0.337  1.00 20.00     0.009 C 
HETATM    3  C4  UNL     1     -43.197   5.940  -1.107  1.00 20.00     0.021 C 
HETATM    4  C5  UNL     1     -42.680   7.194  -1.825  1.00 20.00     0.055 C 
HETATM    5  C6  UNL     1     -41.945   5.172  -0.644  1.00 20.00    -0.047 C 
HETATM    6  C8  UNL     1     -42.231   4.329   0.602  1.00 20.00     0.015 C 
HETATM    7  C9  UNL     1     -41.409   4.256  -1.756  1.00 20.00     0.015 C 
ENDROOT
BRANCH   4   8
HETATM    8  C1  UNL     1     -42.854   7.094  -3.310  1.00 20.00     0.127 C 
HETATM    9  C7  UNL     1     -42.359   8.254  -4.129  1.00 20.00     0.091 C 
HETATM   10  O10 UNL     1     -43.375   6.110  -3.834  1.00 20.00    -0.298 OA
ENDBRANCH   4   8
TORSDOF 1
ENDMDL
MODEL 8
REMARK VINA RESULT:      -4.0      1.839      2.854
REMARK  1 active torsions:
REMARK  status: ('A' for Active; 'I' for Inactive)
REMARK    1  A    between atoms: C1_1  and  C5_5 
ROOT
HETATM    1  C2  UNL     1     -34.940  14.552  -6.584  1.00 20.00     0.013 C 
HETATM    2  C3  UNL     1     -34.103  15.781  -6.924  1.00 20.00     0.009 C 
HETATM    3  C4  UNL     1     -35.656  16.488  -5.252  1.00 20.00     0.021 C 
HETATM    4  C5  UNL     1     -36.030  15.047  -5.629  1.00 20.00     0.055 C 
HETATM    5  C6  UNL     1     -34.187  16.667  -5.675  1.00 20.00    -0.047 C 
HETATM    6  C8  UNL     1     -33.872  18.129  -6.004  1.00 20.00     0.015 C 
HETATM    7  C9  UNL     1     -33.227  16.182  -4.577  1.00 20.00     0.015 C 
ENDROOT
BRANCH   4   8
HETATM    8  C1  UNL     1     -36.138  14.169  -4.420  1.00 20.00     0.127 C 
HETATM    9  C7  UNL     1     -34.982  13.246  -4.149  1.00 20.00     0.091 C 
HETATM   10  O10 UNL     1     -37.124  14.201  -3.683  1.00 20.00    -0.298 OA
ENDBRANCH   4   8
TORSDOF 1
ENDMDL
MODEL 9
REMARK VINA RESULT:      -4.0      2.236      4.034
REMARK  1 active torsions:
REMARK  status: ('A' for Active; 'I' for Inactive)
REMARK    1  A    between atoms: C1_1  and  C5_5 
ROOT
HETATM    1  C2  UNL     1     -33.690  16.811  -4.634  1.00 20.00     0.013 C 
HETATM    2  C3  UNL     1     -34.032  15.563  -5.442  1.00 20.00     0.009 C 
HETATM    3  C4  UNL     1     -34.033  14.882  -3.153  1.00 20.00     0.021 C 
HETATM    4  C5  UNL     1     -33.541  16.336  -3.186  1.00 20.00     0.055 C 
HETATM    5  C6  UNL     1     -34.805  14.667  -4.467  1.00 20.00    -0.047 C 
HETATM    6  C8  UNL     1     -34.769  13.201  -4.906  1.00 20.00     0.015 C 
HETATM    7  C9  UNL     1     -36.269  15.115  -4.335  1.00 20.00     0.015 C 
ENDROOT
BRANCH   4   8
HETATM    8  C1  UNL     1     -34.317  17.205  -2.243  1.00 20.00     0.127 C 
HETATM    9  C7  UNL     1     -34.610  16.634  -0.882  1.00 20.00     0.091 C 
HETATM   10  O10 UNL     1     -34.694  18.331  -2.565  1.00 20.00    -0.298 OA
ENDBRANCH   4   8
TORSDOF 1
ENDMDL
