MODEL 1
REMARK VINA RESULT:      -4.7      0.000      0.000
REMARK  1 active torsions:
REMARK  status: ('A' for Active; 'I' for Inactive)
REMARK    1  A    between atoms: C2_2  and  C3_3 
ROOT
HETATM    1  C1  UNL     1     -35.564  15.528  -3.168  1.00 20.00    -0.007 C 
HETATM    2  C2  UNL     1     -34.703  15.005  -4.045  1.00 20.00    -0.012 C 
HETATM    3  C4  UNL     1     -33.719  17.023  -3.318  1.00 20.00     0.022 C 
HETATM    4  C5  UNL     1     -33.409  15.744  -4.123  1.00 20.00     0.019 C 
HETATM    5  C6  UNL     1     -34.991  16.737  -2.481  1.00 20.00    -0.029 C 
HETATM    6  C8  UNL     1     -32.242  14.955  -3.542  1.00 20.00     0.015 C 
HETATM    7  C9  UNL     1     -34.650  16.418  -1.021  1.00 20.00     0.019 C 
HETATM    8  C10 UNL     1     -35.963  17.920  -2.541  1.00 20.00     0.019 C 
ENDROOT
BRANCH   2   9
HETATM    9  C3  UNL     1     -35.021  13.836  -4.847  1.00 20.00     0.151 C 
HETATM   10  C7  UNL     1     -35.269  14.023  -6.328  1.00 20.00     0.096 C 
HETATM   11  O11 UNL     1     -35.098  12.710  -4.335  1.00 20.00    -0.293 OA
ENDBRANCH   2   9
TORSDOF 1
ENDMDL
MODEL 2
REMARK VINA RESULT:      -4.5      1.993      3.979
REMARK  1 active torsions:
REMARK  status: ('A' for Active; 'I' for Inactive)
REMARK    1  A    between atoms: C2_2  and  C3_3 
ROOT
HETATM    1  C1  UNL     1     -35.123  16.223  -4.873  1.00 20.00    -0.007 C 
HETATM    2  C2  UNL     1     -34.624  15.811  -3.705  1.00 20.00    -0.012 C 
HETATM    3  C4  UNL     1     -35.334  13.854  -4.815  1.00 20.00     0.022 C 
HETATM    4  C5  UNL     1     -34.529  14.327  -3.587  1.00 20.00     0.019 C 
HETATM    5  C6  UNL     1     -35.458  15.065  -5.773  1.00 20.00    -0.029 C 
HETATM    6  C8  UNL     1     -33.090  13.824  -3.602  1.00 20.00     0.015 C 
HETATM    7  C9  UNL     1     -34.459  14.976  -6.933  1.00 20.00     0.019 C 
HETATM    8  C10 UNL     1     -36.883  15.186  -6.323  1.00 20.00     0.019 C 
ENDROOT
BRANCH   2   9
HETATM    9  C3  UNL     1     -34.231  16.737  -2.656  1.00 20.00     0.151 C 
HETATM   10  C7  UNL     1     -34.634  16.424  -1.231  1.00 20.00     0.096 C 
HETATM   11  O11 UNL     1     -33.588  17.763  -2.916  1.00 20.00    -0.293 OA
ENDBRANCH   2   9
TORSDOF 1
ENDMDL
MODEL 3
REMARK VINA RESULT:      -4.5      1.567      2.542
REMARK  1 active torsions:
REMARK  status: ('A' for Active; 'I' for Inactive)
REMARK    1  A    between atoms: C2_2  and  C3_3 
ROOT
HETATM    1  C1  UNL     1     -34.443  16.136  -4.972  1.00 20.00    -0.007 C 
HETATM    2  C2  UNL     1     -34.068  15.426  -3.905  1.00 20.00    -0.012 C 
HETATM    3  C4  UNL     1     -33.674  17.682  -3.335  1.00 20.00     0.022 C 
HETATM    4  C5  UNL     1     -33.719  16.267  -2.723  1.00 20.00     0.019 C 
HETATM    5  C6  UNL     1     -34.415  17.614  -4.694  1.00 20.00    -0.029 C 
HETATM    6  C8  UNL     1     -34.737  16.150  -1.594  1.00 20.00     0.015 C 
HETATM    7  C9  UNL     1     -35.840  18.170  -4.593  1.00 20.00     0.019 C 
HETATM    8  C10 UNL     1     -33.640  18.368  -5.780  1.00 20.00     0.019 C 
ENDROOT
BRANCH   2   9
HETATM    9  C3  UNL     1     -34.000  13.975  -3.919  1.00 20.00     0.151 C 
HETATM   10  C7  UNL     1     -35.226  13.200  -4.351  1.00 20.00     0.096 C 
HETATM   11  O11 UNL     1     -32.969  13.379  -3.579  1.00 20.00    -0.293 OA
ENDBRANCH   2   9
TORSDOF 1
ENDMDL
MODEL 4
REMARK VINA RESULT:      -4.5      1.525      2.483
REMARK  1 active torsions:
REMARK  status: ('A' for Active; 'I' for Inactive)
REMARK    1  A    between atoms: C2_2  and  C3_3 
ROOT
HETATM    1  C1  UNL     1     -34.409  15.844  -2.087  1.00 20.00    -0.007 C 
HETATM    2  C2  UNL     1     -35.251  15.502  -3.066  1.00 20.00    -0.012 C 
HETATM    3  C4  UNL     1     -36.115  17.502  -2.158  1.00 20.00     0.022 C 
HETATM    4  C5  UNL     1     -36.288  16.538  -3.349  1.00 20.00     0.019 C 
HETATM    5  C6  UNL     1     -34.733  17.202  -1.525  1.00 20.00    -0.029 C 
HETATM    6  C8  UNL     1     -36.082  17.226  -4.694  1.00 20.00     0.015 C 
HETATM    7  C9  UNL     1     -33.678  18.228  -1.954  1.00 20.00     0.019 C 
HETATM    8  C10 UNL     1     -34.827  17.161   0.003  1.00 20.00     0.019 C 
ENDROOT
BRANCH   2   9
HETATM    9  C3  UNL     1     -35.158  14.232  -3.765  1.00 20.00     0.151 C 
HETATM   10  C7  UNL     1     -33.785  13.655  -4.032  1.00 20.00     0.096 C 
HETATM   11  O11 UNL     1     -36.175  13.633  -4.142  1.00 20.00    -0.293 OA
ENDBRANCH   2   9
TORSDOF 1
ENDMDL
MODEL 5
REMARK VINA RESULT:      -4.4      2.069      3.065
REMARK  1 active torsions:
REMARK  status: ('A' for Active; 'I' for Inactive)
REMARK    1  A    between atoms: C2_2  and  C3_3 
ROOT
HETATM    1  C1  UNL     1     -35.629  14.900  -3.491  1.00 20.00    -0.007 C 
HETATM    2  C2  UNL     1     -36.350  15.083  -4.600  1.00 20.00    -0.012 C 
HETATM    3  C4  UNL     1     -34.162  15.778  -5.145  1.00 20.00     0.022 C 
HETATM    4  C5  UNL     1     -35.531  15.471  -5.785  1.00 20.00     0.019 C 
HETATM    5  C6  UNL     1     -34.164  15.136  -3.735  1.00 20.00    -0.029 C 
HETATM    6  C8  UNL     1     -35.453  14.369  -6.836  1.00 20.00     0.015 C 
HETATM    7  C9  UNL     1     -33.394  13.810  -3.715  1.00 20.00     0.019 C 
HETATM    8  C10 UNL     1     -33.575  16.094  -2.695  1.00 20.00     0.019 C 
ENDROOT
BRANCH   2   9
HETATM    9  C3  UNL     1     -37.794  14.927  -4.625  1.00 20.00     0.151 C 
HETATM   10  C7  UNL     1     -38.588  15.718  -5.642  1.00 20.00     0.096 C 
HETATM   11  O11 UNL     1     -38.370  14.171  -3.830  1.00 20.00    -0.293 OA
ENDBRANCH   2   9
TORSDOF 1
ENDMDL
MODEL 6
REMARK VINA RESULT:      -4.4      2.518      4.342
REMARK  1 active torsions:
REMARK  status: ('A' for Active; 'I' for Inactive)
REMARK    1  A    between atoms: C2_2  and  C3_3 
ROOT
HETATM    1  C1  UNL     1     -34.406  15.543  -2.298  1.00 20.00    -0.007 C 
HETATM    2  C2  UNL     1     -34.009  16.817  -2.227  1.00 20.00    -0.012 C 
HETATM    3  C4  UNL     1     -33.706  16.184  -4.481  1.00 20.00     0.022 C 
HETATM    4  C5  UNL     1     -33.699  17.419  -3.557  1.00 20.00     0.019 C 
HETATM    5  C6  UNL     1     -34.437  15.049  -3.719  1.00 20.00    -0.029 C 
HETATM    6  C8  UNL     1     -34.717  18.472  -3.980  1.00 20.00     0.015 C 
HETATM    7  C9  UNL     1     -35.883  14.882  -4.200  1.00 20.00     0.019 C 
HETATM    8  C10 UNL     1     -33.686  13.722  -3.861  1.00 20.00     0.019 C 
ENDROOT
BRANCH   2   9
HETATM    9  C3  UNL     1     -33.885  17.524  -0.965  1.00 20.00     0.151 C 
HETATM   10  C7  UNL     1     -34.890  17.232   0.128  1.00 20.00     0.096 C 
HETATM   11  O11 UNL     1     -32.984  18.355  -0.783  1.00 20.00    -0.293 OA
ENDBRANCH   2   9
TORSDOF 1
ENDMDL
MODEL 7
REMARK VINA RESULT:      -4.3      2.151      4.005
REMARK  1 active torsions:
REMARK  status: ('A' for Active; 'I' for Inactive)
REMARK    1  A    between atoms: C2_2  and  C3_3 
ROOT
HETATM    1  C1  UNL     1     -36.384  15.508  -5.864  1.00 20.00    -0.007 C 
HETATM    2  C2  UNL     1     -36.520  14.986  -4.642  1.00 20.00    -0.012 C 
HETATM    3  C4  UNL     1     -34.575  13.997  -5.540  1.00 20.00     0.022 C 
HETATM    4  C5  UNL     1     -35.363  14.143  -4.222  1.00 20.00     0.019 C 
HETATM    5  C6  UNL     1     -35.082  15.103  -6.500  1.00 20.00    -0.029 C 
HETATM    6  C8  UNL     1     -34.536  14.785  -3.114  1.00 20.00     0.015 C 
HETATM    7  C9  UNL     1     -34.117  16.293  -6.556  1.00 20.00     0.019 C 
HETATM    8  C10 UNL     1     -35.303  14.547  -7.910  1.00 20.00     0.019 C 
ENDROOT
BRANCH   2   9
HETATM    9  C3  UNL     1     -37.697  15.219  -3.823  1.00 20.00     0.151 C 
HETATM   10  C7  UNL     1     -37.943  16.615  -3.294  1.00 20.00     0.096 C 
HETATM   11  O11 UNL     1     -38.480  14.298  -3.553  1.00 20.00    -0.293 OA
ENDBRANCH   2   9
TORSDOF 1
ENDMDL
MODEL 8
REMARK VINA RESULT:      -4.3      1.824      3.278
REMARK  1 active torsions:
REMARK  status: ('A' for Active; 'I' for Inactive)
REMARK    1  A    between atoms: C2_2  and  C3_3 
ROOT
HETATM    1  C1  UNL     1     -35.163  14.653  -4.536  1.00 20.00    -0.007 C 
HETATM    2  C2  UNL     1     -36.240  15.144  -3.917  1.00 20.00    -0.012 C 
HETATM    3  C4  UNL     1     -34.413  15.665  -2.517  1.00 20.00     0.022 C 
HETATM    4  C5  UNL     1     -35.914  15.962  -2.712  1.00 20.00     0.019 C 
HETATM    5  C6  UNL     1     -33.891  15.064  -3.846  1.00 20.00    -0.029 C 
HETATM    6  C8  UNL     1     -36.197  17.446  -2.912  1.00 20.00     0.015 C 
HETATM    7  C9  UNL     1     -33.136  16.105  -4.681  1.00 20.00     0.019 C 
HETATM    8  C10 UNL     1     -32.987  13.855  -3.583  1.00 20.00     0.019 C 
ENDROOT
BRANCH   2   9
HETATM    9  C3  UNL     1     -37.592  14.881  -4.380  1.00 20.00     0.151 C 
HETATM   10  C7  UNL     1     -38.022  15.458  -5.711  1.00 20.00     0.096 C 
HETATM   11  O11 UNL     1     -38.381  14.207  -3.704  1.00 20.00    -0.293 OA
ENDBRANCH   2   9
TORSDOF 1
ENDMDL
MODEL 9
REMARK VINA RESULT:      -4.3      1.617      1.845
REMARK  1 active torsions:
REMARK  status: ('A' for Active; 'I' for Inactive)
REMARK    1  A    between atoms: C2_2  and  C3_3 
ROOT
HETATM    1  C1  UNL     1     -36.140  16.562  -2.872  1.00 20.00    -0.007 C 
HETATM    2  C2  UNL     1     -36.036  15.574  -3.765  1.00 20.00    -0.012 C 
HETATM    3  C4  UNL     1     -33.827  16.302  -3.365  1.00 20.00     0.022 C 
HETATM    4  C5  UNL     1     -34.627  15.175  -4.050  1.00 20.00     0.019 C 
HETATM    5  C6  UNL     1     -34.791  17.013  -2.382  1.00 20.00    -0.029 C 
HETATM    6  C8  UNL     1     -34.281  13.795  -3.500  1.00 20.00     0.015 C 
HETATM    7  C9  UNL     1     -34.563  16.559  -0.936  1.00 20.00     0.019 C 
HETATM    8  C10 UNL     1     -34.647  18.535  -2.478  1.00 20.00     0.019 C 
ENDROOT
BRANCH   2   9
HETATM    9  C3  UNL     1     -37.196  14.970  -4.398  1.00 20.00     0.151 C 
HETATM   10  C7  UNL     1     -37.516  15.349  -5.827  1.00 20.00     0.096 C 
HETATM   11  O11 UNL     1     -37.915  14.169  -3.784  1.00 20.00    -0.293 OA
ENDBRANCH   2   9
TORSDOF 1
ENDMDL
