MODEL 1
REMARK VINA RESULT:      -4.0      0.000      0.000
REMARK  1 active torsions:
REMARK  status: ('A' for Active; 'I' for Inactive)
REMARK    1  A    between atoms: C1_1  and  C4_4 
ROOT
HETATM    1  C2  UNL     1     -34.767   4.223   5.618  1.00 20.00     0.014 A 
HETATM    2  C3  UNL     1     -34.439   5.629   6.024  1.00 20.00     0.014 A 
HETATM    3  C4  UNL     1     -35.064   5.363   4.682  1.00 20.00     0.066 A 
ENDROOT
BRANCH   3   4
HETATM    4  C1  UNL     1     -34.257   5.527   3.468  1.00 20.00     0.193 C 
HETATM    5  O5  UNL     1     -34.552   4.985   2.413  1.00 20.00    -0.286 OA
HETATM    6  I6  UNL     1     -32.551   6.707   3.498  1.00 20.00    -0.001 I 
ENDBRANCH   3   4
TORSDOF 1
ENDMDL
MODEL 2
REMARK VINA RESULT:      -4.0      2.716      3.381
REMARK  1 active torsions:
REMARK  status: ('A' for Active; 'I' for Inactive)
REMARK    1  A    between atoms: C1_1  and  C4_4 
ROOT
HETATM    1  C2  UNL     1     -32.519   6.219   3.289  1.00 20.00     0.014 A 
HETATM    2  C3  UNL     1     -33.848   5.653   2.889  1.00 20.00     0.014 A 
HETATM    3  C4  UNL     1     -33.765   6.644   4.018  1.00 20.00     0.066 A 
ENDROOT
BRANCH   3   4
HETATM    4  C1  UNL     1     -33.985   6.188   5.394  1.00 20.00     0.193 C 
HETATM    5  O5  UNL     1     -33.662   6.859   6.362  1.00 20.00    -0.286 OA
HETATM    6  I6  UNL     1     -34.871   4.347   5.756  1.00 20.00    -0.001 I 
ENDBRANCH   3   4
TORSDOF 1
ENDMDL
MODEL 3
REMARK VINA RESULT:      -3.9      1.959      1.994
REMARK  1 active torsions:
REMARK  status: ('A' for Active; 'I' for Inactive)
REMARK    1  A    between atoms: C1_1  and  C4_4 
ROOT
HETATM    1  C2  UNL     1     -34.701   3.766   5.150  1.00 20.00     0.014 A 
HETATM    2  C3  UNL     1     -35.256   4.469   6.352  1.00 20.00     0.014 A 
HETATM    3  C4  UNL     1     -34.965   5.247   5.097  1.00 20.00     0.066 A 
ENDROOT
BRANCH   3   4
HETATM    4  C1  UNL     1     -33.834   6.180   5.076  1.00 20.00     0.193 C 
HETATM    5  O5  UNL     1     -33.487   6.805   6.067  1.00 20.00    -0.286 OA
HETATM    6  I6  UNL     1     -32.761   6.482   3.326  1.00 20.00    -0.001 I 
ENDBRANCH   3   4
TORSDOF 1
ENDMDL
MODEL 4
REMARK VINA RESULT:      -3.7      2.237      3.012
REMARK  1 active torsions:
REMARK  status: ('A' for Active; 'I' for Inactive)
REMARK    1  A    between atoms: C1_1  and  C4_4 
ROOT
HETATM    1  C2  UNL     1     -32.051   6.003   3.174  1.00 20.00     0.014 A 
HETATM    2  C3  UNL     1     -32.871   7.192   2.771  1.00 20.00     0.014 A 
HETATM    3  C4  UNL     1     -33.178   6.470   4.056  1.00 20.00     0.066 A 
ENDROOT
BRANCH   3   4
HETATM    4  C1  UNL     1     -34.398   5.662   4.153  1.00 20.00     0.193 C 
HETATM    5  O5  UNL     1     -35.215   5.606   3.246  1.00 20.00    -0.286 OA
HETATM    6  I6  UNL     1     -34.790   4.563   5.868  1.00 20.00    -0.001 I 
ENDBRANCH   3   4
TORSDOF 1
ENDMDL
MODEL 5
REMARK VINA RESULT:      -3.3     12.384     12.655
REMARK  1 active torsions:
REMARK  status: ('A' for Active; 'I' for Inactive)
REMARK    1  A    between atoms: C1_1  and  C4_4 
ROOT
HETATM    1  C2  UNL     1     -32.518  14.495  -3.554  1.00 20.00     0.014 A 
HETATM    2  C3  UNL     1     -33.312  15.726  -3.871  1.00 20.00     0.014 A 
HETATM    3  C4  UNL     1     -34.019  14.421  -3.620  1.00 20.00     0.066 A 
ENDROOT
BRANCH   3   4
HETATM    4  C1  UNL     1     -34.657  13.722  -4.740  1.00 20.00     0.193 C 
HETATM    5  O5  UNL     1     -34.980  12.545  -4.673  1.00 20.00    -0.286 OA
HETATM    6  I6  UNL     1     -35.041  14.723  -6.516  1.00 20.00    -0.001 I 
ENDBRANCH   3   4
TORSDOF 1
ENDMDL
MODEL 6
REMARK VINA RESULT:      -3.2     12.201     12.539
REMARK  1 active torsions:
REMARK  status: ('A' for Active; 'I' for Inactive)
REMARK    1  A    between atoms: C1_1  and  C4_4 
ROOT
HETATM    1  C2  UNL     1     -35.635  13.783  -4.207  1.00 20.00     0.014 A 
HETATM    2  C3  UNL     1     -34.341  13.333  -4.816  1.00 20.00     0.014 A 
HETATM    3  C4  UNL     1     -34.342  14.006  -3.470  1.00 20.00     0.066 A 
ENDROOT
BRANCH   3   4
HETATM    4  C1  UNL     1     -33.809  15.366  -3.345  1.00 20.00     0.193 C 
HETATM    5  O5  UNL     1     -32.961  15.805  -4.108  1.00 20.00    -0.286 OA
HETATM    6  I6  UNL     1     -34.487  16.621  -1.838  1.00 20.00    -0.001 I 
ENDBRANCH   3   4
TORSDOF 1
ENDMDL
MODEL 7
REMARK VINA RESULT:      -3.2      1.783      2.076
REMARK  1 active torsions:
REMARK  status: ('A' for Active; 'I' for Inactive)
REMARK    1  A    between atoms: C1_1  and  C4_4 
ROOT
HETATM    1  C2  UNL     1     -34.958   5.432   3.675  1.00 20.00     0.014 A 
HETATM    2  C3  UNL     1     -34.229   5.478   4.984  1.00 20.00     0.014 A 
HETATM    3  C4  UNL     1     -34.000   6.557   3.960  1.00 20.00     0.066 A 
ENDROOT
BRANCH   3   4
HETATM    4  C1  UNL     1     -32.720   6.612   3.247  1.00 20.00     0.193 C 
HETATM    5  O5  UNL     1     -31.909   5.699   3.294  1.00 20.00    -0.286 OA
HETATM    6  I6  UNL     1     -32.228   8.276   2.109  1.00 20.00    -0.001 I 
ENDBRANCH   3   4
TORSDOF 1
ENDMDL
MODEL 8
REMARK VINA RESULT:      -3.1     12.466     13.485
REMARK  1 active torsions:
REMARK  status: ('A' for Active; 'I' for Inactive)
REMARK    1  A    between atoms: C1_1  and  C4_4 
ROOT
HETATM    1  C2  UNL     1     -35.923  14.962  -6.736  1.00 20.00     0.014 A 
HETATM    2  C3  UNL     1     -34.467  15.264  -6.927  1.00 20.00     0.014 A 
HETATM    3  C4  UNL     1     -34.887  13.951  -6.325  1.00 20.00     0.066 A 
ENDROOT
BRANCH   3   4
HETATM    4  C1  UNL     1     -34.648  13.704  -4.899  1.00 20.00     0.193 C 
HETATM    5  O5  UNL     1     -35.051  12.697  -4.336  1.00 20.00    -0.286 OA
HETATM    6  I6  UNL     1     -33.597  15.085  -3.761  1.00 20.00    -0.001 I 
ENDBRANCH   3   4
TORSDOF 1
ENDMDL
MODEL 9
REMARK VINA RESULT:      -3.1     12.311     12.578
REMARK  1 active torsions:
REMARK  status: ('A' for Active; 'I' for Inactive)
REMARK    1  A    between atoms: C1_1  and  C4_4 
ROOT
HETATM    1  C2  UNL     1     -34.739  16.283  -1.404  1.00 20.00     0.014 A 
HETATM    2  C3  UNL     1     -33.783  16.336  -2.557  1.00 20.00     0.014 A 
HETATM    3  C4  UNL     1     -35.265  16.288  -2.814  1.00 20.00     0.066 A 
ENDROOT
BRANCH   3   4
HETATM    4  C1  UNL     1     -35.860  15.067  -3.365  1.00 20.00     0.193 C 
HETATM    5  O5  UNL     1     -37.055  14.828  -3.275  1.00 20.00    -0.286 OA
HETATM    6  I6  UNL     1     -34.672  13.671  -4.337  1.00 20.00    -0.001 I 
ENDBRANCH   3   4
TORSDOF 1
ENDMDL
