MODEL 1
REMARK VINA RESULT:      -4.9      0.000      0.000
REMARK  1 active torsions:
REMARK  status: ('A' for Active; 'I' for Inactive)
REMARK    1  A    between atoms: C3_3  and  C4_4 
ROOT
HETATM    1  C1  UNL     1     -35.072  13.393  -4.257  1.00 20.00     0.061 C 
HETATM    2  C2  UNL     1     -33.908  13.707  -3.679  1.00 20.00     0.087 C 
HETATM    3  C4  UNL     1     -35.787  14.634  -4.684  1.00 20.00     0.376 C 
HETATM    4  C5  UNL     1     -33.729  15.186  -3.669  1.00 20.00     0.463 C 
HETATM    5  C6  UNL     1     -35.218  17.045  -4.323  1.00 20.00     0.324 C 
HETATM    6  N7  UNL     1     -34.771  15.691  -4.570  1.00 20.00     0.211 N 
HETATM    7  F9  UNL     1     -36.213  14.547  -5.971  1.00 20.00    -0.195 F 
HETATM    8  F10 UNL     1     -33.865  15.684  -2.413  1.00 20.00    -0.169 F 
HETATM    9  F11 UNL     1     -32.504  15.555  -4.120  1.00 20.00    -0.169 F 
ENDROOT
BRANCH   3  10
HETATM   10  C3  UNL     1     -36.929  14.826  -3.739  1.00 20.00     0.312 C 
HETATM   11  O8  UNL     1     -37.960  14.162  -3.779  1.00 20.00    -0.301 OA
ENDBRANCH   3  10
TORSDOF 1
ENDMDL
MODEL 2
REMARK VINA RESULT:      -4.7      1.463      1.500
REMARK  1 active torsions:
REMARK  status: ('A' for Active; 'I' for Inactive)
REMARK    1  A    between atoms: C3_3  and  C4_4 
ROOT
HETATM    1  C1  UNL     1     -34.616  13.502  -4.979  1.00 20.00     0.061 C 
HETATM    2  C2  UNL     1     -33.879  13.501  -3.864  1.00 20.00     0.087 C 
HETATM    3  C4  UNL     1     -34.518  14.828  -5.662  1.00 20.00     0.376 C 
HETATM    4  C5  UNL     1     -33.212  14.822  -3.695  1.00 20.00     0.463 C 
HETATM    5  C6  UNL     1     -33.385  16.944  -4.948  1.00 20.00     0.324 C 
HETATM    6  N7  UNL     1     -33.397  15.497  -4.985  1.00 20.00     0.211 N 
HETATM    7  F9  UNL     1     -34.236  14.690  -6.984  1.00 20.00    -0.195 F 
HETATM    8  F10 UNL     1     -33.772  15.524  -2.676  1.00 20.00    -0.169 F 
HETATM    9  F11 UNL     1     -31.890  14.696  -3.421  1.00 20.00    -0.169 F 
ENDROOT
BRANCH   3  10
HETATM   10  C3  UNL     1     -35.821  15.526  -5.447  1.00 20.00     0.312 C 
HETATM   11  O8  UNL     1     -36.868  14.940  -5.191  1.00 20.00    -0.301 OA
ENDBRANCH   3  10
TORSDOF 1
ENDMDL
MODEL 3
REMARK VINA RESULT:      -4.6      2.111      3.537
REMARK  1 active torsions:
REMARK  status: ('A' for Active; 'I' for Inactive)
REMARK    1  A    between atoms: C3_3  and  C4_4 
ROOT
HETATM    1  C1  UNL     1     -33.156  16.427  -4.674  1.00 20.00     0.061 C 
HETATM    2  C2  UNL     1     -33.788  16.419  -5.853  1.00 20.00     0.087 C 
HETATM    3  C4  UNL     1     -33.438  15.163  -3.929  1.00 20.00     0.376 C 
HETATM    4  C5  UNL     1     -34.548  15.148  -6.012  1.00 20.00     0.463 C 
HETATM    5  C6  UNL     1     -34.969  13.258  -4.479  1.00 20.00     0.324 C 
HETATM    6  N7  UNL     1     -34.054  14.284  -4.934  1.00 20.00     0.211 N 
HETATM    7  F9  UNL     1     -32.297  14.593  -3.462  1.00 20.00    -0.195 F 
HETATM    8  F10 UNL     1     -35.885  15.365  -5.911  1.00 20.00    -0.169 F 
HETATM    9  F11 UNL     1     -34.323  14.567  -7.217  1.00 20.00    -0.169 F 
ENDROOT
BRANCH   3  10
HETATM   10  C3  UNL     1     -34.374  15.512  -2.817  1.00 20.00     0.312 C 
HETATM   11  O8  UNL     1     -34.070  16.248  -1.884  1.00 20.00    -0.301 OA
ENDBRANCH   3  10
TORSDOF 1
ENDMDL
MODEL 4
REMARK VINA RESULT:      -4.5      1.811      2.262
REMARK  1 active torsions:
REMARK  status: ('A' for Active; 'I' for Inactive)
REMARK    1  A    between atoms: C3_3  and  C4_4 
ROOT
HETATM    1  C1  UNL     1     -34.954  14.942  -6.056  1.00 20.00     0.061 C 
HETATM    2  C2  UNL     1     -33.878  15.734  -6.117  1.00 20.00     0.087 C 
HETATM    3  C4  UNL     1     -35.461  14.867  -4.652  1.00 20.00     0.376 C 
HETATM    4  C5  UNL     1     -33.565  16.269  -4.762  1.00 20.00     0.463 C 
HETATM    5  C6  UNL     1     -34.521  15.811  -2.531  1.00 20.00     0.324 C 
HETATM    6  N7  UNL     1     -34.747  15.947  -3.955  1.00 20.00     0.211 N 
HETATM    7  F9  UNL     1     -36.799  15.090  -4.592  1.00 20.00    -0.195 F 
HETATM    8  F10 UNL     1     -32.441  15.694  -4.260  1.00 20.00    -0.169 F 
HETATM    9  F11 UNL     1     -33.361  17.609  -4.777  1.00 20.00    -0.169 F 
ENDROOT
BRANCH   3  10
HETATM   10  C3  UNL     1     -35.105  13.511  -4.133  1.00 20.00     0.312 C 
HETATM   11  O8  UNL     1     -34.780  12.574  -4.855  1.00 20.00    -0.301 OA
ENDBRANCH   3  10
TORSDOF 1
ENDMDL
MODEL 5
REMARK VINA RESULT:      -4.5      1.974      2.779
REMARK  1 active torsions:
REMARK  status: ('A' for Active; 'I' for Inactive)
REMARK    1  A    between atoms: C3_3  and  C4_4 
ROOT
HETATM    1  C1  UNL     1     -34.065  15.451  -2.627  1.00 20.00     0.061 C 
HETATM    2  C2  UNL     1     -34.260  16.743  -2.911  1.00 20.00     0.087 C 
HETATM    3  C4  UNL     1     -33.878  14.668  -3.886  1.00 20.00     0.376 C 
HETATM    4  C5  UNL     1     -34.217  16.950  -4.385  1.00 20.00     0.463 C 
HETATM    5  C6  UNL     1     -34.053  15.377  -6.282  1.00 20.00     0.324 C 
HETATM    6  N7  UNL     1     -33.678  15.695  -4.920  1.00 20.00     0.211 N 
HETATM    7  F9  UNL     1     -32.782  13.868  -3.820  1.00 20.00    -0.195 F 
HETATM    8  F10 UNL     1     -35.457  17.215  -4.875  1.00 20.00    -0.169 F 
HETATM    9  F11 UNL     1     -33.415  17.987  -4.732  1.00 20.00    -0.169 F 
ENDROOT
BRANCH   3  10
HETATM   10  C3  UNL     1     -35.127  13.875  -4.095  1.00 20.00     0.312 C 
HETATM   11  O8  UNL     1     -35.133  12.666  -4.307  1.00 20.00    -0.301 OA
ENDBRANCH   3  10
TORSDOF 1
ENDMDL
MODEL 6
REMARK VINA RESULT:      -4.5      2.126      3.471
REMARK  1 active torsions:
REMARK  status: ('A' for Active; 'I' for Inactive)
REMARK    1  A    between atoms: C3_3  and  C4_4 
ROOT
HETATM    1  C1  UNL     1     -34.060  14.215  -3.377  1.00 20.00     0.061 C 
HETATM    2  C2  UNL     1     -35.047  13.665  -4.091  1.00 20.00     0.087 C 
HETATM    3  C4  UNL     1     -34.428  15.607  -2.973  1.00 20.00     0.376 C 
HETATM    4  C5  UNL     1     -36.172  14.631  -4.230  1.00 20.00     0.463 C 
HETATM    5  C6  UNL     1     -36.422  16.999  -3.571  1.00 20.00     0.324 C 
HETATM    6  N7  UNL     1     -35.866  15.697  -3.269  1.00 20.00     0.211 N 
HETATM    7  F9  UNL     1     -34.220  15.814  -1.647  1.00 20.00    -0.195 F 
HETATM    8  F10 UNL     1     -36.251  15.107  -5.500  1.00 20.00    -0.169 F 
HETATM    9  F11 UNL     1     -37.369  14.067  -3.934  1.00 20.00    -0.169 F 
ENDROOT
BRANCH   3  10
HETATM   10  C3  UNL     1     -33.607  16.534  -3.810  1.00 20.00     0.312 C 
HETATM   11  O8  UNL     1     -32.767  16.151  -4.618  1.00 20.00    -0.301 OA
ENDBRANCH   3  10
TORSDOF 1
ENDMDL
MODEL 7
REMARK VINA RESULT:      -4.5      1.623      2.041
REMARK  1 active torsions:
REMARK  status: ('A' for Active; 'I' for Inactive)
REMARK    1  A    between atoms: C3_3  and  C4_4 
ROOT
HETATM    1  C1  UNL     1     -34.724  15.200  -2.815  1.00 20.00     0.061 C 
HETATM    2  C2  UNL     1     -33.932  16.189  -3.243  1.00 20.00     0.087 C 
HETATM    3  C4  UNL     1     -35.276  14.440  -3.978  1.00 20.00     0.376 C 
HETATM    4  C5  UNL     1     -33.874  16.183  -4.732  1.00 20.00     0.463 C 
HETATM    5  C6  UNL     1     -35.074  14.861  -6.438  1.00 20.00     0.324 C 
HETATM    6  N7  UNL     1     -34.475  14.902  -5.121  1.00 20.00     0.211 N 
HETATM    7  F9  UNL     1     -35.118  13.101  -3.821  1.00 20.00    -0.195 F 
HETATM    8  F10 UNL     1     -34.557  17.237  -5.249  1.00 20.00    -0.169 F 
HETATM    9  F11 UNL     1     -32.601  16.260  -5.193  1.00 20.00    -0.169 F 
ENDROOT
BRANCH   3  10
HETATM   10  C3  UNL     1     -36.719  14.814  -4.096  1.00 20.00     0.312 C 
HETATM   11  O8  UNL     1     -37.638  14.084  -3.738  1.00 20.00    -0.301 OA
ENDBRANCH   3  10
TORSDOF 1
ENDMDL
MODEL 8
REMARK VINA RESULT:      -4.4      2.264      3.262
REMARK  1 active torsions:
REMARK  status: ('A' for Active; 'I' for Inactive)
REMARK    1  A    between atoms: C3_3  and  C4_4 
ROOT
HETATM    1  C1  UNL     1     -34.551  13.558  -3.857  1.00 20.00     0.061 C 
HETATM    2  C2  UNL     1     -34.828  13.272  -5.133  1.00 20.00     0.087 C 
HETATM    3  C4  UNL     1     -34.574  15.038  -3.644  1.00 20.00     0.376 C 
HETATM    4  C5  UNL     1     -35.070  14.529  -5.895  1.00 20.00     0.463 C 
HETATM    5  C6  UNL     1     -34.863  16.912  -5.279  1.00 20.00     0.324 C 
HETATM    6  N7  UNL     1     -35.200  15.566  -4.865  1.00 20.00     0.211 N 
HETATM    7  F9  UNL     1     -35.325  15.375  -2.564  1.00 20.00    -0.195 F 
HETATM    8  F10 UNL     1     -34.042  14.788  -6.744  1.00 20.00    -0.169 F 
HETATM    9  F11 UNL     1     -36.202  14.466  -6.639  1.00 20.00    -0.169 F 
ENDROOT
BRANCH   3  10
HETATM   10  C3  UNL     1     -33.155  15.477  -3.486  1.00 20.00     0.312 C 
HETATM   11  O8  UNL     1     -32.198  14.714  -3.564  1.00 20.00    -0.301 OA
ENDBRANCH   3  10
TORSDOF 1
ENDMDL
MODEL 9
REMARK VINA RESULT:      -4.4      2.162      3.411
REMARK  1 active torsions:
REMARK  status: ('A' for Active; 'I' for Inactive)
REMARK    1  A    between atoms: C3_3  and  C4_4 
ROOT
HETATM    1  C1  UNL     1     -33.032  14.662  -3.480  1.00 20.00     0.061 C 
HETATM    2  C2  UNL     1     -33.676  13.706  -4.158  1.00 20.00     0.087 C 
HETATM    3  C4  UNL     1     -33.966  15.784  -3.157  1.00 20.00     0.376 C 
HETATM    4  C5  UNL     1     -35.102  14.092  -4.349  1.00 20.00     0.463 C 
HETATM    5  C6  UNL     1     -36.350  16.160  -3.828  1.00 20.00     0.324 C 
HETATM    6  N7  UNL     1     -35.299  15.237  -3.452  1.00 20.00     0.211 N 
HETATM    7  F9  UNL     1     -33.895  16.131  -1.846  1.00 20.00    -0.195 F 
HETATM    8  F10 UNL     1     -35.349  14.420  -5.645  1.00 20.00    -0.169 F 
HETATM    9  F11 UNL     1     -35.952  13.089  -4.017  1.00 20.00    -0.169 F 
ENDROOT
BRANCH   3  10
HETATM   10  C3  UNL     1     -33.600  16.925  -4.049  1.00 20.00     0.312 C 
HETATM   11  O8  UNL     1     -32.912  16.802  -5.057  1.00 20.00    -0.301 OA
ENDBRANCH   3  10
TORSDOF 1
ENDMDL
