MODEL 1
REMARK VINA RESULT:      -4.7      0.000      0.000
REMARK  1 active torsions:
REMARK  status: ('A' for Active; 'I' for Inactive)
REMARK    1  A    between atoms: C3_3  and  C4_4 
ROOT
HETATM    1  C1  UNL     1     -34.464   5.396   3.295  1.00 20.00     0.012 A 
HETATM    2  C2  UNL     1     -33.303   5.514   2.653  1.00 20.00     0.003 A 
HETATM    3  C4  UNL     1     -34.471   6.283   4.480  1.00 20.00     0.231 A 
HETATM    4  C5  UNL     1     -32.431   6.486   3.364  1.00 20.00     0.141 A 
HETATM    5  C6  UNL     1     -32.025   7.665   2.497  1.00 20.00     0.044 C 
HETATM    6  O8  UNL     1     -33.215   6.973   4.476  1.00 20.00    -0.364 OA
ENDROOT
BRANCH   3   7
HETATM    7  C3  UNL     1     -34.533   5.453   5.721  1.00 20.00     0.251 C 
HETATM    8  O7  UNL     1     -34.315   5.933   6.830  1.00 20.00    -0.277 OA
HETATM    9 CL9  UNL     1     -34.937   3.798   5.382  1.00 20.00    -0.041 Cl
ENDBRANCH   3   7
TORSDOF 1
ENDMDL
MODEL 2
REMARK VINA RESULT:      -4.7      1.351      1.351
REMARK  1 active torsions:
REMARK  status: ('A' for Active; 'I' for Inactive)
REMARK    1  A    between atoms: C3_3  and  C4_4 
ROOT
HETATM    1  C1  UNL     1     -34.306   5.180   2.765  1.00 20.00     0.012 A 
HETATM    2  C2  UNL     1     -33.061   5.485   2.404  1.00 20.00     0.003 A 
HETATM    3  C4  UNL     1     -34.642   5.874   4.029  1.00 20.00     0.231 A 
HETATM    4  C5  UNL     1     -32.456   6.403   3.405  1.00 20.00     0.141 A 
HETATM    5  C6  UNL     1     -32.017   7.729   2.806  1.00 20.00     0.044 C 
HETATM    6  O8  UNL     1     -33.492   6.654   4.380  1.00 20.00    -0.364 OA
ENDROOT
BRANCH   3   7
HETATM    7  C3  UNL     1     -34.858   4.863   5.109  1.00 20.00     0.251 C 
HETATM    8  O7  UNL     1     -35.186   3.708   4.855  1.00 20.00    -0.277 OA
HETATM    9 CL9  UNL     1     -34.591   5.530   6.690  1.00 20.00    -0.041 Cl
ENDBRANCH   3   7
TORSDOF 1
ENDMDL
MODEL 3
REMARK VINA RESULT:      -4.2      2.213      3.703
REMARK  1 active torsions:
REMARK  status: ('A' for Active; 'I' for Inactive)
REMARK    1  A    between atoms: C3_3  and  C4_4 
ROOT
HETATM    1  C1  UNL     1     -33.941   5.573   2.762  1.00 20.00     0.012 A 
HETATM    2  C2  UNL     1     -34.996   5.518   3.573  1.00 20.00     0.003 A 
HETATM    3  C4  UNL     1     -32.730   5.912   3.543  1.00 20.00     0.231 A 
HETATM    4  C5  UNL     1     -34.578   5.826   4.966  1.00 20.00     0.141 A 
HETATM    5  C6  UNL     1     -34.878   4.699   5.939  1.00 20.00     0.044 C 
HETATM    6  O8  UNL     1     -33.148   6.024   4.909  1.00 20.00    -0.364 OA
ENDROOT
BRANCH   3   7
HETATM    7  C3  UNL     1     -32.216   7.247   3.110  1.00 20.00     0.251 C 
HETATM    8  O7  UNL     1     -32.593   7.776   2.070  1.00 20.00    -0.277 OA
HETATM    9 CL9  UNL     1     -31.067   7.902   4.237  1.00 20.00    -0.041 Cl
ENDBRANCH   3   7
TORSDOF 1
ENDMDL
MODEL 4
REMARK VINA RESULT:      -4.1     11.843     13.211
REMARK  1 active torsions:
REMARK  status: ('A' for Active; 'I' for Inactive)
REMARK    1  A    between atoms: C3_3  and  C4_4 
ROOT
HETATM    1  C1  UNL     1     -34.870  15.092  -6.202  1.00 20.00     0.012 A 
HETATM    2  C2  UNL     1     -34.027  16.060  -6.552  1.00 20.00     0.003 A 
HETATM    3  C4  UNL     1     -34.831  14.903  -4.734  1.00 20.00     0.231 A 
HETATM    4  C5  UNL     1     -33.344  16.595  -5.345  1.00 20.00     0.141 A 
HETATM    5  C6  UNL     1     -33.581  18.081  -5.137  1.00 20.00     0.044 C 
HETATM    6  O8  UNL     1     -33.907  15.873  -4.226  1.00 20.00    -0.364 OA
ENDROOT
BRANCH   3   7
HETATM    7  C3  UNL     1     -34.289  13.546  -4.421  1.00 20.00     0.251 C 
HETATM    8  O7  UNL     1     -34.854  12.524  -4.797  1.00 20.00    -0.277 OA
HETATM    9 CL9  UNL     1     -32.820  13.626  -3.497  1.00 20.00    -0.041 Cl
ENDBRANCH   3   7
TORSDOF 1
ENDMDL
MODEL 5
REMARK VINA RESULT:      -4.0     12.259     12.780
REMARK  1 active torsions:
REMARK  status: ('A' for Active; 'I' for Inactive)
REMARK    1  A    between atoms: C3_3  and  C4_4 
ROOT
HETATM    1  C1  UNL     1     -35.405  16.123  -4.644  1.00 20.00     0.012 A 
HETATM    2  C2  UNL     1     -34.623  16.800  -3.804  1.00 20.00     0.003 A 
HETATM    3  C4  UNL     1     -35.568  14.733  -4.162  1.00 20.00     0.231 A 
HETATM    4  C5  UNL     1     -34.189  15.912  -2.694  1.00 20.00     0.141 A 
HETATM    5  C6  UNL     1     -34.608  16.424  -1.326  1.00 20.00     0.044 C 
HETATM    6  O8  UNL     1     -34.836  14.642  -2.933  1.00 20.00    -0.364 OA
ENDROOT
BRANCH   3   7
HETATM    7  C3  UNL     1     -34.941  13.792  -5.139  1.00 20.00     0.251 C 
HETATM    8  O7  UNL     1     -34.675  12.632  -4.838  1.00 20.00    -0.277 OA
HETATM    9 CL9  UNL     1     -34.660  14.542  -6.681  1.00 20.00    -0.041 Cl
ENDBRANCH   3   7
TORSDOF 1
ENDMDL
MODEL 6
REMARK VINA RESULT:      -3.9     11.760     12.675
REMARK  1 active torsions:
REMARK  status: ('A' for Active; 'I' for Inactive)
REMARK    1  A    between atoms: C3_3  and  C4_4 
ROOT
HETATM    1  C1  UNL     1     -35.067  13.596  -3.947  1.00 20.00     0.012 A 
HETATM    2  C2  UNL     1     -34.755  13.251  -5.194  1.00 20.00     0.003 A 
HETATM    3  C4  UNL     1     -35.171  15.069  -3.848  1.00 20.00     0.231 A 
HETATM    4  C5  UNL     1     -34.615  14.469  -6.034  1.00 20.00     0.141 A 
HETATM    5  C6  UNL     1     -35.572  14.491  -7.214  1.00 20.00     0.044 C 
HETATM    6  O8  UNL     1     -34.925  15.581  -5.164  1.00 20.00    -0.364 OA
ENDROOT
BRANCH   3   7
HETATM    7  C3  UNL     1     -34.096  15.585  -2.947  1.00 20.00     0.251 C 
HETATM    8  O7  UNL     1     -32.914  15.559  -3.273  1.00 20.00    -0.277 OA
HETATM    9 CL9  UNL     1     -34.734  16.194  -1.451  1.00 20.00    -0.041 Cl
ENDBRANCH   3   7
TORSDOF 1
ENDMDL
MODEL 7
REMARK VINA RESULT:      -3.9     12.034     12.379
REMARK  1 active torsions:
REMARK  status: ('A' for Active; 'I' for Inactive)
REMARK    1  A    between atoms: C3_3  and  C4_4 
ROOT
HETATM    1  C1  UNL     1     -34.172  15.572  -4.035  1.00 20.00     0.012 A 
HETATM    2  C2  UNL     1     -33.510  15.812  -2.905  1.00 20.00     0.003 A 
HETATM    3  C4  UNL     1     -35.629  15.686  -3.793  1.00 20.00     0.231 A 
HETATM    4  C5  UNL     1     -34.472  16.097  -1.808  1.00 20.00     0.141 A 
HETATM    5  C6  UNL     1     -34.272  17.468  -1.184  1.00 20.00     0.044 C 
HETATM    6  O8  UNL     1     -35.783  16.050  -2.416  1.00 20.00    -0.364 OA
ENDROOT
BRANCH   3   7
HETATM    7  C3  UNL     1     -36.271  14.351  -3.989  1.00 20.00     0.251 C 
HETATM    8  O7  UNL     1     -37.472  14.180  -3.808  1.00 20.00    -0.277 OA
HETATM    9 CL9  UNL     1     -35.126  13.141  -4.483  1.00 20.00    -0.041 Cl
ENDBRANCH   3   7
TORSDOF 1
ENDMDL
MODEL 8
REMARK VINA RESULT:      -3.9     12.061     13.112
REMARK  1 active torsions:
REMARK  status: ('A' for Active; 'I' for Inactive)
REMARK    1  A    between atoms: C3_3  and  C4_4 
ROOT
HETATM    1  C1  UNL     1     -34.439  15.109  -3.022  1.00 20.00     0.012 A 
HETATM    2  C2  UNL     1     -34.846  16.376  -3.054  1.00 20.00     0.003 A 
HETATM    3  C4  UNL     1     -33.866  14.736  -4.336  1.00 20.00     0.231 A 
HETATM    4  C5  UNL     1     -34.589  16.955  -4.398  1.00 20.00     0.141 A 
HETATM    5  C6  UNL     1     -33.677  18.169  -4.358  1.00 20.00     0.044 C 
HETATM    6  O8  UNL     1     -33.937  15.910  -5.155  1.00 20.00    -0.364 OA
ENDROOT
BRANCH   3   7
HETATM    7  C3  UNL     1     -34.718  13.684  -4.968  1.00 20.00     0.251 C 
HETATM    8  O7  UNL     1     -35.004  12.645  -4.380  1.00 20.00    -0.277 OA
HETATM    9 CL9  UNL     1     -35.215  14.123  -6.574  1.00 20.00    -0.041 Cl
ENDBRANCH   3   7
TORSDOF 1
ENDMDL
MODEL 9
REMARK VINA RESULT:      -3.8      2.439      3.910
REMARK  1 active torsions:
REMARK  status: ('A' for Active; 'I' for Inactive)
REMARK    1  A    between atoms: C3_3  and  C4_4 
ROOT
HETATM    1  C1  UNL     1     -33.690   7.032   5.340  1.00 20.00     0.012 A 
HETATM    2  C2  UNL     1     -33.828   6.060   6.239  1.00 20.00     0.003 A 
HETATM    3  C4  UNL     1     -33.892   6.486   3.979  1.00 20.00     0.231 A 
HETATM    4  C5  UNL     1     -34.125   4.776   5.550  1.00 20.00     0.141 A 
HETATM    5  C6  UNL     1     -35.446   4.162   5.981  1.00 20.00     0.044 C 
HETATM    6  O8  UNL     1     -34.198   5.096   4.143  1.00 20.00    -0.364 OA
ENDROOT
BRANCH   3   7
HETATM    7  C3  UNL     1     -32.615   6.587   3.209  1.00 20.00     0.251 C 
HETATM    8  O7  UNL     1     -31.821   5.654   3.152  1.00 20.00    -0.277 OA
HETATM    9 CL9  UNL     1     -32.432   8.138   2.447  1.00 20.00    -0.041 Cl
ENDBRANCH   3   7
TORSDOF 1
ENDMDL
