MODEL 1
REMARK VINA RESULT:      -5.0      0.000      0.000
REMARK  1 active torsions:
REMARK  status: ('A' for Active; 'I' for Inactive)
REMARK    1  A    between atoms: C3_3  and  C9_9 
ROOT
HETATM    1  C1  UNL     1     -34.599  16.514  -0.905  1.00 20.00     0.013 C 
HETATM    2  C2  UNL     1     -34.433  16.406  -2.089  1.00 20.00    -0.099 C 
HETATM    3  C4  UNL     1     -34.844  13.439  -4.272  1.00 20.00     0.000 C 
HETATM    4  C5  UNL     1     -33.550  13.802  -3.553  1.00 20.00     0.002 C 
HETATM    5  C6  UNL     1     -35.960  14.426  -3.947  1.00 20.00     0.002 C 
HETATM    6  C7  UNL     1     -33.118  15.238  -3.856  1.00 20.00     0.030 C 
HETATM    7  C8  UNL     1     -35.548  15.866  -4.253  1.00 20.00     0.030 C 
HETATM    8  C9  UNL     1     -34.225  16.270  -3.577  1.00 20.00     0.083 C 
ENDROOT
BRANCH   8   9
HETATM    9  C3  UNL     1     -33.800  17.594  -4.075  1.00 20.00     0.143 C 
HETATM   10  C10 UNL     1     -33.598  17.724  -5.562  1.00 20.00     0.093 C 
HETATM   11  O11 UNL     1     -33.622  18.544  -3.315  1.00 20.00    -0.297 OA
ENDBRANCH   8   9
TORSDOF 1
ENDMDL
MODEL 2
REMARK VINA RESULT:      -4.9      2.409      3.956
REMARK  1 active torsions:
REMARK  status: ('A' for Active; 'I' for Inactive)
REMARK    1  A    between atoms: C3_3  and  C9_9 
ROOT
HETATM    1  C1  UNL     1     -35.389  14.364  -7.399  1.00 20.00     0.013 C 
HETATM    2  C2  UNL     1     -35.512  14.594  -6.227  1.00 20.00    -0.099 C 
HETATM    3  C4  UNL     1     -32.917  15.012  -3.615  1.00 20.00     0.000 C 
HETATM    4  C5  UNL     1     -33.543  13.675  -3.996  1.00 20.00     0.002 C 
HETATM    5  C6  UNL     1     -33.462  16.148  -4.472  1.00 20.00     0.002 C 
HETATM    6  C7  UNL     1     -35.070  13.726  -3.932  1.00 20.00     0.030 C 
HETATM    7  C8  UNL     1     -34.988  16.220  -4.412  1.00 20.00     0.030 C 
HETATM    8  C9  UNL     1     -35.668  14.882  -4.755  1.00 20.00     0.083 C 
ENDROOT
BRANCH   8   9
HETATM    9  C3  UNL     1     -37.117  14.981  -4.485  1.00 20.00     0.143 C 
HETATM   10  C10 UNL     1     -37.843  16.145  -5.106  1.00 20.00     0.093 C 
HETATM   11  O11 UNL     1     -37.701  14.153  -3.789  1.00 20.00    -0.297 OA
ENDBRANCH   8   9
TORSDOF 1
ENDMDL
MODEL 3
REMARK VINA RESULT:      -4.8      2.229      3.570
REMARK  1 active torsions:
REMARK  status: ('A' for Active; 'I' for Inactive)
REMARK    1  A    between atoms: C3_3  and  C9_9 
ROOT
HETATM    1  C1  UNL     1     -34.604  16.225  -1.542  1.00 20.00     0.013 C 
HETATM    2  C2  UNL     1     -34.928  15.690  -2.568  1.00 20.00    -0.099 C 
HETATM    3  C4  UNL     1     -37.358  16.789  -5.141  1.00 20.00     0.000 C 
HETATM    4  C5  UNL     1     -37.720  15.943  -3.925  1.00 20.00     0.002 C 
HETATM    5  C6  UNL     1     -35.880  17.162  -5.142  1.00 20.00     0.002 C 
HETATM    6  C7  UNL     1     -36.839  14.696  -3.822  1.00 20.00     0.030 C 
HETATM    7  C8  UNL     1     -34.985  15.926  -5.049  1.00 20.00     0.030 C 
HETATM    8  C9  UNL     1     -35.334  15.019  -3.855  1.00 20.00     0.083 C 
ENDROOT
BRANCH   8   9
HETATM    9  C3  UNL     1     -34.564  13.762  -3.949  1.00 20.00     0.143 C 
HETATM   10  C10 UNL     1     -33.090  13.849  -3.656  1.00 20.00     0.093 C 
HETATM   11  O11 UNL     1     -35.100  12.697  -4.250  1.00 20.00    -0.297 OA
ENDBRANCH   8   9
TORSDOF 1
ENDMDL
MODEL 4
REMARK VINA RESULT:      -4.7      2.434      4.167
REMARK  1 active torsions:
REMARK  status: ('A' for Active; 'I' for Inactive)
REMARK    1  A    between atoms: C3_3  and  C9_9 
ROOT
HETATM    1  C1  UNL     1     -34.853  14.719  -7.587  1.00 20.00     0.013 C 
HETATM    2  C2  UNL     1     -34.694  14.862  -6.406  1.00 20.00    -0.099 C 
HETATM    3  C4  UNL     1     -34.847  17.948  -4.358  1.00 20.00     0.000 C 
HETATM    4  C5  UNL     1     -33.584  17.431  -5.037  1.00 20.00     0.002 C 
HETATM    5  C6  UNL     1     -36.048  17.059  -4.662  1.00 20.00     0.002 C 
HETATM    6  C7  UNL     1     -33.297  15.975  -4.666  1.00 20.00     0.030 C 
HETATM    7  C8  UNL     1     -35.782  15.601  -4.287  1.00 20.00     0.030 C 
HETATM    8  C9  UNL     1     -34.495  15.043  -4.922  1.00 20.00     0.083 C 
ENDROOT
BRANCH   8   9
HETATM    9  C3  UNL     1     -34.207  13.707  -4.360  1.00 20.00     0.143 C 
HETATM   10  C10 UNL     1     -32.970  13.583  -3.510  1.00 20.00     0.093 C 
HETATM   11  O11 UNL     1     -34.942  12.745  -4.573  1.00 20.00    -0.297 OA
ENDBRANCH   8   9
TORSDOF 1
ENDMDL
MODEL 5
REMARK VINA RESULT:      -4.7      2.022      3.589
REMARK  1 active torsions:
REMARK  status: ('A' for Active; 'I' for Inactive)
REMARK    1  A    between atoms: C3_3  and  C9_9 
ROOT
HETATM    1  C1  UNL     1     -34.725  16.256  -1.576  1.00 20.00     0.013 C 
HETATM    2  C2  UNL     1     -34.631  15.800  -2.682  1.00 20.00    -0.099 C 
HETATM    3  C4  UNL     1     -35.027  17.468  -5.968  1.00 20.00     0.000 C 
HETATM    4  C5  UNL     1     -36.169  16.825  -5.190  1.00 20.00     0.002 C 
HETATM    5  C6  UNL     1     -33.710  17.376  -5.206  1.00 20.00     0.002 C 
HETATM    6  C7  UNL     1     -35.852  15.377  -4.814  1.00 20.00     0.030 C 
HETATM    7  C8  UNL     1     -33.373  15.933  -4.831  1.00 20.00     0.030 C 
HETATM    8  C9  UNL     1     -34.511  15.227  -4.072  1.00 20.00     0.083 C 
ENDROOT
BRANCH   8   9
HETATM    9  C3  UNL     1     -34.190  13.793  -3.922  1.00 20.00     0.143 C 
HETATM   10  C10 UNL     1     -32.803  13.458  -3.439  1.00 20.00     0.093 C 
HETATM   11  O11 UNL     1     -35.013  12.917  -4.177  1.00 20.00    -0.297 OA
ENDBRANCH   8   9
TORSDOF 1
ENDMDL
MODEL 6
REMARK VINA RESULT:      -4.7      2.291      3.802
REMARK  1 active torsions:
REMARK  status: ('A' for Active; 'I' for Inactive)
REMARK    1  A    between atoms: C3_3  and  C9_9 
ROOT
HETATM    1  C1  UNL     1     -37.923  14.845  -3.734  1.00 20.00     0.013 C 
HETATM    2  C2  UNL     1     -36.753  14.888  -4.003  1.00 20.00    -0.099 C 
HETATM    3  C4  UNL     1     -34.156  17.285  -2.887  1.00 20.00     0.000 C 
HETATM    4  C5  UNL     1     -35.026  17.478  -4.124  1.00 20.00     0.002 C 
HETATM    5  C6  UNL     1     -34.518  16.004  -2.144  1.00 20.00     0.002 C 
HETATM    6  C7  UNL     1     -34.962  16.266  -5.055  1.00 20.00     0.030 C 
HETATM    7  C8  UNL     1     -34.448  14.780  -3.058  1.00 20.00     0.030 C 
HETATM    8  C9  UNL     1     -35.284  14.941  -4.341  1.00 20.00     0.083 C 
ENDROOT
BRANCH   8   9
HETATM    9  C3  UNL     1     -35.010  13.811  -5.253  1.00 20.00     0.143 C 
HETATM   10  C10 UNL     1     -35.034  14.112  -6.728  1.00 20.00     0.093 C 
HETATM   11  O11 UNL     1     -34.773  12.682  -4.829  1.00 20.00    -0.297 OA
ENDBRANCH   8   9
TORSDOF 1
ENDMDL
MODEL 7
REMARK VINA RESULT:      -4.6      2.680      4.141
REMARK  1 active torsions:
REMARK  status: ('A' for Active; 'I' for Inactive)
REMARK    1  A    between atoms: C3_3  and  C9_9 
ROOT
HETATM    1  C1  UNL     1     -37.478  15.105  -4.213  1.00 20.00     0.013 C 
HETATM    2  C2  UNL     1     -36.385  14.924  -4.675  1.00 20.00    -0.099 C 
HETATM    3  C4  UNL     1     -34.655  16.707  -7.425  1.00 20.00     0.000 C 
HETATM    4  C5  UNL     1     -35.559  15.496  -7.623  1.00 20.00     0.002 C 
HETATM    5  C6  UNL     1     -34.586  17.119  -5.959  1.00 20.00     0.002 C 
HETATM    6  C7  UNL     1     -35.131  14.320  -6.743  1.00 20.00     0.030 C 
HETATM    7  C8  UNL     1     -34.150  15.957  -5.065  1.00 20.00     0.030 C 
HETATM    8  C9  UNL     1     -35.012  14.696  -5.255  1.00 20.00     0.083 C 
ENDROOT
BRANCH   8   9
HETATM    9  C3  UNL     1     -34.410  13.570  -4.511  1.00 20.00     0.143 C 
HETATM   10  C10 UNL     1     -33.177  13.876  -3.702  1.00 20.00     0.093 C 
HETATM   11  O11 UNL     1     -34.893  12.440  -4.548  1.00 20.00    -0.297 OA
ENDBRANCH   8   9
TORSDOF 1
ENDMDL
MODEL 8
REMARK VINA RESULT:      -4.6      0.687      2.828
REMARK  1 active torsions:
REMARK  status: ('A' for Active; 'I' for Inactive)
REMARK    1  A    between atoms: C3_3  and  C9_9 
ROOT
HETATM    1  C1  UNL     1     -33.692  17.480  -5.547  1.00 20.00     0.013 C 
HETATM    2  C2  UNL     1     -33.975  16.878  -4.548  1.00 20.00    -0.099 C 
HETATM    3  C4  UNL     1     -35.212  13.408  -4.149  1.00 20.00     0.000 C 
HETATM    4  C5  UNL     1     -36.113  14.621  -4.349  1.00 20.00     0.002 C 
HETATM    5  C6  UNL     1     -33.738  13.795  -4.176  1.00 20.00     0.002 C 
HETATM    6  C7  UNL     1     -35.816  15.721  -3.328  1.00 20.00     0.030 C 
HETATM    7  C8  UNL     1     -33.422  14.887  -3.153  1.00 20.00     0.030 C 
HETATM    8  C9  UNL     1     -34.330  16.122  -3.292  1.00 20.00     0.083 C 
ENDROOT
BRANCH   8   9
HETATM    9  C3  UNL     1     -34.095  17.037  -2.156  1.00 20.00     0.143 C 
HETATM   10  C10 UNL     1     -34.633  16.607  -0.818  1.00 20.00     0.093 C 
HETATM   11  O11 UNL     1     -33.488  18.097  -2.297  1.00 20.00    -0.297 OA
ENDBRANCH   8   9
TORSDOF 1
ENDMDL
MODEL 9
REMARK VINA RESULT:      -4.5      2.460      3.461
REMARK  1 active torsions:
REMARK  status: ('A' for Active; 'I' for Inactive)
REMARK    1  A    between atoms: C3_3  and  C9_9 
ROOT
HETATM    1  C1  UNL     1     -34.771  16.150  -1.822  1.00 20.00     0.013 C 
HETATM    2  C2  UNL     1     -35.395  15.792  -2.783  1.00 20.00    -0.099 C 
HETATM    3  C4  UNL     1     -34.201  14.848  -6.162  1.00 20.00     0.000 C 
HETATM    4  C5  UNL     1     -34.569  16.268  -5.749  1.00 20.00     0.002 C 
HETATM    5  C6  UNL     1     -34.345  13.872  -5.000  1.00 20.00     0.002 C 
HETATM    6  C7  UNL     1     -35.973  16.336  -5.146  1.00 20.00     0.030 C 
HETATM    7  C8  UNL     1     -35.747  13.920  -4.392  1.00 20.00     0.030 C 
HETATM    8  C9  UNL     1     -36.180  15.342  -3.990  1.00 20.00     0.083 C 
ENDROOT
BRANCH   8   9
HETATM    9  C3  UNL     1     -37.605  15.331  -3.598  1.00 20.00     0.143 C 
HETATM   10  C10 UNL     1     -38.221  16.661  -3.254  1.00 20.00     0.093 C 
HETATM   11  O11 UNL     1     -38.255  14.289  -3.558  1.00 20.00    -0.297 OA
ENDBRANCH   8   9
TORSDOF 1
ENDMDL
