MODEL 1
REMARK VINA RESULT:      -5.5      0.000      0.000
REMARK  2 active torsions:
REMARK  status: ('A' for Active; 'I' for Inactive)
REMARK    1  A    between atoms: C4_4  and  C5_5 
REMARK    2  A    between atoms: C5_5  and  C8_8 
ROOT
HETATM    1  C1  UNL     1     -35.142   4.324   6.067  1.00 20.00    -0.027 A 
HETATM    2  C2  UNL     1     -34.474   5.345   6.622  1.00 20.00    -0.026 A 
HETATM    3  C3  UNL     1     -34.690   5.265   3.773  1.00 20.00    -0.012 A 
HETATM    4  C4  UNL     1     -34.023   6.283   4.336  1.00 20.00    -0.003 A 
HETATM    5  C6  UNL     1     -35.323   4.169   4.584  1.00 20.00     0.054 A 
HETATM    6  C7  UNL     1     -33.835   6.442   5.817  1.00 20.00     0.069 A 
ENDROOT
BRANCH   4   7
HETATM    7  C5  UNL     1     -33.445   7.297   3.450  1.00 20.00     0.261 C 
HETATM    8  O9  UNL     1     -34.122   8.247   3.052  1.00 20.00    -0.283 OA
BRANCH   7   9
HETATM    9  C8  UNL     1     -32.007   7.124   3.052  1.00 20.00     0.455 C 
HETATM   10  F10 UNL     1     -31.153   7.717   3.925  1.00 20.00    -0.163 F 
HETATM   11  F11 UNL     1     -31.754   7.661   1.831  1.00 20.00    -0.163 F 
HETATM   12  F12 UNL     1     -31.656   5.814   2.987  1.00 20.00    -0.163 F 
ENDBRANCH   7   9
ENDBRANCH   4   7
TORSDOF 2
ENDMDL
MODEL 2
REMARK VINA RESULT:      -5.5      0.105      1.448
REMARK  2 active torsions:
REMARK  status: ('A' for Active; 'I' for Inactive)
REMARK    1  A    between atoms: C4_4  and  C5_5 
REMARK    2  A    between atoms: C5_5  and  C8_8 
ROOT
HETATM    1  C1  UNL     1     -35.114   4.351   6.054  1.00 20.00    -0.027 A 
HETATM    2  C2  UNL     1     -35.277   4.186   4.733  1.00 20.00    -0.026 A 
HETATM    3  C3  UNL     1     -33.834   6.481   5.637  1.00 20.00    -0.012 A 
HETATM    4  C4  UNL     1     -34.001   6.309   4.317  1.00 20.00    -0.003 A 
HETATM    5  C6  UNL     1     -34.379   5.515   6.651  1.00 20.00     0.054 A 
HETATM    6  C7  UNL     1     -34.739   5.149   3.713  1.00 20.00     0.069 A 
ENDROOT
BRANCH   4   7
HETATM    7  C5  UNL     1     -33.428   7.313   3.417  1.00 20.00     0.261 C 
HETATM    8  O9  UNL     1     -34.109   8.255   3.008  1.00 20.00    -0.283 OA
BRANCH   7   9
HETATM    9  C8  UNL     1     -31.990   7.141   3.021  1.00 20.00     0.455 C 
HETATM   10  F10 UNL     1     -31.136   7.710   3.909  1.00 20.00    -0.163 F 
HETATM   11  F11 UNL     1     -31.729   7.702   1.812  1.00 20.00    -0.163 F 
HETATM   12  F12 UNL     1     -31.645   5.831   2.929  1.00 20.00    -0.163 F 
ENDBRANCH   7   9
ENDBRANCH   4   7
TORSDOF 2
ENDMDL
MODEL 3
REMARK VINA RESULT:      -5.1      1.449      1.616
REMARK  2 active torsions:
REMARK  status: ('A' for Active; 'I' for Inactive)
REMARK    1  A    between atoms: C4_4  and  C5_5 
REMARK    2  A    between atoms: C5_5  and  C8_8 
ROOT
HETATM    1  C1  UNL     1     -35.162   5.215   6.193  1.00 20.00    -0.027 A 
HETATM    2  C2  UNL     1     -34.235   6.159   6.408  1.00 20.00    -0.026 A 
HETATM    3  C3  UNL     1     -34.353   4.949   3.822  1.00 20.00    -0.012 A 
HETATM    4  C4  UNL     1     -33.427   5.895   4.045  1.00 20.00    -0.003 A 
HETATM    5  C6  UNL     1     -35.323   4.505   4.880  1.00 20.00     0.054 A 
HETATM    6  C7  UNL     1     -33.259   6.605   5.356  1.00 20.00     0.069 A 
ENDROOT
BRANCH   4   7
HETATM    7  C5  UNL     1     -32.532   6.250   2.941  1.00 20.00     0.261 C 
HETATM    8  O9  UNL     1     -32.085   5.384   2.187  1.00 20.00    -0.283 OA
BRANCH   7   9
HETATM    9  C8  UNL     1     -32.186   7.703   2.776  1.00 20.00     0.455 C 
HETATM   10  F10 UNL     1     -33.277   8.506   2.854  1.00 20.00    -0.163 F 
HETATM   11  F11 UNL     1     -31.604   7.949   1.575  1.00 20.00    -0.163 F 
HETATM   12  F12 UNL     1     -31.317   8.126   3.729  1.00 20.00    -0.163 F 
ENDBRANCH   7   9
ENDBRANCH   4   7
TORSDOF 2
ENDMDL
MODEL 4
REMARK VINA RESULT:      -5.0      1.455      2.157
REMARK  2 active torsions:
REMARK  status: ('A' for Active; 'I' for Inactive)
REMARK    1  A    between atoms: C4_4  and  C5_5 
REMARK    2  A    between atoms: C5_5  and  C8_8 
ROOT
HETATM    1  C1  UNL     1     -35.087   5.325   6.275  1.00 20.00    -0.027 A 
HETATM    2  C2  UNL     1     -35.281   4.668   5.122  1.00 20.00    -0.026 A 
HETATM    3  C3  UNL     1     -33.198   6.621   5.227  1.00 20.00    -0.012 A 
HETATM    4  C4  UNL     1     -33.399   5.960   4.077  1.00 20.00    -0.003 A 
HETATM    5  C6  UNL     1     -34.028   6.373   6.455  1.00 20.00     0.054 A 
HETATM    6  C7  UNL     1     -34.458   4.914   3.890  1.00 20.00     0.069 A 
ENDROOT
BRANCH   4   7
HETATM    7  C5  UNL     1     -32.531   6.282   2.941  1.00 20.00     0.261 C 
HETATM    8  O9  UNL     1     -32.112   5.395   2.196  1.00 20.00    -0.283 OA
BRANCH   7   9
HETATM    9  C8  UNL     1     -32.178   7.727   2.733  1.00 20.00     0.455 C 
HETATM   10  F10 UNL     1     -33.262   8.540   2.808  1.00 20.00    -0.163 F 
HETATM   11  F11 UNL     1     -31.614   7.938   1.516  1.00 20.00    -0.163 F 
HETATM   12  F12 UNL     1     -31.291   8.169   3.660  1.00 20.00    -0.163 F 
ENDBRANCH   7   9
ENDBRANCH   4   7
TORSDOF 2
ENDMDL
MODEL 5
REMARK VINA RESULT:      -4.9     11.468     12.265
REMARK  2 active torsions:
REMARK  status: ('A' for Active; 'I' for Inactive)
REMARK    1  A    between atoms: C4_4  and  C5_5 
REMARK    2  A    between atoms: C5_5  and  C8_8 
ROOT
HETATM    1  C1  UNL     1     -34.838  13.321  -4.225  1.00 20.00    -0.027 A 
HETATM    2  C2  UNL     1     -35.876  14.141  -4.008  1.00 20.00    -0.026 A 
HETATM    3  C3  UNL     1     -33.259  15.076  -3.344  1.00 20.00    -0.012 A 
HETATM    4  C4  UNL     1     -34.303  15.890  -3.130  1.00 20.00    -0.003 A 
HETATM    5  C6  UNL     1     -33.417  13.695  -3.915  1.00 20.00     0.054 A 
HETATM    6  C7  UNL     1     -35.726  15.521  -3.433  1.00 20.00     0.069 A 
ENDROOT
BRANCH   4   7
HETATM    7  C5  UNL     1     -34.033  17.216  -2.567  1.00 20.00     0.261 C 
HETATM    8  O9  UNL     1     -33.717  18.158  -3.296  1.00 20.00    -0.283 OA
BRANCH   7   9
HETATM    9  C8  UNL     1     -34.157  17.370  -1.078  1.00 20.00     0.455 C 
HETATM   10  F10 UNL     1     -34.616  16.243  -0.478  1.00 20.00    -0.163 F 
HETATM   11  F11 UNL     1     -35.013  18.369  -0.744  1.00 20.00    -0.163 F 
HETATM   12  F12 UNL     1     -32.964  17.664  -0.501  1.00 20.00    -0.163 F 
ENDBRANCH   7   9
ENDBRANCH   4   7
TORSDOF 2
ENDMDL
MODEL 6
REMARK VINA RESULT:      -4.9     11.523     13.302
REMARK  2 active torsions:
REMARK  status: ('A' for Active; 'I' for Inactive)
REMARK    1  A    between atoms: C4_4  and  C5_5 
REMARK    2  A    between atoms: C5_5  and  C8_8 
ROOT
HETATM    1  C1  UNL     1     -36.225  16.594  -7.523  1.00 20.00    -0.027 A 
HETATM    2  C2  UNL     1     -35.119  15.948  -7.918  1.00 20.00    -0.026 A 
HETATM    3  C3  UNL     1     -36.178  15.351  -5.332  1.00 20.00    -0.012 A 
HETATM    4  C4  UNL     1     -35.071  14.709  -5.734  1.00 20.00    -0.003 A 
HETATM    5  C6  UNL     1     -36.875  16.370  -6.188  1.00 20.00     0.054 A 
HETATM    6  C7  UNL     1     -34.414  14.931  -7.065  1.00 20.00     0.069 A 
ENDROOT
BRANCH   4   7
HETATM    7  C5  UNL     1     -34.472  13.735  -4.818  1.00 20.00     0.261 C 
HETATM    8  O9  UNL     1     -34.756  12.538  -4.896  1.00 20.00    -0.283 OA
BRANCH   7   9
HETATM    9  C8  UNL     1     -33.511  14.258  -3.790  1.00 20.00     0.455 C 
HETATM   10  F10 UNL     1     -32.799  15.322  -4.241  1.00 20.00    -0.163 F 
HETATM   11  F11 UNL     1     -32.609  13.314  -3.415  1.00 20.00    -0.163 F 
HETATM   12  F12 UNL     1     -34.148  14.662  -2.662  1.00 20.00    -0.163 F 
ENDBRANCH   7   9
ENDBRANCH   4   7
TORSDOF 2
ENDMDL
MODEL 7
REMARK VINA RESULT:      -4.9     11.502     12.265
REMARK  2 active torsions:
REMARK  status: ('A' for Active; 'I' for Inactive)
REMARK    1  A    between atoms: C4_4  and  C5_5 
REMARK    2  A    between atoms: C5_5  and  C8_8 
ROOT
HETATM    1  C1  UNL     1     -34.981  13.351  -4.263  1.00 20.00    -0.027 A 
HETATM    2  C2  UNL     1     -33.692  13.637  -4.032  1.00 20.00    -0.026 A 
HETATM    3  C3  UNL     1     -35.649  15.619  -3.394  1.00 20.00    -0.012 A 
HETATM    4  C4  UNL     1     -34.357  15.898  -3.165  1.00 20.00    -0.003 A 
HETATM    5  C6  UNL     1     -36.101  14.308  -3.973  1.00 20.00     0.054 A 
HETATM    6  C7  UNL     1     -33.233  14.947  -3.457  1.00 20.00     0.069 A 
ENDROOT
BRANCH   4   7
HETATM    7  C5  UNL     1     -34.029  17.209  -2.598  1.00 20.00     0.261 C 
HETATM    8  O9  UNL     1     -33.677  18.140  -3.324  1.00 20.00    -0.283 OA
BRANCH   7   9
HETATM    9  C8  UNL     1     -34.140  17.361  -1.108  1.00 20.00     0.455 C 
HETATM   10  F10 UNL     1     -34.593  16.233  -0.505  1.00 20.00    -0.163 F 
HETATM   11  F11 UNL     1     -34.995  18.359  -0.765  1.00 20.00    -0.163 F 
HETATM   12  F12 UNL     1     -32.943  17.656  -0.541  1.00 20.00    -0.163 F 
ENDBRANCH   7   9
ENDBRANCH   4   7
TORSDOF 2
ENDMDL
MODEL 8
REMARK VINA RESULT:      -4.8     11.494     13.195
REMARK  2 active torsions:
REMARK  status: ('A' for Active; 'I' for Inactive)
REMARK    1  A    between atoms: C4_4  and  C5_5 
REMARK    2  A    between atoms: C5_5  and  C8_8 
ROOT
HETATM    1  C1  UNL     1     -36.485  16.570  -7.370  1.00 20.00    -0.027 A 
HETATM    2  C2  UNL     1     -36.937  16.440  -6.115  1.00 20.00    -0.026 A 
HETATM    3  C3  UNL     1     -34.733  14.814  -6.929  1.00 20.00    -0.012 A 
HETATM    4  C4  UNL     1     -35.191  14.689  -5.674  1.00 20.00    -0.003 A 
HETATM    5  C6  UNL     1     -35.336  15.772  -7.916  1.00 20.00     0.054 A 
HETATM    6  C7  UNL     1     -36.341  15.481  -5.123  1.00 20.00     0.069 A 
ENDROOT
BRANCH   4   7
HETATM    7  C5  UNL     1     -34.528  13.723  -4.795  1.00 20.00     0.261 C 
HETATM    8  O9  UNL     1     -34.773  12.519  -4.882  1.00 20.00    -0.283 OA
BRANCH   7   9
HETATM    9  C8  UNL     1     -33.547  14.264  -3.794  1.00 20.00     0.455 C 
HETATM   10  F10 UNL     1     -34.152  14.705  -2.662  1.00 20.00    -0.163 F 
HETATM   11  F11 UNL     1     -32.841  15.311  -4.295  1.00 20.00    -0.163 F 
HETATM   12  F12 UNL     1     -32.642  13.325  -3.416  1.00 20.00    -0.163 F 
ENDBRANCH   7   9
ENDBRANCH   4   7
TORSDOF 2
ENDMDL
MODEL 9
REMARK VINA RESULT:      -4.8     11.506     12.589
REMARK  2 active torsions:
REMARK  status: ('A' for Active; 'I' for Inactive)
REMARK    1  A    between atoms: C4_4  and  C5_5 
REMARK    2  A    between atoms: C5_5  and  C8_8 
ROOT
HETATM    1  C1  UNL     1     -37.873  15.353  -5.602  1.00 20.00    -0.027 A 
HETATM    2  C2  UNL     1     -36.878  15.281  -6.497  1.00 20.00    -0.026 A 
HETATM    3  C3  UNL     1     -36.308  14.571  -3.789  1.00 20.00    -0.012 A 
HETATM    4  C4  UNL     1     -35.317  14.502  -4.691  1.00 20.00    -0.003 A 
HETATM    5  C6  UNL     1     -37.699  15.009  -4.151  1.00 20.00     0.054 A 
HETATM    6  C7  UNL     1     -35.484  14.848  -6.142  1.00 20.00     0.069 A 
ENDROOT
BRANCH   4   7
HETATM    7  C5  UNL     1     -33.998  14.062  -4.228  1.00 20.00     0.261 C 
HETATM    8  O9  UNL     1     -33.690  12.869  -4.244  1.00 20.00    -0.283 OA
BRANCH   7   9
HETATM    9  C8  UNL     1     -33.053  15.122  -3.738  1.00 20.00     0.455 C 
HETATM   10  F10 UNL     1     -32.831  16.087  -4.666  1.00 20.00    -0.163 F 
HETATM   11  F11 UNL     1     -31.840  14.604  -3.413  1.00 20.00    -0.163 F 
HETATM   12  F12 UNL     1     -33.525  15.745  -2.628  1.00 20.00    -0.163 F 
ENDBRANCH   7   9
ENDBRANCH   4   7
TORSDOF 2
ENDMDL
