MODEL 1
REMARK VINA RESULT:      -4.7      0.000      0.000
REMARK  1 active torsions:
REMARK  status: ('A' for Active; 'I' for Inactive)
REMARK    1  A    between atoms: C1_1  and  C4_4 
ROOT
HETATM    1  C2  UNL     1     -35.067  14.619  -6.693  1.00 20.00     0.014 C 
HETATM    2  C3  UNL     1     -36.366  15.054  -6.000  1.00 20.00     0.012 C 
HETATM    3  C4  UNL     1     -34.334  14.814  -5.348  1.00 20.00     0.064 C 
HETATM    4  C5  UNL     1     -35.890  16.258  -3.677  1.00 20.00    -0.000 A 
HETATM    5  C6  UNL     1     -35.473  15.723  -5.015  1.00 20.00    -0.019 A 
HETATM    6  C7  UNL     1     -35.402  17.218  -4.756  1.00 20.00    -0.035 A 
HETATM    7  C9  UNL     1     -35.114  16.001  -2.432  1.00 20.00     0.011 C 
HETATM    8  C10 UNL     1     -34.053  17.880  -4.624  1.00 20.00     0.016 C 
HETATM    9  C11 UNL     1     -36.440  18.119  -5.380  1.00 20.00     0.016 C 
ENDROOT
BRANCH   3  10
HETATM   10  C1  UNL     1     -34.198  13.589  -4.433  1.00 20.00     0.128 C 
HETATM   11  C8  UNL     1     -32.978  13.536  -3.553  1.00 20.00     0.091 C 
HETATM   12  O12 UNL     1     -35.044  12.698  -4.417  1.00 20.00    -0.298 OA
ENDBRANCH   3  10
TORSDOF 1
ENDMDL
MODEL 2
REMARK VINA RESULT:      -4.6      1.854      3.229
REMARK  1 active torsions:
REMARK  status: ('A' for Active; 'I' for Inactive)
REMARK    1  A    between atoms: C1_1  and  C4_4 
ROOT
HETATM    1  C2  UNL     1     -32.872  14.572  -3.546  1.00 20.00     0.014 C 
HETATM    2  C3  UNL     1     -34.251  13.946  -3.797  1.00 20.00     0.012 C 
HETATM    3  C4  UNL     1     -33.530  15.964  -3.659  1.00 20.00     0.064 C 
HETATM    4  C5  UNL     1     -35.973  15.715  -4.787  1.00 20.00    -0.000 A 
HETATM    5  C6  UNL     1     -34.592  15.249  -4.431  1.00 20.00    -0.019 A 
HETATM    6  C7  UNL     1     -34.955  15.455  -5.892  1.00 20.00    -0.035 A 
HETATM    7  C9  UNL     1     -36.465  17.084  -4.466  1.00 20.00     0.011 C 
HETATM    8  C10 UNL     1     -34.347  16.612  -6.645  1.00 20.00     0.016 C 
HETATM    9  C11 UNL     1     -35.196  14.247  -6.764  1.00 20.00     0.016 C 
ENDROOT
BRANCH   3  10
HETATM   10  C1  UNL     1     -34.012  16.627  -2.362  1.00 20.00     0.128 C 
HETATM   11  C8  UNL     1     -33.692  18.087  -2.188  1.00 20.00     0.091 C 
HETATM   12  O12 UNL     1     -34.632  15.997  -1.507  1.00 20.00    -0.298 OA
ENDBRANCH   3  10
TORSDOF 1
ENDMDL
MODEL 3
REMARK VINA RESULT:      -4.6      1.439      2.778
REMARK  1 active torsions:
REMARK  status: ('A' for Active; 'I' for Inactive)
REMARK    1  A    between atoms: C1_1  and  C4_4 
ROOT
HETATM    1  C2  UNL     1     -36.930  15.808  -4.554  1.00 20.00     0.014 C 
HETATM    2  C3  UNL     1     -36.500  14.956  -3.351  1.00 20.00     0.012 C 
HETATM    3  C4  UNL     1     -35.453  15.842  -5.003  1.00 20.00     0.064 C 
HETATM    4  C5  UNL     1     -33.872  15.058  -2.957  1.00 20.00    -0.000 A 
HETATM    5  C6  UNL     1     -35.151  15.547  -3.569  1.00 20.00    -0.019 A 
HETATM    6  C7  UNL     1     -34.405  16.438  -2.591  1.00 20.00    -0.035 A 
HETATM    7  C9  UNL     1     -32.623  14.873  -3.749  1.00 20.00     0.011 C 
HETATM    8  C10 UNL     1     -33.713  17.676  -3.103  1.00 20.00     0.016 C 
HETATM    9  C11 UNL     1     -34.949  16.604  -1.192  1.00 20.00     0.016 C 
ENDROOT
BRANCH   3  10
HETATM   10  C1  UNL     1     -34.990  14.765  -5.994  1.00 20.00     0.128 C 
HETATM   11  C8  UNL     1     -34.300  15.246  -7.242  1.00 20.00     0.091 C 
HETATM   12  O12 UNL     1     -35.172  13.569  -5.778  1.00 20.00    -0.298 OA
ENDBRANCH   3  10
TORSDOF 1
ENDMDL
MODEL 4
REMARK VINA RESULT:      -4.6      1.638      3.180
REMARK  1 active torsions:
REMARK  status: ('A' for Active; 'I' for Inactive)
REMARK    1  A    between atoms: C1_1  and  C4_4 
ROOT
HETATM    1  C2  UNL     1     -35.951  17.553  -5.283  1.00 20.00     0.014 C 
HETATM    2  C3  UNL     1     -36.622  16.841  -4.100  1.00 20.00     0.012 C 
HETATM    3  C4  UNL     1     -35.293  16.210  -5.662  1.00 20.00     0.064 C 
HETATM    4  C5  UNL     1     -35.481  14.494  -3.583  1.00 20.00    -0.000 A 
HETATM    5  C6  UNL     1     -35.521  15.847  -4.230  1.00 20.00    -0.019 A 
HETATM    6  C7  UNL     1     -34.462  15.555  -3.182  1.00 20.00    -0.035 A 
HETATM    7  C9  UNL     1     -35.095  13.262  -4.325  1.00 20.00     0.011 C 
HETATM    8  C10 UNL     1     -33.022  15.419  -3.608  1.00 20.00     0.016 C 
HETATM    9  C11 UNL     1     -34.613  16.151  -1.803  1.00 20.00     0.016 C 
ENDROOT
BRANCH   3  10
HETATM   10  C1  UNL     1     -36.028  15.323  -6.677  1.00 20.00     0.128 C 
HETATM   11  C8  UNL     1     -35.187  14.681  -7.747  1.00 20.00     0.091 C 
HETATM   12  O12 UNL     1     -37.242  15.145  -6.617  1.00 20.00    -0.298 OA
ENDBRANCH   3  10
TORSDOF 1
ENDMDL
MODEL 5
REMARK VINA RESULT:      -4.5      1.399      3.150
REMARK  1 active torsions:
REMARK  status: ('A' for Active; 'I' for Inactive)
REMARK    1  A    between atoms: C1_1  and  C4_4 
ROOT
HETATM    1  C2  UNL     1     -35.110  13.325  -4.253  1.00 20.00     0.014 C 
HETATM    2  C3  UNL     1     -33.888  14.165  -3.858  1.00 20.00     0.012 C 
HETATM    3  C4  UNL     1     -35.677  14.567  -4.973  1.00 20.00     0.064 C 
HETATM    4  C5  UNL     1     -34.338  16.769  -4.160  1.00 20.00    -0.000 A 
HETATM    5  C6  UNL     1     -34.781  15.339  -4.059  1.00 20.00    -0.019 A 
HETATM    6  C7  UNL     1     -35.203  16.326  -2.985  1.00 20.00    -0.035 A 
HETATM    7  C9  UNL     1     -34.843  17.693  -5.214  1.00 20.00     0.011 C 
HETATM    8  C10 UNL     1     -36.647  16.755  -2.905  1.00 20.00     0.016 C 
HETATM    9  C11 UNL     1     -34.531  16.269  -1.634  1.00 20.00     0.016 C 
ENDROOT
BRANCH   3  10
HETATM   10  C1  UNL     1     -35.364  14.724  -6.467  1.00 20.00     0.128 C 
HETATM   11  C8  UNL     1     -36.533  14.966  -7.382  1.00 20.00     0.091 C 
HETATM   12  O12 UNL     1     -34.213  14.657  -6.895  1.00 20.00    -0.298 OA
ENDBRANCH   3  10
TORSDOF 1
ENDMDL
MODEL 6
REMARK VINA RESULT:      -4.5      1.996      3.676
REMARK  1 active torsions:
REMARK  status: ('A' for Active; 'I' for Inactive)
REMARK    1  A    between atoms: C1_1  and  C4_4 
ROOT
HETATM    1  C2  UNL     1     -36.801  16.992  -4.040  1.00 20.00     0.014 C 
HETATM    2  C3  UNL     1     -35.755  17.111  -5.159  1.00 20.00     0.012 C 
HETATM    3  C4  UNL     1     -35.739  16.267  -3.185  1.00 20.00     0.064 C 
HETATM    4  C5  UNL     1     -33.696  15.473  -4.766  1.00 20.00    -0.000 A 
HETATM    5  C6  UNL     1     -35.091  15.955  -4.495  1.00 20.00    -0.019 A 
HETATM    6  C7  UNL     1     -34.884  14.581  -5.108  1.00 20.00    -0.035 A 
HETATM    7  C9  UNL     1     -32.739  15.138  -3.675  1.00 20.00     0.011 C 
HETATM    8  C10 UNL     1     -35.171  13.354  -4.279  1.00 20.00     0.016 C 
HETATM    9  C11 UNL     1     -35.180  14.381  -6.575  1.00 20.00     0.016 C 
ENDROOT
BRANCH   3  10
HETATM   10  C1  UNL     1     -34.892  17.123  -2.234  1.00 20.00     0.128 C 
HETATM   11  C8  UNL     1     -34.657  16.571  -0.854  1.00 20.00     0.091 C 
HETATM   12  O12 UNL     1     -34.425  18.205  -2.583  1.00 20.00    -0.298 OA
ENDBRANCH   3  10
TORSDOF 1
ENDMDL
MODEL 7
REMARK VINA RESULT:      -4.5      1.698      3.191
REMARK  1 active torsions:
REMARK  status: ('A' for Active; 'I' for Inactive)
REMARK    1  A    between atoms: C1_1  and  C4_4 
ROOT
HETATM    1  C2  UNL     1     -34.141  17.475  -5.367  1.00 20.00     0.014 C 
HETATM    2  C3  UNL     1     -33.682  16.272  -6.202  1.00 20.00     0.012 C 
HETATM    3  C4  UNL     1     -34.788  16.486  -4.375  1.00 20.00     0.064 C 
HETATM    4  C5  UNL     1     -34.979  14.049  -5.528  1.00 20.00    -0.000 A 
HETATM    5  C6  UNL     1     -34.789  15.538  -5.531  1.00 20.00    -0.019 A 
HETATM    6  C7  UNL     1     -36.003  14.941  -6.221  1.00 20.00    -0.035 A 
HETATM    7  C9  UNL     1     -35.299  13.284  -4.291  1.00 20.00     0.011 C 
HETATM    8  C10 UNL     1     -37.368  15.138  -5.610  1.00 20.00     0.016 C 
HETATM    9  C11 UNL     1     -36.036  14.889  -7.729  1.00 20.00     0.016 C 
ENDROOT
BRANCH   3  10
HETATM   10  C1  UNL     1     -33.946  16.035  -3.173  1.00 20.00     0.128 C 
HETATM   11  C8  UNL     1     -34.570  16.191  -1.813  1.00 20.00     0.091 C 
HETATM   12  O12 UNL     1     -32.817  15.568  -3.315  1.00 20.00    -0.298 OA
ENDBRANCH   3  10
TORSDOF 1
ENDMDL
MODEL 8
REMARK VINA RESULT:      -4.4      1.596      2.943
REMARK  1 active torsions:
REMARK  status: ('A' for Active; 'I' for Inactive)
REMARK    1  A    between atoms: C1_1  and  C4_4 
ROOT
HETATM    1  C2  UNL     1     -34.726  15.909  -1.901  1.00 20.00     0.014 C 
HETATM    2  C3  UNL     1     -33.691  16.890  -2.471  1.00 20.00     0.012 C 
HETATM    3  C4  UNL     1     -34.969  15.398  -3.337  1.00 20.00     0.064 C 
HETATM    4  C5  UNL     1     -33.929  17.155  -5.107  1.00 20.00    -0.000 A 
HETATM    5  C6  UNL     1     -34.423  16.725  -3.757  1.00 20.00    -0.019 A 
HETATM    6  C7  UNL     1     -35.161  17.822  -4.504  1.00 20.00    -0.035 A 
HETATM    7  C9  UNL     1     -34.008  16.278  -6.307  1.00 20.00     0.011 C 
HETATM    8  C10 UNL     1     -36.529  17.535  -5.071  1.00 20.00     0.016 C 
HETATM    9  C11 UNL     1     -35.002  19.252  -4.048  1.00 20.00     0.016 C 
ENDROOT
BRANCH   3  10
HETATM   10  C1  UNL     1     -34.152  14.186  -3.805  1.00 20.00     0.128 C 
HETATM   11  C8  UNL     1     -34.899  13.113  -4.549  1.00 20.00     0.091 C 
HETATM   12  O12 UNL     1     -32.946  14.098  -3.585  1.00 20.00    -0.298 OA
ENDBRANCH   3  10
TORSDOF 1
ENDMDL
MODEL 9
REMARK VINA RESULT:      -4.4      1.644      2.922
REMARK  1 active torsions:
REMARK  status: ('A' for Active; 'I' for Inactive)
REMARK    1  A    between atoms: C1_1  and  C4_4 
ROOT
HETATM    1  C2  UNL     1     -32.944  14.784  -3.750  1.00 20.00     0.014 C 
HETATM    2  C3  UNL     1     -33.209  16.202  -4.275  1.00 20.00     0.012 C 
HETATM    3  C4  UNL     1     -34.406  14.740  -3.257  1.00 20.00     0.064 C 
HETATM    4  C5  UNL     1     -35.426  17.242  -3.237  1.00 20.00    -0.000 A 
HETATM    5  C6  UNL     1     -34.318  16.232  -3.282  1.00 20.00    -0.019 A 
HETATM    6  C7  UNL     1     -34.419  17.173  -2.095  1.00 20.00    -0.035 A 
HETATM    7  C9  UNL     1     -36.855  16.858  -3.061  1.00 20.00     0.011 C 
HETATM    8  C10 UNL     1     -34.835  16.624  -0.753  1.00 20.00     0.016 C 
HETATM    9  C11 UNL     1     -33.442  18.319  -1.984  1.00 20.00     0.016 C 
ENDROOT
BRANCH   3  10
HETATM   10  C1  UNL     1     -35.455  14.139  -4.203  1.00 20.00     0.128 C 
HETATM   11  C8  UNL     1     -35.050  13.974  -5.643  1.00 20.00     0.091 C 
HETATM   12  O12 UNL     1     -36.569  13.808  -3.804  1.00 20.00    -0.298 OA
ENDBRANCH   3  10
TORSDOF 1
ENDMDL
