MODEL 1
REMARK VINA RESULT:      -5.0      0.000      0.000
REMARK  1 active torsions:
REMARK  status: ('A' for Active; 'I' for Inactive)
REMARK    1  A    between atoms: C2_2  and  C8_8 
ROOT
HETATM    1  C1  UNL     1     -34.488  13.633  -4.608  1.00 20.00     0.136 C 
HETATM    2  C3  UNL     1     -33.510  13.906  -3.489  1.00 20.00     0.079 C 
HETATM    3  C4  UNL     1     -32.491  14.968  -3.889  1.00 20.00     0.007 C 
HETATM    4  C5  UNL     1     -33.166  16.245  -4.388  1.00 20.00     0.002 C 
HETATM    5  C6  UNL     1     -34.064  15.953  -5.588  1.00 20.00     0.018 C 
HETATM    6  C7  UNL     1     -36.248  14.711  -6.178  1.00 20.00     0.030 A 
HETATM    7  C8  UNL     1     -36.455  15.311  -4.816  1.00 20.00     0.064 A 
HETATM    8  C9  UNL     1     -35.064  14.865  -5.247  1.00 20.00     0.031 A 
HETATM    9  O10 UNL     1     -34.840  12.505  -4.931  1.00 20.00    -0.297 OA
ENDROOT
BRANCH   7  10
HETATM   10  C2  UNL     1     -37.204  14.555  -3.802  1.00 20.00     0.236 C 
HETATM   11  O11 UNL     1     -38.381  14.234  -3.931  1.00 20.00    -0.306 OA
ENDBRANCH   7  10
TORSDOF 1
ENDMDL
MODEL 2
REMARK VINA RESULT:      -4.7      1.734      2.920
REMARK  1 active torsions:
REMARK  status: ('A' for Active; 'I' for Inactive)
REMARK    1  A    between atoms: C2_2  and  C8_8 
ROOT
HETATM    1  C1  UNL     1     -36.185  14.736  -3.696  1.00 20.00     0.136 C 
HETATM    2  C3  UNL     1     -36.237  16.138  -3.137  1.00 20.00     0.079 C 
HETATM    3  C4  UNL     1     -35.091  16.391  -2.163  1.00 20.00     0.007 C 
HETATM    4  C5  UNL     1     -33.733  16.071  -2.787  1.00 20.00     0.002 C 
HETATM    5  C6  UNL     1     -33.673  14.615  -3.245  1.00 20.00     0.018 C 
HETATM    6  C7  UNL     1     -34.718  13.042  -5.004  1.00 20.00     0.030 A 
HETATM    7  C8  UNL     1     -34.547  14.375  -5.675  1.00 20.00     0.064 A 
HETATM    8  C9  UNL     1     -34.828  14.307  -4.179  1.00 20.00     0.031 A 
HETATM    9  O10 UNL     1     -37.173  14.022  -3.813  1.00 20.00    -0.297 OA
ENDROOT
BRANCH   7  10
HETATM   10  C2  UNL     1     -35.575  14.849  -6.610  1.00 20.00     0.236 C 
HETATM   11  O11 UNL     1     -35.751  14.366  -7.724  1.00 20.00    -0.306 OA
ENDBRANCH   7  10
TORSDOF 1
ENDMDL
MODEL 3
REMARK VINA RESULT:      -4.6      2.699      3.736
REMARK  1 active torsions:
REMARK  status: ('A' for Active; 'I' for Inactive)
REMARK    1  A    between atoms: C2_2  and  C8_8 
ROOT
HETATM    1  C1  UNL     1     -35.486  15.808  -3.759  1.00 20.00     0.136 C 
HETATM    2  C3  UNL     1     -35.852  14.343  -3.718  1.00 20.00     0.079 C 
HETATM    3  C4  UNL     1     -34.768  13.482  -4.357  1.00 20.00     0.007 C 
HETATM    4  C5  UNL     1     -33.394  13.748  -3.744  1.00 20.00     0.002 C 
HETATM    5  C6  UNL     1     -33.004  15.217  -3.898  1.00 20.00     0.018 C 
HETATM    6  C7  UNL     1     -33.702  17.555  -3.055  1.00 20.00     0.030 A 
HETATM    7  C8  UNL     1     -33.873  16.616  -1.895  1.00 20.00     0.064 A 
HETATM    8  C9  UNL     1     -34.082  16.113  -3.317  1.00 20.00     0.031 A 
HETATM    9  O10 UNL     1     -36.279  16.690  -4.061  1.00 20.00    -0.297 OA
ENDROOT
BRANCH   7  10
HETATM   10  C2  UNL     1     -35.014  16.794  -0.987  1.00 20.00     0.236 C 
HETATM   11  O11 UNL     1     -34.896  16.991   0.218  1.00 20.00    -0.306 OA
ENDBRANCH   7  10
TORSDOF 1
ENDMDL
MODEL 4
REMARK VINA RESULT:      -4.5      1.899      2.628
REMARK  1 active torsions:
REMARK  status: ('A' for Active; 'I' for Inactive)
REMARK    1  A    between atoms: C2_2  and  C8_8 
ROOT
HETATM    1  C1  UNL     1     -33.420  15.681  -3.566  1.00 20.00     0.136 C 
HETATM    2  C3  UNL     1     -33.785  16.410  -2.295  1.00 20.00     0.079 C 
HETATM    3  C4  UNL     1     -34.093  17.879  -2.566  1.00 20.00     0.007 C 
HETATM    4  C5  UNL     1     -35.156  18.047  -3.651  1.00 20.00     0.002 C 
HETATM    5  C6  UNL     1     -34.709  17.392  -4.957  1.00 20.00     0.018 C 
HETATM    6  C7  UNL     1     -34.239  15.056  -5.947  1.00 20.00     0.030 A 
HETATM    7  C8  UNL     1     -35.416  14.898  -5.026  1.00 20.00     0.064 A 
HETATM    8  C9  UNL     1     -34.346  15.939  -4.721  1.00 20.00     0.031 A 
HETATM    9  O10 UNL     1     -32.487  14.891  -3.642  1.00 20.00    -0.297 OA
ENDROOT
BRANCH   7  10
HETATM   10  C2  UNL     1     -35.534  13.683  -4.210  1.00 20.00     0.236 C 
HETATM   11  O11 UNL     1     -35.018  12.612  -4.512  1.00 20.00    -0.306 OA
ENDBRANCH   7  10
TORSDOF 1
ENDMDL
MODEL 5
REMARK VINA RESULT:      -4.5      2.286      3.369
REMARK  1 active torsions:
REMARK  status: ('A' for Active; 'I' for Inactive)
REMARK    1  A    between atoms: C2_2  and  C8_8 
ROOT
HETATM    1  C1  UNL     1     -33.670  15.872  -5.199  1.00 20.00     0.136 C 
HETATM    2  C3  UNL     1     -34.331  16.731  -6.251  1.00 20.00     0.079 C 
HETATM    3  C4  UNL     1     -34.829  15.890  -7.421  1.00 20.00     0.007 C 
HETATM    4  C5  UNL     1     -35.735  14.750  -6.958  1.00 20.00     0.002 C 
HETATM    5  C6  UNL     1     -35.002  13.836  -5.978  1.00 20.00     0.018 C 
HETATM    6  C7  UNL     1     -34.018  13.866  -3.592  1.00 20.00     0.030 A 
HETATM    7  C8  UNL     1     -35.277  14.686  -3.543  1.00 20.00     0.064 A 
HETATM    8  C9  UNL     1     -34.446  14.642  -4.819  1.00 20.00     0.031 A 
HETATM    9  O10 UNL     1     -32.621  16.176  -4.645  1.00 20.00    -0.297 OA
ENDROOT
BRANCH   7  10
HETATM   10  C2  UNL     1     -35.315  15.898  -2.714  1.00 20.00     0.236 C 
HETATM   11  O11 UNL     1     -34.787  15.980  -1.610  1.00 20.00    -0.306 OA
ENDBRANCH   7  10
TORSDOF 1
ENDMDL
MODEL 6
REMARK VINA RESULT:      -4.5      1.688      1.886
REMARK  1 active torsions:
REMARK  status: ('A' for Active; 'I' for Inactive)
REMARK    1  A    between atoms: C2_2  and  C8_8 
ROOT
HETATM    1  C1  UNL     1     -34.695  14.120  -4.836  1.00 20.00     0.136 C 
HETATM    2  C3  UNL     1     -34.900  14.564  -3.407  1.00 20.00     0.079 C 
HETATM    3  C4  UNL     1     -33.799  15.519  -2.958  1.00 20.00     0.007 C 
HETATM    4  C5  UNL     1     -33.649  16.703  -3.913  1.00 20.00     0.002 C 
HETATM    5  C6  UNL     1     -33.335  16.225  -5.329  1.00 20.00     0.018 C 
HETATM    6  C7  UNL     1     -34.433  14.944  -7.282  1.00 20.00     0.030 A 
HETATM    7  C8  UNL     1     -35.517  15.776  -6.657  1.00 20.00     0.064 A 
HETATM    8  C9  UNL     1     -34.382  15.233  -5.796  1.00 20.00     0.031 A 
HETATM    9  O10 UNL     1     -34.836  12.961  -5.205  1.00 20.00    -0.297 OA
ENDROOT
BRANCH   7  10
HETATM   10  C2  UNL     1     -36.874  15.224  -6.543  1.00 20.00     0.236 C 
HETATM   11  O11 UNL     1     -37.533  14.847  -7.506  1.00 20.00    -0.306 OA
ENDBRANCH   7  10
TORSDOF 1
ENDMDL
MODEL 7
REMARK VINA RESULT:      -4.4      1.567      2.407
REMARK  1 active torsions:
REMARK  status: ('A' for Active; 'I' for Inactive)
REMARK    1  A    between atoms: C2_2  and  C8_8 
ROOT
HETATM    1  C1  UNL     1     -33.940  15.920  -4.192  1.00 20.00     0.136 C 
HETATM    2  C3  UNL     1     -34.146  17.406  -4.375  1.00 20.00     0.079 C 
HETATM    3  C4  UNL     1     -33.738  17.854  -5.774  1.00 20.00     0.007 C 
HETATM    4  C5  UNL     1     -34.438  17.039  -6.860  1.00 20.00     0.002 C 
HETATM    5  C6  UNL     1     -34.123  15.552  -6.713  1.00 20.00     0.018 C 
HETATM    6  C7  UNL     1     -34.567  13.577  -5.112  1.00 20.00     0.030 A 
HETATM    7  C8  UNL     1     -35.823  14.401  -5.128  1.00 20.00     0.064 A 
HETATM    8  C9  UNL     1     -34.469  15.074  -5.316  1.00 20.00     0.031 A 
HETATM    9  O10 UNL     1     -33.445  15.430  -3.185  1.00 20.00    -0.297 OA
ENDROOT
BRANCH   7  10
HETATM   10  C2  UNL     1     -36.584  14.580  -3.884  1.00 20.00     0.236 C 
HETATM   11  O11 UNL     1     -37.745  14.213  -3.743  1.00 20.00    -0.306 OA
ENDBRANCH   7  10
TORSDOF 1
ENDMDL
MODEL 8
REMARK VINA RESULT:      -4.4      1.194      1.482
REMARK  1 active torsions:
REMARK  status: ('A' for Active; 'I' for Inactive)
REMARK    1  A    between atoms: C2_2  and  C8_8 
ROOT
HETATM    1  C1  UNL     1     -35.095  14.317  -5.533  1.00 20.00     0.136 C 
HETATM    2  C3  UNL     1     -34.488  13.314  -4.582  1.00 20.00     0.079 C 
HETATM    3  C4  UNL     1     -33.334  13.924  -3.793  1.00 20.00     0.007 C 
HETATM    4  C5  UNL     1     -33.749  15.211  -3.083  1.00 20.00     0.002 C 
HETATM    5  C6  UNL     1     -34.256  16.247  -4.085  1.00 20.00     0.018 C 
HETATM    6  C7  UNL     1     -36.229  16.645  -5.701  1.00 20.00     0.030 A 
HETATM    7  C8  UNL     1     -36.803  15.967  -4.489  1.00 20.00     0.064 A 
HETATM    8  C9  UNL     1     -35.376  15.663  -4.926  1.00 20.00     0.031 A 
HETATM    9  O10 UNL     1     -35.400  14.048  -6.689  1.00 20.00    -0.297 OA
ENDROOT
BRANCH   7  10
HETATM   10  C2  UNL     1     -37.868  14.969  -4.658  1.00 20.00     0.236 C 
HETATM   11  O11 UNL     1     -38.229  14.208  -3.766  1.00 20.00    -0.306 OA
ENDBRANCH   7  10
TORSDOF 1
ENDMDL
MODEL 9
REMARK VINA RESULT:      -4.4      2.712      3.667
REMARK  1 active torsions:
REMARK  status: ('A' for Active; 'I' for Inactive)
REMARK    1  A    between atoms: C2_2  and  C8_8 
ROOT
HETATM    1  C1  UNL     1     -33.854  16.046  -4.865  1.00 20.00     0.136 C 
HETATM    2  C3  UNL     1     -34.613  15.416  -6.009  1.00 20.00     0.079 C 
HETATM    3  C4  UNL     1     -34.671  13.899  -5.868  1.00 20.00     0.007 C 
HETATM    4  C5  UNL     1     -35.224  13.475  -4.508  1.00 20.00     0.002 C 
HETATM    5  C6  UNL     1     -34.371  14.039  -3.373  1.00 20.00     0.018 C 
HETATM    6  C7  UNL     1     -33.755  16.297  -2.285  1.00 20.00     0.030 A 
HETATM    7  C8  UNL     1     -35.203  16.395  -2.677  1.00 20.00     0.064 A 
HETATM    8  C9  UNL     1     -34.246  15.545  -3.504  1.00 20.00     0.031 A 
HETATM    9  O10 UNL     1     -33.031  16.941  -5.018  1.00 20.00    -0.297 OA
ENDROOT
BRANCH   7  10
HETATM   10  C2  UNL     1     -35.723  17.664  -3.202  1.00 20.00     0.236 C 
HETATM   11  O11 UNL     1     -35.385  18.763  -2.774  1.00 20.00    -0.306 OA
ENDBRANCH   7  10
TORSDOF 1
ENDMDL
