MODEL 1
REMARK VINA RESULT:      -3.9      0.000      0.000
REMARK  1 active torsions:
REMARK  status: ('A' for Active; 'I' for Inactive)
REMARK    1  A    between atoms: C3_3  and  C7_7 
ROOT
HETATM    1  C1  UNL     1     -34.547  16.942  -5.431  1.00 20.00     0.346 C 
HETATM    2  C2  UNL     1     -33.630  15.117  -4.238  1.00 20.00     0.233 C 
HETATM    3  C3  UNL     1     -33.669  16.132  -3.072  1.00 20.00     0.081 C 
HETATM    4  C4  UNL     1     -33.754  13.672  -3.752  1.00 20.00     0.044 C 
HETATM    5  C6  UNL     1     -34.727  14.748  -6.410  1.00 20.00     0.311 C 
HETATM    6  N8  UNL     1     -34.712  15.509  -5.165  1.00 20.00     0.098 N 
HETATM    7  S9  UNL     1     -33.925  17.724  -3.918  1.00 20.00    -0.132 SA
ENDROOT
BRANCH   3   8
HETATM    8  C7  UNL     1     -34.795  15.929  -2.061  1.00 20.00     0.013 C 
HETATM    9  C5  UNL     1     -34.556  16.703  -0.806  1.00 20.00     0.006 C 
ENDBRANCH   3   8
TORSDOF 1
ENDMDL
MODEL 2
REMARK VINA RESULT:      -3.8      1.793      1.998
REMARK  1 active torsions:
REMARK  status: ('A' for Active; 'I' for Inactive)
REMARK    1  A    between atoms: C3_3  and  C7_7 
ROOT
HETATM    1  C1  UNL     1     -36.522  14.683  -4.054  1.00 20.00     0.346 C 
HETATM    2  C2  UNL     1     -34.274  15.410  -3.947  1.00 20.00     0.233 C 
HETATM    3  C3  UNL     1     -34.884  16.476  -3.008  1.00 20.00     0.081 C 
HETATM    4  C4  UNL     1     -32.813  15.109  -3.608  1.00 20.00     0.044 C 
HETATM    5  C6  UNL     1     -34.806  13.159  -4.787  1.00 20.00     0.311 C 
HETATM    6  N8  UNL     1     -35.146  14.221  -3.846  1.00 20.00     0.098 N 
HETATM    7  S9  UNL     1     -36.671  16.340  -3.335  1.00 20.00    -0.132 SA
ENDROOT
BRANCH   3   8
HETATM    8  C7  UNL     1     -34.643  16.255  -1.516  1.00 20.00     0.013 C 
HETATM    9  C5  UNL     1     -33.925  17.408  -0.897  1.00 20.00     0.006 C 
ENDBRANCH   3   8
TORSDOF 1
ENDMDL
MODEL 3
REMARK VINA RESULT:      -3.5      1.788      2.237
REMARK  1 active torsions:
REMARK  status: ('A' for Active; 'I' for Inactive)
REMARK    1  A    between atoms: C3_3  and  C7_7 
ROOT
HETATM    1  C1  UNL     1     -36.046  14.552  -5.172  1.00 20.00     0.346 C 
HETATM    2  C2  UNL     1     -34.851  16.555  -4.780  1.00 20.00     0.233 C 
HETATM    3  C3  UNL     1     -35.437  16.379  -3.360  1.00 20.00     0.081 C 
HETATM    4  C4  UNL     1     -33.519  17.307  -4.767  1.00 20.00     0.044 C 
HETATM    5  C6  UNL     1     -34.347  15.183  -6.759  1.00 20.00     0.311 C 
HETATM    6  N8  UNL     1     -34.742  15.198  -5.355  1.00 20.00     0.098 N 
HETATM    7  S9  UNL     1     -36.744  15.135  -3.604  1.00 20.00    -0.132 SA
ENDROOT
BRANCH   3   8
HETATM    8  C7  UNL     1     -34.462  15.861  -2.305  1.00 20.00     0.013 C 
HETATM    9  C5  UNL     1     -34.605  16.596  -1.013  1.00 20.00     0.006 C 
ENDBRANCH   3   8
TORSDOF 1
ENDMDL
MODEL 4
REMARK VINA RESULT:      -3.5      2.059      3.719
REMARK  1 active torsions:
REMARK  status: ('A' for Active; 'I' for Inactive)
REMARK    1  A    between atoms: C3_3  and  C7_7 
ROOT
HETATM    1  C1  UNL     1     -36.155  15.959  -3.155  1.00 20.00     0.346 C 
HETATM    2  C2  UNL     1     -34.516  14.268  -3.376  1.00 20.00     0.233 C 
HETATM    3  C3  UNL     1     -35.467  13.787  -4.496  1.00 20.00     0.081 C 
HETATM    4  C4  UNL     1     -33.061  13.878  -3.644  1.00 20.00     0.044 C 
HETATM    5  C6  UNL     1     -34.000  16.336  -2.146  1.00 20.00     0.311 C 
HETATM    6  N8  UNL     1     -34.711  15.729  -3.266  1.00 20.00     0.098 N 
HETATM    7  S9  UNL     1     -37.000  14.711  -4.163  1.00 20.00    -0.132 SA
ENDROOT
BRANCH   3   8
HETATM    8  C7  UNL     1     -35.012  14.093  -5.921  1.00 20.00     0.013 C 
HETATM    9  C5  UNL     1     -36.063  14.826  -6.690  1.00 20.00     0.006 C 
ENDBRANCH   3   8
TORSDOF 1
ENDMDL
MODEL 5
REMARK VINA RESULT:      -3.5      1.787      3.244
REMARK  1 active torsions:
REMARK  status: ('A' for Active; 'I' for Inactive)
REMARK    1  A    between atoms: C3_3  and  C7_7 
ROOT
HETATM    1  C1  UNL     1     -35.098  17.042  -5.148  1.00 20.00     0.346 C 
HETATM    2  C2  UNL     1     -35.149  16.432  -2.863  1.00 20.00     0.233 C 
HETATM    3  C3  UNL     1     -35.550  15.062  -3.455  1.00 20.00     0.081 C 
HETATM    4  C4  UNL     1     -34.419  16.294  -1.525  1.00 20.00     0.044 C 
HETATM    5  C6  UNL     1     -33.995  18.488  -3.568  1.00 20.00     0.311 C 
HETATM    6  N8  UNL     1     -34.337  17.108  -3.896  1.00 20.00     0.098 N 
HETATM    7  S9  UNL     1     -35.998  15.468  -5.173  1.00 20.00    -0.132 SA
ENDROOT
BRANCH   3   8
HETATM    8  C7  UNL     1     -34.448  14.005  -3.475  1.00 20.00     0.013 C 
HETATM    9  C5  UNL     1     -34.417  13.264  -4.771  1.00 20.00     0.006 C 
ENDBRANCH   3   8
TORSDOF 1
ENDMDL
MODEL 6
REMARK VINA RESULT:      -3.5      2.041      2.464
REMARK  1 active torsions:
REMARK  status: ('A' for Active; 'I' for Inactive)
REMARK    1  A    between atoms: C3_3  and  C7_7 
ROOT
HETATM    1  C1  UNL     1     -34.539  14.222  -5.490  1.00 20.00     0.346 C 
HETATM    2  C2  UNL     1     -36.186  14.937  -3.951  1.00 20.00     0.233 C 
HETATM    3  C3  UNL     1     -34.996  14.866  -2.967  1.00 20.00     0.081 C 
HETATM    4  C4  UNL     1     -37.224  15.979  -3.530  1.00 20.00     0.044 C 
HETATM    5  C6  UNL     1     -36.578  15.153  -6.370  1.00 20.00     0.311 C 
HETATM    6  N8  UNL     1     -35.607  15.205  -5.284  1.00 20.00     0.098 N 
HETATM    7  S9  UNL     1     -33.755  13.901  -3.887  1.00 20.00    -0.132 SA
ENDROOT
BRANCH   3   8
HETATM    8  C7  UNL     1     -34.380  16.210  -2.581  1.00 20.00     0.013 C 
HETATM    9  C5  UNL     1     -34.560  16.502  -1.127  1.00 20.00     0.006 C 
ENDBRANCH   3   8
TORSDOF 1
ENDMDL
MODEL 7
REMARK VINA RESULT:      -3.3      1.889      3.156
REMARK  1 active torsions:
REMARK  status: ('A' for Active; 'I' for Inactive)
REMARK    1  A    between atoms: C3_3  and  C7_7 
ROOT
HETATM    1  C1  UNL     1     -35.367  17.936  -2.306  1.00 20.00     0.346 C 
HETATM    2  C2  UNL     1     -33.746  17.175  -3.850  1.00 20.00     0.233 C 
HETATM    3  C3  UNL     1     -33.757  15.934  -2.929  1.00 20.00     0.081 C 
HETATM    4  C4  UNL     1     -33.370  16.823  -5.291  1.00 20.00     0.044 C 
HETATM    5  C6  UNL     1     -35.211  19.066  -4.427  1.00 20.00     0.311 C 
HETATM    6  N8  UNL     1     -35.087  17.787  -3.737  1.00 20.00     0.098 N 
HETATM    7  S9  UNL     1     -34.616  16.533  -1.438  1.00 20.00    -0.132 SA
ENDROOT
BRANCH   3   8
HETATM    8  C7  UNL     1     -34.508  14.719  -3.469  1.00 20.00     0.013 C 
HETATM    9  C5  UNL     1     -33.580  13.596  -3.796  1.00 20.00     0.006 C 
ENDBRANCH   3   8
TORSDOF 1
ENDMDL
MODEL 8
REMARK VINA RESULT:      -3.2      2.219      2.305
REMARK  1 active torsions:
REMARK  status: ('A' for Active; 'I' for Inactive)
REMARK    1  A    between atoms: C3_3  and  C7_7 
ROOT
HETATM    1  C1  UNL     1     -37.365  16.943  -3.360  1.00 20.00     0.346 C 
HETATM    2  C2  UNL     1     -35.470  15.587  -3.768  1.00 20.00     0.233 C 
HETATM    3  C3  UNL     1     -34.772  16.672  -2.917  1.00 20.00     0.081 C 
HETATM    4  C4  UNL     1     -34.781  14.226  -3.650  1.00 20.00     0.044 C 
HETATM    5  C6  UNL     1     -37.733  14.692  -4.135  1.00 20.00     0.311 C 
HETATM    6  N8  UNL     1     -36.881  15.559  -3.329  1.00 20.00     0.098 N 
HETATM    7  S9  UNL     1     -35.988  18.028  -2.897  1.00 20.00    -0.132 SA
ENDROOT
BRANCH   3   8
HETATM    8  C7  UNL     1     -34.459  16.277  -1.475  1.00 20.00     0.013 C 
HETATM    9  C5  UNL     1     -34.978  17.284  -0.502  1.00 20.00     0.006 C 
ENDBRANCH   3   8
TORSDOF 1
ENDMDL
MODEL 9
REMARK VINA RESULT:      -3.2      1.913      2.761
REMARK  1 active torsions:
REMARK  status: ('A' for Active; 'I' for Inactive)
REMARK    1  A    between atoms: C3_3  and  C7_7 
ROOT
HETATM    1  C1  UNL     1     -33.679  17.046  -5.443  1.00 20.00     0.346 C 
HETATM    2  C2  UNL     1     -34.388  15.133  -6.641  1.00 20.00     0.233 C 
HETATM    3  C3  UNL     1     -34.348  14.497  -5.232  1.00 20.00     0.081 C 
HETATM    4  C4  UNL     1     -35.419  14.463  -7.550  1.00 20.00     0.044 C 
HETATM    5  C6  UNL     1     -34.568  17.366  -7.660  1.00 20.00     0.311 C 
HETATM    6  N8  UNL     1     -34.648  16.574  -6.437  1.00 20.00     0.098 N 
HETATM    7  S9  UNL     1     -33.391  15.703  -4.260  1.00 20.00    -0.132 SA
ENDROOT
BRANCH   3   8
HETATM    8  C7  UNL     1     -35.706  14.297  -4.562  1.00 20.00     0.013 C 
HETATM    9  C5  UNL     1     -35.825  15.098  -3.306  1.00 20.00     0.006 C 
ENDBRANCH   3   8
TORSDOF 1
ENDMDL
