MODEL 1
REMARK VINA RESULT:      -4.6      0.000      0.000
REMARK  0 active torsions:
REMARK  status: ('A' for Active; 'I' for Inactive)
ROOT
HETATM    1  C1  UNL     1     -34.608   5.672   6.435  1.00 20.00     0.011 C 
HETATM    2  C2  UNL     1     -35.632   5.246   4.076  1.00 20.00     0.011 C 
HETATM    3  C3  UNL     1     -33.735   6.700   6.406  1.00 20.00     0.007 C 
HETATM    4  C4  UNL     1     -35.032   5.610   2.926  1.00 20.00     0.007 C 
HETATM    5  C5  UNL     1     -32.171   7.319   4.184  1.00 20.00     0.042 C 
HETATM    6  C6  UNL     1     -32.642   6.808   2.785  1.00 20.00     0.042 C 
HETATM    7  C7  UNL     1     -34.604   4.917   5.124  1.00 20.00     0.270 C 
HETATM    8  C8  UNL     1     -33.351   6.866   4.990  1.00 20.00     0.247 C 
HETATM    9  C9  UNL     1     -33.530   5.567   3.063  1.00 20.00     0.247 C 
HETATM   10  N10 UNL     1     -33.362   5.443   4.517  1.00 20.00     0.116 N 
ENDROOT
TORSDOF 0
ENDMDL
MODEL 2
REMARK VINA RESULT:      -4.6     11.750     13.276
REMARK  0 active torsions:
REMARK  status: ('A' for Active; 'I' for Inactive)
ROOT
HETATM    1  C1  UNL     1     -34.730  14.875  -6.852  1.00 20.00     0.011 C 
HETATM    2  C2  UNL     1     -34.510  13.211  -4.858  1.00 20.00     0.011 C 
HETATM    3  C3  UNL     1     -34.019  16.000  -6.625  1.00 20.00     0.007 C 
HETATM    4  C4  UNL     1     -34.194  13.587  -3.603  1.00 20.00     0.007 C 
HETATM    5  C5  UNL     1     -33.611  17.069  -4.084  1.00 20.00     0.042 C 
HETATM    6  C6  UNL     1     -33.767  16.121  -2.852  1.00 20.00     0.042 C 
HETATM    7  C7  UNL     1     -35.269  14.303  -5.560  1.00 20.00     0.270 C 
HETATM    8  C8  UNL     1     -33.790  16.048  -5.168  1.00 20.00     0.247 C 
HETATM    9  C9  UNL     1     -34.707  14.976  -3.312  1.00 20.00     0.247 C 
HETATM   10  N10 UNL     1     -35.067  15.454  -4.653  1.00 20.00     0.116 N 
ENDROOT
TORSDOF 0
ENDMDL
MODEL 3
REMARK VINA RESULT:      -4.6      0.926      2.731
REMARK  0 active torsions:
REMARK  status: ('A' for Active; 'I' for Inactive)
ROOT
HETATM    1  C1  UNL     1     -34.226   5.294   2.716  1.00 20.00     0.011 C 
HETATM    2  C2  UNL     1     -34.935   4.007   4.869  1.00 20.00     0.011 C 
HETATM    3  C3  UNL     1     -33.185   6.115   2.963  1.00 20.00     0.007 C 
HETATM    4  C4  UNL     1     -34.684   4.447   6.118  1.00 20.00     0.007 C 
HETATM    5  C5  UNL     1     -32.773   7.371   5.416  1.00 20.00     0.042 C 
HETATM    6  C6  UNL     1     -33.447   6.753   6.683  1.00 20.00     0.042 C 
HETATM    7  C7  UNL     1     -35.120   5.167   3.930  1.00 20.00     0.270 C 
HETATM    8  C8  UNL     1     -33.165   6.317   4.425  1.00 20.00     0.247 C 
HETATM    9  C9  UNL     1     -34.672   5.955   6.166  1.00 20.00     0.247 C 
HETATM   10  N10 UNL     1     -34.631   6.304   4.740  1.00 20.00     0.116 N 
ENDROOT
TORSDOF 0
ENDMDL
MODEL 4
REMARK VINA RESULT:      -4.5     12.136     13.639
REMARK  0 active torsions:
REMARK  status: ('A' for Active; 'I' for Inactive)
ROOT
HETATM    1  C1  UNL     1     -34.479  13.797  -3.655  1.00 20.00     0.011 C 
HETATM    2  C2  UNL     1     -33.255  16.067  -4.033  1.00 20.00     0.011 C 
HETATM    3  C3  UNL     1     -34.723  13.177  -4.828  1.00 20.00     0.007 C 
HETATM    4  C4  UNL     1     -33.317  16.766  -5.184  1.00 20.00     0.007 C 
HETATM    5  C5  UNL     1     -35.226  14.539  -7.207  1.00 20.00     0.042 C 
HETATM    6  C6  UNL     1     -34.738  16.019  -7.326  1.00 20.00     0.042 C 
HETATM    7  C7  UNL     1     -34.530  15.301  -3.814  1.00 20.00     0.270 C 
HETATM    8  C8  UNL     1     -34.633  14.222  -5.866  1.00 20.00     0.247 C 
HETATM    9  C9  UNL     1     -34.642  16.553  -5.873  1.00 20.00     0.247 C 
HETATM   10  N10 UNL     1     -35.188  15.408  -5.134  1.00 20.00     0.116 N 
ENDROOT
TORSDOF 0
ENDMDL
MODEL 5
REMARK VINA RESULT:      -4.4     11.742     13.360
REMARK  0 active torsions:
REMARK  status: ('A' for Active; 'I' for Inactive)
ROOT
HETATM    1  C1  UNL     1     -33.547  17.183  -5.442  1.00 20.00     0.011 C 
HETATM    2  C2  UNL     1     -34.257  16.662  -2.989  1.00 20.00     0.011 C 
HETATM    3  C3  UNL     1     -34.203  16.390  -6.315  1.00 20.00     0.007 C 
HETATM    4  C4  UNL     1     -34.772  15.480  -2.596  1.00 20.00     0.007 C 
HETATM    5  C5  UNL     1     -34.996  13.785  -5.721  1.00 20.00     0.042 C 
HETATM    6  C6  UNL     1     -35.143  13.384  -4.219  1.00 20.00     0.042 C 
HETATM    7  C7  UNL     1     -33.301  16.465  -4.133  1.00 20.00     0.270 C 
HETATM    8  C8  UNL     1     -34.695  15.241  -5.529  1.00 20.00     0.247 C 
HETATM    9  C9  UNL     1     -34.222  14.349  -3.428  1.00 20.00     0.247 C 
HETATM   10  N10 UNL     1     -33.583  15.070  -4.537  1.00 20.00     0.116 N 
ENDROOT
TORSDOF 0
ENDMDL
MODEL 6
REMARK VINA RESULT:      -4.2     12.233     13.729
REMARK  0 active torsions:
REMARK  status: ('A' for Active; 'I' for Inactive)
ROOT
HETATM    1  C1  UNL     1     -33.728  17.316  -5.223  1.00 20.00     0.011 C 
HETATM    2  C2  UNL     1     -34.479  15.818  -7.218  1.00 20.00     0.011 C 
HETATM    3  C3  UNL     1     -33.247  16.568  -4.208  1.00 20.00     0.007 C 
HETATM    4  C4  UNL     1     -34.830  14.523  -7.088  1.00 20.00     0.007 C 
HETATM    5  C5  UNL     1     -34.166  14.002  -3.627  1.00 20.00     0.042 C 
HETATM    6  C6  UNL     1     -34.886  13.202  -4.760  1.00 20.00     0.042 C 
HETATM    7  C7  UNL     1     -34.820  16.583  -5.970  1.00 20.00     0.270 C 
HETATM    8  C8  UNL     1     -33.765  15.204  -4.429  1.00 20.00     0.247 C 
HETATM    9  C9  UNL     1     -35.451  14.265  -5.737  1.00 20.00     0.247 C 
HETATM   10  N10 UNL     1     -35.117  15.497  -5.010  1.00 20.00     0.116 N 
ENDROOT
TORSDOF 0
ENDMDL
MODEL 7
REMARK VINA RESULT:      -4.2     11.722     12.651
REMARK  0 active torsions:
REMARK  status: ('A' for Active; 'I' for Inactive)
ROOT
HETATM    1  C1  UNL     1     -37.298  16.001  -3.744  1.00 20.00     0.011 C 
HETATM    2  C2  UNL     1     -35.295  16.663  -2.213  1.00 20.00     0.011 C 
HETATM    3  C3  UNL     1     -37.222  14.703  -4.107  1.00 20.00     0.007 C 
HETATM    4  C4  UNL     1     -34.115  16.011  -2.204  1.00 20.00     0.007 C 
HETATM    5  C5  UNL     1     -34.812  13.352  -4.470  1.00 20.00     0.042 C 
HETATM    6  C6  UNL     1     -33.534  13.923  -3.776  1.00 20.00     0.042 C 
HETATM    7  C7  UNL     1     -35.919  16.601  -3.580  1.00 20.00     0.270 C 
HETATM    8  C8  UNL     1     -35.817  14.304  -3.894  1.00 20.00     0.247 C 
HETATM    9  C9  UNL     1     -33.806  15.435  -3.564  1.00 20.00     0.247 C 
HETATM   10  N10 UNL     1     -35.097  15.570  -4.251  1.00 20.00     0.116 N 
ENDROOT
TORSDOF 0
ENDMDL
MODEL 8
REMARK VINA RESULT:      -4.2     12.213     13.329
REMARK  0 active torsions:
REMARK  status: ('A' for Active; 'I' for Inactive)
ROOT
HETATM    1  C1  UNL     1     -33.542  16.568  -3.611  1.00 20.00     0.011 C 
HETATM    2  C2  UNL     1     -35.646  15.069  -3.264  1.00 20.00     0.011 C 
HETATM    3  C3  UNL     1     -33.421  16.941  -4.902  1.00 20.00     0.007 C 
HETATM    4  C4  UNL     1     -36.220  14.349  -4.248  1.00 20.00     0.007 C 
HETATM    5  C5  UNL     1     -34.250  15.358  -7.040  1.00 20.00     0.042 C 
HETATM    6  C6  UNL     1     -35.317  14.249  -6.766  1.00 20.00     0.042 C 
HETATM    7  C7  UNL     1     -34.166  15.194  -3.498  1.00 20.00     0.270 C 
HETATM    8  C8  UNL     1     -34.236  15.987  -5.679  1.00 20.00     0.247 C 
HETATM    9  C9  UNL     1     -35.193  13.903  -5.260  1.00 20.00     0.247 C 
HETATM   10  N10 UNL     1     -34.032  14.725  -4.895  1.00 20.00     0.116 N 
ENDROOT
TORSDOF 0
ENDMDL
MODEL 9
REMARK VINA RESULT:      -4.2     11.991     12.944
REMARK  0 active torsions:
REMARK  status: ('A' for Active; 'I' for Inactive)
ROOT
HETATM    1  C1  UNL     1     -35.908  14.180  -5.014  1.00 20.00     0.011 C 
HETATM    2  C2  UNL     1     -34.006  15.757  -5.843  1.00 20.00     0.011 C 
HETATM    3  C3  UNL     1     -36.420  14.612  -3.843  1.00 20.00     0.007 C 
HETATM    4  C4  UNL     1     -33.287  16.552  -5.026  1.00 20.00     0.007 C 
HETATM    5  C5  UNL     1     -34.920  15.954  -1.917  1.00 20.00     0.042 C 
HETATM    6  C6  UNL     1     -33.606  16.667  -2.370  1.00 20.00     0.042 C 
HETATM    7  C7  UNL     1     -34.436  14.511  -5.120  1.00 20.00     0.270 C 
HETATM    8  C8  UNL     1     -35.406  15.515  -3.265  1.00 20.00     0.247 C 
HETATM    9  C9  UNL     1     -33.146  15.933  -3.657  1.00 20.00     0.247 C 
HETATM   10  N10 UNL     1     -34.137  14.851  -3.711  1.00 20.00     0.116 N 
ENDROOT
TORSDOF 0
ENDMDL
