MODEL 1
REMARK VINA RESULT:      -4.2      0.000      0.000
REMARK  3 active torsions:
REMARK  status: ('A' for Active; 'I' for Inactive)
REMARK    1  A    between atoms: C2_2  and  C5_5 
REMARK    2  A    between atoms: C3_3  and  C6_6 
REMARK    3  A    between atoms: C3_3  and  O10_10 
ROOT
HETATM    1  C4  UNL     1     -34.263  15.071  -5.923  1.00 20.00     0.025 A 
HETATM    2  C5  UNL     1     -34.445  15.932  -4.703  1.00 20.00     0.028 A 
HETATM    3  C6  UNL     1     -35.542  14.990  -5.136  1.00 20.00     0.094 A 
ENDROOT
BRANCH   3   4
HETATM    4  C3  UNL     1     -35.844  13.768  -4.379  1.00 20.00     0.263 C 
HETATM    5  O9  UNL     1     -35.162  12.754  -4.415  1.00 20.00    -0.265 OA
BRANCH   4   6
HETATM    6  O10 UNL     1     -36.982  13.953  -3.650  1.00 20.00    -0.326 OA
HETATM    7  C8  UNL     1     -37.961  14.811  -4.247  1.00 20.00     0.213 C 
ENDBRANCH   4   6
ENDBRANCH   3   4
BRANCH   2   8
HETATM    8  C2  UNL     1     -33.647  15.651  -3.518  1.00 20.00    -0.088 C 
HETATM    9  C1  UNL     1     -32.522  14.923  -3.577  1.00 20.00     0.014 C 
HETATM   10  C7  UNL     1     -34.156  16.223  -2.229  1.00 20.00     0.043 C 
ENDBRANCH   2   8
TORSDOF 3
ENDMDL
MODEL 2
REMARK VINA RESULT:      -4.1     11.730     12.626
REMARK  3 active torsions:
REMARK  status: ('A' for Active; 'I' for Inactive)
REMARK    1  A    between atoms: C2_2  and  C5_5 
REMARK    2  A    between atoms: C3_3  and  C6_6 
REMARK    3  A    between atoms: C3_3  and  O10_10 
ROOT
HETATM    1  C4  UNL     1     -35.509   6.189   3.535  1.00 20.00     0.025 A 
HETATM    2  C5  UNL     1     -35.036   4.970   4.277  1.00 20.00     0.028 A 
HETATM    3  C6  UNL     1     -34.294   5.446   3.052  1.00 20.00     0.094 A 
ENDROOT
BRANCH   3   4
HETATM    4  C3  UNL     1     -32.974   6.081   3.157  1.00 20.00     0.263 C 
HETATM    5  O9  UNL     1     -31.931   5.468   3.335  1.00 20.00    -0.265 OA
BRANCH   4   6
HETATM    6  O10 UNL     1     -33.107   7.432   3.026  1.00 20.00    -0.326 OA
HETATM    7  C8  UNL     1     -32.100   8.075   2.238  1.00 20.00     0.213 C 
ENDBRANCH   4   6
ENDBRANCH   3   4
BRANCH   2   8
HETATM    8  C2  UNL     1     -34.463   5.133   5.606  1.00 20.00    -0.088 C 
HETATM    9  C1  UNL     1     -34.300   6.342   6.164  1.00 20.00     0.014 C 
HETATM   10  C7  UNL     1     -34.066   3.872   6.313  1.00 20.00     0.043 C 
ENDBRANCH   2   8
TORSDOF 3
ENDMDL
MODEL 3
REMARK VINA RESULT:      -4.0      1.092      2.258
REMARK  3 active torsions:
REMARK  status: ('A' for Active; 'I' for Inactive)
REMARK    1  A    between atoms: C2_2  and  C5_5 
REMARK    2  A    between atoms: C3_3  and  C6_6 
REMARK    3  A    between atoms: C3_3  and  O10_10 
ROOT
HETATM    1  C4  UNL     1     -33.669  16.030  -3.203  1.00 20.00     0.025 A 
HETATM    2  C5  UNL     1     -33.249  15.715  -4.612  1.00 20.00     0.028 A 
HETATM    3  C6  UNL     1     -33.648  14.602  -3.673  1.00 20.00     0.094 A 
ENDROOT
BRANCH   3   4
HETATM    4  C3  UNL     1     -34.917  13.881  -3.838  1.00 20.00     0.263 C 
HETATM    5  O9  UNL     1     -35.015  12.777  -4.354  1.00 20.00    -0.265 OA
BRANCH   4   6
HETATM    6  O10 UNL     1     -35.937  14.632  -3.332  1.00 20.00    -0.326 OA
HETATM    7  C8  UNL     1     -37.160  14.586  -4.074  1.00 20.00     0.213 C 
ENDBRANCH   4   6
ENDBRANCH   3   4
BRANCH   2   8
HETATM    8  C2  UNL     1     -34.119  16.109  -5.711  1.00 20.00    -0.088 C 
HETATM    9  C1  UNL     1     -34.148  15.434  -6.869  1.00 20.00     0.014 C 
HETATM   10  C7  UNL     1     -34.980  17.314  -5.472  1.00 20.00     0.043 C 
ENDBRANCH   2   8
TORSDOF 3
ENDMDL
MODEL 4
REMARK VINA RESULT:      -4.0      1.608      2.756
REMARK  3 active torsions:
REMARK  status: ('A' for Active; 'I' for Inactive)
REMARK    1  A    between atoms: C2_2  and  C5_5 
REMARK    2  A    between atoms: C3_3  and  C6_6 
REMARK    3  A    between atoms: C3_3  and  O10_10 
ROOT
HETATM    1  C4  UNL     1     -33.790  14.175  -3.977  1.00 20.00     0.025 A 
HETATM    2  C5  UNL     1     -34.454  13.720  -5.247  1.00 20.00     0.028 A 
HETATM    3  C6  UNL     1     -35.217  13.702  -3.945  1.00 20.00     0.094 A 
ENDROOT
BRANCH   3   4
HETATM    4  C3  UNL     1     -36.289  14.670  -3.675  1.00 20.00     0.263 C 
HETATM    5  O9  UNL     1     -36.097  15.823  -3.317  1.00 20.00    -0.265 OA
BRANCH   4   6
HETATM    6  O10 UNL     1     -37.500  14.078  -3.884  1.00 20.00    -0.326 OA
HETATM    7  C8  UNL     1     -38.552  14.958  -4.294  1.00 20.00     0.213 C 
ENDBRANCH   4   6
ENDBRANCH   3   4
BRANCH   2   8
HETATM    8  C2  UNL     1     -34.757  14.705  -6.275  1.00 20.00    -0.088 C 
HETATM    9  C1  UNL     1     -35.667  14.473  -7.233  1.00 20.00     0.014 C 
HETATM   10  C7  UNL     1     -33.995  15.995  -6.200  1.00 20.00     0.043 C 
ENDBRANCH   2   8
TORSDOF 3
ENDMDL
MODEL 5
REMARK VINA RESULT:      -3.9      1.455      2.141
REMARK  3 active torsions:
REMARK  status: ('A' for Active; 'I' for Inactive)
REMARK    1  A    between atoms: C2_2  and  C5_5 
REMARK    2  A    between atoms: C3_3  and  C6_6 
REMARK    3  A    between atoms: C3_3  and  O10_10 
ROOT
HETATM    1  C4  UNL     1     -35.956  15.871  -3.750  1.00 20.00     0.025 A 
HETATM    2  C5  UNL     1     -34.685  15.392  -3.105  1.00 20.00     0.028 A 
HETATM    3  C6  UNL     1     -35.663  14.398  -3.683  1.00 20.00     0.094 A 
ENDROOT
BRANCH   3   4
HETATM    4  C3  UNL     1     -35.366  13.667  -4.922  1.00 20.00     0.263 C 
HETATM    5  O9  UNL     1     -34.767  12.602  -4.962  1.00 20.00    -0.265 OA
BRANCH   4   6
HETATM    6  O10 UNL     1     -35.859  14.360  -5.989  1.00 20.00    -0.326 OA
HETATM    7  C8  UNL     1     -34.961  14.509  -7.093  1.00 20.00     0.213 C 
ENDBRANCH   4   6
ENDBRANCH   3   4
BRANCH   2   8
HETATM    8  C2  UNL     1     -33.415  15.659  -3.766  1.00 20.00    -0.088 C 
HETATM    9  C1  UNL     1     -32.340  14.880  -3.576  1.00 20.00     0.014 C 
HETATM   10  C7  UNL     1     -33.381  16.854  -4.672  1.00 20.00     0.043 C 
ENDBRANCH   2   8
TORSDOF 3
ENDMDL
MODEL 6
REMARK VINA RESULT:      -3.9      2.103      3.689
REMARK  3 active torsions:
REMARK  status: ('A' for Active; 'I' for Inactive)
REMARK    1  A    between atoms: C2_2  and  C5_5 
REMARK    2  A    between atoms: C3_3  and  C6_6 
REMARK    3  A    between atoms: C3_3  and  O10_10 
ROOT
HETATM    1  C4  UNL     1     -33.950  13.443  -4.259  1.00 20.00     0.025 A 
HETATM    2  C5  UNL     1     -35.332  14.032  -4.193  1.00 20.00     0.028 A 
HETATM    3  C6  UNL     1     -34.220  14.612  -3.353  1.00 20.00     0.094 A 
ENDROOT
BRANCH   3   4
HETATM    4  C3  UNL     1     -33.626  15.918  -3.668  1.00 20.00     0.263 C 
HETATM    5  O9  UNL     1     -32.771  16.092  -4.525  1.00 20.00    -0.265 OA
BRANCH   4   6
HETATM    6  O10 UNL     1     -34.174  16.874  -2.864  1.00 20.00    -0.326 OA
HETATM    7  C8  UNL     1     -34.499  16.448  -1.537  1.00 20.00     0.213 C 
ENDBRANCH   4   6
ENDBRANCH   3   4
BRANCH   2   8
HETATM    8  C2  UNL     1     -35.846  14.753  -5.348  1.00 20.00    -0.088 C 
HETATM    9  C1  UNL     1     -36.862  15.623  -5.247  1.00 20.00     0.014 C 
HETATM   10  C7  UNL     1     -35.174  14.467  -6.658  1.00 20.00     0.043 C 
ENDBRANCH   2   8
TORSDOF 3
ENDMDL
MODEL 7
REMARK VINA RESULT:      -3.8      2.321      3.407
REMARK  3 active torsions:
REMARK  status: ('A' for Active; 'I' for Inactive)
REMARK    1  A    between atoms: C2_2  and  C5_5 
REMARK    2  A    between atoms: C3_3  and  C6_6 
REMARK    3  A    between atoms: C3_3  and  O10_10 
ROOT
HETATM    1  C4  UNL     1     -33.806  16.290  -2.429  1.00 20.00     0.025 A 
HETATM    2  C5  UNL     1     -34.820  15.293  -2.917  1.00 20.00     0.028 A 
HETATM    3  C6  UNL     1     -34.722  16.653  -3.565  1.00 20.00     0.094 A 
ENDROOT
BRANCH   3   4
HETATM    4  C3  UNL     1     -34.164  16.817  -4.914  1.00 20.00     0.263 C 
HETATM    5  O9  UNL     1     -32.980  17.018  -5.145  1.00 20.00    -0.265 OA
BRANCH   4   6
HETATM    6  O10 UNL     1     -35.162  16.712  -5.837  1.00 20.00    -0.326 OA
HETATM    7  C8  UNL     1     -34.838  15.960  -7.010  1.00 20.00     0.213 C 
ENDBRANCH   4   6
ENDBRANCH   3   4
BRANCH   2   8
HETATM    8  C2  UNL     1     -34.358  14.101  -3.613  1.00 20.00    -0.088 C 
HETATM    9  C1  UNL     1     -35.193  13.321  -4.316  1.00 20.00     0.014 C 
HETATM   10  C7  UNL     1     -32.893  13.796  -3.499  1.00 20.00     0.043 C 
ENDBRANCH   2   8
TORSDOF 3
ENDMDL
MODEL 8
REMARK VINA RESULT:      -3.8      1.515      3.352
REMARK  3 active torsions:
REMARK  status: ('A' for Active; 'I' for Inactive)
REMARK    1  A    between atoms: C2_2  and  C5_5 
REMARK    2  A    between atoms: C3_3  and  C6_6 
REMARK    3  A    between atoms: C3_3  and  O10_10 
ROOT
HETATM    1  C4  UNL     1     -36.765  14.609  -4.184  1.00 20.00     0.025 A 
HETATM    2  C5  UNL     1     -35.774  15.580  -4.762  1.00 20.00     0.028 A 
HETATM    3  C6  UNL     1     -35.320  14.531  -3.776  1.00 20.00     0.094 A 
ENDROOT
BRANCH   3   4
HETATM    4  C3  UNL     1     -34.513  13.380  -4.202  1.00 20.00     0.263 C 
HETATM    5  O9  UNL     1     -34.910  12.510  -4.964  1.00 20.00    -0.265 OA
BRANCH   4   6
HETATM    6  O10 UNL     1     -33.282  13.445  -3.618  1.00 20.00    -0.326 OA
HETATM    7  C8  UNL     1     -32.680  14.743  -3.597  1.00 20.00     0.213 C 
ENDBRANCH   4   6
ENDBRANCH   3   4
BRANCH   2   8
HETATM    8  C2  UNL     1     -35.427  15.476  -6.172  1.00 20.00    -0.088 C 
HETATM    9  C1  UNL     1     -34.250  15.910  -6.646  1.00 20.00     0.014 C 
HETATM   10  C7  UNL     1     -36.461  14.855  -7.063  1.00 20.00     0.043 C 
ENDBRANCH   2   8
TORSDOF 3
ENDMDL
MODEL 9
REMARK VINA RESULT:      -3.8     10.984     12.169
REMARK  3 active torsions:
REMARK  status: ('A' for Active; 'I' for Inactive)
REMARK    1  A    between atoms: C2_2  and  C5_5 
REMARK    2  A    between atoms: C3_3  and  C6_6 
REMARK    3  A    between atoms: C3_3  and  O10_10 
ROOT
HETATM    1  C4  UNL     1     -40.952   5.994   0.089  1.00 20.00     0.025 A 
HETATM    2  C5  UNL     1     -40.993   6.643  -1.267  1.00 20.00     0.028 A 
HETATM    3  C6  UNL     1     -41.028   5.139  -1.146  1.00 20.00     0.094 A 
ENDROOT
BRANCH   3   4
HETATM    4  C3  UNL     1     -42.254   4.378  -1.419  1.00 20.00     0.263 C 
HETATM    5  O9  UNL     1     -43.121   4.154  -0.587  1.00 20.00    -0.265 OA
BRANCH   4   6
HETATM    6  O10 UNL     1     -42.260   3.977  -2.723  1.00 20.00    -0.326 OA
HETATM    7  C8  UNL     1     -41.528   2.778  -3.000  1.00 20.00     0.213 C 
ENDBRANCH   4   6
ENDBRANCH   3   4
BRANCH   2   8
HETATM    8  C2  UNL     1     -42.183   7.387  -1.656  1.00 20.00    -0.088 C 
HETATM    9  C1  UNL     1     -43.063   7.840  -0.751  1.00 20.00     0.014 C 
HETATM   10  C7  UNL     1     -42.366   7.617  -3.126  1.00 20.00     0.043 C 
ENDBRANCH   2   8
TORSDOF 3
ENDMDL
