MODEL 1
REMARK VINA RESULT:      -4.0      0.000      0.000
REMARK  3 active torsions:
REMARK  status: ('A' for Active; 'I' for Inactive)
REMARK    1  A    between atoms: C1_1  and  C2_2 
REMARK    2  A    between atoms: C4_4  and  C8_8 
REMARK    3  A    between atoms: C8_8  and  N9_9 
ROOT
HETATM    1  C1  UNL     1     -34.579  16.816  -0.706  1.00 20.00    -0.015 C 
HETATM    2  C3  UNL     1     -34.938  17.217   0.367  1.00 20.00    -0.097 C 
HETATM    3  C5  UNL     1     -35.374  17.706   1.675  1.00 20.00     0.113 C 
ENDROOT
BRANCH   1   4
HETATM    4  C2  UNL     1     -34.170  16.358  -1.932  1.00 20.00    -0.013 C 
HETATM    5  C4  UNL     1     -33.810  15.957  -3.006  1.00 20.00    -0.062 C 
BRANCH   5   6
HETATM    6  C8  UNL     1     -33.376  15.463  -4.316  1.00 20.00     0.365 C 
BRANCH   6   7
HETATM    7  N9  UNL     1     -34.462  14.770  -4.996  1.00 20.00     0.090 N 
HETATM    8  C6  UNL     1     -34.407  13.333  -4.722  1.00 20.00     0.310 C 
HETATM    9  C7  UNL     1     -34.407  15.013  -6.438  1.00 20.00     0.310 C 
ENDBRANCH   6   7
ENDBRANCH   5   6
ENDBRANCH   1   4
TORSDOF 3
ENDMDL
MODEL 2
REMARK VINA RESULT:      -3.9      1.309      1.780
REMARK  3 active torsions:
REMARK  status: ('A' for Active; 'I' for Inactive)
REMARK    1  A    between atoms: C1_1  and  C2_2 
REMARK    2  A    between atoms: C4_4  and  C8_8 
REMARK    3  A    between atoms: C8_8  and  N9_9 
ROOT
HETATM    1  C1  UNL     1     -34.411  17.410  -0.036  1.00 20.00    -0.015 C 
HETATM    2  C3  UNL     1     -34.181  18.093   0.925  1.00 20.00    -0.097 C 
HETATM    3  C5  UNL     1     -33.902  18.924   2.096  1.00 20.00     0.113 C 
ENDROOT
BRANCH   1   4
HETATM    4  C2  UNL     1     -34.672  16.630  -1.132  1.00 20.00    -0.013 C 
HETATM    5  C4  UNL     1     -34.902  15.946  -2.093  1.00 20.00    -0.062 C 
BRANCH   5   6
HETATM    6  C8  UNL     1     -35.178  15.108  -3.264  1.00 20.00     0.365 C 
BRANCH   6   7
HETATM    7  N9  UNL     1     -34.091  14.167  -3.497  1.00 20.00     0.090 N 
HETATM    8  C6  UNL     1     -32.825  14.876  -3.687  1.00 20.00     0.310 C 
HETATM    9  C7  UNL     1     -34.379  13.323  -4.658  1.00 20.00     0.310 C 
ENDBRANCH   6   7
ENDBRANCH   5   6
ENDBRANCH   1   4
TORSDOF 3
ENDMDL
MODEL 3
REMARK VINA RESULT:      -3.8      1.144      1.991
REMARK  3 active torsions:
REMARK  status: ('A' for Active; 'I' for Inactive)
REMARK    1  A    between atoms: C1_1  and  C2_2 
REMARK    2  A    between atoms: C4_4  and  C8_8 
REMARK    3  A    between atoms: C8_8  and  N9_9 
ROOT
HETATM    1  C1  UNL     1     -34.666  15.954  -1.923  1.00 20.00    -0.015 C 
HETATM    2  C3  UNL     1     -34.627  16.660  -0.953  1.00 20.00    -0.097 C 
HETATM    3  C5  UNL     1     -34.577  17.521   0.228  1.00 20.00     0.113 C 
ENDROOT
BRANCH   1   4
HETATM    4  C2  UNL     1     -34.712  15.147  -3.031  1.00 20.00    -0.013 C 
HETATM    5  C4  UNL     1     -34.753  14.441  -4.002  1.00 20.00    -0.062 C 
BRANCH   5   6
HETATM    6  C8  UNL     1     -34.796  13.579  -5.186  1.00 20.00     0.365 C 
BRANCH   6   7
HETATM    7  N9  UNL     1     -35.197  14.335  -6.365  1.00 20.00     0.090 N 
HETATM    8  C6  UNL     1     -34.187  15.340  -6.702  1.00 20.00     0.310 C 
HETATM    9  C7  UNL     1     -36.496  14.975  -6.152  1.00 20.00     0.310 C 
ENDBRANCH   6   7
ENDBRANCH   5   6
ENDBRANCH   1   4
TORSDOF 3
ENDMDL
MODEL 4
REMARK VINA RESULT:      -3.8      0.851      1.234
REMARK  3 active torsions:
REMARK  status: ('A' for Active; 'I' for Inactive)
REMARK    1  A    between atoms: C1_1  and  C2_2 
REMARK    2  A    between atoms: C4_4  and  C8_8 
REMARK    3  A    between atoms: C8_8  and  N9_9 
ROOT
HETATM    1  C1  UNL     1     -34.749  16.858  -0.418  1.00 20.00    -0.015 C 
HETATM    2  C3  UNL     1     -34.982  17.418   0.619  1.00 20.00    -0.097 C 
HETATM    3  C5  UNL     1     -35.266  18.098   1.882  1.00 20.00     0.113 C 
ENDROOT
BRANCH   1   4
HETATM    4  C2  UNL     1     -34.483  16.219  -1.601  1.00 20.00    -0.013 C 
HETATM    5  C4  UNL     1     -34.249  15.659  -2.638  1.00 20.00    -0.062 C 
BRANCH   5   6
HETATM    6  C8  UNL     1     -33.970  14.974  -3.903  1.00 20.00     0.365 C 
BRANCH   6   7
HETATM    7  N9  UNL     1     -34.362  15.797  -5.039  1.00 20.00     0.090 N 
HETATM    8  C6  UNL     1     -34.527  14.976  -6.239  1.00 20.00     0.310 C 
HETATM    9  C7  UNL     1     -33.374  16.851  -5.278  1.00 20.00     0.310 C 
ENDBRANCH   6   7
ENDBRANCH   5   6
ENDBRANCH   1   4
TORSDOF 3
ENDMDL
MODEL 5
REMARK VINA RESULT:      -3.7      2.630      6.089
REMARK  3 active torsions:
REMARK  status: ('A' for Active; 'I' for Inactive)
REMARK    1  A    between atoms: C1_1  and  C2_2 
REMARK    2  A    between atoms: C4_4  and  C8_8 
REMARK    3  A    between atoms: C8_8  and  N9_9 
ROOT
HETATM    1  C1  UNL     1     -34.595  15.304  -2.631  1.00 20.00    -0.015 C 
HETATM    2  C3  UNL     1     -34.603  14.526  -3.546  1.00 20.00    -0.097 C 
HETATM    3  C5  UNL     1     -34.612  13.579  -4.660  1.00 20.00     0.113 C 
ENDROOT
BRANCH   1   4
HETATM    4  C2  UNL     1     -34.586  16.192  -1.587  1.00 20.00    -0.013 C 
HETATM    5  C4  UNL     1     -34.579  16.970  -0.671  1.00 20.00    -0.062 C 
BRANCH   5   6
HETATM    6  C8  UNL     1     -34.563  17.919   0.446  1.00 20.00     0.365 C 
BRANCH   6   7
HETATM    7  N9  UNL     1     -35.598  17.595   1.419  1.00 20.00     0.090 N 
HETATM    8  C6  UNL     1     -36.807  18.381   1.167  1.00 20.00     0.310 C 
HETATM    9  C7  UNL     1     -35.117  17.827   2.782  1.00 20.00     0.310 C 
ENDBRANCH   6   7
ENDBRANCH   5   6
ENDBRANCH   1   4
TORSDOF 3
ENDMDL
MODEL 6
REMARK VINA RESULT:      -3.6     10.508     10.990
REMARK  3 active torsions:
REMARK  status: ('A' for Active; 'I' for Inactive)
REMARK    1  A    between atoms: C1_1  and  C2_2 
REMARK    2  A    between atoms: C4_4  and  C8_8 
REMARK    3  A    between atoms: C8_8  and  N9_9 
ROOT
HETATM    1  C1  UNL     1     -33.855   5.722   4.580  1.00 20.00    -0.015 C 
HETATM    2  C3  UNL     1     -34.484   5.049   5.351  1.00 20.00    -0.097 C 
HETATM    3  C5  UNL     1     -35.251   4.232   6.291  1.00 20.00     0.113 C 
ENDROOT
BRANCH   1   4
HETATM    4  C2  UNL     1     -33.137   6.489   3.700  1.00 20.00    -0.013 C 
HETATM    5  C4  UNL     1     -32.508   7.162   2.928  1.00 20.00    -0.062 C 
BRANCH   5   6
HETATM    6  C8  UNL     1     -31.746   7.984   1.984  1.00 20.00     0.365 C 
BRANCH   6   7
HETATM    7  N9  UNL     1     -32.626   8.882   1.249  1.00 20.00     0.090 N 
HETATM    8  C6  UNL     1     -32.224   8.963  -0.156  1.00 20.00     0.310 C 
HETATM    9  C7  UNL     1     -32.625  10.216   1.853  1.00 20.00     0.310 C 
ENDBRANCH   6   7
ENDBRANCH   5   6
ENDBRANCH   1   4
TORSDOF 3
ENDMDL
MODEL 7
REMARK VINA RESULT:      -3.6      2.763      5.850
REMARK  3 active torsions:
REMARK  status: ('A' for Active; 'I' for Inactive)
REMARK    1  A    between atoms: C1_1  and  C2_2 
REMARK    2  A    between atoms: C4_4  and  C8_8 
REMARK    3  A    between atoms: C8_8  and  N9_9 
ROOT
HETATM    1  C1  UNL     1     -34.563  15.271  -2.667  1.00 20.00    -0.015 C 
HETATM    2  C3  UNL     1     -34.563  14.418  -3.513  1.00 20.00    -0.097 C 
HETATM    3  C5  UNL     1     -34.564  13.380  -4.542  1.00 20.00     0.113 C 
ENDROOT
BRANCH   1   4
HETATM    4  C2  UNL     1     -34.563  16.244  -1.701  1.00 20.00    -0.013 C 
HETATM    5  C4  UNL     1     -34.563  17.097  -0.855  1.00 20.00    -0.062 C 
BRANCH   5   6
HETATM    6  C8  UNL     1     -34.569  18.135   0.180  1.00 20.00     0.365 C 
BRANCH   6   7
HETATM    7  N9  UNL     1     -33.221  18.388   0.670  1.00 20.00     0.090 N 
HETATM    8  C6  UNL     1     -33.261  18.981   2.008  1.00 20.00     0.310 C 
HETATM    9  C7  UNL     1     -32.492  19.263  -0.250  1.00 20.00     0.310 C 
ENDBRANCH   6   7
ENDBRANCH   5   6
ENDBRANCH   1   4
TORSDOF 3
ENDMDL
MODEL 8
REMARK VINA RESULT:      -3.5      3.489      6.887
REMARK  3 active torsions:
REMARK  status: ('A' for Active; 'I' for Inactive)
REMARK    1  A    between atoms: C1_1  and  C2_2 
REMARK    2  A    between atoms: C4_4  and  C8_8 
REMARK    3  A    between atoms: C8_8  and  N9_9 
ROOT
HETATM    1  C1  UNL     1     -34.687  16.578  -1.059  1.00 20.00    -0.015 C 
HETATM    2  C3  UNL     1     -34.686  15.956  -2.086  1.00 20.00    -0.097 C 
HETATM    3  C5  UNL     1     -34.686  15.198  -3.337  1.00 20.00     0.113 C 
ENDROOT
BRANCH   1   4
HETATM    4  C2  UNL     1     -34.689  17.289   0.113  1.00 20.00    -0.013 C 
HETATM    5  C4  UNL     1     -34.689  17.912   1.141  1.00 20.00    -0.062 C 
BRANCH   5   6
HETATM    6  C8  UNL     1     -34.697  18.673   2.393  1.00 20.00     0.365 C 
BRANCH   6   7
HETATM    7  N9  UNL     1     -33.659  18.197   3.298  1.00 20.00     0.090 N 
HETATM    8  C6  UNL     1     -33.989  18.534   4.684  1.00 20.00     0.310 C 
HETATM    9  C7  UNL     1     -32.358  18.761   2.935  1.00 20.00     0.310 C 
ENDBRANCH   6   7
ENDBRANCH   5   6
ENDBRANCH   1   4
TORSDOF 3
ENDMDL
MODEL 9
REMARK VINA RESULT:      -3.4     12.273     14.574
REMARK  3 active torsions:
REMARK  status: ('A' for Active; 'I' for Inactive)
REMARK    1  A    between atoms: C1_1  and  C2_2 
REMARK    2  A    between atoms: C4_4  and  C8_8 
REMARK    3  A    between atoms: C8_8  and  N9_9 
ROOT
HETATM    1  C1  UNL     1     -41.590   2.667  -3.011  1.00 20.00    -0.015 C 
HETATM    2  C3  UNL     1     -41.837   1.752  -3.749  1.00 20.00    -0.097 C 
HETATM    3  C5  UNL     1     -42.135   0.637  -4.646  1.00 20.00     0.113 C 
ENDROOT
BRANCH   1   4
HETATM    4  C2  UNL     1     -41.310   3.712  -2.169  1.00 20.00    -0.013 C 
HETATM    5  C4  UNL     1     -41.064   4.629  -1.432  1.00 20.00    -0.062 C 
BRANCH   5   6
HETATM    6  C8  UNL     1     -40.764   5.742  -0.527  1.00 20.00     0.365 C 
BRANCH   6   7
HETATM    7  N9  UNL     1     -41.780   6.781  -0.625  1.00 20.00     0.090 N 
HETATM    8  C6  UNL     1     -43.068   6.291  -0.133  1.00 20.00     0.310 C 
HETATM    9  C7  UNL     1     -41.910   7.247  -2.007  1.00 20.00     0.310 C 
ENDBRANCH   6   7
ENDBRANCH   5   6
ENDBRANCH   1   4
TORSDOF 3
ENDMDL
