MODEL 1
REMARK VINA RESULT:      -4.4      0.000      0.000
REMARK  2 active torsions:
REMARK  status: ('A' for Active; 'I' for Inactive)
REMARK    1  A    between atoms: C2_2  and  C5_5 
REMARK    2  A    between atoms: C2_2  and  C9_9 
ROOT
HETATM    1  C1  UNL     1     -34.905  13.547  -4.329  1.00 20.00     0.225 C 
HETATM    2  C2  UNL     1     -34.899  14.737  -3.789  1.00 20.00    -0.014 C 
HETATM    3  O10 UNL     1     -34.909  12.476  -4.814  1.00 20.00    -0.284 OA
ENDROOT
BRANCH   2   4
HETATM    4  C5  UNL     1     -36.213  15.215  -3.300  1.00 20.00     0.019 A 
HETATM    5  C3  UNL     1     -37.015  16.101  -4.193  1.00 20.00     0.010 A 
HETATM    6  C4  UNL     1     -37.442  14.684  -3.958  1.00 20.00     0.010 A 
ENDBRANCH   2   4
BRANCH   2   7
HETATM    7  C9  UNL     1     -33.650  15.603  -3.598  1.00 20.00    -0.024 C 
HETATM    8  C6  UNL     1     -32.408  14.696  -3.503  1.00 20.00     0.019 C 
HETATM    9  C7  UNL     1     -33.755  16.453  -2.316  1.00 20.00     0.019 C 
HETATM   10  C8  UNL     1     -33.446  16.578  -4.780  1.00 20.00     0.019 C 
ENDBRANCH   2   7
TORSDOF 2
ENDMDL
MODEL 2
REMARK VINA RESULT:      -4.3      1.651      3.085
REMARK  2 active torsions:
REMARK  status: ('A' for Active; 'I' for Inactive)
REMARK    1  A    between atoms: C2_2  and  C5_5 
REMARK    2  A    between atoms: C2_2  and  C9_9 
ROOT
HETATM    1  C1  UNL     1     -36.626  14.756  -3.679  1.00 20.00     0.225 C 
HETATM    2  C2  UNL     1     -35.453  15.329  -3.640  1.00 20.00    -0.014 C 
HETATM    3  O10 UNL     1     -37.684  14.242  -3.714  1.00 20.00    -0.284 OA
ENDROOT
BRANCH   2   4
HETATM    4  C5  UNL     1     -34.407  14.680  -4.464  1.00 20.00     0.019 A 
HETATM    5  C3  UNL     1     -33.501  13.696  -3.802  1.00 20.00     0.010 A 
HETATM    6  C4  UNL     1     -34.550  13.227  -4.764  1.00 20.00     0.010 A 
ENDBRANCH   2   4
BRANCH   2   7
HETATM    7  C9  UNL     1     -35.131  16.609  -2.862  1.00 20.00    -0.024 C 
HETATM    8  C6  UNL     1     -36.389  17.495  -2.792  1.00 20.00     0.019 C 
HETATM    9  C7  UNL     1     -33.993  17.398  -3.540  1.00 20.00     0.019 C 
HETATM   10  C8  UNL     1     -34.678  16.299  -1.416  1.00 20.00     0.019 C 
ENDBRANCH   2   7
TORSDOF 2
ENDMDL
MODEL 3
REMARK VINA RESULT:      -4.3      2.027      2.644
REMARK  2 active torsions:
REMARK  status: ('A' for Active; 'I' for Inactive)
REMARK    1  A    between atoms: C2_2  and  C5_5 
REMARK    2  A    between atoms: C2_2  and  C9_9 
ROOT
HETATM    1  C1  UNL     1     -36.594  14.577  -4.222  1.00 20.00     0.225 C 
HETATM    2  C2  UNL     1     -35.460  15.025  -4.690  1.00 20.00    -0.014 C 
HETATM    3  O10 UNL     1     -37.615  14.173  -3.798  1.00 20.00    -0.284 OA
ENDROOT
BRANCH   2   4
HETATM    4  C5  UNL     1     -35.491  15.463  -6.105  1.00 20.00     0.019 A 
HETATM    5  C3  UNL     1     -35.314  14.427  -7.165  1.00 20.00     0.010 A 
HETATM    6  C4  UNL     1     -36.657  15.054  -6.941  1.00 20.00     0.010 A 
ENDBRANCH   2   4
BRANCH   2   7
HETATM    7  C9  UNL     1     -34.171  15.165  -3.874  1.00 20.00    -0.024 C 
HETATM    8  C6  UNL     1     -33.231  16.166  -4.572  1.00 20.00     0.019 C 
HETATM    9  C7  UNL     1     -33.453  13.808  -3.735  1.00 20.00     0.019 C 
HETATM   10  C8  UNL     1     -34.454  15.684  -2.445  1.00 20.00     0.019 C 
ENDBRANCH   2   7
TORSDOF 2
ENDMDL
MODEL 4
REMARK VINA RESULT:      -4.3      1.870      3.550
REMARK  2 active torsions:
REMARK  status: ('A' for Active; 'I' for Inactive)
REMARK    1  A    between atoms: C2_2  and  C5_5 
REMARK    2  A    between atoms: C2_2  and  C9_9 
ROOT
HETATM    1  C1  UNL     1     -34.710  13.671  -4.979  1.00 20.00     0.225 C 
HETATM    2  C2  UNL     1     -34.515  14.908  -5.349  1.00 20.00    -0.014 C 
HETATM    3  O10 UNL     1     -34.885  12.556  -4.647  1.00 20.00    -0.284 OA
ENDROOT
BRANCH   2   4
HETATM    4  C5  UNL     1     -33.530  15.662  -4.539  1.00 20.00     0.019 A 
HETATM    5  C3  UNL     1     -33.753  15.754  -3.067  1.00 20.00     0.010 A 
HETATM    6  C4  UNL     1     -32.652  14.894  -3.610  1.00 20.00     0.010 A 
ENDBRANCH   2   4
BRANCH   2   7
HETATM    7  C9  UNL     1     -35.185  15.576  -6.555  1.00 20.00    -0.024 C 
HETATM    8  C6  UNL     1     -36.650  15.902  -6.209  1.00 20.00     0.019 C 
HETATM    9  C7  UNL     1     -35.149  14.654  -7.790  1.00 20.00     0.019 C 
HETATM   10  C8  UNL     1     -34.476  16.894  -6.944  1.00 20.00     0.019 C 
ENDBRANCH   2   7
TORSDOF 2
ENDMDL
MODEL 5
REMARK VINA RESULT:      -4.2      1.672      2.472
REMARK  2 active torsions:
REMARK  status: ('A' for Active; 'I' for Inactive)
REMARK    1  A    between atoms: C2_2  and  C5_5 
REMARK    2  A    between atoms: C2_2  and  C9_9 
ROOT
HETATM    1  C1  UNL     1     -34.858  13.640  -4.654  1.00 20.00     0.225 C 
HETATM    2  C2  UNL     1     -34.501  14.881  -4.850  1.00 20.00    -0.014 C 
HETATM    3  O10 UNL     1     -35.180  12.523  -4.475  1.00 20.00    -0.284 OA
ENDROOT
BRANCH   2   4
HETATM    4  C5  UNL     1     -34.998  15.489  -6.107  1.00 20.00     0.019 A 
HETATM    5  C3  UNL     1     -34.436  14.993  -7.397  1.00 20.00     0.010 A 
HETATM    6  C4  UNL     1     -35.842  14.652  -7.006  1.00 20.00     0.010 A 
ENDBRANCH   2   4
BRANCH   2   7
HETATM    7  C9  UNL     1     -33.676  15.720  -3.868  1.00 20.00    -0.024 C 
HETATM    8  C6  UNL     1     -33.440  17.120  -4.465  1.00 20.00     0.019 C 
HETATM    9  C7  UNL     1     -32.315  15.055  -3.579  1.00 20.00     0.019 C 
HETATM   10  C8  UNL     1     -34.402  15.889  -2.513  1.00 20.00     0.019 C 
ENDBRANCH   2   7
TORSDOF 2
ENDMDL
MODEL 6
REMARK VINA RESULT:      -4.2      1.971      3.328
REMARK  2 active torsions:
REMARK  status: ('A' for Active; 'I' for Inactive)
REMARK    1  A    between atoms: C2_2  and  C5_5 
REMARK    2  A    between atoms: C2_2  and  C9_9 
ROOT
HETATM    1  C1  UNL     1     -36.098  16.164  -3.129  1.00 20.00     0.225 C 
HETATM    2  C2  UNL     1     -34.884  15.684  -3.138  1.00 20.00    -0.014 C 
HETATM    3  O10 UNL     1     -37.193  16.596  -3.121  1.00 20.00    -0.284 OA
ENDROOT
BRANCH   2   4
HETATM    4  C5  UNL     1     -33.999  16.184  -2.060  1.00 20.00     0.019 A 
HETATM    5  C3  UNL     1     -34.027  17.642  -1.747  1.00 20.00     0.010 A 
HETATM    6  C4  UNL     1     -34.632  16.656  -0.795  1.00 20.00     0.010 A 
ENDBRANCH   2   4
BRANCH   2   7
HETATM    7  C9  UNL     1     -34.365  14.639  -4.131  1.00 20.00    -0.024 C 
HETATM    8  C6  UNL     1     -33.000  14.111  -3.650  1.00 20.00     0.019 C 
HETATM    9  C7  UNL     1     -34.207  15.243  -5.541  1.00 20.00     0.019 C 
HETATM   10  C8  UNL     1     -35.331  13.437  -4.251  1.00 20.00     0.019 C 
ENDBRANCH   2   7
TORSDOF 2
ENDMDL
MODEL 7
REMARK VINA RESULT:      -4.1      2.086      3.179
REMARK  2 active torsions:
REMARK  status: ('A' for Active; 'I' for Inactive)
REMARK    1  A    between atoms: C2_2  and  C5_5 
REMARK    2  A    between atoms: C2_2  and  C9_9 
ROOT
HETATM    1  C1  UNL     1     -33.480  16.452  -4.298  1.00 20.00     0.225 C 
HETATM    2  C2  UNL     1     -34.168  16.183  -3.220  1.00 20.00    -0.014 C 
HETATM    3  O10 UNL     1     -32.860  16.696  -5.267  1.00 20.00    -0.284 OA
ENDROOT
BRANCH   2   4
HETATM    4  C5  UNL     1     -34.468  14.748  -3.006  1.00 20.00     0.019 A 
HETATM    5  C3  UNL     1     -35.145  14.000  -4.105  1.00 20.00     0.010 A 
HETATM    6  C4  UNL     1     -33.700  13.744  -3.799  1.00 20.00     0.010 A 
ENDBRANCH   2   4
BRANCH   2   7
HETATM    7  C9  UNL     1     -34.616  17.220  -2.187  1.00 20.00    -0.024 C 
HETATM    8  C6  UNL     1     -33.662  18.429  -2.230  1.00 20.00     0.019 C 
HETATM    9  C7  UNL     1     -34.613  16.624  -0.765  1.00 20.00     0.019 C 
HETATM   10  C8  UNL     1     -36.049  17.726  -2.470  1.00 20.00     0.019 C 
ENDBRANCH   2   7
TORSDOF 2
ENDMDL
MODEL 8
REMARK VINA RESULT:      -4.1     12.067     12.898
REMARK  2 active torsions:
REMARK  status: ('A' for Active; 'I' for Inactive)
REMARK    1  A    between atoms: C2_2  and  C5_5 
REMARK    2  A    between atoms: C2_2  and  C9_9 
ROOT
HETATM    1  C1  UNL     1     -33.548   6.750   5.902  1.00 20.00     0.225 C 
HETATM    2  C2  UNL     1     -33.950   6.067   4.863  1.00 20.00    -0.014 C 
HETATM    3  O10 UNL     1     -33.186   7.366   6.836  1.00 20.00    -0.284 OA
ENDROOT
BRANCH   2   4
HETATM    4  C5  UNL     1     -35.064   5.126   5.119  1.00 20.00     0.019 A 
HETATM    5  C3  UNL     1     -34.732   3.691   5.356  1.00 20.00     0.010 A 
HETATM    6  C4  UNL     1     -35.198   4.552   6.490  1.00 20.00     0.010 A 
ENDBRANCH   2   4
BRANCH   2   7
HETATM    7  C9  UNL     1     -33.388   6.221   3.446  1.00 20.00    -0.024 C 
HETATM    8  C6  UNL     1     -34.351   5.561   2.441  1.00 20.00     0.019 C 
HETATM    9  C7  UNL     1     -32.000   5.562   3.325  1.00 20.00     0.019 C 
HETATM   10  C8  UNL     1     -33.227   7.708   3.054  1.00 20.00     0.019 C 
ENDBRANCH   2   7
TORSDOF 2
ENDMDL
MODEL 9
REMARK VINA RESULT:      -4.1      2.273      3.622
REMARK  2 active torsions:
REMARK  status: ('A' for Active; 'I' for Inactive)
REMARK    1  A    between atoms: C2_2  and  C5_5 
REMARK    2  A    between atoms: C2_2  and  C9_9 
ROOT
HETATM    1  C1  UNL     1     -33.632  17.138  -4.795  1.00 20.00     0.225 C 
HETATM    2  C2  UNL     1     -33.999  15.957  -4.373  1.00 20.00    -0.014 C 
HETATM    3  O10 UNL     1     -33.303  18.201  -5.176  1.00 20.00    -0.284 OA
ENDROOT
BRANCH   2   4
HETATM    4  C5  UNL     1     -33.750  15.695  -2.937  1.00 20.00     0.019 A 
HETATM    5  C3  UNL     1     -33.637  16.865  -2.018  1.00 20.00     0.010 A 
HETATM    6  C4  UNL     1     -34.848  15.984  -1.970  1.00 20.00     0.010 A 
ENDBRANCH   2   4
BRANCH   2   7
HETATM    7  C9  UNL     1     -34.689  14.896  -5.236  1.00 20.00    -0.024 C 
HETATM    8  C6  UNL     1     -34.290  13.494  -4.739  1.00 20.00     0.019 C 
HETATM    9  C7  UNL     1     -34.290  15.041  -6.718  1.00 20.00     0.019 C 
HETATM   10  C8  UNL     1     -36.229  15.014  -5.161  1.00 20.00     0.019 C 
ENDBRANCH   2   7
TORSDOF 2
ENDMDL
