MODEL 1
REMARK VINA RESULT:      -4.9      0.000      0.000
REMARK  0 active torsions:
REMARK  status: ('A' for Active; 'I' for Inactive)
ROOT
HETATM    1  C1  UNL     1     -34.959  13.598  -3.944  1.00 20.00     0.013 A 
HETATM    2  C2  UNL     1     -33.618  13.612  -3.925  1.00 20.00    -0.025 A 
HETATM    3  C3  UNL     1     -35.675  14.792  -3.636  1.00 20.00     0.035 A 
HETATM    4  C4  UNL     1     -35.090  15.952  -3.323  1.00 20.00    -0.046 A 
HETATM    5  C5  UNL     1     -37.133  15.003  -3.597  1.00 20.00     0.254 A 
HETATM    6  C6  UNL     1     -32.808  14.842  -3.590  1.00 20.00     0.031 A 
HETATM    7  C7  UNL     1     -33.608  16.127  -3.261  1.00 20.00     0.040 A 
HETATM    8  C8  UNL     1     -36.066  17.041  -3.046  1.00 20.00     0.161 A 
HETATM    9  C9  UNL     1     -38.613  16.956  -3.099  1.00 20.00     0.153 C 
HETATM   10  N10 UNL     1     -37.313  16.338  -3.246  1.00 20.00    -0.348 N 
HETATM   11  O11 UNL     1     -37.969  14.146  -3.833  1.00 20.00    -0.267 OA
ENDROOT
TORSDOF 0
ENDMDL
MODEL 2
REMARK VINA RESULT:      -4.5      2.673      3.268
REMARK  0 active torsions:
REMARK  status: ('A' for Active; 'I' for Inactive)
ROOT
HETATM    1  C1  UNL     1     -34.748  14.317  -3.400  1.00 20.00     0.013 A 
HETATM    2  C2  UNL     1     -34.864  13.618  -4.539  1.00 20.00    -0.025 A 
HETATM    3  C3  UNL     1     -34.348  15.685  -3.458  1.00 20.00     0.035 A 
HETATM    4  C4  UNL     1     -34.077  16.336  -4.593  1.00 20.00    -0.046 A 
HETATM    5  C5  UNL     1     -34.159  16.632  -2.344  1.00 20.00     0.254 A 
HETATM    6  C6  UNL     1     -34.592  14.207  -5.903  1.00 20.00     0.031 A 
HETATM    7  C7  UNL     1     -34.162  15.695  -5.939  1.00 20.00     0.040 A 
HETATM    8  C8  UNL     1     -33.685  17.754  -4.372  1.00 20.00     0.161 A 
HETATM    9  C9  UNL     1     -33.481  19.034  -2.176  1.00 20.00     0.153 C 
HETATM   10  N10 UNL     1     -33.770  17.833  -2.931  1.00 20.00    -0.348 N 
HETATM   11  O11 UNL     1     -34.323  16.366  -1.165  1.00 20.00    -0.267 OA
ENDROOT
TORSDOF 0
ENDMDL
MODEL 3
REMARK VINA RESULT:      -4.4      2.905      4.285
REMARK  0 active torsions:
REMARK  status: ('A' for Active; 'I' for Inactive)
ROOT
HETATM    1  C1  UNL     1     -33.472  18.612  -2.514  1.00 20.00     0.013 A 
HETATM    2  C2  UNL     1     -33.635  18.915  -1.218  1.00 20.00    -0.025 A 
HETATM    3  C3  UNL     1     -33.864  17.325  -2.986  1.00 20.00     0.035 A 
HETATM    4  C4  UNL     1     -34.398  16.377  -2.211  1.00 20.00    -0.046 A 
HETATM    5  C5  UNL     1     -33.777  16.785  -4.355  1.00 20.00     0.254 A 
HETATM    6  C6  UNL     1     -34.223  17.953  -0.211  1.00 20.00     0.031 A 
HETATM    7  C7  UNL     1     -34.643  16.563  -0.749  1.00 20.00     0.040 A 
HETATM    8  C8  UNL     1     -34.719  15.128  -2.954  1.00 20.00     0.161 A 
HETATM    9  C9  UNL     1     -34.386  14.609  -5.427  1.00 20.00     0.153 C 
HETATM   10  N10 UNL     1     -34.290  15.493  -4.286  1.00 20.00    -0.348 N 
HETATM   11  O11 UNL     1     -33.336  17.390  -5.318  1.00 20.00    -0.267 OA
ENDROOT
TORSDOF 0
ENDMDL
MODEL 4
REMARK VINA RESULT:      -4.4      2.986      3.622
REMARK  0 active torsions:
REMARK  status: ('A' for Active; 'I' for Inactive)
ROOT
HETATM    1  C1  UNL     1     -34.201  15.734  -5.910  1.00 20.00     0.013 A 
HETATM    2  C2  UNL     1     -34.478  14.430  -6.059  1.00 20.00    -0.025 A 
HETATM    3  C3  UNL     1     -34.057  16.272  -4.597  1.00 20.00     0.035 A 
HETATM    4  C4  UNL     1     -34.181  15.553  -3.478  1.00 20.00    -0.046 A 
HETATM    5  C5  UNL     1     -33.756  17.661  -4.204  1.00 20.00     0.254 A 
HETATM    6  C6  UNL     1     -34.650  13.483  -4.895  1.00 20.00     0.031 A 
HETATM    7  C7  UNL     1     -34.487  14.091  -3.479  1.00 20.00     0.040 A 
HETATM    8  C8  UNL     1     -33.982  16.358  -2.242  1.00 20.00     0.161 A 
HETATM    9  C9  UNL     1     -33.454  18.842  -2.020  1.00 20.00     0.153 C 
HETATM   10  N10 UNL     1     -33.722  17.661  -2.812  1.00 20.00    -0.348 N 
HETATM   11  O11 UNL     1     -33.581  18.584  -4.981  1.00 20.00    -0.267 OA
ENDROOT
TORSDOF 0
ENDMDL
MODEL 5
REMARK VINA RESULT:      -4.4      3.179      3.608
REMARK  0 active torsions:
REMARK  status: ('A' for Active; 'I' for Inactive)
ROOT
HETATM    1  C1  UNL     1     -34.926  14.093  -5.896  1.00 20.00     0.013 A 
HETATM    2  C2  UNL     1     -34.564  13.292  -4.882  1.00 20.00    -0.025 A 
HETATM    3  C3  UNL     1     -34.477  15.446  -5.913  1.00 20.00     0.035 A 
HETATM    4  C4  UNL     1     -33.700  15.986  -4.969  1.00 20.00    -0.046 A 
HETATM    5  C5  UNL     1     -34.749  16.490  -6.917  1.00 20.00     0.254 A 
HETATM    6  C6  UNL     1     -33.691  13.751  -3.738  1.00 20.00     0.031 A 
HETATM    7  C7  UNL     1     -33.214  15.224  -3.780  1.00 20.00     0.040 A 
HETATM    8  C8  UNL     1     -33.375  17.415  -5.228  1.00 20.00     0.161 A 
HETATM    9  C9  UNL     1     -34.094  18.889  -7.180  1.00 20.00     0.153 C 
HETATM   10  N10 UNL     1     -34.082  17.627  -6.472  1.00 20.00    -0.348 N 
HETATM   11  O11 UNL     1     -35.429  16.336  -7.918  1.00 20.00    -0.267 OA
ENDROOT
TORSDOF 0
ENDMDL
MODEL 6
REMARK VINA RESULT:      -4.3      2.616      3.729
REMARK  0 active torsions:
REMARK  status: ('A' for Active; 'I' for Inactive)
ROOT
HETATM    1  C1  UNL     1     -34.614  16.292  -1.339  1.00 20.00     0.013 A 
HETATM    2  C2  UNL     1     -34.369  17.255  -0.438  1.00 20.00    -0.025 A 
HETATM    3  C3  UNL     1     -34.322  16.531  -2.714  1.00 20.00     0.035 A 
HETATM    4  C4  UNL     1     -33.807  17.673  -3.180  1.00 20.00    -0.046 A 
HETATM    5  C5  UNL     1     -34.509  15.625  -3.862  1.00 20.00     0.254 A 
HETATM    6  C6  UNL     1     -33.790  18.602  -0.803  1.00 20.00     0.031 A 
HETATM    7  C7  UNL     1     -33.479  18.836  -2.303  1.00 20.00     0.040 A 
HETATM    8  C8  UNL     1     -33.599  17.660  -4.653  1.00 20.00     0.161 A 
HETATM    9  C9  UNL     1     -34.084  15.794  -6.321  1.00 20.00     0.153 C 
HETATM   10  N10 UNL     1     -34.070  16.332  -4.977  1.00 20.00    -0.348 N 
HETATM   11  O11 UNL     1     -34.961  14.495  -3.793  1.00 20.00    -0.267 OA
ENDROOT
TORSDOF 0
ENDMDL
MODEL 7
REMARK VINA RESULT:      -4.3      2.141      2.856
REMARK  0 active torsions:
REMARK  status: ('A' for Active; 'I' for Inactive)
ROOT
HETATM    1  C1  UNL     1     -33.433  14.633  -3.184  1.00 20.00     0.013 A 
HETATM    2  C2  UNL     1     -33.655  13.580  -3.985  1.00 20.00    -0.025 A 
HETATM    3  C3  UNL     1     -34.508  15.521  -2.884  1.00 20.00     0.035 A 
HETATM    4  C4  UNL     1     -35.751  15.373  -3.353  1.00 20.00    -0.046 A 
HETATM    5  C5  UNL     1     -34.492  16.727  -2.037  1.00 20.00     0.254 A 
HETATM    6  C6  UNL     1     -35.002  13.274  -4.596  1.00 20.00     0.031 A 
HETATM    7  C7  UNL     1     -36.153  14.252  -4.253  1.00 20.00     0.040 A 
HETATM    8  C8  UNL     1     -36.681  16.437  -2.886  1.00 20.00     0.161 A 
HETATM    9  C9  UNL     1     -36.202  18.421  -1.358  1.00 20.00     0.153 C 
HETATM   10  N10 UNL     1     -35.789  17.230  -2.069  1.00 20.00    -0.348 N 
HETATM   11  O11 UNL     1     -33.512  17.154  -1.449  1.00 20.00    -0.267 OA
ENDROOT
TORSDOF 0
ENDMDL
MODEL 8
REMARK VINA RESULT:      -4.3      1.330      2.250
REMARK  0 active torsions:
REMARK  status: ('A' for Active; 'I' for Inactive)
ROOT
HETATM    1  C1  UNL     1     -33.879  15.894  -3.111  1.00 20.00     0.013 A 
HETATM    2  C2  UNL     1     -33.052  14.886  -3.428  1.00 20.00    -0.025 A 
HETATM    3  C3  UNL     1     -35.283  15.733  -3.303  1.00 20.00     0.035 A 
HETATM    4  C4  UNL     1     -35.847  14.622  -3.786  1.00 20.00    -0.046 A 
HETATM    5  C5  UNL     1     -36.363  16.698  -3.026  1.00 20.00     0.254 A 
HETATM    6  C6  UNL     1     -33.532  13.567  -3.985  1.00 20.00     0.031 A 
HETATM    7  C7  UNL     1     -35.061  13.416  -4.182  1.00 20.00     0.040 A 
HETATM    8  C8  UNL     1     -37.329  14.716  -3.885  1.00 20.00     0.161 A 
HETATM    9  C9  UNL     1     -38.852  16.665  -3.264  1.00 20.00     0.153 C 
HETATM   10  N10 UNL     1     -37.544  16.056  -3.383  1.00 20.00    -0.348 N 
HETATM   11  O11 UNL     1     -36.198  17.819  -2.575  1.00 20.00    -0.267 OA
ENDROOT
TORSDOF 0
ENDMDL
MODEL 9
REMARK VINA RESULT:      -4.3      3.308      4.055
REMARK  0 active torsions:
REMARK  status: ('A' for Active; 'I' for Inactive)
ROOT
HETATM    1  C1  UNL     1     -33.813  15.376  -3.542  1.00 20.00     0.013 A 
HETATM    2  C2  UNL     1     -34.112  14.069  -3.514  1.00 20.00    -0.025 A 
HETATM    3  C3  UNL     1     -33.969  16.103  -4.759  1.00 20.00     0.035 A 
HETATM    4  C4  UNL     1     -34.403  15.560  -5.901  1.00 20.00    -0.046 A 
HETATM    5  C5  UNL     1     -33.704  17.530  -5.016  1.00 20.00     0.254 A 
HETATM    6  C6  UNL     1     -34.613  13.309  -4.719  1.00 20.00     0.031 A 
HETATM    7  C7  UNL     1     -34.775  14.120  -6.029  1.00 20.00     0.040 A 
HETATM    8  C8  UNL     1     -34.474  16.538  -7.021  1.00 20.00     0.161 A 
HETATM    9  C9  UNL     1     -33.893  19.021  -7.015  1.00 20.00     0.153 C 
HETATM   10  N10 UNL     1     -34.015  17.738  -6.356  1.00 20.00    -0.348 N 
HETATM   11  O11 UNL     1     -33.295  18.324  -4.185  1.00 20.00    -0.267 OA
ENDROOT
TORSDOF 0
ENDMDL
