MODEL 1
REMARK VINA RESULT:      -4.0      0.000      0.000
REMARK  2 active torsions:
REMARK  status: ('A' for Active; 'I' for Inactive)
REMARK    1  A    between atoms: C3_3  and  C4_4 
REMARK    2  A    between atoms: C5_5  and  C7_7 
ROOT
HETATM    1  C1  UNL     1     -34.752   5.093   6.053  1.00 20.00    -0.007 C 
HETATM    2  C2  UNL     1     -35.054   4.292   5.028  1.00 20.00     0.042 C 
HETATM    3  C4  UNL     1     -34.361   6.490   5.677  1.00 20.00     0.084 C 
HETATM    4  C5  UNL     1     -34.067   6.524   4.164  1.00 20.00     0.065 C 
HETATM    5  S9  UNL     1     -34.924   5.045   3.479  1.00 20.00    -0.136 SA
ENDROOT
BRANCH   3   6
HETATM    6  C3  UNL     1     -33.212   6.901   6.547  1.00 20.00     0.240 C 
HETATM    7  O8  UNL     1     -33.267   7.829   7.347  1.00 20.00    -0.306 OA
ENDBRANCH   3   6
BRANCH   4   8
HETATM    8  C7  UNL     1     -32.597   6.455   3.757  1.00 20.00     0.012 C 
HETATM    9  C6  UNL     1     -32.258   7.471   2.711  1.00 20.00     0.006 C 
ENDBRANCH   4   8
TORSDOF 2
ENDMDL
MODEL 2
REMARK VINA RESULT:      -4.0     12.382     13.544
REMARK  2 active torsions:
REMARK  status: ('A' for Active; 'I' for Inactive)
REMARK    1  A    between atoms: C3_3  and  C4_4 
REMARK    2  A    between atoms: C5_5  and  C7_7 
ROOT
HETATM    1  C1  UNL     1     -34.659  14.824  -6.154  1.00 20.00    -0.007 C 
HETATM    2  C2  UNL     1     -34.034  15.966  -6.449  1.00 20.00     0.042 C 
HETATM    3  C4  UNL     1     -35.448  14.838  -4.880  1.00 20.00     0.084 C 
HETATM    4  C5  UNL     1     -35.030  16.077  -4.062  1.00 20.00     0.065 C 
HETATM    5  S9  UNL     1     -34.269  17.222  -5.288  1.00 20.00    -0.136 SA
ENDROOT
BRANCH   3   6
HETATM    6  C3  UNL     1     -35.233  13.529  -4.185  1.00 20.00     0.240 C 
HETATM    7  O8  UNL     1     -34.828  12.520  -4.753  1.00 20.00    -0.306 OA
ENDBRANCH   3   6
BRANCH   4   8
HETATM    8  C7  UNL     1     -34.022  15.840  -2.940  1.00 20.00     0.012 C 
HETATM    9  C6  UNL     1     -34.553  16.275  -1.610  1.00 20.00     0.006 C 
ENDBRANCH   4   8
TORSDOF 2
ENDMDL
MODEL 3
REMARK VINA RESULT:      -4.0     12.173     13.134
REMARK  2 active torsions:
REMARK  status: ('A' for Active; 'I' for Inactive)
REMARK    1  A    between atoms: C3_3  and  C4_4 
REMARK    2  A    between atoms: C5_5  and  C7_7 
ROOT
HETATM    1  C1  UNL     1     -36.048  15.146  -5.388  1.00 20.00    -0.007 C 
HETATM    2  C2  UNL     1     -36.320  16.453  -5.359  1.00 20.00     0.042 C 
HETATM    3  C4  UNL     1     -35.992  14.476  -4.048  1.00 20.00     0.084 C 
HETATM    4  C5  UNL     1     -35.913  15.567  -2.961  1.00 20.00     0.065 C 
HETATM    5  S9  UNL     1     -36.548  17.094  -3.772  1.00 20.00    -0.136 SA
ENDROOT
BRANCH   3   6
HETATM    6  C3  UNL     1     -34.840  13.517  -4.056  1.00 20.00     0.240 C 
HETATM    7  O8  UNL     1     -34.758  12.566  -4.825  1.00 20.00    -0.306 OA
ENDBRANCH   3   6
BRANCH   4   8
HETATM    8  C7  UNL     1     -34.526  15.865  -2.398  1.00 20.00     0.012 C 
HETATM    9  C6  UNL     1     -34.597  16.556  -1.072  1.00 20.00     0.006 C 
ENDBRANCH   4   8
TORSDOF 2
ENDMDL
MODEL 4
REMARK VINA RESULT:      -4.0     11.994     12.741
REMARK  2 active torsions:
REMARK  status: ('A' for Active; 'I' for Inactive)
REMARK    1  A    between atoms: C3_3  and  C4_4 
REMARK    2  A    between atoms: C5_5  and  C7_7 
ROOT
HETATM    1  C1  UNL     1     -35.351  13.707  -4.236  1.00 20.00    -0.007 C 
HETATM    2  C2  UNL     1     -34.060  13.651  -3.899  1.00 20.00     0.042 C 
HETATM    3  C4  UNL     1     -35.923  15.087  -4.349  1.00 20.00     0.084 C 
HETATM    4  C5  UNL     1     -34.941  16.077  -3.689  1.00 20.00     0.065 C 
HETATM    5  S9  UNL     1     -33.324  15.196  -3.661  1.00 20.00    -0.136 SA
ENDROOT
BRANCH   3   6
HETATM    6  C3  UNL     1     -37.295  15.072  -3.746  1.00 20.00     0.240 C 
HETATM    7  O8  UNL     1     -38.028  14.089  -3.758  1.00 20.00    -0.306 OA
ENDBRANCH   3   6
BRANCH   4   8
HETATM    8  C7  UNL     1     -35.273  16.513  -2.264  1.00 20.00     0.012 C 
HETATM    9  C6  UNL     1     -34.040  16.726  -1.443  1.00 20.00     0.006 C 
ENDBRANCH   4   8
TORSDOF 2
ENDMDL
MODEL 5
REMARK VINA RESULT:      -3.9     12.286     13.423
REMARK  2 active torsions:
REMARK  status: ('A' for Active; 'I' for Inactive)
REMARK    1  A    between atoms: C3_3  and  C4_4 
REMARK    2  A    between atoms: C5_5  and  C7_7 
ROOT
HETATM    1  C1  UNL     1     -34.623  15.598  -2.659  1.00 20.00    -0.007 C 
HETATM    2  C2  UNL     1     -34.422  16.906  -2.832  1.00 20.00     0.042 C 
HETATM    3  C4  UNL     1     -34.152  14.725  -3.783  1.00 20.00     0.084 C 
HETATM    4  C5  UNL     1     -33.877  15.617  -5.011  1.00 20.00     0.065 C 
HETATM    5  S9  UNL     1     -33.658  17.313  -4.327  1.00 20.00    -0.136 SA
ENDROOT
BRANCH   3   6
HETATM    6  C3  UNL     1     -35.178  13.656  -4.004  1.00 20.00     0.240 C 
HETATM    7  O8  UNL     1     -34.922  12.564  -4.499  1.00 20.00    -0.306 OA
ENDBRANCH   3   6
BRANCH   4   8
HETATM    8  C7  UNL     1     -34.974  15.667  -6.071  1.00 20.00     0.012 C 
HETATM    9  C6  UNL     1     -34.545  15.019  -7.350  1.00 20.00     0.006 C 
ENDBRANCH   4   8
TORSDOF 2
ENDMDL
MODEL 6
REMARK VINA RESULT:      -3.9     12.358     13.242
REMARK  2 active torsions:
REMARK  status: ('A' for Active; 'I' for Inactive)
REMARK    1  A    between atoms: C3_3  and  C4_4 
REMARK    2  A    between atoms: C5_5  and  C7_7 
ROOT
HETATM    1  C1  UNL     1     -35.474  15.199  -2.900  1.00 20.00    -0.007 C 
HETATM    2  C2  UNL     1     -35.502  16.494  -2.579  1.00 20.00     0.042 C 
HETATM    3  C4  UNL     1     -34.169  14.705  -3.447  1.00 20.00     0.084 C 
HETATM    4  C5  UNL     1     -33.307  15.926  -3.829  1.00 20.00     0.065 C 
HETATM    5  S9  UNL     1     -34.018  17.328  -2.869  1.00 20.00    -0.136 SA
ENDROOT
BRANCH   3   6
HETATM    6  C3  UNL     1     -34.464  13.770  -4.580  1.00 20.00     0.240 C 
HETATM    7  O8  UNL     1     -34.985  12.670  -4.431  1.00 20.00    -0.306 OA
ENDBRANCH   3   6
BRANCH   4   8
HETATM    8  C7  UNL     1     -33.296  16.314  -5.305  1.00 20.00     0.012 C 
HETATM    9  C6  UNL     1     -33.579  17.770  -5.503  1.00 20.00     0.006 C 
ENDBRANCH   4   8
TORSDOF 2
ENDMDL
MODEL 7
REMARK VINA RESULT:      -3.7     12.466     13.240
REMARK  2 active torsions:
REMARK  status: ('A' for Active; 'I' for Inactive)
REMARK    1  A    between atoms: C3_3  and  C4_4 
REMARK    2  A    between atoms: C5_5  and  C7_7 
ROOT
HETATM    1  C1  UNL     1     -35.225  15.580  -2.593  1.00 20.00    -0.007 C 
HETATM    2  C2  UNL     1     -34.007  16.124  -2.641  1.00 20.00     0.042 C 
HETATM    3  C4  UNL     1     -35.531  14.602  -3.687  1.00 20.00     0.084 C 
HETATM    4  C5  UNL     1     -34.466  14.756  -4.791  1.00 20.00     0.065 C 
HETATM    5  S9  UNL     1     -33.041  15.580  -3.965  1.00 20.00    -0.136 SA
ENDROOT
BRANCH   3   6
HETATM    6  C3  UNL     1     -36.940  14.837  -4.140  1.00 20.00     0.240 C 
HETATM    7  O8  UNL     1     -37.897  14.183  -3.740  1.00 20.00    -0.306 OA
ENDBRANCH   3   6
BRANCH   4   8
HETATM    8  C7  UNL     1     -34.863  15.592  -6.005  1.00 20.00     0.012 C 
HETATM    9  C6  UNL     1     -34.677  14.841  -7.286  1.00 20.00     0.006 C 
ENDBRANCH   4   8
TORSDOF 2
ENDMDL
MODEL 8
REMARK VINA RESULT:      -3.7     12.576     13.602
REMARK  2 active torsions:
REMARK  status: ('A' for Active; 'I' for Inactive)
REMARK    1  A    between atoms: C3_3  and  C4_4 
REMARK    2  A    between atoms: C5_5  and  C7_7 
ROOT
HETATM    1  C1  UNL     1     -34.063  15.546  -5.656  1.00 20.00    -0.007 C 
HETATM    2  C2  UNL     1     -34.527  14.317  -5.418  1.00 20.00     0.042 C 
HETATM    3  C4  UNL     1     -33.447  16.236  -4.476  1.00 20.00     0.084 C 
HETATM    4  C5  UNL     1     -33.841  15.464  -3.200  1.00 20.00     0.065 C 
HETATM    5  S9  UNL     1     -34.318  13.785  -3.788  1.00 20.00    -0.136 SA
ENDROOT
BRANCH   3   6
HETATM    6  C3  UNL     1     -33.881  17.670  -4.498  1.00 20.00     0.240 C 
HETATM    7  O8  UNL     1     -33.302  18.542  -5.137  1.00 20.00    -0.306 OA
ENDBRANCH   3   6
BRANCH   4   8
HETATM    8  C7  UNL     1     -35.003  16.036  -2.393  1.00 20.00     0.012 C 
HETATM    9  C6  UNL     1     -34.563  16.526  -1.049  1.00 20.00     0.006 C 
ENDBRANCH   4   8
TORSDOF 2
ENDMDL
MODEL 9
REMARK VINA RESULT:      -3.7     12.203     13.806
REMARK  2 active torsions:
REMARK  status: ('A' for Active; 'I' for Inactive)
REMARK    1  A    between atoms: C3_3  and  C4_4 
REMARK    2  A    between atoms: C5_5  and  C7_7 
ROOT
HETATM    1  C1  UNL     1     -33.179  15.061  -3.713  1.00 20.00    -0.007 C 
HETATM    2  C2  UNL     1     -33.420  13.750  -3.774  1.00 20.00     0.042 C 
HETATM    3  C4  UNL     1     -34.132  15.923  -4.484  1.00 20.00     0.084 C 
HETATM    4  C5  UNL     1     -34.937  15.023  -5.444  1.00 20.00     0.065 C 
HETATM    5  S9  UNL     1     -34.789  13.327  -4.740  1.00 20.00    -0.136 SA
ENDROOT
BRANCH   3   6
HETATM    6  C3  UNL     1     -33.341  17.004  -5.157  1.00 20.00     0.240 C 
HETATM    7  O8  UNL     1     -33.399  18.185  -4.834  1.00 20.00    -0.306 OA
ENDBRANCH   3   6
BRANCH   4   8
HETATM    8  C7  UNL     1     -34.462  14.982  -6.894  1.00 20.00     0.012 C 
HETATM    9  C6  UNL     1     -35.526  14.476  -7.817  1.00 20.00     0.006 C 
ENDBRANCH   4   8
TORSDOF 2
ENDMDL
