MODEL 1
REMARK VINA RESULT:      -4.3      0.000      0.000
REMARK  2 active torsions:
REMARK  status: ('A' for Active; 'I' for Inactive)
REMARK    1  A    between atoms: C4_4  and  C6_6 
REMARK    2  A    between atoms: C7_7  and  O10_10 
ROOT
HETATM    1  C1  UNL     1     -32.166   7.704   2.499  1.00 20.00     0.218 C 
HETATM    2  C4  UNL     1     -32.162   6.948   3.557  1.00 20.00     0.043 C 
HETATM    3  O9  UNL     1     -32.170   8.388   1.542  1.00 20.00    -0.284 OA
ENDROOT
BRANCH   2   4
HETATM    4  C6  UNL     1     -33.058   5.774   3.770  1.00 20.00     0.064 C 
HETATM    5  C3  UNL     1     -34.234   5.741   2.839  1.00 20.00    -0.020 C 
HETATM    6  C2  UNL     1     -35.340   5.318   3.461  1.00 20.00    -0.027 C 
HETATM    7  C5  UNL     1     -35.087   5.020   4.904  1.00 20.00     0.059 C 
HETATM    8  C7  UNL     1     -33.742   5.714   5.152  1.00 20.00     0.135 C 
BRANCH   8   9
HETATM    9  O10 UNL     1     -34.015   7.015   5.673  1.00 20.00    -0.389 OA
HETATM   10  C8  UNL     1     -33.392   7.206   6.934  1.00 20.00     0.202 C 
ENDBRANCH   8   9
ENDBRANCH   2   4
TORSDOF 2
ENDMDL
MODEL 2
REMARK VINA RESULT:      -4.2     10.889     12.499
REMARK  2 active torsions:
REMARK  status: ('A' for Active; 'I' for Inactive)
REMARK    1  A    between atoms: C4_4  and  C6_6 
REMARK    2  A    between atoms: C7_7  and  O10_10 
ROOT
HETATM    1  C1  UNL     1     -34.478  16.483  -1.184  1.00 20.00     0.218 C 
HETATM    2  C4  UNL     1     -34.011  16.107  -2.338  1.00 20.00     0.043 C 
HETATM    3  O9  UNL     1     -34.899  16.822  -0.139  1.00 20.00    -0.284 OA
ENDROOT
BRANCH   2   4
HETATM    4  C6  UNL     1     -34.765  15.300  -3.341  1.00 20.00     0.064 C 
HETATM    5  C3  UNL     1     -34.266  13.891  -3.474  1.00 20.00    -0.020 C 
HETATM    6  C2  UNL     1     -34.284  13.482  -4.747  1.00 20.00    -0.027 C 
HETATM    7  C5  UNL     1     -34.777  14.553  -5.668  1.00 20.00     0.059 C 
HETATM    8  C7  UNL     1     -34.674  15.810  -4.794  1.00 20.00     0.135 C 
BRANCH   8   9
HETATM    9  O10 UNL     1     -33.417  16.428  -5.070  1.00 20.00    -0.389 OA
HETATM   10  C8  UNL     1     -33.590  17.725  -5.619  1.00 20.00     0.202 C 
ENDBRANCH   8   9
ENDBRANCH   2   4
TORSDOF 2
ENDMDL
MODEL 3
REMARK VINA RESULT:      -4.2     10.961     11.967
REMARK  2 active torsions:
REMARK  status: ('A' for Active; 'I' for Inactive)
REMARK    1  A    between atoms: C4_4  and  C6_6 
REMARK    2  A    between atoms: C7_7  and  O10_10 
ROOT
HETATM    1  C1  UNL     1     -37.489  14.901  -3.796  1.00 20.00     0.218 C 
HETATM    2  C4  UNL     1     -36.473  15.712  -3.817  1.00 20.00     0.043 C 
HETATM    3  O9  UNL     1     -38.408  14.167  -3.776  1.00 20.00    -0.284 OA
ENDROOT
BRANCH   2   4
HETATM    4  C6  UNL     1     -35.103  15.352  -4.285  1.00 20.00     0.064 C 
HETATM    5  C3  UNL     1     -34.838  13.875  -4.280  1.00 20.00    -0.020 C 
HETATM    6  C2  UNL     1     -33.591  13.602  -3.882  1.00 20.00    -0.027 C 
HETATM    7  C5  UNL     1     -32.832  14.845  -3.539  1.00 20.00     0.059 C 
HETATM    8  C7  UNL     1     -33.950  15.887  -3.411  1.00 20.00     0.135 C 
BRANCH   8   9
HETATM    9  O10 UNL     1     -34.313  15.966  -2.032  1.00 20.00    -0.389 OA
HETATM   10  C8  UNL     1     -33.807  17.149  -1.434  1.00 20.00     0.202 C 
ENDBRANCH   8   9
ENDBRANCH   2   4
TORSDOF 2
ENDMDL
MODEL 4
REMARK VINA RESULT:      -4.1     11.107     12.578
REMARK  2 active torsions:
REMARK  status: ('A' for Active; 'I' for Inactive)
REMARK    1  A    between atoms: C4_4  and  C6_6 
REMARK    2  A    between atoms: C7_7  and  O10_10 
ROOT
HETATM    1  C1  UNL     1     -35.280  13.516  -4.269  1.00 20.00     0.218 C 
HETATM    2  C4  UNL     1     -35.729  14.646  -3.807  1.00 20.00     0.043 C 
HETATM    3  O9  UNL     1     -34.874  12.494  -4.686  1.00 20.00    -0.284 OA
ENDROOT
BRANCH   2   4
HETATM    4  C6  UNL     1     -35.338  15.991  -4.317  1.00 20.00     0.064 C 
HETATM    5  C3  UNL     1     -34.220  15.952  -5.318  1.00 20.00    -0.020 C 
HETATM    6  C2  UNL     1     -33.374  16.973  -5.149  1.00 20.00    -0.027 C 
HETATM    7  C5  UNL     1     -33.777  17.845  -4.003  1.00 20.00     0.059 C 
HETATM    8  C7  UNL     1     -34.780  16.960  -3.253  1.00 20.00     0.135 C 
BRANCH   8   9
HETATM    9  O10 UNL     1     -34.068  16.274  -2.223  1.00 20.00    -0.389 OA
HETATM   10  C8  UNL     1     -34.542  16.641  -0.937  1.00 20.00     0.202 C 
ENDBRANCH   8   9
ENDBRANCH   2   4
TORSDOF 2
ENDMDL
MODEL 5
REMARK VINA RESULT:      -4.1     11.104     12.737
REMARK  2 active torsions:
REMARK  status: ('A' for Active; 'I' for Inactive)
REMARK    1  A    between atoms: C4_4  and  C6_6 
REMARK    2  A    between atoms: C7_7  and  O10_10 
ROOT
HETATM    1  C1  UNL     1     -34.171  13.417  -4.324  1.00 20.00     0.218 C 
HETATM    2  C4  UNL     1     -33.454  14.325  -3.731  1.00 20.00     0.043 C 
HETATM    3  O9  UNL     1     -34.820  12.596  -4.862  1.00 20.00    -0.284 OA
ENDROOT
BRANCH   2   4
HETATM    4  C6  UNL     1     -34.004  15.496  -2.989  1.00 20.00     0.064 C 
HETATM    5  C3  UNL     1     -35.503  15.544  -2.971  1.00 20.00    -0.020 C 
HETATM    6  C2  UNL     1     -35.956  16.796  -3.099  1.00 20.00    -0.027 C 
HETATM    7  C5  UNL     1     -34.837  17.779  -3.241  1.00 20.00     0.059 C 
HETATM    8  C7  UNL     1     -33.646  16.875  -3.582  1.00 20.00     0.135 C 
BRANCH   8   9
HETATM    9  O10 UNL     1     -33.527  16.833  -5.004  1.00 20.00    -0.389 OA
HETATM   10  C8  UNL     1     -33.599  18.135  -5.565  1.00 20.00     0.202 C 
ENDBRANCH   8   9
ENDBRANCH   2   4
TORSDOF 2
ENDMDL
MODEL 6
REMARK VINA RESULT:      -4.0     11.107     12.521
REMARK  2 active torsions:
REMARK  status: ('A' for Active; 'I' for Inactive)
REMARK    1  A    between atoms: C4_4  and  C6_6 
REMARK    2  A    between atoms: C7_7  and  O10_10 
ROOT
HETATM    1  C1  UNL     1     -34.762  16.934  -0.314  1.00 20.00     0.218 C 
HETATM    2  C4  UNL     1     -34.662  16.216  -1.393  1.00 20.00     0.043 C 
HETATM    3  O9  UNL     1     -34.854  17.585   0.661  1.00 20.00    -0.284 OA
ENDROOT
BRANCH   2   4
HETATM    4  C6  UNL     1     -33.655  16.433  -2.472  1.00 20.00     0.064 C 
HETATM    5  C3  UNL     1     -33.883  17.690  -3.260  1.00 20.00    -0.020 C 
HETATM    6  C2  UNL     1     -33.627  17.507  -4.560  1.00 20.00    -0.027 C 
HETATM    7  C5  UNL     1     -33.207  16.101  -4.851  1.00 20.00     0.059 C 
HETATM    8  C7  UNL     1     -33.638  15.359  -3.580  1.00 20.00     0.135 C 
BRANCH   8   9
HETATM    9  O10 UNL     1     -34.935  14.811  -3.816  1.00 20.00    -0.389 OA
HETATM   10  C8  UNL     1     -34.851  13.474  -4.285  1.00 20.00     0.202 C 
ENDBRANCH   8   9
ENDBRANCH   2   4
TORSDOF 2
ENDMDL
MODEL 7
REMARK VINA RESULT:      -4.0     11.282     12.902
REMARK  2 active torsions:
REMARK  status: ('A' for Active; 'I' for Inactive)
REMARK    1  A    between atoms: C4_4  and  C6_6 
REMARK    2  A    between atoms: C7_7  and  O10_10 
ROOT
HETATM    1  C1  UNL     1     -34.573  13.647  -4.735  1.00 20.00     0.218 C 
HETATM    2  C4  UNL     1     -34.080  14.836  -4.925  1.00 20.00     0.043 C 
HETATM    3  O9  UNL     1     -35.020  12.573  -4.564  1.00 20.00    -0.284 OA
ENDROOT
BRANCH   2   4
HETATM    4  C6  UNL     1     -33.525  15.710  -3.851  1.00 20.00     0.064 C 
HETATM    5  C3  UNL     1     -34.156  15.484  -2.508  1.00 20.00    -0.020 C 
HETATM    6  C2  UNL     1     -34.328  16.634  -1.847  1.00 20.00    -0.027 C 
HETATM    7  C5  UNL     1     -33.859  17.809  -2.645  1.00 20.00     0.059 C 
HETATM    8  C7  UNL     1     -33.747  17.223  -4.058  1.00 20.00     0.135 C 
BRANCH   8   9
HETATM    9  O10 UNL     1     -34.970  17.499  -4.741  1.00 20.00    -0.389 OA
HETATM   10  C8  UNL     1     -35.314  18.872  -4.645  1.00 20.00     0.202 C 
ENDBRANCH   8   9
ENDBRANCH   2   4
TORSDOF 2
ENDMDL
MODEL 8
REMARK VINA RESULT:      -3.9     11.228     12.011
REMARK  2 active torsions:
REMARK  status: ('A' for Active; 'I' for Inactive)
REMARK    1  A    between atoms: C4_4  and  C6_6 
REMARK    2  A    between atoms: C7_7  and  O10_10 
ROOT
HETATM    1  C1  UNL     1     -34.066  16.918  -1.244  1.00 20.00     0.218 C 
HETATM    2  C4  UNL     1     -33.969  16.374  -2.421  1.00 20.00     0.043 C 
HETATM    3  O9  UNL     1     -34.154  17.410  -0.179  1.00 20.00    -0.284 OA
ENDROOT
BRANCH   2   4
HETATM    4  C6  UNL     1     -34.422  14.994  -2.763  1.00 20.00     0.064 C 
HETATM    5  C3  UNL     1     -33.487  14.268  -3.685  1.00 20.00    -0.020 C 
HETATM    6  C2  UNL     1     -34.155  13.535  -4.583  1.00 20.00    -0.027 C 
HETATM    7  C5  UNL     1     -35.636  13.668  -4.417  1.00 20.00     0.059 C 
HETATM    8  C7  UNL     1     -35.757  14.914  -3.531  1.00 20.00     0.135 C 
BRANCH   8   9
HETATM    9  O10 UNL     1     -35.951  16.038  -4.389  1.00 20.00    -0.389 OA
HETATM   10  C8  UNL     1     -37.315  16.175  -4.757  1.00 20.00     0.202 C 
ENDBRANCH   8   9
ENDBRANCH   2   4
TORSDOF 2
ENDMDL
MODEL 9
REMARK VINA RESULT:      -3.9     11.798     12.674
REMARK  2 active torsions:
REMARK  status: ('A' for Active; 'I' for Inactive)
REMARK    1  A    between atoms: C4_4  and  C6_6 
REMARK    2  A    between atoms: C7_7  and  O10_10 
ROOT
HETATM    1  C1  UNL     1     -37.886  14.860  -3.765  1.00 20.00     0.218 C 
HETATM    2  C4  UNL     1     -36.871  15.643  -3.542  1.00 20.00     0.043 C 
HETATM    3  O9  UNL     1     -38.803  14.152  -3.965  1.00 20.00    -0.284 OA
ENDROOT
BRANCH   2   4
HETATM    4  C6  UNL     1     -35.530  15.188  -3.072  1.00 20.00     0.064 C 
HETATM    5  C3  UNL     1     -34.791  16.223  -2.277  1.00 20.00    -0.020 C 
HETATM    6  C2  UNL     1     -33.484  16.220  -2.561  1.00 20.00    -0.027 C 
HETATM    7  C5  UNL     1     -33.145  15.200  -3.601  1.00 20.00     0.059 C 
HETATM    8  C7  UNL     1     -34.519  14.862  -4.191  1.00 20.00     0.135 C 
BRANCH   8   9
HETATM    9  O10 UNL     1     -34.710  15.684  -5.343  1.00 20.00    -0.389 OA
HETATM   10  C8  UNL     1     -34.594  14.929  -6.539  1.00 20.00     0.202 C 
ENDBRANCH   8   9
ENDBRANCH   2   4
TORSDOF 2
ENDMDL
