MODEL 1
REMARK VINA RESULT:      -5.3      0.000      0.000
REMARK  1 active torsions:
REMARK  status: ('A' for Active; 'I' for Inactive)
REMARK    1  A    between atoms: C5_5  and  C9_9 
ROOT
HETATM    1  C1  UNL     1     -34.842  15.812  -2.346  1.00 20.00    -0.029 C 
HETATM    2  C2  UNL     1     -33.573  15.972  -2.768  1.00 20.00    -0.021 C 
HETATM    3  C3  UNL     1     -33.796  17.051  -4.974  1.00 20.00    -0.021 C 
HETATM    4  C4  UNL     1     -35.088  16.834  -5.273  1.00 20.00    -0.024 C 
HETATM    5  C6  UNL     1     -35.972  15.513  -3.319  1.00 20.00     0.036 C 
HETATM    6  C7  UNL     1     -33.244  15.848  -4.243  1.00 20.00     0.045 C 
HETATM    7  C8  UNL     1     -35.499  15.456  -4.796  1.00 20.00     0.026 C 
HETATM    8  C9  UNL     1     -34.129  14.767  -4.887  1.00 20.00     0.106 C 
ENDROOT
BRANCH   8   9
HETATM    9  C5  UNL     1     -34.044  13.380  -4.274  1.00 20.00     0.178 C 
HETATM   10  O10 UNL     1     -32.933  13.089  -3.752  1.00 20.00    -0.648 OA
HETATM   11  O11 UNL     1     -35.101  12.695  -4.366  1.00 20.00    -0.648 OA
ENDBRANCH   8   9
TORSDOF 1
ENDMDL
MODEL 2
REMARK VINA RESULT:      -5.0      1.960      3.221
REMARK  1 active torsions:
REMARK  status: ('A' for Active; 'I' for Inactive)
REMARK    1  A    between atoms: C5_5  and  C9_9 
ROOT
HETATM    1  C1  UNL     1     -34.654  14.689  -6.185  1.00 20.00    -0.029 C 
HETATM    2  C2  UNL     1     -34.328  15.834  -5.554  1.00 20.00    -0.021 C 
HETATM    3  C3  UNL     1     -32.903  15.112  -3.677  1.00 20.00    -0.021 C 
HETATM    4  C4  UNL     1     -33.160  13.795  -3.607  1.00 20.00    -0.024 C 
HETATM    5  C6  UNL     1     -34.863  13.391  -5.420  1.00 20.00     0.036 C 
HETATM    6  C7  UNL     1     -34.170  15.850  -4.047  1.00 20.00     0.045 C 
HETATM    7  C8  UNL     1     -34.627  13.545  -3.893  1.00 20.00     0.026 C 
HETATM    8  C9  UNL     1     -35.185  14.889  -3.404  1.00 20.00     0.106 C 
ENDROOT
BRANCH   8   9
HETATM    9  C5  UNL     1     -36.647  15.153  -3.720  1.00 20.00     0.178 C 
HETATM   10  O10 UNL     1     -37.385  14.130  -3.754  1.00 20.00    -0.648 OA
HETATM   11  O11 UNL     1     -36.937  16.367  -3.910  1.00 20.00    -0.648 OA
ENDBRANCH   8   9
TORSDOF 1
ENDMDL
MODEL 3
REMARK VINA RESULT:      -5.0      0.823      2.627
REMARK  1 active torsions:
REMARK  status: ('A' for Active; 'I' for Inactive)
REMARK    1  A    between atoms: C5_5  and  C9_9 
ROOT
HETATM    1  C1  UNL     1     -34.724  16.343  -5.223  1.00 20.00    -0.029 C 
HETATM    2  C2  UNL     1     -35.830  16.070  -4.503  1.00 20.00    -0.021 C 
HETATM    3  C3  UNL     1     -35.171  16.541  -2.174  1.00 20.00    -0.021 C 
HETATM    4  C4  UNL     1     -33.831  16.574  -2.253  1.00 20.00    -0.024 C 
HETATM    5  C6  UNL     1     -33.332  16.080  -4.672  1.00 20.00     0.036 C 
HETATM    6  C7  UNL     1     -35.702  15.480  -3.112  1.00 20.00     0.045 C 
HETATM    7  C8  UNL     1     -33.349  15.516  -3.226  1.00 20.00     0.026 C 
HETATM    8  C9  UNL     1     -34.503  14.516  -3.062  1.00 20.00     0.106 C 
ENDROOT
BRANCH   8   9
HETATM    9  C5  UNL     1     -34.528  13.367  -4.054  1.00 20.00     0.178 C 
HETATM   10  O10 UNL     1     -35.677  12.977  -4.400  1.00 20.00    -0.648 OA
HETATM   11  O11 UNL     1     -33.390  12.947  -4.406  1.00 20.00    -0.648 OA
ENDBRANCH   8   9
TORSDOF 1
ENDMDL
MODEL 4
REMARK VINA RESULT:      -4.9      0.850      2.389
REMARK  1 active torsions:
REMARK  status: ('A' for Active; 'I' for Inactive)
REMARK    1  A    between atoms: C5_5  and  C9_9 
ROOT
HETATM    1  C1  UNL     1     -34.076  16.046  -5.609  1.00 20.00    -0.029 C 
HETATM    2  C2  UNL     1     -35.367  15.699  -5.437  1.00 20.00    -0.021 C 
HETATM    3  C3  UNL     1     -35.963  16.641  -3.238  1.00 20.00    -0.021 C 
HETATM    4  C4  UNL     1     -34.760  16.899  -2.698  1.00 20.00    -0.024 C 
HETATM    5  C6  UNL     1     -33.110  16.125  -4.437  1.00 20.00     0.036 C 
HETATM    6  C7  UNL     1     -35.883  15.368  -4.050  1.00 20.00     0.045 C 
HETATM    7  C8  UNL     1     -33.784  15.803  -3.076  1.00 20.00     0.026 C 
HETATM    8  C9  UNL     1     -34.788  14.653  -3.241  1.00 20.00     0.106 C 
ENDROOT
BRANCH   8   9
HETATM    9  C5  UNL     1     -34.236  13.375  -3.847  1.00 20.00     0.178 C 
HETATM   10  O10 UNL     1     -33.001  13.185  -3.674  1.00 20.00    -0.648 OA
HETATM   11  O11 UNL     1     -35.088  12.664  -4.450  1.00 20.00    -0.648 OA
ENDBRANCH   8   9
TORSDOF 1
ENDMDL
MODEL 5
REMARK VINA RESULT:      -4.8      1.909      2.984
REMARK  1 active torsions:
REMARK  status: ('A' for Active; 'I' for Inactive)
REMARK    1  A    between atoms: C5_5  and  C9_9 
ROOT
HETATM    1  C1  UNL     1     -33.697  13.796  -3.959  1.00 20.00    -0.029 C 
HETATM    2  C2  UNL     1     -34.516  13.258  -4.884  1.00 20.00    -0.021 C 
HETATM    3  C3  UNL     1     -34.444  14.854  -6.763  1.00 20.00    -0.021 C 
HETATM    4  C4  UNL     1     -33.919  15.950  -6.191  1.00 20.00    -0.024 C 
HETATM    5  C6  UNL     1     -33.578  15.301  -3.781  1.00 20.00     0.036 C 
HETATM    6  C7  UNL     1     -35.352  14.160  -5.772  1.00 20.00     0.045 C 
HETATM    7  C8  UNL     1     -34.456  16.100  -4.782  1.00 20.00     0.026 C 
HETATM    8  C9  UNL     1     -35.807  15.398  -4.979  1.00 20.00     0.106 C 
ENDROOT
BRANCH   8   9
HETATM    9  C5  UNL     1     -36.602  15.126  -3.714  1.00 20.00     0.178 C 
HETATM   10  O10 UNL     1     -37.379  14.134  -3.768  1.00 20.00    -0.648 OA
HETATM   11  O11 UNL     1     -36.381  15.932  -2.767  1.00 20.00    -0.648 OA
ENDBRANCH   8   9
TORSDOF 1
ENDMDL
MODEL 6
REMARK VINA RESULT:      -4.6      2.117      3.374
REMARK  1 active torsions:
REMARK  status: ('A' for Active; 'I' for Inactive)
REMARK    1  A    between atoms: C5_5  and  C9_9 
ROOT
HETATM    1  C1  UNL     1     -35.205  15.898  -2.531  1.00 20.00    -0.029 C 
HETATM    2  C2  UNL     1     -35.984  15.289  -3.446  1.00 20.00    -0.021 C 
HETATM    3  C3  UNL     1     -34.641  13.364  -4.204  1.00 20.00    -0.021 C 
HETATM    4  C4  UNL     1     -33.410  13.682  -3.771  1.00 20.00    -0.024 C 
HETATM    5  C6  UNL     1     -33.691  15.930  -2.668  1.00 20.00     0.036 C 
HETATM    6  C7  UNL     1     -35.353  14.621  -4.652  1.00 20.00     0.045 C 
HETATM    7  C8  UNL     1     -33.182  15.173  -3.925  1.00 20.00     0.026 C 
HETATM    8  C9  UNL     1     -34.124  15.424  -5.112  1.00 20.00     0.106 C 
ENDROOT
BRANCH   8   9
HETATM    9  C5  UNL     1     -34.370  16.881  -5.463  1.00 20.00     0.178 C 
HETATM   10  O10 UNL     1     -35.532  17.146  -5.878  1.00 20.00    -0.648 OA
HETATM   11  O11 UNL     1     -33.376  17.641  -5.295  1.00 20.00    -0.648 OA
ENDBRANCH   8   9
TORSDOF 1
ENDMDL
MODEL 7
REMARK VINA RESULT:      -4.6      1.058      2.038
REMARK  1 active torsions:
REMARK  status: ('A' for Active; 'I' for Inactive)
REMARK    1  A    between atoms: C5_5  and  C9_9 
ROOT
HETATM    1  C1  UNL     1     -36.520  16.080  -4.095  1.00 20.00    -0.029 C 
HETATM    2  C2  UNL     1     -35.990  15.415  -3.050  1.00 20.00    -0.021 C 
HETATM    3  C3  UNL     1     -33.714  16.340  -2.833  1.00 20.00    -0.021 C 
HETATM    4  C4  UNL     1     -33.537  16.952  -4.015  1.00 20.00    -0.024 C 
HETATM    5  C6  UNL     1     -35.670  16.509  -5.280  1.00 20.00     0.036 C 
HETATM    6  C7  UNL     1     -34.513  15.072  -3.042  1.00 20.00     0.045 C 
HETATM    7  C8  UNL     1     -34.173  16.131  -5.118  1.00 20.00     0.026 C 
HETATM    8  C9  UNL     1     -34.044  14.745  -4.470  1.00 20.00     0.106 C 
ENDROOT
BRANCH   8   9
HETATM    9  C5  UNL     1     -34.779  13.616  -5.172  1.00 20.00     0.178 C 
HETATM   10  O10 UNL     1     -35.027  13.811  -6.394  1.00 20.00    -0.648 OA
HETATM   11  O11 UNL     1     -35.048  12.624  -4.439  1.00 20.00    -0.648 OA
ENDBRANCH   8   9
TORSDOF 1
ENDMDL
MODEL 8
REMARK VINA RESULT:      -4.6     11.665     12.903
REMARK  1 active torsions:
REMARK  status: ('A' for Active; 'I' for Inactive)
REMARK    1  A    between atoms: C5_5  and  C9_9 
ROOT
HETATM    1  C1  UNL     1     -43.366   5.416   0.287  1.00 20.00    -0.029 C 
HETATM    2  C2  UNL     1     -42.289   4.610   0.367  1.00 20.00    -0.021 C 
HETATM    3  C3  UNL     1     -40.377   6.103  -0.073  1.00 20.00    -0.021 C 
HETATM    4  C4  UNL     1     -40.969   7.179  -0.618  1.00 20.00    -0.024 C 
HETATM    5  C6  UNL     1     -43.416   6.583  -0.688  1.00 20.00     0.036 C 
HETATM    6  C7  UNL     1     -41.093   4.853  -0.532  1.00 20.00     0.045 C 
HETATM    7  C8  UNL     1     -42.110   6.737  -1.513  1.00 20.00     0.026 C 
HETATM    8  C9  UNL     1     -41.566   5.357  -1.907  1.00 20.00     0.106 C 
ENDROOT
BRANCH   8   9
HETATM    9  C5  UNL     1     -42.532   4.453  -2.653  1.00 20.00     0.178 C 
HETATM   10  O10 UNL     1     -42.427   3.223  -2.398  1.00 20.00    -0.648 OA
HETATM   11  O11 UNL     1     -43.320   5.054  -3.436  1.00 20.00    -0.648 OA
ENDBRANCH   8   9
TORSDOF 1
ENDMDL
MODEL 9
REMARK VINA RESULT:      -4.6      2.055      3.028
REMARK  1 active torsions:
REMARK  status: ('A' for Active; 'I' for Inactive)
REMARK    1  A    between atoms: C5_5  and  C9_9 
ROOT
HETATM    1  C1  UNL     1     -33.085  16.131  -4.615  1.00 20.00    -0.029 C 
HETATM    2  C2  UNL     1     -32.922  15.112  -3.749  1.00 20.00    -0.021 C 
HETATM    3  C3  UNL     1     -34.327  13.304  -4.663  1.00 20.00    -0.021 C 
HETATM    4  C4  UNL     1     -35.117  13.961  -5.528  1.00 20.00    -0.024 C 
HETATM    5  C6  UNL     1     -34.411  16.370  -5.320  1.00 20.00     0.036 C 
HETATM    6  C7  UNL     1     -34.078  14.176  -3.453  1.00 20.00     0.045 C 
HETATM    7  C8  UNL     1     -35.489  15.314  -4.956  1.00 20.00     0.026 C 
HETATM    8  C9  UNL     1     -35.402  14.961  -3.465  1.00 20.00     0.106 C 
ENDROOT
BRANCH   8   9
HETATM    9  C5  UNL     1     -35.493  16.131  -2.501  1.00 20.00     0.178 C 
HETATM   10  O10 UNL     1     -34.746  16.055  -1.487  1.00 20.00    -0.648 OA
HETATM   11  O11 UNL     1     -36.309  17.033  -2.840  1.00 20.00    -0.648 OA
ENDBRANCH   8   9
TORSDOF 1
ENDMDL
