MODEL 1
REMARK VINA RESULT:      -5.6      0.000      0.000
REMARK  1 active torsions:
REMARK  status: ('A' for Active; 'I' for Inactive)
REMARK    1  A    between atoms: C3_3  and  C4_4 
ROOT
HETATM    1  C1  UNL     1     -34.801   5.191   3.621  1.00 20.00     0.061 C 
HETATM    2  C2  UNL     1     -35.158   4.405   4.640  1.00 20.00     0.087 C 
HETATM    3  C4  UNL     1     -33.926   6.295   4.111  1.00 20.00     0.376 C 
HETATM    4  C5  UNL     1     -34.562   4.909   5.906  1.00 20.00     0.463 C 
HETATM    5  C6  UNL     1     -33.512   7.070   6.411  1.00 20.00     0.324 C 
HETATM    6  N7  UNL     1     -33.591   5.939   5.502  1.00 20.00     0.211 N 
HETATM    7  F9  UNL     1     -34.572   7.488   4.034  1.00 20.00    -0.195 F 
HETATM    8  F10 UNL     1     -35.525   5.410   6.723  1.00 20.00    -0.169 F 
HETATM    9  F11 UNL     1     -33.929   3.926   6.595  1.00 20.00    -0.169 F 
ENDROOT
BRANCH   3  10
HETATM   10  C3  UNL     1     -32.661   6.301   3.318  1.00 20.00     0.312 C 
HETATM   11  O8  UNL     1     -32.066   7.326   3.001  1.00 20.00    -0.301 OA
ENDBRANCH   3  10
TORSDOF 1
ENDMDL
MODEL 2
REMARK VINA RESULT:      -4.7     12.543     13.572
REMARK  1 active torsions:
REMARK  status: ('A' for Active; 'I' for Inactive)
REMARK    1  A    between atoms: C3_3  and  C4_4 
ROOT
HETATM    1  C1  UNL     1     -34.931  13.810  -4.803  1.00 20.00     0.061 C 
HETATM    2  C2  UNL     1     -34.097  13.698  -3.768  1.00 20.00     0.087 C 
HETATM    3  C4  UNL     1     -34.731  15.123  -5.481  1.00 20.00     0.376 C 
HETATM    4  C5  UNL     1     -33.263  14.924  -3.650  1.00 20.00     0.463 C 
HETATM    5  C6  UNL     1     -33.530  17.127  -4.702  1.00 20.00     0.324 C 
HETATM    6  N7  UNL     1     -33.504  15.686  -4.887  1.00 20.00     0.211 N 
HETATM    7  F9  UNL     1     -35.807  15.932  -5.285  1.00 20.00    -0.195 F 
HETATM    8  F10 UNL     1     -33.605  15.632  -2.541  1.00 20.00    -0.169 F 
HETATM    9  F11 UNL     1     -31.942  14.631  -3.541  1.00 20.00    -0.169 F 
ENDROOT
BRANCH   3  10
HETATM   10  C3  UNL     1     -34.476  14.888  -6.932  1.00 20.00     0.312 C 
HETATM   11  O8  UNL     1     -35.291  14.367  -7.687  1.00 20.00    -0.301 OA
ENDBRANCH   3  10
TORSDOF 1
ENDMDL
MODEL 3
REMARK VINA RESULT:      -4.5     12.345     13.128
REMARK  1 active torsions:
REMARK  status: ('A' for Active; 'I' for Inactive)
REMARK    1  A    between atoms: C3_3  and  C4_4 
ROOT
HETATM    1  C1  UNL     1     -35.730  15.826  -4.681  1.00 20.00     0.061 C 
HETATM    2  C2  UNL     1     -35.656  16.464  -3.511  1.00 20.00     0.087 C 
HETATM    3  C4  UNL     1     -34.539  14.947  -4.860  1.00 20.00     0.376 C 
HETATM    4  C5  UNL     1     -34.409  16.078  -2.798  1.00 20.00     0.463 C 
HETATM    5  C6  UNL     1     -32.411  14.913  -3.622  1.00 20.00     0.324 C 
HETATM    6  N7  UNL     1     -33.861  14.936  -3.550  1.00 20.00     0.211 N 
HETATM    7  F9  UNL     1     -33.733  15.427  -5.844  1.00 20.00    -0.195 F 
HETATM    8  F10 UNL     1     -33.539  17.122  -2.753  1.00 20.00    -0.169 F 
HETATM    9  F11 UNL     1     -34.652  15.708  -1.515  1.00 20.00    -0.169 F 
ENDROOT
BRANCH   3  10
HETATM   10  C3  UNL     1     -34.999  13.558  -5.154  1.00 20.00     0.312 C 
HETATM   11  O8  UNL     1     -35.053  12.670  -4.308  1.00 20.00    -0.301 OA
ENDBRANCH   3  10
TORSDOF 1
ENDMDL
MODEL 4
REMARK VINA RESULT:      -4.5     12.537     13.603
REMARK  1 active torsions:
REMARK  status: ('A' for Active; 'I' for Inactive)
REMARK    1  A    between atoms: C3_3  and  C4_4 
ROOT
HETATM    1  C1  UNL     1     -34.162  13.669  -3.793  1.00 20.00     0.061 C 
HETATM    2  C2  UNL     1     -34.788  13.400  -4.941  1.00 20.00     0.087 C 
HETATM    3  C4  UNL     1     -33.778  15.109  -3.746  1.00 20.00     0.376 C 
HETATM    4  C5  UNL     1     -34.878  14.630  -5.773  1.00 20.00     0.463 C 
HETATM    5  C6  UNL     1     -33.704  16.776  -5.557  1.00 20.00     0.324 C 
HETATM    6  N7  UNL     1     -34.467  15.735  -4.890  1.00 20.00     0.211 N 
HETATM    7  F9  UNL     1     -32.428  15.247  -3.830  1.00 20.00    -0.195 F 
HETATM    8  F10 UNL     1     -34.078  14.528  -6.867  1.00 20.00    -0.169 F 
HETATM    9  F11 UNL     1     -36.140  14.847  -6.222  1.00 20.00    -0.169 F 
ENDROOT
BRANCH   3  10
HETATM   10  C3  UNL     1     -34.316  15.717  -2.494  1.00 20.00     0.312 C 
HETATM   11  O8  UNL     1     -33.738  16.598  -1.866  1.00 20.00    -0.301 OA
ENDBRANCH   3  10
TORSDOF 1
ENDMDL
MODEL 5
REMARK VINA RESULT:      -4.5     12.110     13.161
REMARK  1 active torsions:
REMARK  status: ('A' for Active; 'I' for Inactive)
REMARK    1  A    between atoms: C3_3  and  C4_4 
ROOT
HETATM    1  C1  UNL     1     -32.811  14.685  -3.453  1.00 20.00     0.061 C 
HETATM    2  C2  UNL     1     -33.430  13.601  -3.927  1.00 20.00     0.087 C 
HETATM    3  C4  UNL     1     -33.627  15.902  -3.734  1.00 20.00     0.376 C 
HETATM    4  C5  UNL     1     -34.713  13.987  -4.572  1.00 20.00     0.463 C 
HETATM    5  C6  UNL     1     -35.537  16.196  -5.260  1.00 20.00     0.324 C 
HETATM    6  N7  UNL     1     -34.929  15.398  -4.209  1.00 20.00     0.211 N 
HETATM    7  F9  UNL     1     -33.016  16.684  -4.663  1.00 20.00    -0.195 F 
HETATM    8  F10 UNL     1     -34.643  13.813  -5.919  1.00 20.00    -0.169 F 
HETATM    9  F11 UNL     1     -35.751  13.234  -4.128  1.00 20.00    -0.169 F 
ENDROOT
BRANCH   3  10
HETATM   10  C3  UNL     1     -33.855  16.640  -2.457  1.00 20.00     0.312 C 
HETATM   11  O8  UNL     1     -34.485  16.176  -1.511  1.00 20.00    -0.301 OA
ENDBRANCH   3  10
TORSDOF 1
ENDMDL
MODEL 6
REMARK VINA RESULT:      -4.5      9.469     10.372
REMARK  1 active torsions:
REMARK  status: ('A' for Active; 'I' for Inactive)
REMARK    1  A    between atoms: C3_3  and  C4_4 
ROOT
HETATM    1  C1  UNL     1     -41.012   7.270  -0.787  1.00 20.00     0.061 C 
HETATM    2  C2  UNL     1     -40.574   6.164  -0.183  1.00 20.00     0.087 C 
HETATM    3  C4  UNL     1     -42.069   6.925  -1.780  1.00 20.00     0.376 C 
HETATM    4  C5  UNL     1     -41.291   4.974  -0.715  1.00 20.00     0.463 C 
HETATM    5  C6  UNL     1     -42.689   4.735  -2.719  1.00 20.00     0.324 C 
HETATM    6  N7  UNL     1     -42.397   5.510  -1.526  1.00 20.00     0.211 N 
HETATM    7  F9  UNL     1     -41.619   7.122  -3.048  1.00 20.00    -0.195 F 
HETATM    8  F10 UNL     1     -40.451   4.198  -1.451  1.00 20.00    -0.169 F 
HETATM    9  F11 UNL     1     -41.785   4.193   0.278  1.00 20.00    -0.169 F 
ENDROOT
BRANCH   3  10
HETATM   10  C3  UNL     1     -43.288   7.740  -1.496  1.00 20.00     0.312 C 
HETATM   11  O8  UNL     1     -43.417   8.437  -0.495  1.00 20.00    -0.301 OA
ENDBRANCH   3  10
TORSDOF 1
ENDMDL
MODEL 7
REMARK VINA RESULT:      -4.4     12.363     13.585
REMARK  1 active torsions:
REMARK  status: ('A' for Active; 'I' for Inactive)
REMARK    1  A    between atoms: C3_3  and  C4_4 
ROOT
HETATM    1  C1  UNL     1     -35.098  13.847  -3.816  1.00 20.00     0.061 C 
HETATM    2  C2  UNL     1     -34.160  13.981  -4.755  1.00 20.00     0.087 C 
HETATM    3  C4  UNL     1     -35.640  15.184  -3.440  1.00 20.00     0.376 C 
HETATM    4  C5  UNL     1     -33.980  15.418  -5.095  1.00 20.00     0.463 C 
HETATM    5  C6  UNL     1     -34.751  17.430  -3.917  1.00 20.00     0.324 C 
HETATM    6  N7  UNL     1     -35.097  16.120  -4.442  1.00 20.00     0.211 N 
HETATM    7  F9  UNL     1     -35.260  15.516  -2.177  1.00 20.00    -0.195 F 
HETATM    8  F10 UNL     1     -32.773  15.866  -4.658  1.00 20.00    -0.169 F 
HETATM    9  F11 UNL     1     -34.022  15.632  -6.434  1.00 20.00    -0.169 F 
ENDROOT
BRANCH   3  10
HETATM   10  C3  UNL     1     -37.125  15.165  -3.581  1.00 20.00     0.312 C 
HETATM   11  O8  UNL     1     -37.773  14.141  -3.775  1.00 20.00    -0.301 OA
ENDBRANCH   3  10
TORSDOF 1
ENDMDL
MODEL 8
REMARK VINA RESULT:      -4.4     12.561     13.402
REMARK  1 active torsions:
REMARK  status: ('A' for Active; 'I' for Inactive)
REMARK    1  A    between atoms: C3_3  and  C4_4 
ROOT
HETATM    1  C1  UNL     1     -35.399  15.713  -2.842  1.00 20.00     0.061 C 
HETATM    2  C2  UNL     1     -34.088  15.563  -2.642  1.00 20.00     0.087 C 
HETATM    3  C4  UNL     1     -35.747  15.347  -4.245  1.00 20.00     0.376 C 
HETATM    4  C5  UNL     1     -33.433  15.088  -3.891  1.00 20.00     0.463 C 
HETATM    5  C6  UNL     1     -34.279  15.022  -6.195  1.00 20.00     0.324 C 
HETATM    6  N7  UNL     1     -34.533  14.718  -4.797  1.00 20.00     0.211 N 
HETATM    7  F9  UNL     1     -36.113  16.450  -4.951  1.00 20.00    -0.195 F 
HETATM    8  F10 UNL     1     -32.644  16.061  -4.418  1.00 20.00    -0.169 F 
HETATM    9  F11 UNL     1     -32.638  14.011  -3.668  1.00 20.00    -0.169 F 
ENDROOT
BRANCH   3  10
HETATM   10  C3  UNL     1     -36.831  14.321  -4.226  1.00 20.00     0.312 C 
HETATM   11  O8  UNL     1     -37.808  14.383  -3.487  1.00 20.00    -0.301 OA
ENDBRANCH   3  10
TORSDOF 1
ENDMDL
MODEL 9
REMARK VINA RESULT:      -4.4     12.353     13.691
REMARK  1 active torsions:
REMARK  status: ('A' for Active; 'I' for Inactive)
REMARK    1  A    between atoms: C3_3  and  C4_4 
ROOT
HETATM    1  C1  UNL     1     -33.630  14.584  -3.267  1.00 20.00     0.061 C 
HETATM    2  C2  UNL     1     -32.782  15.437  -3.848  1.00 20.00     0.087 C 
HETATM    3  C4  UNL     1     -35.029  14.898  -3.674  1.00 20.00     0.376 C 
HETATM    4  C5  UNL     1     -33.532  16.405  -4.693  1.00 20.00     0.463 C 
HETATM    5  C6  UNL     1     -35.934  16.910  -4.768  1.00 20.00     0.324 C 
HETATM    6  N7  UNL     1     -34.907  15.882  -4.765  1.00 20.00     0.211 N 
HETATM    7  F9  UNL     1     -35.733  15.393  -2.621  1.00 20.00    -0.195 F 
HETATM    8  F10 UNL     1     -33.489  17.649  -4.149  1.00 20.00    -0.169 F 
HETATM    9  F11 UNL     1     -33.010  16.499  -5.942  1.00 20.00    -0.169 F 
ENDROOT
BRANCH   3  10
HETATM   10  C3  UNL     1     -35.663  13.667  -4.230  1.00 20.00     0.312 C 
HETATM   11  O8  UNL     1     -35.033  12.655  -4.523  1.00 20.00    -0.301 OA
ENDBRANCH   3  10
TORSDOF 1
ENDMDL
