MODEL 1
REMARK VINA RESULT:      -5.0      0.000      0.000
REMARK  1 active torsions:
REMARK  status: ('A' for Active; 'I' for Inactive)
REMARK    1  A    between atoms: C4_4  and  C7_7 
ROOT
HETATM    1  C1  UNL     1     -34.556  15.643  -2.567  1.00 20.00    -0.024 C 
HETATM    2  C2  UNL     1     -35.663  15.338  -3.266  1.00 20.00    -0.013 C 
HETATM    3  C3  UNL     1     -34.504  13.604  -4.399  1.00 20.00     0.140 C 
HETATM    4  C5  UNL     1     -33.194  13.889  -3.657  1.00 20.00     0.088 C 
HETATM    5  C6  UNL     1     -33.363  15.418  -3.480  1.00 20.00     0.027 C 
HETATM    6  C7  UNL     1     -33.974  15.810  -4.840  1.00 20.00     0.074 C 
HETATM    7  C8  UNL     1     -35.225  14.934  -4.655  1.00 20.00     0.045 C 
HETATM    8  C9  UNL     1     -36.245  14.949  -5.762  1.00 20.00     0.029 C 
HETATM    9  O10 UNL     1     -34.910  12.493  -4.704  1.00 20.00    -0.297 OA
ENDROOT
BRANCH   6  10
HETATM   10  C4  UNL     1     -34.197  17.289  -4.998  1.00 20.00     0.237 C 
HETATM   11  O11 UNL     1     -33.298  18.120  -4.918  1.00 20.00    -0.306 OA
ENDBRANCH   6  10
TORSDOF 1
ENDMDL
MODEL 2
REMARK VINA RESULT:      -4.8      1.620      2.782
REMARK  1 active torsions:
REMARK  status: ('A' for Active; 'I' for Inactive)
REMARK    1  A    between atoms: C4_4  and  C7_7 
ROOT
HETATM    1  C1  UNL     1     -35.199  16.395  -4.707  1.00 20.00    -0.024 C 
HETATM    2  C2  UNL     1     -34.055  15.706  -4.864  1.00 20.00    -0.013 C 
HETATM    3  C3  UNL     1     -35.135  13.704  -4.188  1.00 20.00     0.140 C 
HETATM    4  C5  UNL     1     -36.477  14.409  -3.971  1.00 20.00     0.088 C 
HETATM    5  C6  UNL     1     -35.937  15.790  -3.525  1.00 20.00     0.027 C 
HETATM    6  C7  UNL     1     -34.748  15.373  -2.637  1.00 20.00     0.074 C 
HETATM    7  C8  UNL     1     -34.004  14.657  -3.777  1.00 20.00     0.045 C 
HETATM    8  C9  UNL     1     -32.677  14.030  -3.445  1.00 20.00     0.029 C 
HETATM    9  O10 UNL     1     -34.999  12.578  -4.641  1.00 20.00    -0.297 OA
ENDROOT
BRANCH   6  10
HETATM   10  C4  UNL     1     -34.043  16.533  -1.988  1.00 20.00     0.237 C 
HETATM   11  O11 UNL     1     -34.189  16.837  -0.808  1.00 20.00    -0.306 OA
ENDBRANCH   6  10
TORSDOF 1
ENDMDL
MODEL 3
REMARK VINA RESULT:      -4.8      1.645      3.265
REMARK  1 active torsions:
REMARK  status: ('A' for Active; 'I' for Inactive)
REMARK    1  A    between atoms: C4_4  and  C7_7 
ROOT
HETATM    1  C1  UNL     1     -34.768  13.259  -5.004  1.00 20.00    -0.024 C 
HETATM    2  C2  UNL     1     -34.813  14.144  -6.015  1.00 20.00    -0.013 C 
HETATM    3  C3  UNL     1     -33.685  15.758  -4.689  1.00 20.00     0.140 C 
HETATM    4  C5  UNL     1     -33.598  14.819  -3.481  1.00 20.00     0.088 C 
HETATM    5  C6  UNL     1     -34.916  14.037  -3.708  1.00 20.00     0.027 C 
HETATM    6  C7  UNL     1     -35.858  15.168  -4.168  1.00 20.00     0.074 C 
HETATM    7  C8  UNL     1     -35.018  15.514  -5.409  1.00 20.00     0.045 C 
HETATM    8  C9  UNL     1     -35.522  16.622  -6.294  1.00 20.00     0.029 C 
HETATM    9  O10 UNL     1     -32.815  16.545  -5.028  1.00 20.00    -0.297 OA
ENDROOT
BRANCH   6  10
HETATM   10  C4  UNL     1     -37.272  14.716  -4.408  1.00 20.00     0.237 C 
HETATM   11  O11 UNL     1     -38.010  14.303  -3.519  1.00 20.00    -0.306 OA
ENDBRANCH   6  10
TORSDOF 1
ENDMDL
MODEL 4
REMARK VINA RESULT:      -4.7      1.831      3.314
REMARK  1 active torsions:
REMARK  status: ('A' for Active; 'I' for Inactive)
REMARK    1  A    between atoms: C4_4  and  C7_7 
ROOT
HETATM    1  C1  UNL     1     -35.052  13.944  -5.886  1.00 20.00    -0.024 C 
HETATM    2  C2  UNL     1     -34.737  15.246  -5.774  1.00 20.00    -0.013 C 
HETATM    3  C3  UNL     1     -33.413  14.791  -3.857  1.00 20.00     0.140 C 
HETATM    4  C5  UNL     1     -33.727  13.292  -3.901  1.00 20.00     0.088 C 
HETATM    5  C6  UNL     1     -35.161  13.378  -4.480  1.00 20.00     0.027 C 
HETATM    6  C7  UNL     1     -35.714  14.605  -3.728  1.00 20.00     0.074 C 
HETATM    7  C8  UNL     1     -34.660  15.569  -4.299  1.00 20.00     0.045 C 
HETATM    8  C9  UNL     1     -34.744  17.011  -3.874  1.00 20.00     0.029 C 
HETATM    9  O10 UNL     1     -32.334  15.273  -3.548  1.00 20.00    -0.297 OA
ENDROOT
BRANCH   6  10
HETATM   10  C4  UNL     1     -37.153  14.908  -4.041  1.00 20.00     0.237 C 
HETATM   11  O11 UNL     1     -38.085  14.189  -3.693  1.00 20.00    -0.306 OA
ENDBRANCH   6  10
TORSDOF 1
ENDMDL
MODEL 5
REMARK VINA RESULT:      -4.6      1.554      3.309
REMARK  1 active torsions:
REMARK  status: ('A' for Active; 'I' for Inactive)
REMARK    1  A    between atoms: C4_4  and  C7_7 
ROOT
HETATM    1  C1  UNL     1     -33.322  16.358  -4.381  1.00 20.00    -0.024 C 
HETATM    2  C2  UNL     1     -34.566  16.489  -4.873  1.00 20.00    -0.013 C 
HETATM    3  C3  UNL     1     -35.452  16.610  -2.674  1.00 20.00     0.140 C 
HETATM    4  C5  UNL     1     -34.073  16.455  -2.026  1.00 20.00     0.088 C 
HETATM    5  C6  UNL     1     -33.420  15.549  -3.099  1.00 20.00     0.027 C 
HETATM    6  C7  UNL     1     -34.592  14.611  -3.450  1.00 20.00     0.074 C 
HETATM    7  C8  UNL     1     -35.501  15.749  -3.943  1.00 20.00     0.045 C 
HETATM    8  C9  UNL     1     -36.866  15.368  -4.451  1.00 20.00     0.029 C 
HETATM    9  O10 UNL     1     -36.347  17.328  -2.255  1.00 20.00    -0.297 OA
ENDROOT
BRANCH   6  10
HETATM   10  C4  UNL     1     -34.234  13.545  -4.450  1.00 20.00     0.237 C 
HETATM   11  O11 UNL     1     -34.909  12.537  -4.632  1.00 20.00    -0.306 OA
ENDBRANCH   6  10
TORSDOF 1
ENDMDL
MODEL 6
REMARK VINA RESULT:      -4.6      1.280      3.383
REMARK  1 active torsions:
REMARK  status: ('A' for Active; 'I' for Inactive)
REMARK    1  A    between atoms: C4_4  and  C7_7 
ROOT
HETATM    1  C1  UNL     1     -32.927  15.302  -3.664  1.00 20.00    -0.024 C 
HETATM    2  C2  UNL     1     -33.251  16.148  -4.657  1.00 20.00    -0.013 C 
HETATM    3  C3  UNL     1     -35.054  17.007  -3.375  1.00 20.00     0.140 C 
HETATM    4  C5  UNL     1     -34.764  16.072  -2.197  1.00 20.00     0.088 C 
HETATM    5  C6  UNL     1     -34.219  14.863  -2.998  1.00 20.00     0.027 C 
HETATM    6  C7  UNL     1     -35.170  14.856  -4.210  1.00 20.00     0.074 C 
HETATM    7  C8  UNL     1     -34.759  16.261  -4.683  1.00 20.00     0.045 C 
HETATM    8  C9  UNL     1     -35.419  16.789  -5.928  1.00 20.00     0.029 C 
HETATM    9  O10 UNL     1     -35.430  18.165  -3.275  1.00 20.00    -0.297 OA
ENDROOT
BRANCH   6  10
HETATM   10  C4  UNL     1     -34.925  13.719  -5.164  1.00 20.00     0.237 C 
HETATM   11  O11 UNL     1     -34.811  12.550  -4.807  1.00 20.00    -0.306 OA
ENDBRANCH   6  10
TORSDOF 1
ENDMDL
MODEL 7
REMARK VINA RESULT:      -4.6      1.061      3.680
REMARK  1 active torsions:
REMARK  status: ('A' for Active; 'I' for Inactive)
REMARK    1  A    between atoms: C4_4  and  C7_7 
ROOT
HETATM    1  C1  UNL     1     -35.699  15.863  -5.358  1.00 20.00    -0.024 C 
HETATM    2  C2  UNL     1     -35.952  16.245  -4.095  1.00 20.00    -0.013 C 
HETATM    3  C3  UNL     1     -33.806  17.249  -3.939  1.00 20.00     0.140 C 
HETATM    4  C5  UNL     1     -33.428  16.845  -5.367  1.00 20.00     0.088 C 
HETATM    5  C6  UNL     1     -34.222  15.517  -5.444  1.00 20.00     0.027 C 
HETATM    6  C7  UNL     1     -33.987  14.947  -4.031  1.00 20.00     0.074 C 
HETATM    7  C8  UNL     1     -34.659  16.134  -3.319  1.00 20.00     0.045 C 
HETATM    8  C9  UNL     1     -34.724  16.087  -1.816  1.00 20.00     0.029 C 
HETATM    9  O10 UNL     1     -33.498  18.303  -3.403  1.00 20.00    -0.297 OA
ENDROOT
BRANCH   6  10
HETATM   10  C4  UNL     1     -34.600  13.590  -3.817  1.00 20.00     0.237 C 
HETATM   11  O11 UNL     1     -34.549  12.688  -4.647  1.00 20.00    -0.306 OA
ENDBRANCH   6  10
TORSDOF 1
ENDMDL
MODEL 8
REMARK VINA RESULT:      -4.4      1.799      2.879
REMARK  1 active torsions:
REMARK  status: ('A' for Active; 'I' for Inactive)
REMARK    1  A    between atoms: C4_4  and  C7_7 
ROOT
HETATM    1  C1  UNL     1     -34.438  15.428  -6.242  1.00 20.00    -0.024 C 
HETATM    2  C2  UNL     1     -33.642  15.886  -5.260  1.00 20.00    -0.013 C 
HETATM    3  C3  UNL     1     -33.839  13.824  -4.101  1.00 20.00     0.140 C 
HETATM    4  C5  UNL     1     -34.762  13.224  -5.166  1.00 20.00     0.088 C 
HETATM    5  C6  UNL     1     -35.479  14.526  -5.603  1.00 20.00     0.027 C 
HETATM    6  C7  UNL     1     -35.666  15.233  -4.246  1.00 20.00     0.074 C 
HETATM    7  C8  UNL     1     -34.157  15.319  -3.957  1.00 20.00     0.045 C 
HETATM    8  C9  UNL     1     -33.740  15.979  -2.671  1.00 20.00     0.029 C 
HETATM    9  O10 UNL     1     -32.976  13.209  -3.493  1.00 20.00    -0.297 OA
ENDROOT
BRANCH   6  10
HETATM   10  C4  UNL     1     -36.415  16.533  -4.340  1.00 20.00     0.237 C 
HETATM   11  O11 UNL     1     -37.500  16.649  -4.901  1.00 20.00    -0.306 OA
ENDBRANCH   6  10
TORSDOF 1
ENDMDL
MODEL 9
REMARK VINA RESULT:      -4.4      1.764      2.486
REMARK  1 active torsions:
REMARK  status: ('A' for Active; 'I' for Inactive)
REMARK    1  A    between atoms: C4_4  and  C7_7 
ROOT
HETATM    1  C1  UNL     1     -33.392  14.146  -3.771  1.00 20.00    -0.024 C 
HETATM    2  C2  UNL     1     -34.660  13.700  -3.802  1.00 20.00    -0.013 C 
HETATM    3  C3  UNL     1     -35.191  15.245  -5.524  1.00 20.00     0.140 C 
HETATM    4  C5  UNL     1     -33.772  15.822  -5.550  1.00 20.00     0.088 C 
HETATM    5  C6  UNL     1     -33.426  15.639  -4.052  1.00 20.00     0.027 C 
HETATM    6  C7  UNL     1     -34.764  16.017  -3.388  1.00 20.00     0.074 C 
HETATM    7  C8  UNL     1     -35.552  14.889  -4.075  1.00 20.00     0.045 C 
HETATM    8  C9  UNL     1     -37.018  14.778  -3.751  1.00 20.00     0.029 C 
HETATM    9  O10 UNL     1     -35.897  15.074  -6.506  1.00 20.00    -0.297 OA
ENDROOT
BRANCH   6  10
HETATM   10  C4  UNL     1     -34.720  15.997  -1.884  1.00 20.00     0.237 C 
HETATM   11  O11 UNL     1     -34.006  16.741  -1.220  1.00 20.00    -0.306 OA
ENDBRANCH   6  10
TORSDOF 1
ENDMDL
