MODEL 1
REMARK VINA RESULT:      -5.5      0.000      0.000
REMARK  1 active torsions:
REMARK  status: ('A' for Active; 'I' for Inactive)
REMARK    1  A    between atoms: C3_3  and  C6_6 
ROOT
HETATM    1  C1  UNL     1     -35.176   4.554   5.342  1.00 20.00    -0.030 A 
HETATM    2  C2  UNL     1     -35.149   4.985   4.071  1.00 20.00    -0.025 A 
HETATM    3  C4  UNL     1     -34.337   5.464   6.201  1.00 20.00     0.033 A 
HETATM    4  C5  UNL     1     -34.342   6.199   3.874  1.00 20.00     0.024 A 
HETATM    5  C6  UNL     1     -32.855   6.181   4.131  1.00 20.00     0.068 A 
HETATM    6  C7  UNL     1     -33.805   6.522   5.255  1.00 20.00     0.009 A 
ENDROOT
BRANCH   5   7
HETATM    7  C3  UNL     1     -32.023   7.245   3.557  1.00 20.00     0.128 C 
HETATM    8  C8  UNL     1     -32.401   7.734   2.186  1.00 20.00     0.091 C 
HETATM    9  O9  UNL     1     -31.065   7.715   4.169  1.00 20.00    -0.298 OA
ENDBRANCH   5   7
TORSDOF 1
ENDMDL
MODEL 2
REMARK VINA RESULT:      -4.6      0.882      1.629
REMARK  1 active torsions:
REMARK  status: ('A' for Active; 'I' for Inactive)
REMARK    1  A    between atoms: C3_3  and  C6_6 
ROOT
HETATM    1  C1  UNL     1     -35.311   5.177   4.595  1.00 20.00    -0.030 A 
HETATM    2  C2  UNL     1     -34.330   5.721   5.333  1.00 20.00    -0.025 A 
HETATM    3  C4  UNL     1     -34.883   5.121   3.150  1.00 20.00     0.033 A 
HETATM    4  C5  UNL     1     -33.137   6.090   4.555  1.00 20.00     0.024 A 
HETATM    5  C6  UNL     1     -33.219   7.150   3.484  1.00 20.00     0.068 A 
HETATM    6  C7  UNL     1     -33.484   5.705   3.129  1.00 20.00     0.009 A 
ENDROOT
BRANCH   5   7
HETATM    7  C3  UNL     1     -31.980   7.779   3.013  1.00 20.00     0.128 C 
HETATM    8  C8  UNL     1     -31.997   8.351   1.622  1.00 20.00     0.091 C 
HETATM    9  O9  UNL     1     -30.977   7.838   3.723  1.00 20.00    -0.298 OA
ENDBRANCH   5   7
TORSDOF 1
ENDMDL
MODEL 3
REMARK VINA RESULT:      -4.4     11.648     12.406
REMARK  1 active torsions:
REMARK  status: ('A' for Active; 'I' for Inactive)
REMARK    1  A    between atoms: C3_3  and  C6_6 
ROOT
HETATM    1  C1  UNL     1     -33.881  17.280  -1.642  1.00 20.00    -0.030 A 
HETATM    2  C2  UNL     1     -34.682  16.227  -1.411  1.00 20.00    -0.025 A 
HETATM    3  C4  UNL     1     -33.675  17.441  -3.127  1.00 20.00     0.033 A 
HETATM    4  C5  UNL     1     -35.135  15.548  -2.635  1.00 20.00     0.024 A 
HETATM    5  C6  UNL     1     -34.142  14.872  -3.549  1.00 20.00     0.068 A 
HETATM    6  C7  UNL     1     -34.485  16.328  -3.762  1.00 20.00     0.009 A 
ENDROOT
BRANCH   5   7
HETATM    7  C3  UNL     1     -34.628  13.880  -4.515  1.00 20.00     0.128 C 
HETATM    8  C8  UNL     1     -34.743  14.329  -5.946  1.00 20.00     0.091 C 
HETATM    9  O9  UNL     1     -34.926  12.737  -4.171  1.00 20.00    -0.298 OA
ENDBRANCH   5   7
TORSDOF 1
ENDMDL
MODEL 4
REMARK VINA RESULT:      -4.3     11.456     12.054
REMARK  1 active torsions:
REMARK  status: ('A' for Active; 'I' for Inactive)
REMARK    1  A    between atoms: C3_3  and  C6_6 
ROOT
HETATM    1  C1  UNL     1     -34.874  13.330  -4.230  1.00 20.00    -0.030 A 
HETATM    2  C2  UNL     1     -33.680  13.820  -3.862  1.00 20.00    -0.025 A 
HETATM    3  C4  UNL     1     -35.923  14.404  -4.094  1.00 20.00     0.033 A 
HETATM    4  C5  UNL     1     -33.719  15.232  -3.452  1.00 20.00     0.024 A 
HETATM    5  C6  UNL     1     -34.512  15.656  -2.240  1.00 20.00     0.068 A 
HETATM    6  C7  UNL     1     -35.176  15.626  -3.597  1.00 20.00     0.009 A 
ENDROOT
BRANCH   5   7
HETATM    7  C3  UNL     1     -34.221  16.955  -1.622  1.00 20.00     0.128 C 
HETATM    8  C8  UNL     1     -34.657  17.137  -0.194  1.00 20.00     0.091 C 
HETATM    9  O9  UNL     1     -33.648  17.851  -2.241  1.00 20.00    -0.298 OA
ENDBRANCH   5   7
TORSDOF 1
ENDMDL
MODEL 5
REMARK VINA RESULT:      -4.2     11.455     12.479
REMARK  1 active torsions:
REMARK  status: ('A' for Active; 'I' for Inactive)
REMARK    1  A    between atoms: C3_3  and  C6_6 
ROOT
HETATM    1  C1  UNL     1     -32.800  14.785  -3.555  1.00 20.00    -0.030 A 
HETATM    2  C2  UNL     1     -33.529  13.732  -3.958  1.00 20.00    -0.025 A 
HETATM    3  C4  UNL     1     -33.713  15.839  -2.981  1.00 20.00     0.033 A 
HETATM    4  C5  UNL     1     -34.973  13.885  -3.723  1.00 20.00     0.024 A 
HETATM    5  C6  UNL     1     -35.752  14.971  -4.424  1.00 20.00     0.068 A 
HETATM    6  C7  UNL     1     -35.108  15.256  -3.088  1.00 20.00     0.009 A 
ENDROOT
BRANCH   5   7
HETATM    7  C3  UNL     1     -37.213  14.860  -4.498  1.00 20.00     0.128 C 
HETATM    8  C8  UNL     1     -37.895  15.625  -5.599  1.00 20.00     0.091 C 
HETATM    9  O9  UNL     1     -37.849  14.175  -3.699  1.00 20.00    -0.298 OA
ENDBRANCH   5   7
TORSDOF 1
ENDMDL
MODEL 6
REMARK VINA RESULT:      -4.1      1.165      1.828
REMARK  1 active torsions:
REMARK  status: ('A' for Active; 'I' for Inactive)
REMARK    1  A    between atoms: C3_3  and  C6_6 
ROOT
HETATM    1  C1  UNL     1     -35.304   5.038   5.616  1.00 20.00    -0.030 A 
HETATM    2  C2  UNL     1     -34.361   5.868   6.089  1.00 20.00    -0.025 A 
HETATM    3  C4  UNL     1     -34.982   4.671   4.189  1.00 20.00     0.033 A 
HETATM    4  C5  UNL     1     -33.297   6.171   5.120  1.00 20.00     0.024 A 
HETATM    5  C6  UNL     1     -33.613   6.907   3.841  1.00 20.00     0.068 A 
HETATM    6  C7  UNL     1     -33.690   5.399   3.875  1.00 20.00     0.009 A 
ENDROOT
BRANCH   5   7
HETATM    7  C3  UNL     1     -32.519   7.545   3.100  1.00 20.00     0.128 C 
HETATM    8  C8  UNL     1     -31.192   7.640   3.802  1.00 20.00     0.091 C 
HETATM    9  O9  UNL     1     -32.678   7.980   1.961  1.00 20.00    -0.298 OA
ENDBRANCH   5   7
TORSDOF 1
ENDMDL
MODEL 7
REMARK VINA RESULT:      -4.0      1.947      3.918
REMARK  1 active torsions:
REMARK  status: ('A' for Active; 'I' for Inactive)
REMARK    1  A    between atoms: C3_3  and  C6_6 
ROOT
HETATM    1  C1  UNL     1     -31.847   7.930   2.474  1.00 20.00    -0.030 A 
HETATM    2  C2  UNL     1     -32.637   6.968   1.969  1.00 20.00    -0.025 A 
HETATM    3  C4  UNL     1     -31.677   7.715   3.957  1.00 20.00     0.033 A 
HETATM    4  C5  UNL     1     -33.095   5.991   2.969  1.00 20.00     0.024 A 
HETATM    5  C6  UNL     1     -33.980   6.423   4.113  1.00 20.00     0.068 A 
HETATM    6  C7  UNL     1     -32.478   6.467   4.271  1.00 20.00     0.009 A 
ENDROOT
BRANCH   5   7
HETATM    7  C3  UNL     1     -34.741   5.404   4.845  1.00 20.00     0.128 C 
HETATM    8  C8  UNL     1     -34.561   5.368   6.338  1.00 20.00     0.091 C 
HETATM    9  O9  UNL     1     -35.489   4.618   4.266  1.00 20.00    -0.298 OA
ENDBRANCH   5   7
TORSDOF 1
ENDMDL
MODEL 8
REMARK VINA RESULT:      -4.0     11.450     13.335
REMARK  1 active torsions:
REMARK  status: ('A' for Active; 'I' for Inactive)
REMARK    1  A    between atoms: C3_3  and  C6_6 
ROOT
HETATM    1  C1  UNL     1     -36.231  14.857  -7.885  1.00 20.00    -0.030 A 
HETATM    2  C2  UNL     1     -34.899  14.769  -7.737  1.00 20.00    -0.025 A 
HETATM    3  C4  UNL     1     -36.870  15.130  -6.547  1.00 20.00     0.033 A 
HETATM    4  C5  UNL     1     -34.442  14.970  -6.353  1.00 20.00     0.024 A 
HETATM    5  C6  UNL     1     -34.848  14.008  -5.265  1.00 20.00     0.068 A 
HETATM    6  C7  UNL     1     -35.717  15.206  -5.566  1.00 20.00     0.009 A 
ENDROOT
BRANCH   5   7
HETATM    7  C3  UNL     1     -34.079  13.986  -4.015  1.00 20.00     0.128 C 
HETATM    8  C8  UNL     1     -34.332  15.107  -3.045  1.00 20.00     0.091 C 
HETATM    9  O9  UNL     1     -33.267  13.094  -3.772  1.00 20.00    -0.298 OA
ENDBRANCH   5   7
TORSDOF 1
ENDMDL
MODEL 9
REMARK VINA RESULT:      -4.0      9.713     11.024
REMARK  1 active torsions:
REMARK  status: ('A' for Active; 'I' for Inactive)
REMARK    1  A    between atoms: C3_3  and  C6_6 
ROOT
HETATM    1  C1  UNL     1     -40.852   6.947  -0.806  1.00 20.00    -0.030 A 
HETATM    2  C2  UNL     1     -40.952   5.791  -0.131  1.00 20.00    -0.025 A 
HETATM    3  C4  UNL     1     -41.696   6.877  -2.054  1.00 20.00     0.033 A 
HETATM    4  C5  UNL     1     -41.841   4.807  -0.768  1.00 20.00     0.024 A 
HETATM    5  C6  UNL     1     -41.508   4.240  -2.126  1.00 20.00     0.068 A 
HETATM    6  C7  UNL     1     -42.333   5.502  -2.024  1.00 20.00     0.009 A 
ENDROOT
BRANCH   5   7
HETATM    7  C3  UNL     1     -42.162   2.998  -2.556  1.00 20.00     0.128 C 
HETATM    8  C8  UNL     1     -41.418   2.151  -3.552  1.00 20.00     0.091 C 
HETATM    9  O9  UNL     1     -43.264   2.666  -2.121  1.00 20.00    -0.298 OA
ENDBRANCH   5   7
TORSDOF 1
ENDMDL
