MODEL 1
REMARK VINA RESULT:      -4.7      0.000      0.000
REMARK  1 active torsions:
REMARK  status: ('A' for Active; 'I' for Inactive)
REMARK    1  A    between atoms: C3_3  and  C7_7 
ROOT
HETATM    1  C1  UNL     1     -33.549  13.720  -3.868  1.00 20.00    -0.025 C 
HETATM    2  C2  UNL     1     -34.875  13.586  -4.016  1.00 20.00    -0.020 C 
HETATM    3  C4  UNL     1     -33.541  15.974  -4.881  1.00 20.00     0.021 C 
HETATM    4  C5  UNL     1     -34.531  15.503  -2.767  1.00 20.00     0.022 C 
HETATM    5  C6  UNL     1     -33.276  15.178  -3.584  1.00 20.00     0.010 C 
HETATM    6  C7  UNL     1     -35.084  15.862  -5.046  1.00 20.00     0.067 C 
HETATM    7  C8  UNL     1     -35.489  14.963  -3.844  1.00 20.00    -0.016 C 
HETATM    8  C10 UNL     1     -36.949  14.989  -3.450  1.00 20.00     0.020 C 
ENDROOT
BRANCH   6   9
HETATM    9  C3  UNL     1     -35.473  15.301  -6.380  1.00 20.00     0.128 C 
HETATM   10  C9  UNL     1     -34.353  14.994  -7.337  1.00 20.00     0.091 C 
HETATM   11  O11 UNL     1     -36.649  15.098  -6.678  1.00 20.00    -0.298 OA
ENDBRANCH   6   9
TORSDOF 1
ENDMDL
MODEL 2
REMARK VINA RESULT:      -4.7      1.707      2.593
REMARK  1 active torsions:
REMARK  status: ('A' for Active; 'I' for Inactive)
REMARK    1  A    between atoms: C3_3  and  C7_7 
ROOT
HETATM    1  C1  UNL     1     -33.860  16.641  -2.165  1.00 20.00    -0.025 C 
HETATM    2  C2  UNL     1     -34.916  15.816  -2.116  1.00 20.00    -0.020 C 
HETATM    3  C4  UNL     1     -33.356  16.054  -4.513  1.00 20.00     0.021 C 
HETATM    4  C5  UNL     1     -35.291  17.282  -3.866  1.00 20.00     0.022 C 
HETATM    5  C6  UNL     1     -33.790  17.197  -3.568  1.00 20.00     0.010 C 
HETATM    6  C7  UNL     1     -34.590  15.106  -4.499  1.00 20.00     0.067 C 
HETATM    7  C8  UNL     1     -35.547  15.810  -3.497  1.00 20.00    -0.016 C 
HETATM    8  C10 UNL     1     -37.001  15.396  -3.555  1.00 20.00     0.020 C 
ENDROOT
BRANCH   6   9
HETATM    9  C3  UNL     1     -34.226  13.706  -4.107  1.00 20.00     0.128 C 
HETATM   10  C9  UNL     1     -32.851  13.502  -3.529  1.00 20.00     0.091 C 
HETATM   11  O11 UNL     1     -35.011  12.771  -4.247  1.00 20.00    -0.298 OA
ENDBRANCH   6   9
TORSDOF 1
ENDMDL
MODEL 3
REMARK VINA RESULT:      -4.6      1.386      2.877
REMARK  1 active torsions:
REMARK  status: ('A' for Active; 'I' for Inactive)
REMARK    1  A    between atoms: C3_3  and  C7_7 
ROOT
HETATM    1  C1  UNL     1     -33.803  16.687  -4.785  1.00 20.00    -0.025 C 
HETATM    2  C2  UNL     1     -34.414  15.622  -5.323  1.00 20.00    -0.020 C 
HETATM    3  C4  UNL     1     -34.578  16.133  -2.504  1.00 20.00     0.021 C 
HETATM    4  C5  UNL     1     -32.984  14.820  -3.690  1.00 20.00     0.022 C 
HETATM    5  C6  UNL     1     -33.333  16.285  -3.407  1.00 20.00     0.010 C 
HETATM    6  C7  UNL     1     -35.279  14.874  -3.091  1.00 20.00     0.067 C 
HETATM    7  C8  UNL     1     -34.365  14.507  -4.294  1.00 20.00    -0.016 C 
HETATM    8  C10 UNL     1     -34.504  13.102  -4.837  1.00 20.00     0.020 C 
ENDROOT
BRANCH   6   9
HETATM    9  C3  UNL     1     -36.703  15.143  -3.472  1.00 20.00     0.128 C 
HETATM   10  C9  UNL     1     -37.178  16.566  -3.351  1.00 20.00     0.091 C 
HETATM   11  O11 UNL     1     -37.446  14.247  -3.868  1.00 20.00    -0.298 OA
ENDBRANCH   6   9
TORSDOF 1
ENDMDL
MODEL 4
REMARK VINA RESULT:      -4.6     11.179     12.551
REMARK  1 active torsions:
REMARK  status: ('A' for Active; 'I' for Inactive)
REMARK    1  A    between atoms: C3_3  and  C7_7 
ROOT
HETATM    1  C1  UNL     1     -42.446   5.765   0.427  1.00 20.00    -0.025 C 
HETATM    2  C2  UNL     1     -43.121   6.312  -0.595  1.00 20.00    -0.020 C 
HETATM    3  C4  UNL     1     -40.882   4.585  -1.079  1.00 20.00     0.021 C 
HETATM    4  C5  UNL     1     -40.910   6.953  -0.832  1.00 20.00     0.022 C 
HETATM    5  C6  UNL     1     -40.997   5.675   0.009  1.00 20.00     0.010 C 
HETATM    6  C7  UNL     1     -41.626   5.222  -2.288  1.00 20.00     0.067 C 
HETATM    7  C8  UNL     1     -42.121   6.576  -1.705  1.00 20.00    -0.016 C 
HETATM    8  C10 UNL     1     -42.517   7.633  -2.712  1.00 20.00     0.020 C 
ENDROOT
BRANCH   6   9
HETATM    9  C3  UNL     1     -42.728   4.346  -2.801  1.00 20.00     0.128 C 
HETATM   10  C9  UNL     1     -42.952   3.046  -2.076  1.00 20.00     0.091 C 
HETATM   11  O11 UNL     1     -43.417   4.673  -3.766  1.00 20.00    -0.298 OA
ENDBRANCH   6   9
TORSDOF 1
ENDMDL
MODEL 5
REMARK VINA RESULT:      -4.6      1.536      3.535
REMARK  1 active torsions:
REMARK  status: ('A' for Active; 'I' for Inactive)
REMARK    1  A    between atoms: C3_3  and  C7_7 
ROOT
HETATM    1  C1  UNL     1     -35.760  14.773  -7.359  1.00 20.00    -0.025 C 
HETATM    2  C2  UNL     1     -34.498  14.946  -6.941  1.00 20.00    -0.020 C 
HETATM    3  C4  UNL     1     -36.652  14.761  -5.055  1.00 20.00     0.021 C 
HETATM    4  C5  UNL     1     -35.735  16.703  -6.084  1.00 20.00     0.022 C 
HETATM    5  C6  UNL     1     -36.656  15.520  -6.401  1.00 20.00     0.010 C 
HETATM    6  C7  UNL     1     -35.203  14.988  -4.535  1.00 20.00     0.067 C 
HETATM    7  C8  UNL     1     -34.552  15.801  -5.689  1.00 20.00    -0.016 C 
HETATM    8  C10 UNL     1     -33.284  16.551  -5.346  1.00 20.00     0.020 C 
ENDROOT
BRANCH   6   9
HETATM    9  C3  UNL     1     -34.501  13.698  -4.233  1.00 20.00     0.128 C 
HETATM   10  C9  UNL     1     -33.138  13.800  -3.603  1.00 20.00     0.091 C 
HETATM   11  O11 UNL     1     -35.015  12.609  -4.485  1.00 20.00    -0.298 OA
ENDBRANCH   6   9
TORSDOF 1
ENDMDL
MODEL 6
REMARK VINA RESULT:      -4.6      2.081      3.705
REMARK  1 active torsions:
REMARK  status: ('A' for Active; 'I' for Inactive)
REMARK    1  A    between atoms: C3_3  and  C7_7 
ROOT
HETATM    1  C1  UNL     1     -33.640  13.872  -3.565  1.00 20.00    -0.025 C 
HETATM    2  C2  UNL     1     -32.976  14.986  -3.905  1.00 20.00    -0.020 C 
HETATM    3  C4  UNL     1     -35.739  15.106  -3.143  1.00 20.00     0.021 C 
HETATM    4  C5  UNL     1     -34.803  14.838  -5.316  1.00 20.00     0.022 C 
HETATM    5  C6  UNL     1     -35.065  14.039  -4.036  1.00 20.00     0.010 C 
HETATM    6  C7  UNL     1     -35.006  16.415  -3.556  1.00 20.00     0.067 C 
HETATM    7  C8  UNL     1     -33.965  15.908  -4.593  1.00 20.00    -0.016 C 
HETATM    8  C10 UNL     1     -33.367  16.955  -5.506  1.00 20.00     0.020 C 
ENDROOT
BRANCH   6   9
HETATM    9  C3  UNL     1     -34.397  17.118  -2.380  1.00 20.00     0.128 C 
HETATM   10  C9  UNL     1     -34.639  16.506  -1.027  1.00 20.00     0.091 C 
HETATM   11  O11 UNL     1     -33.730  18.142  -2.515  1.00 20.00    -0.298 OA
ENDBRANCH   6   9
TORSDOF 1
ENDMDL
MODEL 7
REMARK VINA RESULT:      -4.4      1.767      3.283
REMARK  1 active torsions:
REMARK  status: ('A' for Active; 'I' for Inactive)
REMARK    1  A    between atoms: C3_3  and  C7_7 
ROOT
HETATM    1  C1  UNL     1     -34.447  14.859  -5.831  1.00 20.00    -0.025 C 
HETATM    2  C2  UNL     1     -35.383  15.595  -5.215  1.00 20.00    -0.020 C 
HETATM    3  C4  UNL     1     -33.509  14.044  -3.694  1.00 20.00     0.021 C 
HETATM    4  C5  UNL     1     -35.662  13.415  -4.493  1.00 20.00     0.022 C 
HETATM    5  C6  UNL     1     -34.229  13.620  -4.994  1.00 20.00     0.010 C 
HETATM    6  C7  UNL     1     -34.599  14.866  -2.948  1.00 20.00     0.067 C 
HETATM    7  C8  UNL     1     -35.783  14.851  -3.954  1.00 20.00    -0.016 C 
HETATM    8  C10 UNL     1     -37.145  15.194  -3.391  1.00 20.00     0.020 C 
ENDROOT
BRANCH   6   9
HETATM    9  C3  UNL     1     -34.124  16.243  -2.591  1.00 20.00     0.128 C 
HETATM   10  C9  UNL     1     -34.507  16.759  -1.230  1.00 20.00     0.091 C 
HETATM   11  O11 UNL     1     -33.454  16.917  -3.371  1.00 20.00    -0.298 OA
ENDBRANCH   6   9
TORSDOF 1
ENDMDL
MODEL 8
REMARK VINA RESULT:      -4.3      1.560      2.474
REMARK  1 active torsions:
REMARK  status: ('A' for Active; 'I' for Inactive)
REMARK    1  A    between atoms: C3_3  and  C7_7 
ROOT
HETATM    1  C1  UNL     1     -36.351  14.184  -4.085  1.00 20.00    -0.025 C 
HETATM    2  C2  UNL     1     -35.942  15.292  -3.450  1.00 20.00    -0.020 C 
HETATM    3  C4  UNL     1     -34.570  14.355  -5.790  1.00 20.00     0.021 C 
HETATM    4  C5  UNL     1     -34.138  13.845  -3.504  1.00 20.00     0.022 C 
HETATM    5  C6  UNL     1     -35.120  13.498  -4.628  1.00 20.00     0.010 C 
HETATM    6  C7  UNL     1     -34.053  15.630  -5.064  1.00 20.00     0.067 C 
HETATM    7  C8  UNL     1     -34.432  15.354  -3.581  1.00 20.00    -0.016 C 
HETATM    8  C10 UNL     1     -33.713  16.183  -2.541  1.00 20.00     0.020 C 
ENDROOT
BRANCH   6   9
HETATM    9  C3  UNL     1     -34.658  16.884  -5.619  1.00 20.00     0.128 C 
HETATM   10  C9  UNL     1     -35.604  16.722  -6.778  1.00 20.00     0.091 C 
HETATM   11  O11 UNL     1     -34.396  17.990  -5.150  1.00 20.00    -0.298 OA
ENDBRANCH   6   9
TORSDOF 1
ENDMDL
MODEL 9
REMARK VINA RESULT:      -4.3      1.470      2.756
REMARK  1 active torsions:
REMARK  status: ('A' for Active; 'I' for Inactive)
REMARK    1  A    between atoms: C3_3  and  C7_7 
ROOT
HETATM    1  C1  UNL     1     -34.400  15.705  -6.802  1.00 20.00    -0.025 C 
HETATM    2  C2  UNL     1     -34.532  14.551  -6.132  1.00 20.00    -0.020 C 
HETATM    3  C4  UNL     1     -35.422  17.022  -4.977  1.00 20.00     0.021 C 
HETATM    4  C5  UNL     1     -33.294  15.970  -4.787  1.00 20.00     0.022 C 
HETATM    5  C6  UNL     1     -34.125  16.786  -5.783  1.00 20.00     0.010 C 
HETATM    6  C7  UNL     1     -35.567  15.705  -4.161  1.00 20.00     0.067 C 
HETATM    7  C8  UNL     1     -34.357  14.864  -4.657  1.00 20.00    -0.016 C 
HETATM    8  C10 UNL     1     -33.945  13.702  -3.781  1.00 20.00     0.020 C 
ENDROOT
BRANCH   6   9
HETATM    9  C3  UNL     1     -36.894  15.045  -4.381  1.00 20.00     0.128 C 
HETATM   10  C9  UNL     1     -37.825  15.707  -5.361  1.00 20.00     0.091 C 
HETATM   11  O11 UNL     1     -37.207  14.011  -3.793  1.00 20.00    -0.298 OA
ENDBRANCH   6   9
TORSDOF 1
ENDMDL
