MODEL 1
REMARK VINA RESULT:      -4.5      0.000      0.000
REMARK  0 active torsions:
REMARK  status: ('A' for Active; 'I' for Inactive)
ROOT
HETATM    1  C1  UNL     1     -34.637  16.098  -3.012  1.00 20.00    -0.056 A 
HETATM    2  C2  UNL     1     -34.280  15.542  -5.235  1.00 20.00     0.087 A 
HETATM    3  C3  UNL     1     -34.671  16.121  -1.674  1.00 20.00     0.017 C 
HETATM    4  C4  UNL     1     -35.266  17.167  -3.892  1.00 20.00     0.158 A 
HETATM    5  C5  UNL     1     -35.225  17.134  -6.550  1.00 20.00     0.144 A 
HETATM    6  C6  UNL     1     -34.552  16.032  -7.414  1.00 20.00     0.141 A 
HETATM    7  C7  UNL     1     -33.983  15.024  -3.896  1.00 20.00     0.035 A 
HETATM    8  C8  UNL     1     -34.634  13.652  -3.698  1.00 20.00     0.028 C 
HETATM    9  C9  UNL     1     -32.470  14.954  -3.676  1.00 20.00     0.028 C 
HETATM   10  N10 UNL     1     -34.951  16.664  -5.210  1.00 20.00    -0.365 N 
HETATM   11  N11 UNL     1     -33.994  15.079  -6.428  1.00 20.00    -0.377 N 
HETATM   12  H26 UNL     1     -33.478  14.218  -6.563  1.00 20.00     0.160 HD
ENDROOT
TORSDOF 0
ENDMDL
MODEL 2
REMARK VINA RESULT:      -4.5      1.656      3.670
REMARK  0 active torsions:
REMARK  status: ('A' for Active; 'I' for Inactive)
ROOT
HETATM    1  C1  UNL     1     -34.391  15.450  -5.627  1.00 20.00    -0.056 A 
HETATM    2  C2  UNL     1     -34.977  15.623  -3.390  1.00 20.00     0.087 A 
HETATM    3  C3  UNL     1     -34.298  15.102  -6.916  1.00 20.00     0.017 C 
HETATM    4  C4  UNL     1     -33.531  16.523  -4.977  1.00 20.00     0.158 A 
HETATM    5  C5  UNL     1     -33.688  17.219  -2.416  1.00 20.00     0.144 A 
HETATM    6  C6  UNL     1     -34.670  16.598  -1.385  1.00 20.00     0.141 A 
HETATM    7  C7  UNL     1     -35.349  14.856  -4.582  1.00 20.00     0.035 A 
HETATM    8  C8  UNL     1     -35.089  13.363  -4.359  1.00 20.00     0.028 C 
HETATM    9  C9  UNL     1     -36.813  15.113  -4.945  1.00 20.00     0.028 C 
HETATM   10  N10 UNL     1     -34.024  16.490  -3.618  1.00 20.00    -0.365 N 
HETATM   11  N11 UNL     1     -35.426  15.588  -2.158  1.00 20.00    -0.377 N 
HETATM   12  H26 UNL     1     -36.162  14.954  -1.871  1.00 20.00     0.160 HD
ENDROOT
TORSDOF 0
ENDMDL
MODEL 3
REMARK VINA RESULT:      -4.4      2.178      3.616
REMARK  0 active torsions:
REMARK  status: ('A' for Active; 'I' for Inactive)
ROOT
HETATM    1  C1  UNL     1     -34.314  14.769  -3.544  1.00 20.00    -0.056 A 
HETATM    2  C2  UNL     1     -36.296  15.926  -3.210  1.00 20.00     0.087 A 
HETATM    3  C3  UNL     1     -33.033  14.387  -3.592  1.00 20.00     0.017 C 
HETATM    4  C4  UNL     1     -35.468  13.924  -4.061  1.00 20.00     0.158 A 
HETATM    5  C5  UNL     1     -38.019  14.668  -3.990  1.00 20.00     0.144 A 
HETATM    6  C6  UNL     1     -38.536  16.014  -3.409  1.00 20.00     0.141 A 
HETATM    7  C7  UNL     1     -34.858  16.091  -2.978  1.00 20.00     0.035 A 
HETATM    8  C8  UNL     1     -34.329  17.300  -3.754  1.00 20.00     0.028 C 
HETATM    9  C9  UNL     1     -34.573  16.227  -1.481  1.00 20.00     0.028 C 
HETATM   10  N10 UNL     1     -36.594  14.786  -3.777  1.00 20.00    -0.365 N 
HETATM   11  N11 UNL     1     -37.314  16.713  -2.952  1.00 20.00    -0.377 N 
HETATM   12  H26 UNL     1     -37.198  17.619  -2.515  1.00 20.00     0.160 HD
ENDROOT
TORSDOF 0
ENDMDL
MODEL 4
REMARK VINA RESULT:      -4.3      1.464      1.464
REMARK  0 active torsions:
REMARK  status: ('A' for Active; 'I' for Inactive)
ROOT
HETATM    1  C1  UNL     1     -35.096  15.697  -3.149  1.00 20.00    -0.056 A 
HETATM    2  C2  UNL     1     -35.037  15.017  -5.365  1.00 20.00     0.087 A 
HETATM    3  C3  UNL     1     -34.796  15.996  -1.880  1.00 20.00     0.017 C 
HETATM    4  C4  UNL     1     -36.481  15.873  -3.753  1.00 20.00     0.158 A 
HETATM    5  C5  UNL     1     -37.106  15.272  -6.266  1.00 20.00     0.144 A 
HETATM    6  C6  UNL     1     -36.111  14.705  -7.317  1.00 20.00     0.141 A 
HETATM    7  C7  UNL     1     -34.139  15.134  -4.212  1.00 20.00     0.035 A 
HETATM    8  C8  UNL     1     -33.598  13.758  -3.815  1.00 20.00     0.028 C 
HETATM    9  C9  UNL     1     -33.000  16.108  -4.521  1.00 20.00     0.028 C 
HETATM   10  N10 UNL     1     -36.256  15.409  -5.104  1.00 20.00    -0.365 N 
HETATM   11  N11 UNL     1     -34.828  14.593  -6.589  1.00 20.00    -0.377 N 
HETATM   12  H26 UNL     1     -33.921  14.265  -6.899  1.00 20.00     0.160 HD
ENDROOT
TORSDOF 0
ENDMDL
MODEL 5
REMARK VINA RESULT:      -4.3      1.322      1.728
REMARK  0 active torsions:
REMARK  status: ('A' for Active; 'I' for Inactive)
ROOT
HETATM    1  C1  UNL     1     -34.843  15.823  -2.970  1.00 20.00    -0.056 A 
HETATM    2  C2  UNL     1     -34.380  15.433  -5.208  1.00 20.00     0.087 A 
HETATM    3  C3  UNL     1     -34.781  16.163  -1.677  1.00 20.00     0.017 C 
HETATM    4  C4  UNL     1     -36.073  15.216  -3.626  1.00 20.00     0.158 A 
HETATM    5  C5  UNL     1     -36.214  14.520  -6.188  1.00 20.00     0.144 A 
HETATM    6  C6  UNL     1     -35.062  14.684  -7.217  1.00 20.00     0.141 A 
HETATM    7  C7  UNL     1     -33.723  15.971  -4.013  1.00 20.00     0.035 A 
HETATM    8  C8  UNL     1     -32.498  15.127  -3.653  1.00 20.00     0.028 C 
HETATM    9  C9  UNL     1     -33.340  17.436  -4.229  1.00 20.00     0.028 C 
HETATM   10  N10 UNL     1     -35.608  15.045  -4.984  1.00 20.00    -0.365 N 
HETATM   11  N11 UNL     1     -33.953  15.278  -6.439  1.00 20.00    -0.377 N 
HETATM   12  H26 UNL     1     -33.017  15.545  -6.723  1.00 20.00     0.160 HD
ENDROOT
TORSDOF 0
ENDMDL
MODEL 6
REMARK VINA RESULT:      -4.2      1.259      2.577
REMARK  0 active torsions:
REMARK  status: ('A' for Active; 'I' for Inactive)
ROOT
HETATM    1  C1  UNL     1     -34.525  14.275  -4.988  1.00 20.00    -0.056 A 
HETATM    2  C2  UNL     1     -33.861  16.495  -4.900  1.00 20.00     0.087 A 
HETATM    3  C3  UNL     1     -34.783  12.991  -4.714  1.00 20.00     0.017 C 
HETATM    4  C4  UNL     1     -34.834  14.933  -6.324  1.00 20.00     0.158 A 
HETATM    5  C5  UNL     1     -34.316  17.477  -6.897  1.00 20.00     0.144 A 
HETATM    6  C6  UNL     1     -33.668  18.494  -5.917  1.00 20.00     0.141 A 
HETATM    7  C7  UNL     1     -33.884  15.305  -4.044  1.00 20.00     0.035 A 
HETATM    8  C8  UNL     1     -32.460  14.904  -3.649  1.00 20.00     0.028 C 
HETATM    9  C9  UNL     1     -34.750  15.556  -2.807  1.00 20.00     0.028 C 
HETATM   10  N10 UNL     1     -34.363  16.279  -6.088  1.00 20.00    -0.365 N 
HETATM   11  N11 UNL     1     -33.430  17.715  -4.681  1.00 20.00    -0.377 N 
HETATM   12  H26 UNL     1     -33.023  17.992  -3.795  1.00 20.00     0.160 HD
ENDROOT
TORSDOF 0
ENDMDL
MODEL 7
REMARK VINA RESULT:      -4.2      1.636      3.699
REMARK  0 active torsions:
REMARK  status: ('A' for Active; 'I' for Inactive)
ROOT
HETATM    1  C1  UNL     1     -34.468  16.999  -6.487  1.00 20.00    -0.056 A 
HETATM    2  C2  UNL     1     -34.415  14.951  -5.400  1.00 20.00     0.087 A 
HETATM    3  C3  UNL     1     -34.734  18.018  -7.312  1.00 20.00     0.017 C 
HETATM    4  C4  UNL     1     -33.458  17.073  -5.352  1.00 20.00     0.158 A 
HETATM    5  C5  UNL     1     -32.902  15.057  -3.709  1.00 20.00     0.144 A 
HETATM    6  C6  UNL     1     -33.566  13.654  -3.769  1.00 20.00     0.141 A 
HETATM    7  C7  UNL     1     -35.104  15.600  -6.520  1.00 20.00     0.035 A 
HETATM    8  C8  UNL     1     -34.798  14.868  -7.830  1.00 20.00     0.028 C 
HETATM    9  C9  UNL     1     -36.610  15.656  -6.258  1.00 20.00     0.028 C 
HETATM   10  N10 UNL     1     -33.559  15.739  -4.802  1.00 20.00    -0.365 N 
HETATM   11  N11 UNL     1     -34.509  13.739  -4.907  1.00 20.00    -0.377 N 
HETATM   12  H26 UNL     1     -35.140  13.047  -5.293  1.00 20.00     0.160 HD
ENDROOT
TORSDOF 0
ENDMDL
MODEL 8
REMARK VINA RESULT:      -4.1      2.303      3.114
REMARK  0 active torsions:
REMARK  status: ('A' for Active; 'I' for Inactive)
ROOT
HETATM    1  C1  UNL     1     -36.398  16.718  -2.817  1.00 20.00    -0.056 A 
HETATM    2  C2  UNL     1     -34.581  15.333  -3.210  1.00 20.00     0.087 A 
HETATM    3  C3  UNL     1     -37.206  17.712  -2.430  1.00 20.00     0.017 C 
HETATM    4  C4  UNL     1     -36.872  15.494  -3.585  1.00 20.00     0.158 A 
HETATM    5  C5  UNL     1     -35.289  13.501  -4.351  1.00 20.00     0.144 A 
HETATM    6  C6  UNL     1     -33.759  13.429  -4.085  1.00 20.00     0.141 A 
HETATM    7  C7  UNL     1     -34.884  16.616  -2.570  1.00 20.00     0.035 A 
HETATM    8  C8  UNL     1     -34.556  16.557  -1.075  1.00 20.00     0.028 C 
HETATM    9  C9  UNL     1     -34.120  17.749  -3.259  1.00 20.00     0.028 C 
HETATM   10  N10 UNL     1     -35.634  14.763  -3.735  1.00 20.00    -0.365 N 
HETATM   11  N11 UNL     1     -33.455  14.672  -3.341  1.00 20.00    -0.377 N 
HETATM   12  H26 UNL     1     -32.579  15.021  -2.972  1.00 20.00     0.160 HD
ENDROOT
TORSDOF 0
ENDMDL
MODEL 9
REMARK VINA RESULT:      -4.1     12.545     13.685
REMARK  0 active torsions:
REMARK  status: ('A' for Active; 'I' for Inactive)
ROOT
HETATM    1  C1  UNL     1     -42.929   6.863  -1.269  1.00 20.00    -0.056 A 
HETATM    2  C2  UNL     1     -42.150   4.696  -1.545  1.00 20.00     0.087 A 
HETATM    3  C3  UNL     1     -43.209   8.087  -0.807  1.00 20.00     0.017 C 
HETATM    4  C4  UNL     1     -43.417   6.334  -2.608  1.00 20.00     0.158 A 
HETATM    5  C5  UNL     1     -42.885   3.901  -3.541  1.00 20.00     0.144 A 
HETATM    6  C6  UNL     1     -42.030   2.834  -2.802  1.00 20.00     0.141 A 
HETATM    7  C7  UNL     1     -42.089   5.785  -0.565  1.00 20.00     0.035 A 
HETATM    8  C8  UNL     1     -42.723   5.348   0.759  1.00 20.00     0.028 C 
HETATM    9  C9  UNL     1     -40.642   6.237  -0.361  1.00 20.00     0.028 C 
HETATM   10  N10 UNL     1     -42.849   5.004  -2.606  1.00 20.00    -0.365 N 
HETATM   11  N11 UNL     1     -41.635   3.490  -1.536  1.00 20.00    -0.377 N 
HETATM   12  H26 UNL     1     -41.076   3.148  -0.763  1.00 20.00     0.160 HD
ENDROOT
TORSDOF 0
ENDMDL
