MODEL 1
REMARK VINA RESULT:      -4.6      0.000      0.000
REMARK  1 active torsions:
REMARK  status: ('A' for Active; 'I' for Inactive)
REMARK    1  A    between atoms: C4_4  and  C5_5 
ROOT
HETATM    1  C1  UNL     1     -34.085   5.009   6.414  1.00 20.00     0.014 C 
HETATM    2  C2  UNL     1     -34.007   6.440   5.903  1.00 20.00     0.062 C 
HETATM    3  C3  UNL     1     -35.221   4.343   5.657  1.00 20.00     0.077 C 
HETATM    4  C4  UNL     1     -33.999   6.374   4.379  1.00 20.00     0.209 C 
HETATM    5  F6  UNL     1     -34.474   7.546   3.882  1.00 20.00    -0.225 F 
HETATM    6  S9  UNL     1     -35.130   5.010   3.971  1.00 20.00    -0.121 SA
ENDROOT
BRANCH   4   7
HETATM    7  C5  UNL     1     -32.621   6.125   3.786  1.00 20.00     0.403 C 
HETATM    8  F7  UNL     1     -31.995   7.311   3.605  1.00 20.00    -0.210 F 
HETATM    9  F8  UNL     1     -32.757   5.555   2.568  1.00 20.00    -0.210 F 
ENDBRANCH   4   7
TORSDOF 1
ENDMDL
MODEL 2
REMARK VINA RESULT:      -4.0     11.817     12.493
REMARK  1 active torsions:
REMARK  status: ('A' for Active; 'I' for Inactive)
REMARK    1  A    between atoms: C4_4  and  C5_5 
ROOT
HETATM    1  C1  UNL     1     -34.449  15.869  -2.281  1.00 20.00     0.014 C 
HETATM    2  C2  UNL     1     -33.509  15.866  -3.478  1.00 20.00     0.062 C 
HETATM    3  C3  UNL     1     -35.810  16.294  -2.805  1.00 20.00     0.077 C 
HETATM    4  C4  UNL     1     -34.199  15.083  -4.589  1.00 20.00     0.209 C 
HETATM    5  F6  UNL     1     -33.709  15.492  -5.789  1.00 20.00    -0.225 F 
HETATM    6  S9  UNL     1     -35.957  15.522  -4.442  1.00 20.00    -0.121 SA
ENDROOT
BRANCH   4   7
HETATM    7  C5  UNL     1     -34.009  13.577  -4.483  1.00 20.00     0.403 C 
HETATM    8  F7  UNL     1     -35.080  13.038  -3.855  1.00 20.00    -0.210 F 
HETATM    9  F8  UNL     1     -32.925  13.319  -3.717  1.00 20.00    -0.210 F 
ENDBRANCH   4   7
TORSDOF 1
ENDMDL
MODEL 3
REMARK VINA RESULT:      -4.0     11.783     12.575
REMARK  1 active torsions:
REMARK  status: ('A' for Active; 'I' for Inactive)
REMARK    1  A    between atoms: C4_4  and  C5_5 
ROOT
HETATM    1  C1  UNL     1     -34.854  13.561  -5.207  1.00 20.00     0.014 C 
HETATM    2  C2  UNL     1     -34.656  13.671  -3.702  1.00 20.00     0.062 C 
HETATM    3  C3  UNL     1     -35.835  14.654  -5.592  1.00 20.00     0.077 C 
HETATM    4  C4  UNL     1     -34.358  15.134  -3.394  1.00 20.00     0.209 C 
HETATM    5  F6  UNL     1     -34.710  15.396  -2.107  1.00 20.00    -0.225 F 
HETATM    6  S9  UNL     1     -35.412  16.072  -4.540  1.00 20.00    -0.121 SA
ENDROOT
BRANCH   4   7
HETATM    7  C5  UNL     1     -32.896  15.511  -3.577  1.00 20.00     0.403 C 
HETATM    8  F7  UNL     1     -32.736  16.095  -4.787  1.00 20.00    -0.210 F 
HETATM    9  F8  UNL     1     -32.143  14.388  -3.572  1.00 20.00    -0.210 F 
ENDBRANCH   4   7
TORSDOF 1
ENDMDL
MODEL 4
REMARK VINA RESULT:      -4.0      8.874      9.629
REMARK  1 active torsions:
REMARK  status: ('A' for Active; 'I' for Inactive)
REMARK    1  A    between atoms: C4_4  and  C5_5 
ROOT
HETATM    1  C1  UNL     1     -42.193   4.061  -1.633  1.00 20.00     0.014 C 
HETATM    2  C2  UNL     1     -40.904   4.729  -1.176  1.00 20.00     0.062 C 
HETATM    3  C3  UNL     1     -43.059   3.904  -0.395  1.00 20.00     0.077 C 
HETATM    4  C4  UNL     1     -41.299   5.940  -0.339  1.00 20.00     0.209 C 
HETATM    5  F6  UNL     1     -40.285   6.236   0.517  1.00 20.00    -0.225 F 
HETATM    6  S9  UNL     1     -42.769   5.404   0.586  1.00 20.00    -0.121 SA
ENDROOT
BRANCH   4   7
HETATM    7  C5  UNL     1     -41.605   7.180  -1.165  1.00 20.00     0.403 C 
HETATM    8  F7  UNL     1     -41.208   6.972  -2.442  1.00 20.00    -0.210 F 
HETATM    9  F8  UNL     1     -40.887   8.221  -0.687  1.00 20.00    -0.210 F 
ENDBRANCH   4   7
TORSDOF 1
ENDMDL
MODEL 5
REMARK VINA RESULT:      -4.0     11.957     12.855
REMARK  1 active torsions:
REMARK  status: ('A' for Active; 'I' for Inactive)
REMARK    1  A    between atoms: C4_4  and  C5_5 
ROOT
HETATM    1  C1  UNL     1     -35.270  16.016  -6.069  1.00 20.00     0.014 C 
HETATM    2  C2  UNL     1     -34.553  14.682  -6.216  1.00 20.00     0.062 C 
HETATM    3  C3  UNL     1     -36.601  15.718  -5.400  1.00 20.00     0.077 C 
HETATM    4  C4  UNL     1     -34.609  13.990  -4.859  1.00 20.00     0.209 C 
HETATM    5  F6  UNL     1     -34.502  12.647  -5.041  1.00 20.00    -0.225 F 
HETATM    6  S9  UNL     1     -36.249  14.407  -4.193  1.00 20.00    -0.121 SA
ENDROOT
BRANCH   4   7
HETATM    7  C5  UNL     1     -33.512  14.432  -3.903  1.00 20.00     0.403 C 
HETATM    8  F7  UNL     1     -32.740  13.367  -3.588  1.00 20.00    -0.210 F 
HETATM    9  F8  UNL     1     -34.074  14.872  -2.754  1.00 20.00    -0.210 F 
ENDBRANCH   4   7
TORSDOF 1
ENDMDL
MODEL 6
REMARK VINA RESULT:      -3.9      2.367      3.551
REMARK  1 active torsions:
REMARK  status: ('A' for Active; 'I' for Inactive)
REMARK    1  A    between atoms: C4_4  and  C5_5 
ROOT
HETATM    1  C1  UNL     1     -32.466   5.505   3.015  1.00 20.00     0.014 C 
HETATM    2  C2  UNL     1     -33.946   5.196   2.847  1.00 20.00     0.062 C 
HETATM    3  C3  UNL     1     -32.382   6.904   3.600  1.00 20.00     0.077 C 
HETATM    4  C4  UNL     1     -34.628   5.534   4.168  1.00 20.00     0.209 C 
HETATM    5  F6  UNL     1     -35.939   5.809   3.933  1.00 20.00    -0.225 F 
HETATM    6  S9  UNL     1     -33.770   7.022   4.764  1.00 20.00    -0.121 SA
ENDROOT
BRANCH   4   7
HETATM    7  C5  UNL     1     -34.550   4.418   5.199  1.00 20.00     0.403 C 
HETATM    8  F7  UNL     1     -35.164   3.317   4.709  1.00 20.00    -0.210 F 
HETATM    9  F8  UNL     1     -35.224   4.792   6.310  1.00 20.00    -0.210 F 
ENDBRANCH   4   7
TORSDOF 1
ENDMDL
MODEL 7
REMARK VINA RESULT:      -3.9     11.988     12.876
REMARK  1 active torsions:
REMARK  status: ('A' for Active; 'I' for Inactive)
REMARK    1  A    between atoms: C4_4  and  C5_5 
ROOT
HETATM    1  C1  UNL     1     -33.986  15.857  -5.948  1.00 20.00     0.014 C 
HETATM    2  C2  UNL     1     -35.249  15.303  -5.305  1.00 20.00     0.062 C 
HETATM    3  C3  UNL     1     -33.372  16.812  -4.939  1.00 20.00     0.077 C 
HETATM    4  C4  UNL     1     -34.869  14.826  -3.908  1.00 20.00     0.209 C 
HETATM    5  F6  UNL     1     -35.975  14.844  -3.117  1.00 20.00    -0.225 F 
HETATM    6  S9  UNL     1     -33.653  16.042  -3.318  1.00 20.00    -0.121 SA
ENDROOT
BRANCH   4   7
HETATM    7  C5  UNL     1     -34.284  13.422  -3.880  1.00 20.00     0.403 C 
HETATM    8  F7  UNL     1     -32.935  13.505  -3.799  1.00 20.00    -0.210 F 
HETATM    9  F8  UNL     1     -34.576  12.796  -5.042  1.00 20.00    -0.210 F 
ENDBRANCH   4   7
TORSDOF 1
ENDMDL
MODEL 8
REMARK VINA RESULT:      -3.9     12.013     12.808
REMARK  1 active torsions:
REMARK  status: ('A' for Active; 'I' for Inactive)
REMARK    1  A    between atoms: C4_4  and  C5_5 
ROOT
HETATM    1  C1  UNL     1     -35.334  16.349  -3.222  1.00 20.00     0.014 C 
HETATM    2  C2  UNL     1     -34.217  15.475  -2.670  1.00 20.00     0.062 C 
HETATM    3  C3  UNL     1     -34.682  17.315  -4.196  1.00 20.00     0.077 C 
HETATM    4  C4  UNL     1     -33.417  14.963  -3.862  1.00 20.00     0.209 C 
HETATM    5  F6  UNL     1     -32.155  14.665  -3.453  1.00 20.00    -0.225 F 
HETATM    6  S9  UNL     1     -33.389  16.353  -5.033  1.00 20.00    -0.121 SA
ENDROOT
BRANCH   4   7
HETATM    7  C5  UNL     1     -34.015  13.724  -4.512  1.00 20.00     0.403 C 
HETATM    8  F7  UNL     1     -34.710  14.092  -5.613  1.00 20.00    -0.210 F 
HETATM    9  F8  UNL     1     -34.893  13.154  -3.656  1.00 20.00    -0.210 F 
ENDBRANCH   4   7
TORSDOF 1
ENDMDL
MODEL 9
REMARK VINA RESULT:      -3.8     12.258     13.002
REMARK  1 active torsions:
REMARK  status: ('A' for Active; 'I' for Inactive)
REMARK    1  A    between atoms: C4_4  and  C5_5 
ROOT
HETATM    1  C1  UNL     1     -34.425  15.926  -6.016  1.00 20.00     0.014 C 
HETATM    2  C2  UNL     1     -33.179  16.094  -5.159  1.00 20.00     0.062 C 
HETATM    3  C3  UNL     1     -34.723  14.438  -6.058  1.00 20.00     0.077 C 
HETATM    4  C4  UNL     1     -33.409  15.306  -3.874  1.00 20.00     0.209 C 
HETATM    5  F6  UNL     1     -32.206  14.960  -3.345  1.00 20.00    -0.225 F 
HETATM    6  S9  UNL     1     -34.318  13.822  -4.398  1.00 20.00    -0.121 SA
ENDROOT
BRANCH   4   7
HETATM    7  C5  UNL     1     -34.193  16.073  -2.820  1.00 20.00     0.403 C 
HETATM    8  F7  UNL     1     -33.351  16.461  -1.834  1.00 20.00    -0.210 F 
HETATM    9  F8  UNL     1     -35.110  15.251  -2.262  1.00 20.00    -0.210 F 
ENDBRANCH   4   7
TORSDOF 1
ENDMDL
