MODEL 1
REMARK VINA RESULT:      -4.8      0.000      0.000
REMARK  1 active torsions:
REMARK  status: ('A' for Active; 'I' for Inactive)
REMARK    1  A    between atoms: C3_3  and  C7_7 
ROOT
HETATM    1  C1  UNL     1     -35.571  15.874  -2.231  1.00 20.00    -0.019 C 
HETATM    2  C2  UNL     1     -34.357  16.389  -1.970  1.00 20.00    -0.087 C 
HETATM    3  C4  UNL     1     -33.163  16.100  -2.841  1.00 20.00     0.034 C 
HETATM    4  C5  UNL     1     -33.377  14.909  -3.776  1.00 20.00     0.017 C 
HETATM    5  C6  UNL     1     -35.885  15.003  -3.425  1.00 20.00     0.015 C 
HETATM    6  C7  UNL     1     -34.741  14.983  -4.461  1.00 20.00     0.062 C 
HETATM    7  C8  UNL     1     -34.112  17.282  -0.789  1.00 20.00     0.043 C 
HETATM    8  C10 UNL     1     -37.192  15.470  -4.077  1.00 20.00     0.015 C 
ENDROOT
BRANCH   6   9
HETATM    9  C3  UNL     1     -34.892  13.800  -5.371  1.00 20.00     0.127 C 
HETATM   10  C9  UNL     1     -35.125  14.092  -6.829  1.00 20.00     0.091 C 
HETATM   11  O11 UNL     1     -34.826  12.647  -4.946  1.00 20.00    -0.298 OA
ENDBRANCH   6   9
TORSDOF 1
ENDMDL
MODEL 2
REMARK VINA RESULT:      -4.7      1.496      2.421
REMARK  1 active torsions:
REMARK  status: ('A' for Active; 'I' for Inactive)
REMARK    1  A    between atoms: C3_3  and  C7_7 
ROOT
HETATM    1  C1  UNL     1     -33.844  17.805  -3.571  1.00 20.00    -0.019 C 
HETATM    2  C2  UNL     1     -33.737  17.962  -2.240  1.00 20.00    -0.087 C 
HETATM    3  C4  UNL     1     -34.043  16.845  -1.277  1.00 20.00     0.034 C 
HETATM    4  C5  UNL     1     -34.826  15.699  -1.917  1.00 20.00     0.017 C 
HETATM    5  C6  UNL     1     -34.232  16.509  -4.244  1.00 20.00     0.015 C 
HETATM    6  C7  UNL     1     -34.230  15.312  -3.271  1.00 20.00     0.062 C 
HETATM    7  C8  UNL     1     -33.308  19.263  -1.627  1.00 20.00     0.043 C 
HETATM    8  C10 UNL     1     -33.296  16.241  -5.429  1.00 20.00     0.015 C 
ENDROOT
BRANCH   6   9
HETATM    9  C3  UNL     1     -35.029  14.179  -3.846  1.00 20.00     0.127 C 
HETATM   10  C9  UNL     1     -36.479  14.454  -4.138  1.00 20.00     0.091 C 
HETATM   11  O11 UNL     1     -34.522  13.080  -4.068  1.00 20.00    -0.298 OA
ENDBRANCH   6   9
TORSDOF 1
ENDMDL
MODEL 3
REMARK VINA RESULT:      -4.6      2.141      3.377
REMARK  1 active torsions:
REMARK  status: ('A' for Active; 'I' for Inactive)
REMARK    1  A    between atoms: C3_3  and  C7_7 
ROOT
HETATM    1  C1  UNL     1     -33.551  17.363  -4.654  1.00 20.00    -0.019 C 
HETATM    2  C2  UNL     1     -33.910  17.573  -5.933  1.00 20.00    -0.087 C 
HETATM    3  C4  UNL     1     -34.471  16.473  -6.795  1.00 20.00     0.034 C 
HETATM    4  C5  UNL     1     -34.233  15.078  -6.217  1.00 20.00     0.017 C 
HETATM    5  C6  UNL     1     -33.705  16.044  -3.934  1.00 20.00     0.015 C 
HETATM    6  C7  UNL     1     -34.563  15.034  -4.725  1.00 20.00     0.062 C 
HETATM    7  C8  UNL     1     -33.772  18.917  -6.585  1.00 20.00     0.043 C 
HETATM    8  C10 UNL     1     -34.300  16.280  -2.541  1.00 20.00     0.015 C 
ENDROOT
BRANCH   6   9
HETATM    9  C3  UNL     1     -34.322  13.643  -4.215  1.00 20.00     0.127 C 
HETATM   10  C9  UNL     1     -32.980  13.375  -3.590  1.00 20.00     0.091 C 
HETATM   11  O11 UNL     1     -35.181  12.766  -4.304  1.00 20.00    -0.298 OA
ENDBRANCH   6   9
TORSDOF 1
ENDMDL
MODEL 4
REMARK VINA RESULT:      -4.5      1.384      2.293
REMARK  1 active torsions:
REMARK  status: ('A' for Active; 'I' for Inactive)
REMARK    1  A    between atoms: C3_3  and  C7_7 
ROOT
HETATM    1  C1  UNL     1     -33.836  15.714  -2.466  1.00 20.00    -0.019 C 
HETATM    2  C2  UNL     1     -34.830  16.459  -1.951  1.00 20.00    -0.087 C 
HETATM    3  C4  UNL     1     -36.041  16.842  -2.761  1.00 20.00     0.034 C 
HETATM    4  C5  UNL     1     -35.846  16.641  -4.264  1.00 20.00     0.017 C 
HETATM    5  C6  UNL     1     -33.836  15.149  -3.867  1.00 20.00     0.015 C 
HETATM    6  C7  UNL     1     -35.208  15.283  -4.560  1.00 20.00     0.062 C 
HETATM    7  C8  UNL     1     -34.796  16.960  -0.538  1.00 20.00     0.043 C 
HETATM    8  C10 UNL     1     -33.391  13.681  -3.834  1.00 20.00     0.015 C 
ENDROOT
BRANCH   6   9
HETATM    9  C3  UNL     1     -35.051  15.135  -6.045  1.00 20.00     0.127 C 
HETATM   10  C9  UNL     1     -34.271  16.210  -6.754  1.00 20.00     0.091 C 
HETATM   11  O11 UNL     1     -35.536  14.182  -6.653  1.00 20.00    -0.298 OA
ENDBRANCH   6   9
TORSDOF 1
ENDMDL
MODEL 5
REMARK VINA RESULT:      -4.5      1.644      2.590
REMARK  1 active torsions:
REMARK  status: ('A' for Active; 'I' for Inactive)
REMARK    1  A    between atoms: C3_3  and  C7_7 
ROOT
HETATM    1  C1  UNL     1     -33.712  16.178  -2.621  1.00 20.00    -0.019 C 
HETATM    2  C2  UNL     1     -34.143  17.082  -1.724  1.00 20.00    -0.087 C 
HETATM    3  C4  UNL     1     -35.608  17.367  -1.519  1.00 20.00     0.034 C 
HETATM    4  C5  UNL     1     -36.486  16.837  -2.653  1.00 20.00     0.017 C 
HETATM    5  C6  UNL     1     -34.623  15.329  -3.476  1.00 20.00     0.015 C 
HETATM    6  C7  UNL     1     -36.098  15.407  -3.029  1.00 20.00     0.062 C 
HETATM    7  C8  UNL     1     -33.192  17.869  -0.872  1.00 20.00     0.043 C 
HETATM    8  C10 UNL     1     -34.135  13.875  -3.468  1.00 20.00     0.015 C 
ENDROOT
BRANCH   6   9
HETATM    9  C3  UNL     1     -36.997  14.936  -4.134  1.00 20.00     0.127 C 
HETATM   10  C9  UNL     1     -36.726  15.487  -5.508  1.00 20.00     0.091 C 
HETATM   11  O11 UNL     1     -37.910  14.137  -3.927  1.00 20.00    -0.298 OA
ENDBRANCH   6   9
TORSDOF 1
ENDMDL
MODEL 6
REMARK VINA RESULT:      -4.5      2.292      3.553
REMARK  1 active torsions:
REMARK  status: ('A' for Active; 'I' for Inactive)
REMARK    1  A    between atoms: C3_3  and  C7_7 
ROOT
HETATM    1  C1  UNL     1     -35.025  16.846  -7.114  1.00 20.00    -0.019 C 
HETATM    2  C2  UNL     1     -34.110  17.627  -6.512  1.00 20.00    -0.087 C 
HETATM    3  C4  UNL     1     -33.411  17.207  -5.246  1.00 20.00     0.034 C 
HETATM    4  C5  UNL     1     -34.100  16.040  -4.539  1.00 20.00     0.017 C 
HETATM    5  C6  UNL     1     -35.418  15.471  -6.628  1.00 20.00     0.015 C 
HETATM    6  C7  UNL     1     -34.473  14.938  -5.531  1.00 20.00     0.062 C 
HETATM    7  C8  UNL     1     -33.729  18.970  -7.063  1.00 20.00     0.043 C 
HETATM    8  C10 UNL     1     -35.468  14.498  -7.812  1.00 20.00     0.015 C 
ENDROOT
BRANCH   6   9
HETATM    9  C3  UNL     1     -35.133  13.816  -4.783  1.00 20.00     0.127 C 
HETATM   10  C9  UNL     1     -36.372  14.162  -4.001  1.00 20.00     0.091 C 
HETATM   11  O11 UNL     1     -34.683  12.671  -4.808  1.00 20.00    -0.298 OA
ENDBRANCH   6   9
TORSDOF 1
ENDMDL
MODEL 7
REMARK VINA RESULT:      -4.4      2.188      3.025
REMARK  1 active torsions:
REMARK  status: ('A' for Active; 'I' for Inactive)
REMARK    1  A    between atoms: C3_3  and  C7_7 
ROOT
HETATM    1  C1  UNL     1     -34.662  16.282  -1.145  1.00 20.00    -0.019 C 
HETATM    2  C2  UNL     1     -34.690  17.486  -0.546  1.00 20.00    -0.087 C 
HETATM    3  C4  UNL     1     -34.342  18.752  -1.284  1.00 20.00     0.034 C 
HETATM    4  C5  UNL     1     -33.612  18.497  -2.603  1.00 20.00     0.017 C 
HETATM    5  C6  UNL     1     -34.330  16.067  -2.603  1.00 20.00     0.015 C 
HETATM    6  C7  UNL     1     -34.290  17.385  -3.403  1.00 20.00     0.062 C 
HETATM    7  C8  UNL     1     -35.066  17.646   0.897  1.00 20.00     0.043 C 
HETATM    8  C10 UNL     1     -35.337  15.091  -3.224  1.00 20.00     0.015 C 
ENDROOT
BRANCH   6   9
HETATM    9  C3  UNL     1     -33.541  17.186  -4.688  1.00 20.00     0.127 C 
HETATM   10  C9  UNL     1     -33.878  18.118  -5.820  1.00 20.00     0.091 C 
HETATM   11  O11 UNL     1     -32.691  16.304  -4.808  1.00 20.00    -0.298 OA
ENDBRANCH   6   9
TORSDOF 1
ENDMDL
MODEL 8
REMARK VINA RESULT:      -4.3      2.057      4.201
REMARK  1 active torsions:
REMARK  status: ('A' for Active; 'I' for Inactive)
REMARK    1  A    between atoms: C3_3  and  C7_7 
ROOT
HETATM    1  C1  UNL     1     -36.896  15.336  -6.968  1.00 20.00    -0.019 C 
HETATM    2  C2  UNL     1     -37.850  15.870  -6.185  1.00 20.00    -0.087 C 
HETATM    3  C4  UNL     1     -37.824  15.729  -4.686  1.00 20.00     0.034 C 
HETATM    4  C5  UNL     1     -36.867  14.640  -4.202  1.00 20.00     0.017 C 
HETATM    5  C6  UNL     1     -35.691  14.588  -6.447  1.00 20.00     0.015 C 
HETATM    6  C7  UNL     1     -35.520  14.730  -4.920  1.00 20.00     0.062 C 
HETATM    7  C8  UNL     1     -39.006  16.638  -6.756  1.00 20.00     0.043 C 
HETATM    8  C10 UNL     1     -34.429  15.067  -7.176  1.00 20.00     0.015 C 
ENDROOT
BRANCH   6   9
HETATM    9  C3  UNL     1     -34.620  13.648  -4.399  1.00 20.00     0.127 C 
HETATM   10  C9  UNL     1     -33.357  14.091  -3.711  1.00 20.00     0.091 C 
HETATM   11  O11 UNL     1     -34.902  12.457  -4.528  1.00 20.00    -0.298 OA
ENDBRANCH   6   9
TORSDOF 1
ENDMDL
MODEL 9
REMARK VINA RESULT:      -4.3      2.128      3.387
REMARK  1 active torsions:
REMARK  status: ('A' for Active; 'I' for Inactive)
REMARK    1  A    between atoms: C3_3  and  C7_7 
ROOT
HETATM    1  C1  UNL     1     -35.009  17.379  -5.064  1.00 20.00    -0.019 C 
HETATM    2  C2  UNL     1     -34.954  17.440  -6.406  1.00 20.00    -0.087 C 
HETATM    3  C4  UNL     1     -34.757  16.211  -7.254  1.00 20.00     0.034 C 
HETATM    4  C5  UNL     1     -34.257  15.006  -6.456  1.00 20.00     0.017 C 
HETATM    5  C6  UNL     1     -34.926  16.098  -4.269  1.00 20.00     0.015 C 
HETATM    6  C7  UNL     1     -35.045  14.841  -5.156  1.00 20.00     0.062 C 
HETATM    7  C8  UNL     1     -35.082  18.739  -7.147  1.00 20.00     0.043 C 
HETATM    8  C10 UNL     1     -36.008  16.092  -3.182  1.00 20.00     0.015 C 
ENDROOT
BRANCH   6   9
HETATM    9  C3  UNL     1     -34.521  13.641  -4.422  1.00 20.00     0.127 C 
HETATM   10  C9  UNL     1     -33.196  13.799  -3.725  1.00 20.00     0.091 C 
HETATM   11  O11 UNL     1     -35.145  12.581  -4.391  1.00 20.00    -0.298 OA
ENDBRANCH   6   9
TORSDOF 1
ENDMDL
