MODEL 1
REMARK VINA RESULT:      -6.1      0.000      0.000
REMARK  1 active torsions:
REMARK  status: ('A' for Active; 'I' for Inactive)
REMARK    1  A    between atoms: C9_9  and  C10_10 
ROOT
HETATM    1  C1  UNL     1     -35.256   4.792   5.291  1.00 20.00     0.001 A 
HETATM    2  C2  UNL     1     -34.710   5.624   6.370  1.00 20.00     0.001 A 
HETATM    3  C3  UNL     1     -34.784   4.852   4.029  1.00 20.00     0.012 A 
HETATM    4  C4  UNL     1     -33.704   6.499   6.163  1.00 20.00     0.012 A 
HETATM    5  C5  UNL     1     -33.054   6.034   2.613  1.00 20.00     0.001 A 
HETATM    6  C6  UNL     1     -32.178   7.370   4.344  1.00 20.00     0.001 A 
HETATM    7  C7  UNL     1     -33.707   5.774   3.755  1.00 20.00    -0.029 A 
HETATM    8  C8  UNL     1     -33.164   6.602   4.827  1.00 20.00    -0.029 A 
HETATM    9  C10 UNL     1     -32.006   7.086   2.874  1.00 20.00     0.094 A 
ENDROOT
BRANCH   9  10
HETATM   10  C9  UNL     1     -32.333   8.317   2.090  1.00 20.00     0.243 C 
HETATM   11  O11 UNL     1     -31.757   8.630   1.052  1.00 20.00    -0.306 OA
ENDBRANCH   9  10
TORSDOF 1
ENDMDL
MODEL 2
REMARK VINA RESULT:      -4.8     11.127     12.278
REMARK  1 active torsions:
REMARK  status: ('A' for Active; 'I' for Inactive)
REMARK    1  A    between atoms: C9_9  and  C10_10 
ROOT
HETATM    1  C1  UNL     1     -33.598  19.136  -0.598  1.00 20.00     0.001 A 
HETATM    2  C2  UNL     1     -34.326  18.228   0.297  1.00 20.00     0.001 A 
HETATM    3  C3  UNL     1     -33.337  18.820  -1.883  1.00 20.00     0.012 A 
HETATM    4  C4  UNL     1     -34.776  17.024  -0.112  1.00 20.00     0.012 A 
HETATM    5  C5  UNL     1     -33.683  16.980  -3.583  1.00 20.00     0.001 A 
HETATM    6  C6  UNL     1     -34.851  15.523  -2.146  1.00 20.00     0.001 A 
HETATM    7  C7  UNL     1     -33.798  17.542  -2.370  1.00 20.00    -0.029 A 
HETATM    8  C8  UNL     1     -34.521  16.638  -1.481  1.00 20.00    -0.029 A 
HETATM    9  C10 UNL     1     -34.347  15.626  -3.563  1.00 20.00     0.094 A 
ENDROOT
BRANCH   9  10
HETATM   10  C9  UNL     1     -33.319  14.566  -3.801  1.00 20.00     0.243 C 
HETATM   11  O11 UNL     1     -33.558  13.365  -3.731  1.00 20.00    -0.306 OA
ENDBRANCH   9  10
TORSDOF 1
ENDMDL
MODEL 3
REMARK VINA RESULT:      -4.8      0.947      2.106
REMARK  1 active torsions:
REMARK  status: ('A' for Active; 'I' for Inactive)
REMARK    1  A    between atoms: C9_9  and  C10_10 
ROOT
HETATM    1  C1  UNL     1     -34.815   4.841   6.809  1.00 20.00     0.001 A 
HETATM    2  C2  UNL     1     -35.150   3.832   5.797  1.00 20.00     0.001 A 
HETATM    3  C3  UNL     1     -34.273   6.033   6.482  1.00 20.00     0.012 A 
HETATM    4  C4  UNL     1     -34.937   4.036   4.480  1.00 20.00     0.012 A 
HETATM    5  C5  UNL     1     -33.507   7.382   4.486  1.00 20.00     0.001 A 
HETATM    6  C6  UNL     1     -34.046   5.763   2.862  1.00 20.00     0.001 A 
HETATM    7  C7  UNL     1     -34.025   6.300   5.085  1.00 20.00    -0.029 A 
HETATM    8  C8  UNL     1     -34.358   5.298   4.079  1.00 20.00    -0.029 A 
HETATM    9  C10 UNL     1     -33.468   7.148   2.997  1.00 20.00     0.094 A 
ENDROOT
BRANCH   9  10
HETATM   10  C9  UNL     1     -32.045   7.139   2.534  1.00 20.00     0.243 C 
HETATM   11  O11 UNL     1     -31.571   7.993   1.792  1.00 20.00    -0.306 OA
ENDBRANCH   9  10
TORSDOF 1
ENDMDL
MODEL 4
REMARK VINA RESULT:      -4.7     11.325     12.534
REMARK  1 active torsions:
REMARK  status: ('A' for Active; 'I' for Inactive)
REMARK    1  A    between atoms: C9_9  and  C10_10 
ROOT
HETATM    1  C1  UNL     1     -33.592  18.342  -2.367  1.00 20.00     0.001 A 
HETATM    2  C2  UNL     1     -33.992  17.494  -1.237  1.00 20.00     0.001 A 
HETATM    3  C3  UNL     1     -33.847  17.999  -3.647  1.00 20.00     0.012 A 
HETATM    4  C4  UNL     1     -34.638  16.322  -1.412  1.00 20.00     0.012 A 
HETATM    5  C5  UNL     1     -34.913  16.176  -5.037  1.00 20.00     0.001 A 
HETATM    6  C6  UNL     1     -35.556  14.816  -3.224  1.00 20.00     0.001 A 
HETATM    7  C7  UNL     1     -34.535  16.753  -3.887  1.00 20.00    -0.029 A 
HETATM    8  C8  UNL     1     -34.934  15.910  -2.765  1.00 20.00    -0.029 A 
HETATM    9  C10 UNL     1     -35.607  14.873  -4.729  1.00 20.00     0.094 A 
ENDROOT
BRANCH   9  10
HETATM   10  C9  UNL     1     -34.810  13.741  -5.296  1.00 20.00     0.243 C 
HETATM   11  O11 UNL     1     -34.741  12.635  -4.770  1.00 20.00    -0.306 OA
ENDBRANCH   9  10
TORSDOF 1
ENDMDL
MODEL 5
REMARK VINA RESULT:      -4.7     11.290     13.127
REMARK  1 active torsions:
REMARK  status: ('A' for Active; 'I' for Inactive)
REMARK    1  A    between atoms: C9_9  and  C10_10 
ROOT
HETATM    1  C1  UNL     1     -34.523  16.080  -7.279  1.00 20.00     0.001 A 
HETATM    2  C2  UNL     1     -34.897  14.678  -7.055  1.00 20.00     0.001 A 
HETATM    3  C3  UNL     1     -34.104  16.879  -6.276  1.00 20.00     0.012 A 
HETATM    4  C4  UNL     1     -34.844  14.107  -5.834  1.00 20.00     0.012 A 
HETATM    5  C5  UNL     1     -33.652  16.870  -3.788  1.00 20.00     0.001 A 
HETATM    6  C6  UNL     1     -34.252  14.620  -3.430  1.00 20.00     0.001 A 
HETATM    7  C7  UNL     1     -34.030  16.316  -4.949  1.00 20.00    -0.029 A 
HETATM    8  C8  UNL     1     -34.401  14.922  -4.726  1.00 20.00    -0.029 A 
HETATM    9  C10 UNL     1     -33.755  15.838  -2.694  1.00 20.00     0.094 A 
ENDROOT
BRANCH   9  10
HETATM   10  C9  UNL     1     -34.787  16.271  -1.700  1.00 20.00     0.243 C 
HETATM   11  O11 UNL     1     -34.520  16.590  -0.546  1.00 20.00    -0.306 OA
ENDBRANCH   9  10
TORSDOF 1
ENDMDL
MODEL 6
REMARK VINA RESULT:      -4.7     11.257     11.813
REMARK  1 active torsions:
REMARK  status: ('A' for Active; 'I' for Inactive)
REMARK    1  A    between atoms: C9_9  and  C10_10 
ROOT
HETATM    1  C1  UNL     1     -35.540  13.553  -4.500  1.00 20.00     0.001 A 
HETATM    2  C2  UNL     1     -34.075  13.472  -4.452  1.00 20.00     0.001 A 
HETATM    3  C3  UNL     1     -36.228  14.509  -3.843  1.00 20.00     0.012 A 
HETATM    4  C4  UNL     1     -33.330  14.350  -3.748  1.00 20.00     0.012 A 
HETATM    5  C5  UNL     1     -35.894  16.514  -2.339  1.00 20.00     0.001 A 
HETATM    6  C6  UNL     1     -33.543  16.385  -2.262  1.00 20.00     0.001 A 
HETATM    7  C7  UNL     1     -35.477  15.473  -3.074  1.00 20.00    -0.029 A 
HETATM    8  C8  UNL     1     -34.021  15.394  -3.026  1.00 20.00    -0.029 A 
HETATM    9  C10 UNL     1     -34.695  17.206  -1.742  1.00 20.00     0.094 A 
ENDROOT
BRANCH   9  10
HETATM   10  C9  UNL     1     -34.750  17.095  -0.251  1.00 20.00     0.243 C 
HETATM   11  O11 UNL     1     -34.310  17.953   0.507  1.00 20.00    -0.306 OA
ENDBRANCH   9  10
TORSDOF 1
ENDMDL
MODEL 7
REMARK VINA RESULT:      -4.7     11.195     12.404
REMARK  1 active torsions:
REMARK  status: ('A' for Active; 'I' for Inactive)
REMARK    1  A    between atoms: C9_9  and  C10_10 
ROOT
HETATM    1  C1  UNL     1     -35.246  17.489  -1.051  1.00 20.00     0.001 A 
HETATM    2  C2  UNL     1     -35.895  18.269  -2.111  1.00 20.00     0.001 A 
HETATM    3  C3  UNL     1     -34.565  16.353  -1.310  1.00 20.00     0.012 A 
HETATM    4  C4  UNL     1     -35.850  17.896  -3.408  1.00 20.00     0.012 A 
HETATM    5  C5  UNL     1     -33.886  14.839  -3.219  1.00 20.00     0.001 A 
HETATM    6  C6  UNL     1     -34.928  16.092  -4.920  1.00 20.00     0.001 A 
HETATM    7  C7  UNL     1     -34.488  15.911  -2.682  1.00 20.00    -0.029 A 
HETATM    8  C8  UNL     1     -35.133  16.686  -3.737  1.00 20.00    -0.029 A 
HETATM    9  C10 UNL     1     -34.106  14.846  -4.710  1.00 20.00     0.094 A 
ENDROOT
BRANCH   9  10
HETATM   10  C9  UNL     1     -34.915  13.648  -5.097  1.00 20.00     0.243 C 
HETATM   11  O11 UNL     1     -35.023  12.650  -4.391  1.00 20.00    -0.306 OA
ENDBRANCH   9  10
TORSDOF 1
ENDMDL
MODEL 8
REMARK VINA RESULT:      -4.6     11.293     13.470
REMARK  1 active torsions:
REMARK  status: ('A' for Active; 'I' for Inactive)
REMARK    1  A    between atoms: C9_9  and  C10_10 
ROOT
HETATM    1  C1  UNL     1     -33.654  13.809  -3.767  1.00 20.00     0.001 A 
HETATM    2  C2  UNL     1     -33.060  15.147  -3.661  1.00 20.00     0.001 A 
HETATM    3  C3  UNL     1     -34.405  13.439  -4.825  1.00 20.00     0.012 A 
HETATM    4  C4  UNL     1     -33.230  16.086  -4.615  1.00 20.00     0.012 A 
HETATM    5  C5  UNL     1     -35.306  14.313  -7.020  1.00 20.00     0.001 A 
HETATM    6  C6  UNL     1     -34.352  16.460  -6.849  1.00 20.00     0.001 A 
HETATM    7  C7  UNL     1     -34.617  14.408  -5.873  1.00 20.00    -0.029 A 
HETATM    8  C8  UNL     1     -34.027  15.739  -5.768  1.00 20.00    -0.029 A 
HETATM    9  C10 UNL     1     -35.207  15.620  -7.764  1.00 20.00     0.094 A 
ENDROOT
BRANCH   9  10
HETATM   10  C9  UNL     1     -36.567  16.234  -7.873  1.00 20.00     0.243 C 
HETATM   11  O11 UNL     1     -37.578  15.723  -7.400  1.00 20.00    -0.306 OA
ENDBRANCH   9  10
TORSDOF 1
ENDMDL
MODEL 9
REMARK VINA RESULT:      -4.6     11.079     12.778
REMARK  1 active torsions:
REMARK  status: ('A' for Active; 'I' for Inactive)
REMARK    1  A    between atoms: C9_9  and  C10_10 
ROOT
HETATM    1  C1  UNL     1     -33.856  18.408  -1.748  1.00 20.00     0.001 A 
HETATM    2  C2  UNL     1     -33.748  19.031  -3.073  1.00 20.00     0.001 A 
HETATM    3  C3  UNL     1     -33.856  17.070  -1.583  1.00 20.00     0.012 A 
HETATM    4  C4  UNL     1     -33.643  18.302  -4.203  1.00 20.00     0.012 A 
HETATM    5  C5  UNL     1     -33.719  14.909  -2.890  1.00 20.00     0.001 A 
HETATM    6  C6  UNL     1     -33.546  15.909  -5.016  1.00 20.00     0.001 A 
HETATM    7  C7  UNL     1     -33.747  16.244  -2.762  1.00 20.00    -0.029 A 
HETATM    8  C8  UNL     1     -33.639  16.862  -4.079  1.00 20.00    -0.029 A 
HETATM    9  C10 UNL     1     -33.587  14.557  -4.350  1.00 20.00     0.094 A 
ENDROOT
BRANCH   9  10
HETATM   10  C9  UNL     1     -34.812  13.823  -4.795  1.00 20.00     0.243 C 
HETATM   11  O11 UNL     1     -35.051  12.659  -4.488  1.00 20.00    -0.306 OA
ENDBRANCH   9  10
TORSDOF 1
ENDMDL
