MODEL 1
REMARK VINA RESULT:      -5.4      0.000      0.000
REMARK  2 active torsions:
REMARK  status: ('A' for Active; 'I' for Inactive)
REMARK    1  A    between atoms: C4_4  and  O11_11 
REMARK    2  A    between atoms: C10_10  and  O11_11 
ROOT
HETATM    1  C1  UNL     1     -31.821   8.823   1.073  1.00 20.00     0.014 C 
HETATM    2  C2  UNL     1     -32.038   8.004   1.923  1.00 20.00    -0.091 C 
HETATM    3  C10 UNL     1     -32.299   7.005   2.960  1.00 20.00     0.268 C 
ENDROOT
BRANCH   3   4
HETATM    4  O11 UNL     1     -33.432   7.362   3.712  1.00 20.00    -0.344 OA
BRANCH   4   5
HETATM    5  C4  UNL     1     -33.984   6.286   4.380  1.00 20.00     0.047 C 
HETATM    6  C3  UNL     1     -34.883   5.472   3.802  1.00 20.00     0.006 C 
HETATM    7  C5  UNL     1     -35.490   4.287   4.492  1.00 20.00     0.029 C 
HETATM    8  C6  UNL     1     -35.218   4.249   5.997  1.00 20.00     0.004 C 
HETATM    9  C7  UNL     1     -33.784   4.671   6.314  1.00 20.00     0.011 C 
HETATM   10  C8  UNL     1     -33.466   6.082   5.784  1.00 20.00     0.038 C 
HETATM   11  C9  UNL     1     -34.020   7.164   6.717  1.00 20.00     0.017 C 
ENDBRANCH   4   5
ENDBRANCH   3   4
TORSDOF 2
ENDMDL
MODEL 2
REMARK VINA RESULT:      -5.1      0.650      2.127
REMARK  2 active torsions:
REMARK  status: ('A' for Active; 'I' for Inactive)
REMARK    1  A    between atoms: C4_4  and  O11_11 
REMARK    2  A    between atoms: C10_10  and  O11_11 
ROOT
HETATM    1  C1  UNL     1     -31.785   8.783   0.866  1.00 20.00     0.014 C 
HETATM    2  C2  UNL     1     -31.967   8.160   1.876  1.00 20.00    -0.091 C 
HETATM    3  C10 UNL     1     -32.184   7.400   3.108  1.00 20.00     0.268 C 
ENDROOT
BRANCH   3   4
HETATM    4  O11 UNL     1     -33.480   7.631   3.605  1.00 20.00    -0.344 OA
BRANCH   4   5
HETATM    5  C4  UNL     1     -33.970   6.558   4.322  1.00 20.00     0.047 C 
HETATM    6  C3  UNL     1     -33.723   6.403   5.634  1.00 20.00     0.006 C 
HETATM    7  C5  UNL     1     -34.252   5.260   6.447  1.00 20.00     0.029 C 
HETATM    8  C6  UNL     1     -34.857   4.137   5.602  1.00 20.00     0.004 C 
HETATM    9  C7  UNL     1     -35.674   4.694   4.438  1.00 20.00     0.011 C 
HETATM   10  C8  UNL     1     -34.833   5.607   3.526  1.00 20.00     0.038 C 
HETATM   11  C9  UNL     1     -33.968   4.787   2.563  1.00 20.00     0.017 C 
ENDBRANCH   4   5
ENDBRANCH   3   4
TORSDOF 2
ENDMDL
MODEL 3
REMARK VINA RESULT:      -4.8     11.356     12.760
REMARK  2 active torsions:
REMARK  status: ('A' for Active; 'I' for Inactive)
REMARK    1  A    between atoms: C4_4  and  O11_11 
REMARK    2  A    between atoms: C10_10  and  O11_11 
ROOT
HETATM    1  C1  UNL     1     -38.239  15.507  -6.679  1.00 20.00     0.014 C 
HETATM    2  C2  UNL     1     -38.129  15.350  -5.494  1.00 20.00    -0.091 C 
HETATM    3  C10 UNL     1     -37.997  15.161  -4.049  1.00 20.00     0.268 C 
ENDROOT
BRANCH   3   4
HETATM    4  O11 UNL     1     -37.142  14.079  -3.771  1.00 20.00    -0.344 OA
BRANCH   4   5
HETATM    5  C4  UNL     1     -35.826  14.469  -3.621  1.00 20.00     0.047 C 
HETATM    6  C3  UNL     1     -35.479  15.549  -2.902  1.00 20.00     0.006 C 
HETATM    7  C5  UNL     1     -34.060  15.993  -2.705  1.00 20.00     0.029 C 
HETATM    8  C6  UNL     1     -33.064  15.281  -3.621  1.00 20.00     0.004 C 
HETATM    9  C7  UNL     1     -33.393  13.795  -3.754  1.00 20.00     0.011 C 
HETATM   10  C8  UNL     1     -34.819  13.564  -4.290  1.00 20.00     0.038 C 
HETATM   11  C9  UNL     1     -34.876  13.741  -5.812  1.00 20.00     0.017 C 
ENDBRANCH   4   5
ENDBRANCH   3   4
TORSDOF 2
ENDMDL
MODEL 4
REMARK VINA RESULT:      -4.6     11.387     12.847
REMARK  2 active torsions:
REMARK  status: ('A' for Active; 'I' for Inactive)
REMARK    1  A    between atoms: C4_4  and  O11_11 
REMARK    2  A    between atoms: C10_10  and  O11_11 
ROOT
HETATM    1  C1  UNL     1     -34.059  18.095   0.400  1.00 20.00     0.014 C 
HETATM    2  C2  UNL     1     -34.367  17.273  -0.419  1.00 20.00    -0.091 C 
HETATM    3  C10 UNL     1     -34.746  16.270  -1.415  1.00 20.00     0.268 C 
ENDROOT
BRANCH   3   4
HETATM    4  O11 UNL     1     -33.741  16.143  -2.391  1.00 20.00    -0.344 OA
BRANCH   4   5
HETATM    5  C4  UNL     1     -34.166  15.439  -3.500  1.00 20.00     0.047 C 
HETATM    6  C3  UNL     1     -34.189  14.096  -3.527  1.00 20.00     0.006 C 
HETATM    7  C5  UNL     1     -34.659  13.299  -4.707  1.00 20.00     0.029 C 
HETATM    8  C6  UNL     1     -34.841  14.133  -5.976  1.00 20.00     0.004 C 
HETATM    9  C7  UNL     1     -35.471  15.489  -5.665  1.00 20.00     0.011 C 
HETATM   10  C8  UNL     1     -34.637  16.296  -4.651  1.00 20.00     0.038 C 
HETATM   11  C9  UNL     1     -33.443  16.975  -5.330  1.00 20.00     0.017 C 
ENDBRANCH   4   5
ENDBRANCH   3   4
TORSDOF 2
ENDMDL
MODEL 5
REMARK VINA RESULT:      -4.6     11.782     13.080
REMARK  2 active torsions:
REMARK  status: ('A' for Active; 'I' for Inactive)
REMARK    1  A    between atoms: C4_4  and  O11_11 
REMARK    2  A    between atoms: C10_10  and  O11_11 
ROOT
HETATM    1  C1  UNL     1     -34.758  17.069  -0.078  1.00 20.00     0.014 C 
HETATM    2  C2  UNL     1     -34.323  17.084  -1.197  1.00 20.00    -0.091 C 
HETATM    3  C10 UNL     1     -33.792  17.106  -2.560  1.00 20.00     0.268 C 
ENDROOT
BRANCH   3   4
HETATM    4  O11 UNL     1     -33.417  15.811  -2.962  1.00 20.00    -0.344 OA
BRANCH   4   5
HETATM    5  C4  UNL     1     -33.897  15.486  -4.216  1.00 20.00     0.047 C 
HETATM    6  C3  UNL     1     -33.552  16.179  -5.314  1.00 20.00     0.006 C 
HETATM    7  C5  UNL     1     -34.041  15.845  -6.691  1.00 20.00     0.029 C 
HETATM    8  C6  UNL     1     -35.185  14.830  -6.705  1.00 20.00     0.004 C 
HETATM    9  C7  UNL     1     -34.958  13.720  -5.681  1.00 20.00     0.011 C 
HETATM   10  C8  UNL     1     -34.798  14.275  -4.252  1.00 20.00     0.038 C 
HETATM   11  C9  UNL     1     -36.159  14.607  -3.630  1.00 20.00     0.017 C 
ENDBRANCH   4   5
ENDBRANCH   3   4
TORSDOF 2
ENDMDL
MODEL 6
REMARK VINA RESULT:      -4.5     11.510     13.394
REMARK  2 active torsions:
REMARK  status: ('A' for Active; 'I' for Inactive)
REMARK    1  A    between atoms: C4_4  and  O11_11 
REMARK    2  A    between atoms: C10_10  and  O11_11 
ROOT
HETATM    1  C1  UNL     1     -35.987  18.811  -4.420  1.00 20.00     0.014 C 
HETATM    2  C2  UNL     1     -35.015  18.473  -5.038  1.00 20.00    -0.091 C 
HETATM    3  C10 UNL     1     -33.830  18.064  -5.794  1.00 20.00     0.268 C 
ENDROOT
BRANCH   3   4
HETATM    4  O11 UNL     1     -33.042  17.183  -5.033  1.00 20.00    -0.344 OA
BRANCH   4   5
HETATM    5  C4  UNL     1     -33.597  15.922  -4.939  1.00 20.00     0.047 C 
HETATM    6  C3  UNL     1     -34.268  15.360  -5.959  1.00 20.00     0.006 C 
HETATM    7  C5  UNL     1     -34.870  13.988  -5.898  1.00 20.00     0.029 C 
HETATM    8  C6  UNL     1     -34.903  13.396  -4.488  1.00 20.00     0.004 C 
HETATM    9  C7  UNL     1     -33.617  13.705  -3.724  1.00 20.00     0.011 C 
HETATM   10  C8  UNL     1     -33.353  15.220  -3.625  1.00 20.00     0.038 C 
HETATM   11  C9  UNL     1     -34.197  15.860  -2.517  1.00 20.00     0.017 C 
ENDBRANCH   4   5
ENDBRANCH   3   4
TORSDOF 2
ENDMDL
MODEL 7
REMARK VINA RESULT:      -4.4     11.364     12.942
REMARK  2 active torsions:
REMARK  status: ('A' for Active; 'I' for Inactive)
REMARK    1  A    between atoms: C4_4  and  O11_11 
REMARK    2  A    between atoms: C10_10  and  O11_11 
ROOT
HETATM    1  C1  UNL     1     -34.490  16.988  -0.520  1.00 20.00     0.014 C 
HETATM    2  C2  UNL     1     -34.480  17.404  -1.646  1.00 20.00    -0.091 C 
HETATM    3  C10 UNL     1     -34.468  17.913  -3.018  1.00 20.00     0.268 C 
ENDROOT
BRANCH   3   4
HETATM    4  O11 UNL     1     -33.501  17.239  -3.785  1.00 20.00    -0.344 OA
BRANCH   4   5
HETATM    5  C4  UNL     1     -33.849  15.927  -4.041  1.00 20.00     0.047 C 
HETATM    6  C3  UNL     1     -33.108  14.894  -3.607  1.00 20.00     0.006 C 
HETATM    7  C5  UNL     1     -33.464  13.459  -3.853  1.00 20.00     0.029 C 
HETATM    8  C6  UNL     1     -34.582  13.273  -4.880  1.00 20.00     0.004 C 
HETATM    9  C7  UNL     1     -35.683  14.317  -4.699  1.00 20.00     0.011 C 
HETATM   10  C8  UNL     1     -35.139  15.755  -4.806  1.00 20.00     0.038 C 
HETATM   11  C9  UNL     1     -34.948  16.169  -6.270  1.00 20.00     0.017 C 
ENDBRANCH   4   5
ENDBRANCH   3   4
TORSDOF 2
ENDMDL
MODEL 8
REMARK VINA RESULT:      -4.3     11.707     13.248
REMARK  2 active torsions:
REMARK  status: ('A' for Active; 'I' for Inactive)
REMARK    1  A    between atoms: C4_4  and  O11_11 
REMARK    2  A    between atoms: C10_10  and  O11_11 
ROOT
HETATM    1  C1  UNL     1     -34.793  17.248  -0.264  1.00 20.00     0.014 C 
HETATM    2  C2  UNL     1     -34.588  16.638  -1.277  1.00 20.00    -0.091 C 
HETATM    3  C10 UNL     1     -34.334  15.894  -2.511  1.00 20.00     0.268 C 
ENDROOT
BRANCH   3   4
HETATM    4  O11 UNL     1     -35.515  15.279  -2.966  1.00 20.00    -0.344 OA
BRANCH   4   5
HETATM    5  C4  UNL     1     -35.622  15.290  -4.343  1.00 20.00     0.047 C 
HETATM    6  C3  UNL     1     -36.685  15.817  -4.972  1.00 20.00     0.006 C 
HETATM    7  C5  UNL     1     -36.827  15.861  -6.464  1.00 20.00     0.029 C 
HETATM    8  C6  UNL     1     -35.797  15.004  -7.201  1.00 20.00     0.004 C 
HETATM    9  C7  UNL     1     -34.417  15.114  -6.558  1.00 20.00     0.011 C 
HETATM   10  C8  UNL     1     -34.436  14.705  -5.072  1.00 20.00     0.038 C 
HETATM   11  C9  UNL     1     -34.417  13.180  -4.916  1.00 20.00     0.017 C 
ENDBRANCH   4   5
ENDBRANCH   3   4
TORSDOF 2
ENDMDL
MODEL 9
REMARK VINA RESULT:      -4.3     12.018     13.575
REMARK  2 active torsions:
REMARK  status: ('A' for Active; 'I' for Inactive)
REMARK    1  A    between atoms: C4_4  and  O11_11 
REMARK    2  A    between atoms: C10_10  and  O11_11 
ROOT
HETATM    1  C1  UNL     1     -34.542  14.849  -7.497  1.00 20.00     0.014 C 
HETATM    2  C2  UNL     1     -34.500  15.905  -6.928  1.00 20.00    -0.091 C 
HETATM    3  C10 UNL     1     -34.452  17.193  -6.235  1.00 20.00     0.268 C 
ENDROOT
BRANCH   3   4
HETATM    4  O11 UNL     1     -33.342  17.246  -5.373  1.00 20.00    -0.344 OA
BRANCH   4   5
HETATM    5  C4  UNL     1     -33.699  17.148  -4.043  1.00 20.00     0.047 C 
HETATM    6  C3  UNL     1     -33.756  18.223  -3.238  1.00 20.00     0.006 C 
HETATM    7  C5  UNL     1     -34.154  18.155  -1.794  1.00 20.00     0.029 C 
HETATM    8  C6  UNL     1     -34.216  16.730  -1.242  1.00 20.00     0.004 C 
HETATM    9  C7  UNL     1     -34.832  15.767  -2.254  1.00 20.00     0.011 C 
HETATM   10  C8  UNL     1     -34.057  15.754  -3.586  1.00 20.00     0.038 C 
HETATM   11  C9  UNL     1     -32.797  14.888  -3.488  1.00 20.00     0.017 C 
ENDBRANCH   4   5
ENDBRANCH   3   4
TORSDOF 2
ENDMDL
