MODEL 1
REMARK VINA RESULT:      -4.8      0.000      0.000
REMARK  1 active torsions:
REMARK  status: ('A' for Active; 'I' for Inactive)
REMARK    1  A    between atoms: C3_3  and  C7_7 
ROOT
HETATM    1  C1  UNL     1     -35.963  16.244  -2.872  1.00 20.00    -0.020 C 
HETATM    2  C2  UNL     1     -35.984  16.350  -4.212  1.00 20.00    -0.086 C 
HETATM    3  C4  UNL     1     -34.773  16.059  -5.064  1.00 20.00     0.045 C 
HETATM    4  C5  UNL     1     -33.447  15.931  -2.905  1.00 20.00     0.020 C 
HETATM    5  C6  UNL     1     -34.743  15.860  -2.076  1.00 20.00     0.005 C 
HETATM    6  C7  UNL     1     -33.620  15.375  -4.317  1.00 20.00     0.059 C 
HETATM    7  C8  UNL     1     -37.223  16.762  -4.951  1.00 20.00     0.043 C 
HETATM    8  C10 UNL     1     -34.612  16.735  -0.828  1.00 20.00     0.014 C 
ENDROOT
BRANCH   6   9
HETATM    9  C3  UNL     1     -33.815  13.886  -4.270  1.00 20.00     0.127 C 
HETATM   10  C9  UNL     1     -34.912  13.320  -5.131  1.00 20.00     0.091 C 
HETATM   11  O11 UNL     1     -33.111  13.166  -3.564  1.00 20.00    -0.298 OA
ENDBRANCH   6   9
TORSDOF 1
ENDMDL
MODEL 2
REMARK VINA RESULT:      -4.7      1.685      3.093
REMARK  1 active torsions:
REMARK  status: ('A' for Active; 'I' for Inactive)
REMARK    1  A    between atoms: C3_3  and  C7_7 
ROOT
HETATM    1  C1  UNL     1     -36.150  15.991  -2.937  1.00 20.00    -0.020 C 
HETATM    2  C2  UNL     1     -34.907  15.865  -2.439  1.00 20.00    -0.086 C 
HETATM    3  C4  UNL     1     -33.853  15.015  -3.106  1.00 20.00     0.045 C 
HETATM    4  C5  UNL     1     -35.693  14.157  -4.627  1.00 20.00     0.020 C 
HETATM    5  C6  UNL     1     -36.636  15.289  -4.178  1.00 20.00     0.005 C 
HETATM    6  C7  UNL     1     -34.218  14.541  -4.519  1.00 20.00     0.059 C 
HETATM    7  C8  UNL     1     -34.484  16.570  -1.184  1.00 20.00     0.043 C 
HETATM    8  C10 UNL     1     -38.048  14.738  -3.971  1.00 20.00     0.014 C 
ENDROOT
BRANCH   6   9
HETATM    9  C3  UNL     1     -33.876  15.585  -5.544  1.00 20.00     0.127 C 
HETATM   10  C9  UNL     1     -34.331  15.322  -6.955  1.00 20.00     0.091 C 
HETATM   11  O11 UNL     1     -33.258  16.604  -5.244  1.00 20.00    -0.298 OA
ENDBRANCH   6   9
TORSDOF 1
ENDMDL
MODEL 3
REMARK VINA RESULT:      -4.6      1.236      1.395
REMARK  1 active torsions:
REMARK  status: ('A' for Active; 'I' for Inactive)
REMARK    1  A    between atoms: C3_3  and  C7_7 
ROOT
HETATM    1  C1  UNL     1     -35.215  16.996  -3.561  1.00 20.00    -0.020 C 
HETATM    2  C2  UNL     1     -34.668  17.122  -4.783  1.00 20.00    -0.086 C 
HETATM    3  C4  UNL     1     -33.675  16.124  -5.328  1.00 20.00     0.045 C 
HETATM    4  C5  UNL     1     -33.622  15.103  -3.007  1.00 20.00     0.020 C 
HETATM    5  C6  UNL     1     -34.886  15.884  -2.600  1.00 20.00     0.005 C 
HETATM    6  C7  UNL     1     -33.555  14.833  -4.509  1.00 20.00     0.059 C 
HETATM    7  C8  UNL     1     -35.015  18.265  -5.690  1.00 20.00     0.043 C 
HETATM    8  C10 UNL     1     -34.728  16.426  -1.178  1.00 20.00     0.014 C 
ENDROOT
BRANCH   6   9
HETATM    9  C3  UNL     1     -34.612  13.841  -4.907  1.00 20.00     0.127 C 
HETATM   10  C9  UNL     1     -35.323  14.096  -6.208  1.00 20.00     0.091 C 
HETATM   11  O11 UNL     1     -34.879  12.868  -4.204  1.00 20.00    -0.298 OA
ENDBRANCH   6   9
TORSDOF 1
ENDMDL
MODEL 4
REMARK VINA RESULT:      -4.5      2.308      3.720
REMARK  1 active torsions:
REMARK  status: ('A' for Active; 'I' for Inactive)
REMARK    1  A    between atoms: C3_3  and  C7_7 
ROOT
HETATM    1  C1  UNL     1     -34.546  15.452  -2.386  1.00 20.00    -0.020 C 
HETATM    2  C2  UNL     1     -34.353  16.665  -1.839  1.00 20.00    -0.086 C 
HETATM    3  C4  UNL     1     -33.761  17.816  -2.615  1.00 20.00     0.045 C 
HETATM    4  C5  UNL     1     -33.247  16.142  -4.451  1.00 20.00     0.020 C 
HETATM    5  C6  UNL     1     -34.173  15.098  -3.801  1.00 20.00     0.005 C 
HETATM    6  C7  UNL     1     -33.659  17.577  -4.128  1.00 20.00     0.059 C 
HETATM    7  C8  UNL     1     -34.722  16.956  -0.414  1.00 20.00     0.043 C 
HETATM    8  C10 UNL     1     -33.520  13.715  -3.860  1.00 20.00     0.014 C 
ENDROOT
BRANCH   6   9
HETATM    9  C3  UNL     1     -34.952  17.914  -4.816  1.00 20.00     0.127 C 
HETATM   10  C9  UNL     1     -35.036  17.605  -6.286  1.00 20.00     0.091 C 
HETATM   11  O11 UNL     1     -35.895  18.416  -4.206  1.00 20.00    -0.298 OA
ENDBRANCH   6   9
TORSDOF 1
ENDMDL
MODEL 5
REMARK VINA RESULT:      -4.5      1.707      3.370
REMARK  1 active torsions:
REMARK  status: ('A' for Active; 'I' for Inactive)
REMARK    1  A    between atoms: C3_3  and  C7_7 
ROOT
HETATM    1  C1  UNL     1     -35.313  16.220  -6.133  1.00 20.00    -0.020 C 
HETATM    2  C2  UNL     1     -34.581  16.688  -5.107  1.00 20.00    -0.086 C 
HETATM    3  C4  UNL     1     -34.693  16.123  -3.712  1.00 20.00     0.045 C 
HETATM    4  C5  UNL     1     -36.703  14.818  -4.542  1.00 20.00     0.020 C 
HETATM    5  C6  UNL     1     -36.334  15.120  -6.006  1.00 20.00     0.005 C 
HETATM    6  C7  UNL     1     -35.488  14.814  -3.617  1.00 20.00     0.059 C 
HETATM    7  C8  UNL     1     -33.594  17.804  -5.285  1.00 20.00     0.043 C 
HETATM    8  C10 UNL     1     -37.597  15.458  -6.802  1.00 20.00     0.014 C 
ENDROOT
BRANCH   6   9
HETATM    9  C3  UNL     1     -34.612  13.629  -3.913  1.00 20.00     0.127 C 
HETATM   10  C9  UNL     1     -33.140  13.792  -3.647  1.00 20.00     0.091 C 
HETATM   11  O11 UNL     1     -35.077  12.577  -4.349  1.00 20.00    -0.298 OA
ENDBRANCH   6   9
TORSDOF 1
ENDMDL
MODEL 6
REMARK VINA RESULT:      -4.4      1.911      3.076
REMARK  1 active torsions:
REMARK  status: ('A' for Active; 'I' for Inactive)
REMARK    1  A    between atoms: C3_3  and  C7_7 
ROOT
HETATM    1  C1  UNL     1     -34.353  15.151  -2.647  1.00 20.00    -0.020 C 
HETATM    2  C2  UNL     1     -34.882  14.788  -3.828  1.00 20.00    -0.086 C 
HETATM    3  C4  UNL     1     -35.435  15.793  -4.808  1.00 20.00     0.045 C 
HETATM    4  C5  UNL     1     -35.167  17.529  -2.978  1.00 20.00     0.020 C 
HETATM    5  C6  UNL     1     -34.280  16.574  -2.158  1.00 20.00     0.005 C 
HETATM    6  C7  UNL     1     -35.099  17.254  -4.479  1.00 20.00     0.059 C 
HETATM    7  C8  UNL     1     -34.951  13.351  -4.254  1.00 20.00     0.043 C 
HETATM    8  C10 UNL     1     -34.654  16.659  -0.677  1.00 20.00     0.014 C 
ENDROOT
BRANCH   6   9
HETATM    9  C3  UNL     1     -33.747  17.631  -5.017  1.00 20.00     0.127 C 
HETATM   10  C9  UNL     1     -33.433  19.101  -5.084  1.00 20.00     0.091 C 
HETATM   11  O11 UNL     1     -32.938  16.779  -5.380  1.00 20.00    -0.298 OA
ENDBRANCH   6   9
TORSDOF 1
ENDMDL
MODEL 7
REMARK VINA RESULT:      -4.3      1.386      3.178
REMARK  1 active torsions:
REMARK  status: ('A' for Active; 'I' for Inactive)
REMARK    1  A    between atoms: C3_3  and  C7_7 
ROOT
HETATM    1  C1  UNL     1     -33.701  16.919  -4.118  1.00 20.00    -0.020 C 
HETATM    2  C2  UNL     1     -34.158  16.504  -2.924  1.00 20.00    -0.086 C 
HETATM    3  C4  UNL     1     -35.190  15.412  -2.789  1.00 20.00     0.045 C 
HETATM    4  C5  UNL     1     -35.472  15.548  -5.307  1.00 20.00     0.020 C 
HETATM    5  C6  UNL     1     -34.178  16.373  -5.439  1.00 20.00     0.005 C 
HETATM    6  C7  UNL     1     -35.465  14.633  -4.083  1.00 20.00     0.059 C 
HETATM    7  C8  UNL     1     -33.663  17.101  -1.639  1.00 20.00     0.043 C 
HETATM    8  C10 UNL     1     -34.383  17.503  -6.450  1.00 20.00     0.014 C 
ENDROOT
BRANCH   6   9
HETATM    9  C3  UNL     1     -34.468  13.524  -4.268  1.00 20.00     0.127 C 
HETATM   10  C9  UNL     1     -33.177  13.642  -3.505  1.00 20.00     0.091 C 
HETATM   11  O11 UNL     1     -34.699  12.567  -5.004  1.00 20.00    -0.298 OA
ENDBRANCH   6   9
TORSDOF 1
ENDMDL
MODEL 8
REMARK VINA RESULT:      -4.3     11.568     13.084
REMARK  1 active torsions:
REMARK  status: ('A' for Active; 'I' for Inactive)
REMARK    1  A    between atoms: C3_3  and  C7_7 
ROOT
HETATM    1  C1  UNL     1     -42.663   5.225  -3.090  1.00 20.00    -0.020 C 
HETATM    2  C2  UNL     1     -41.928   4.298  -2.451  1.00 20.00    -0.086 C 
HETATM    3  C4  UNL     1     -41.155   4.608  -1.193  1.00 20.00     0.045 C 
HETATM    4  C5  UNL     1     -41.707   7.048  -1.610  1.00 20.00     0.020 C 
HETATM    5  C6  UNL     1     -42.775   6.661  -2.651  1.00 20.00     0.005 C 
HETATM    6  C7  UNL     1     -41.491   5.963  -0.557  1.00 20.00     0.059 C 
HETATM    7  C8  UNL     1     -41.834   2.885  -2.948  1.00 20.00     0.043 C 
HETATM    8  C10 UNL     1     -42.694   7.604  -3.854  1.00 20.00     0.014 C 
ENDROOT
BRANCH   6   9
HETATM    9  C3  UNL     1     -42.696   5.857   0.335  1.00 20.00     0.127 C 
HETATM   10  C9  UNL     1     -42.973   4.506   0.939  1.00 20.00     0.091 C 
HETATM   11  O11 UNL     1     -43.417   6.826   0.562  1.00 20.00    -0.298 OA
ENDBRANCH   6   9
TORSDOF 1
ENDMDL
MODEL 9
REMARK VINA RESULT:      -4.3      1.616      3.404
REMARK  1 active torsions:
REMARK  status: ('A' for Active; 'I' for Inactive)
REMARK    1  A    between atoms: C3_3  and  C7_7 
ROOT
HETATM    1  C1  UNL     1     -36.248  15.751  -5.913  1.00 20.00    -0.020 C 
HETATM    2  C2  UNL     1     -36.973  15.464  -4.818  1.00 20.00    -0.086 C 
HETATM    3  C4  UNL     1     -36.501  14.484  -3.772  1.00 20.00     0.045 C 
HETATM    4  C5  UNL     1     -34.633  13.872  -5.375  1.00 20.00     0.020 C 
HETATM    5  C6  UNL     1     -34.919  15.118  -6.234  1.00 20.00     0.005 C 
HETATM    6  C7  UNL     1     -35.033  14.060  -3.913  1.00 20.00     0.059 C 
HETATM    7  C8  UNL     1     -38.303  16.109  -4.561  1.00 20.00     0.043 C 
HETATM    8  C10 UNL     1     -34.835  14.757  -7.719  1.00 20.00     0.014 C 
ENDROOT
BRANCH   6   9
HETATM    9  C3  UNL     1     -34.120  15.050  -3.246  1.00 20.00     0.127 C 
HETATM   10  C9  UNL     1     -34.731  15.928  -2.188  1.00 20.00     0.091 C 
HETATM   11  O11 UNL     1     -32.931  15.135  -3.549  1.00 20.00    -0.298 OA
ENDBRANCH   6   9
TORSDOF 1
ENDMDL
