MODEL 1
REMARK VINA RESULT:      -4.6      0.000      0.000
REMARK  1 active torsions:
REMARK  status: ('A' for Active; 'I' for Inactive)
REMARK    1  A    between atoms: C3_3  and  C6_6 
ROOT
HETATM    1  C1  UNL     1     -34.523   4.551   6.125  1.00 20.00    -0.003 C 
HETATM    2  C2  UNL     1     -34.076   5.794   6.340  1.00 20.00     0.131 C 
HETATM    3  C4  UNL     1     -35.140   4.155   4.825  1.00 20.00     0.032 C 
HETATM    4  C5  UNL     1     -35.515   5.388   4.006  1.00 20.00     0.045 C 
HETATM    5  C6  UNL     1     -34.451   6.482   4.100  1.00 20.00     0.214 C 
HETATM    6  O8  UNL     1     -34.073   6.819   5.434  1.00 20.00    -0.349 OA
ENDROOT
BRANCH   5   7
HETATM    7  C3  UNL     1     -33.218   6.117   3.327  1.00 20.00     0.248 C 
HETATM    8  O7  UNL     1     -33.217   5.204   2.507  1.00 20.00    -0.277 OA
HETATM    9 CL9  UNL     1     -31.864   7.126   3.741  1.00 20.00    -0.041 Cl
ENDBRANCH   5   7
TORSDOF 1
ENDMDL
MODEL 2
REMARK VINA RESULT:      -4.0     12.283     13.406
REMARK  1 active torsions:
REMARK  status: ('A' for Active; 'I' for Inactive)
REMARK    1  A    between atoms: C3_3  and  C6_6 
ROOT
HETATM    1  C1  UNL     1     -33.274  16.551  -4.555  1.00 20.00    -0.003 C 
HETATM    2  C2  UNL     1     -34.431  16.777  -5.188  1.00 20.00     0.131 C 
HETATM    3  C4  UNL     1     -33.124  15.438  -3.571  1.00 20.00     0.032 C 
HETATM    4  C5  UNL     1     -34.491  14.908  -3.141  1.00 20.00     0.045 C 
HETATM    5  C6  UNL     1     -35.468  14.829  -4.315  1.00 20.00     0.214 C 
HETATM    6  O8  UNL     1     -35.574  16.034  -5.072  1.00 20.00    -0.349 OA
ENDROOT
BRANCH   5   7
HETATM    7  C3  UNL     1     -35.119  13.704  -5.244  1.00 20.00     0.248 C 
HETATM    8  O7  UNL     1     -34.737  12.615  -4.826  1.00 20.00    -0.277 OA
HETATM    9 CL9  UNL     1     -35.328  14.145  -6.913  1.00 20.00    -0.041 Cl
ENDBRANCH   5   7
TORSDOF 1
ENDMDL
MODEL 3
REMARK VINA RESULT:      -4.0     12.024     12.920
REMARK  1 active torsions:
REMARK  status: ('A' for Active; 'I' for Inactive)
REMARK    1  A    between atoms: C3_3  and  C6_6 
ROOT
HETATM    1  C1  UNL     1     -34.376  13.312  -4.824  1.00 20.00    -0.003 C 
HETATM    2  C2  UNL     1     -35.082  14.228  -5.496  1.00 20.00     0.131 C 
HETATM    3  C4  UNL     1     -33.460  13.693  -3.710  1.00 20.00     0.032 C 
HETATM    4  C5  UNL     1     -33.175  15.193  -3.731  1.00 20.00     0.045 C 
HETATM    5  C6  UNL     1     -34.425  16.007  -4.070  1.00 20.00     0.214 C 
HETATM    6  O8  UNL     1     -35.107  15.573  -5.246  1.00 20.00    -0.349 OA
ENDROOT
BRANCH   5   7
HETATM    7  C3  UNL     1     -35.396  16.021  -2.927  1.00 20.00     0.248 C 
HETATM    8  O7  UNL     1     -36.604  15.887  -3.103  1.00 20.00    -0.277 OA
HETATM    9 CL9  UNL     1     -34.602  16.244  -1.396  1.00 20.00    -0.041 Cl
ENDBRANCH   5   7
TORSDOF 1
ENDMDL
MODEL 4
REMARK VINA RESULT:      -3.9     12.248     13.007
REMARK  1 active torsions:
REMARK  status: ('A' for Active; 'I' for Inactive)
REMARK    1  A    between atoms: C3_3  and  C6_6 
ROOT
HETATM    1  C1  UNL     1     -35.046  13.647  -4.135  1.00 20.00    -0.003 C 
HETATM    2  C2  UNL     1     -33.708  13.633  -4.093  1.00 20.00     0.131 C 
HETATM    3  C4  UNL     1     -35.837  14.757  -3.528  1.00 20.00     0.032 C 
HETATM    4  C5  UNL     1     -34.970  15.587  -2.583  1.00 20.00     0.045 C 
HETATM    5  C6  UNL     1     -33.562  15.802  -3.141  1.00 20.00     0.214 C 
HETATM    6  O8  UNL     1     -32.907  14.606  -3.559  1.00 20.00    -0.349 OA
ENDROOT
BRANCH   5   7
HETATM    7  C3  UNL     1     -33.568  16.774  -4.284  1.00 20.00     0.248 C 
HETATM    8  O7  UNL     1     -32.886  16.594  -5.288  1.00 20.00    -0.277 OA
HETATM    9 CL9  UNL     1     -34.628  18.121  -3.991  1.00 20.00    -0.041 Cl
ENDBRANCH   5   7
TORSDOF 1
ENDMDL
MODEL 5
REMARK VINA RESULT:      -3.9     12.070     13.136
REMARK  1 active torsions:
REMARK  status: ('A' for Active; 'I' for Inactive)
REMARK    1  A    between atoms: C3_3  and  C6_6 
ROOT
HETATM    1  C1  UNL     1     -33.035  14.985  -3.747  1.00 20.00    -0.003 C 
HETATM    2  C2  UNL     1     -33.436  13.709  -3.719  1.00 20.00     0.131 C 
HETATM    3  C4  UNL     1     -33.536  15.941  -4.777  1.00 20.00     0.032 C 
HETATM    4  C5  UNL     1     -34.199  15.194  -5.932  1.00 20.00     0.045 C 
HETATM    5  C6  UNL     1     -35.039  14.015  -5.442  1.00 20.00     0.214 C 
HETATM    6  O8  UNL     1     -34.352  13.132  -4.557  1.00 20.00    -0.349 OA
ENDROOT
BRANCH   5   7
HETATM    7  C3  UNL     1     -36.301  14.479  -4.776  1.00 20.00     0.248 C 
HETATM    8  O7  UNL     1     -36.778  13.888  -3.812  1.00 20.00    -0.277 OA
HETATM    9 CL9  UNL     1     -36.952  15.904  -5.530  1.00 20.00    -0.041 Cl
ENDBRANCH   5   7
TORSDOF 1
ENDMDL
MODEL 6
REMARK VINA RESULT:      -3.9     12.445     13.365
REMARK  1 active torsions:
REMARK  status: ('A' for Active; 'I' for Inactive)
REMARK    1  A    between atoms: C3_3  and  C6_6 
ROOT
HETATM    1  C1  UNL     1     -34.914  13.905  -5.610  1.00 20.00    -0.003 C 
HETATM    2  C2  UNL     1     -34.411  15.008  -6.177  1.00 20.00     0.131 C 
HETATM    3  C4  UNL     1     -34.572  13.519  -4.210  1.00 20.00     0.032 C 
HETATM    4  C5  UNL     1     -33.350  14.292  -3.718  1.00 20.00     0.045 C 
HETATM    5  C6  UNL     1     -33.375  15.751  -4.175  1.00 20.00     0.214 C 
HETATM    6  O8  UNL     1     -33.591  15.923  -5.575  1.00 20.00    -0.349 OA
ENDROOT
BRANCH   5   7
HETATM    7  C3  UNL     1     -34.405  16.543  -3.426  1.00 20.00     0.248 C 
HETATM    8  O7  UNL     1     -35.080  17.408  -3.976  1.00 20.00    -0.277 OA
HETATM    9 CL9  UNL     1     -34.499  16.079  -1.754  1.00 20.00    -0.041 Cl
ENDBRANCH   5   7
TORSDOF 1
ENDMDL
MODEL 7
REMARK VINA RESULT:      -3.9     12.233     13.495
REMARK  1 active torsions:
REMARK  status: ('A' for Active; 'I' for Inactive)
REMARK    1  A    between atoms: C3_3  and  C6_6 
ROOT
HETATM    1  C1  UNL     1     -34.408  16.138  -6.585  1.00 20.00    -0.003 C 
HETATM    2  C2  UNL     1     -35.574  15.495  -6.451  1.00 20.00     0.131 C 
HETATM    3  C4  UNL     1     -33.483  16.331  -5.431  1.00 20.00     0.032 C 
HETATM    4  C5  UNL     1     -34.202  16.063  -4.110  1.00 20.00     0.045 C 
HETATM    5  C6  UNL     1     -35.142  14.860  -4.205  1.00 20.00     0.214 C 
HETATM    6  O8  UNL     1     -36.046  14.908  -5.308  1.00 20.00    -0.349 OA
ENDROOT
BRANCH   5   7
HETATM    7  C3  UNL     1     -34.378  13.570  -4.263  1.00 20.00     0.248 C 
HETATM    8  O7  UNL     1     -34.838  12.571  -4.807  1.00 20.00    -0.277 OA
HETATM    9 CL9  UNL     1     -32.827  13.694  -3.488  1.00 20.00    -0.041 Cl
ENDBRANCH   5   7
TORSDOF 1
ENDMDL
MODEL 8
REMARK VINA RESULT:      -3.8     12.227     13.235
REMARK  1 active torsions:
REMARK  status: ('A' for Active; 'I' for Inactive)
REMARK    1  A    between atoms: C3_3  and  C6_6 
ROOT
HETATM    1  C1  UNL     1     -34.044  15.896  -6.130  1.00 20.00    -0.003 C 
HETATM    2  C2  UNL     1     -33.223  16.341  -5.171  1.00 20.00     0.131 C 
HETATM    3  C4  UNL     1     -34.826  14.636  -5.969  1.00 20.00     0.032 C 
HETATM    4  C5  UNL     1     -34.278  13.802  -4.812  1.00 20.00     0.045 C 
HETATM    5  C6  UNL     1     -33.883  14.672  -3.618  1.00 20.00     0.214 C 
HETATM    6  O8  UNL     1     -33.026  15.764  -3.946  1.00 20.00    -0.349 OA
ENDROOT
BRANCH   5   7
HETATM    7  C3  UNL     1     -35.091  15.204  -2.903  1.00 20.00     0.248 C 
HETATM    8  O7  UNL     1     -36.230  14.930  -3.268  1.00 20.00    -0.277 OA
HETATM    9 CL9  UNL     1     -34.660  16.212  -1.554  1.00 20.00    -0.041 Cl
ENDBRANCH   5   7
TORSDOF 1
ENDMDL
MODEL 9
REMARK VINA RESULT:      -3.8     12.402     12.982
REMARK  1 active torsions:
REMARK  status: ('A' for Active; 'I' for Inactive)
REMARK    1  A    between atoms: C3_3  and  C6_6 
ROOT
HETATM    1  C1  UNL     1     -33.750  16.125  -2.515  1.00 20.00    -0.003 C 
HETATM    2  C2  UNL     1     -33.421  15.833  -3.779  1.00 20.00     0.131 C 
HETATM    3  C4  UNL     1     -35.164  16.374  -2.111  1.00 20.00     0.032 C 
HETATM    4  C5  UNL     1     -36.041  16.623  -3.337  1.00 20.00     0.045 C 
HETATM    5  C6  UNL     1     -35.678  15.695  -4.497  1.00 20.00     0.214 C 
HETATM    6  O8  UNL     1     -34.290  15.681  -4.824  1.00 20.00    -0.349 OA
ENDROOT
BRANCH   5   7
HETATM    7  C3  UNL     1     -36.127  14.288  -4.234  1.00 20.00     0.248 C 
HETATM    8  O7  UNL     1     -37.228  14.040  -3.751  1.00 20.00    -0.277 OA
HETATM    9 CL9  UNL     1     -34.922  13.121  -4.692  1.00 20.00    -0.041 Cl
ENDBRANCH   5   7
TORSDOF 1
ENDMDL
