MODEL 1
REMARK VINA RESULT:      -4.7      0.000      0.000
REMARK  0 active torsions:
REMARK  status: ('A' for Active; 'I' for Inactive)
ROOT
HETATM    1  C1  UNL     1     -33.904  17.133  -2.380  1.00 20.00     0.004 A 
HETATM    2  C2  UNL     1     -34.043  15.797  -2.360  1.00 20.00     0.031 A 
HETATM    3  C3  UNL     1     -34.053  17.867  -3.618  1.00 20.00     0.017 A 
HETATM    4  C4  UNL     1     -35.099  14.262  -6.889  1.00 20.00     0.044 A 
HETATM    5  C5  UNL     1     -34.474  13.709  -3.563  1.00 20.00     0.146 A 
HETATM    6  C6  UNL     1     -34.337  17.189  -4.741  1.00 20.00     0.093 A 
HETATM    7  C7  UNL     1     -34.350  15.056  -3.585  1.00 20.00     0.053 A 
HETATM    8  C8  UNL     1     -34.775  15.206  -6.005  1.00 20.00     0.136 A 
HETATM    9  C9  UNL     1     -34.896  13.723  -5.663  1.00 20.00     0.069 A 
HETATM   10  N10 UNL     1     -34.773  12.968  -4.688  1.00 20.00    -0.260 NA
HETATM   11  N11 UNL     1     -34.505  15.803  -4.797  1.00 20.00    -0.333 N 
ENDROOT
TORSDOF 0
ENDMDL
MODEL 2
REMARK VINA RESULT:      -4.6      1.250      4.220
REMARK  0 active torsions:
REMARK  status: ('A' for Active; 'I' for Inactive)
ROOT
HETATM    1  C1  UNL     1     -34.550  14.443  -6.127  1.00 20.00     0.004 A 
HETATM    2  C2  UNL     1     -34.167  15.711  -5.901  1.00 20.00     0.031 A 
HETATM    3  C3  UNL     1     -34.957  13.593  -5.029  1.00 20.00     0.017 A 
HETATM    4  C4  UNL     1     -34.507  16.619  -1.101  1.00 20.00     0.044 A 
HETATM    5  C5  UNL     1     -33.752  17.532  -4.319  1.00 20.00     0.146 A 
HETATM    6  C6  UNL     1     -34.947  14.097  -3.784  1.00 20.00     0.093 A 
HETATM    7  C7  UNL     1     -34.154  16.260  -4.544  1.00 20.00     0.053 A 
HETATM    8  C8  UNL     1     -34.579  15.813  -2.160  1.00 20.00     0.136 A 
HETATM    9  C9  UNL     1     -34.125  17.270  -2.226  1.00 20.00     0.069 A 
HETATM   10  N10 UNL     1     -33.732  18.097  -3.061  1.00 20.00    -0.260 NA
HETATM   11  N11 UNL     1     -34.570  15.406  -3.472  1.00 20.00    -0.333 N 
ENDROOT
TORSDOF 0
ENDMDL
MODEL 3
REMARK VINA RESULT:      -4.5      1.089      3.335
REMARK  0 active torsions:
REMARK  status: ('A' for Active; 'I' for Inactive)
ROOT
HETATM    1  C1  UNL     1     -35.311  15.473  -7.918  1.00 20.00     0.004 A 
HETATM    2  C2  UNL     1     -35.240  14.355  -7.176  1.00 20.00     0.031 A 
HETATM    3  C3  UNL     1     -34.965  16.756  -7.344  1.00 20.00     0.017 A 
HETATM    4  C4  UNL     1     -33.679  15.545  -2.689  1.00 20.00     0.044 A 
HETATM    5  C5  UNL     1     -34.758  13.282  -5.029  1.00 20.00     0.146 A 
HETATM    6  C6  UNL     1     -34.571  16.806  -6.062  1.00 20.00     0.093 A 
HETATM    7  C7  UNL     1     -34.812  14.409  -5.777  1.00 20.00     0.053 A 
HETATM    8  C8  UNL     1     -34.069  15.853  -3.927  1.00 20.00     0.136 A 
HETATM    9  C9  UNL     1     -34.066  14.434  -3.361  1.00 20.00     0.069 A 
HETATM   10  N10 UNL     1     -34.352  13.280  -3.710  1.00 20.00    -0.260 NA
HETATM   11  N11 UNL     1     -34.465  15.686  -5.232  1.00 20.00    -0.333 N 
ENDROOT
TORSDOF 0
ENDMDL
MODEL 4
REMARK VINA RESULT:      -4.5     11.700     13.064
REMARK  0 active torsions:
REMARK  status: ('A' for Active; 'I' for Inactive)
ROOT
HETATM    1  C1  UNL     1     -41.205   7.265  -0.491  1.00 20.00     0.004 A 
HETATM    2  C2  UNL     1     -42.100   7.126  -1.485  1.00 20.00     0.031 A 
HETATM    3  C3  UNL     1     -40.416   6.134  -0.054  1.00 20.00     0.017 A 
HETATM    4  C4  UNL     1     -41.981   2.493  -3.067  1.00 20.00     0.044 A 
HETATM    5  C5  UNL     1     -43.206   5.695  -3.134  1.00 20.00     0.146 A 
HETATM    6  C6  UNL     1     -40.591   4.949  -0.660  1.00 20.00     0.093 A 
HETATM    7  C7  UNL     1     -42.293   5.834  -2.145  1.00 20.00     0.053 A 
HETATM    8  C8  UNL     1     -41.608   3.471  -2.242  1.00 20.00     0.136 A 
HETATM    9  C9  UNL     1     -42.662   3.633  -3.335  1.00 20.00     0.069 A 
HETATM   10  N10 UNL     1     -43.417   4.502  -3.793  1.00 20.00    -0.260 NA
HETATM   11  N11 UNL     1     -41.494   4.730  -1.704  1.00 20.00    -0.333 N 
ENDROOT
TORSDOF 0
ENDMDL
MODEL 5
REMARK VINA RESULT:      -4.4      1.601      3.381
REMARK  0 active torsions:
REMARK  status: ('A' for Active; 'I' for Inactive)
ROOT
HETATM    1  C1  UNL     1     -33.701  13.831  -3.708  1.00 20.00     0.004 A 
HETATM    2  C2  UNL     1     -33.334  15.123  -3.766  1.00 20.00     0.031 A 
HETATM    3  C3  UNL     1     -34.495  13.248  -4.767  1.00 20.00     0.017 A 
HETATM    4  C4  UNL     1     -35.070  17.063  -7.914  1.00 20.00     0.044 A 
HETATM    5  C5  UNL     1     -33.368  17.268  -4.944  1.00 20.00     0.146 A 
HETATM    6  C6  UNL     1     -34.854  14.018  -5.806  1.00 20.00     0.093 A 
HETATM    7  C7  UNL     1     -33.726  15.964  -4.898  1.00 20.00     0.053 A 
HETATM    8  C8  UNL     1     -34.941  16.067  -7.037  1.00 20.00     0.136 A 
HETATM    9  C9  UNL     1     -34.359  17.464  -6.833  1.00 20.00     0.069 A 
HETATM   10  N10 UNL     1     -33.705  18.098  -5.994  1.00 20.00    -0.260 NA
HETATM   11  N11 UNL     1     -34.504  15.364  -5.940  1.00 20.00    -0.333 N 
ENDROOT
TORSDOF 0
ENDMDL
MODEL 6
REMARK VINA RESULT:      -4.3      1.696      3.039
REMARK  0 active torsions:
REMARK  status: ('A' for Active; 'I' for Inactive)
ROOT
HETATM    1  C1  UNL     1     -33.706  13.644  -3.792  1.00 20.00     0.004 A 
HETATM    2  C2  UNL     1     -34.418  13.470  -4.918  1.00 20.00     0.031 A 
HETATM    3  C3  UNL     1     -33.114  14.930  -3.491  1.00 20.00     0.017 A 
HETATM    4  C4  UNL     1     -34.537  17.708  -7.370  1.00 20.00     0.044 A 
HETATM    5  C5  UNL     1     -35.316  14.388  -7.002  1.00 20.00     0.146 A 
HETATM    6  C6  UNL     1     -33.292  15.942  -4.355  1.00 20.00     0.093 A 
HETATM    7  C7  UNL     1     -34.612  14.573  -5.861  1.00 20.00     0.053 A 
HETATM    8  C8  UNL     1     -34.131  16.935  -6.363  1.00 20.00     0.136 A 
HETATM    9  C9  UNL     1     -34.995  16.442  -7.522  1.00 20.00     0.069 A 
HETATM   10  N10 UNL     1     -35.534  15.398  -7.916  1.00 20.00    -0.260 NA
HETATM   11  N11 UNL     1     -34.026  15.840  -5.540  1.00 20.00    -0.333 N 
ENDROOT
TORSDOF 0
ENDMDL
MODEL 7
REMARK VINA RESULT:      -4.3      1.004      1.174
REMARK  0 active torsions:
REMARK  status: ('A' for Active; 'I' for Inactive)
ROOT
HETATM    1  C1  UNL     1     -34.325  17.307  -1.402  1.00 20.00     0.004 A 
HETATM    2  C2  UNL     1     -34.638  16.050  -1.759  1.00 20.00     0.031 A 
HETATM    3  C3  UNL     1     -33.895  18.266  -2.396  1.00 20.00     0.017 A 
HETATM    4  C4  UNL     1     -34.087  15.614  -6.606  1.00 20.00     0.044 A 
HETATM    5  C5  UNL     1     -34.852  14.353  -3.510  1.00 20.00     0.146 A 
HETATM    6  C6  UNL     1     -33.818  17.877  -3.679  1.00 20.00     0.093 A 
HETATM    7  C7  UNL     1     -34.552  15.624  -3.158  1.00 20.00     0.053 A 
HETATM    8  C8  UNL     1     -34.001  16.293  -5.462  1.00 20.00     0.136 A 
HETATM    9  C9  UNL     1     -34.438  14.833  -5.557  1.00 20.00     0.069 A 
HETATM   10  N10 UNL     1     -34.796  13.907  -4.815  1.00 20.00    -0.260 NA
HETATM   11  N11 UNL     1     -34.134  16.591  -4.127  1.00 20.00    -0.333 N 
ENDROOT
TORSDOF 0
ENDMDL
MODEL 8
REMARK VINA RESULT:      -4.3      1.283      2.332
REMARK  0 active torsions:
REMARK  status: ('A' for Active; 'I' for Inactive)
ROOT
HETATM    1  C1  UNL     1     -33.783  18.181  -2.319  1.00 20.00     0.004 A 
HETATM    2  C2  UNL     1     -33.686  17.928  -3.636  1.00 20.00     0.031 A 
HETATM    3  C3  UNL     1     -34.225  17.150  -1.405  1.00 20.00     0.017 A 
HETATM    4  C4  UNL     1     -34.971  13.270  -4.435  1.00 20.00     0.044 A 
HETATM    5  C5  UNL     1     -33.940  16.362  -5.500  1.00 20.00     0.146 A 
HETATM    6  C6  UNL     1     -34.533  15.939  -1.896  1.00 20.00     0.093 A 
HETATM    7  C7  UNL     1     -34.023  16.608  -4.172  1.00 20.00     0.053 A 
HETATM    8  C8  UNL     1     -34.807  14.334  -3.648  1.00 20.00     0.136 A 
HETATM    9  C9  UNL     1     -34.576  14.346  -5.158  1.00 20.00     0.069 A 
HETATM   10  N10 UNL     1     -34.237  15.133  -6.052  1.00 20.00    -0.260 NA
HETATM   11  N11 UNL     1     -34.449  15.599  -3.249  1.00 20.00    -0.333 N 
ENDROOT
TORSDOF 0
ENDMDL
MODEL 9
REMARK VINA RESULT:      -4.3      1.305      2.834
REMARK  0 active torsions:
REMARK  status: ('A' for Active; 'I' for Inactive)
ROOT
HETATM    1  C1  UNL     1     -34.556  17.638  -6.852  1.00 20.00     0.004 A 
HETATM    2  C2  UNL     1     -35.034  16.389  -6.986  1.00 20.00     0.031 A 
HETATM    3  C3  UNL     1     -33.672  17.971  -5.757  1.00 20.00     0.017 A 
HETATM    4  C4  UNL     1     -33.224  13.624  -3.371  1.00 20.00     0.044 A 
HETATM    5  C5  UNL     1     -35.164  14.088  -6.161  1.00 20.00     0.146 A 
HETATM    6  C6  UNL     1     -33.336  17.010  -4.882  1.00 20.00     0.093 A 
HETATM    7  C7  UNL     1     -34.668  15.341  -6.031  1.00 20.00     0.053 A 
HETATM    8  C8  UNL     1     -33.393  14.788  -4.000  1.00 20.00     0.136 A 
HETATM    9  C9  UNL     1     -34.064  13.483  -4.425  1.00 20.00     0.069 A 
HETATM   10  N10 UNL     1     -34.842  13.065  -5.293  1.00 20.00    -0.260 NA
HETATM   11  N11 UNL     1     -33.784  15.689  -4.960  1.00 20.00    -0.333 N 
ENDROOT
TORSDOF 0
ENDMDL
