MODEL 1
REMARK VINA RESULT:      -5.0      0.000      0.000
REMARK  0 active torsions:
REMARK  status: ('A' for Active; 'I' for Inactive)
ROOT
HETATM    1  C1  UNL     1     -34.798   4.805   5.896  1.00 20.00     0.352 C 
HETATM    2  C2  UNL     1     -34.945   5.235   3.693  1.00 20.00     0.451 C 
HETATM    3  C3  UNL     1     -34.003   6.204   4.325  1.00 20.00     0.451 C 
HETATM    4  O4  UNL     1     -35.049   4.176   4.632  1.00 20.00    -0.294 OA
HETATM    5  O5  UNL     1     -34.298   6.137   5.712  1.00 20.00    -0.294 OA
HETATM    6  F6  UNL     1     -34.514   4.776   2.506  1.00 20.00    -0.166 F 
HETATM    7  F7  UNL     1     -36.174   5.773   3.529  1.00 20.00    -0.166 F 
HETATM    8  F8  UNL     1     -34.152   7.459   3.868  1.00 20.00    -0.166 F 
HETATM    9  F9  UNL     1     -32.716   5.829   4.150  1.00 20.00    -0.166 F 
ENDROOT
TORSDOF 0
ENDMDL
MODEL 2
REMARK VINA RESULT:      -5.0      0.070      2.554
REMARK  0 active torsions:
REMARK  status: ('A' for Active; 'I' for Inactive)
ROOT
HETATM    1  C1  UNL     1     -34.734   4.878   5.910  1.00 20.00     0.352 C 
HETATM    2  C2  UNL     1     -33.971   6.251   4.301  1.00 20.00     0.451 C 
HETATM    3  C3  UNL     1     -34.900   5.251   3.699  1.00 20.00     0.451 C 
HETATM    4  O4  UNL     1     -34.259   6.212   5.691  1.00 20.00    -0.294 OA
HETATM    5  O5  UNL     1     -34.981   4.213   4.663  1.00 20.00    -0.294 OA
HETATM    6  F6  UNL     1     -34.145   7.493   3.815  1.00 20.00    -0.166 F 
HETATM    7  F7  UNL     1     -32.679   5.895   4.129  1.00 20.00    -0.166 F 
HETATM    8  F8  UNL     1     -34.466   4.771   2.520  1.00 20.00    -0.166 F 
HETATM    9  F9  UNL     1     -36.138   5.764   3.528  1.00 20.00    -0.166 F 
ENDROOT
TORSDOF 0
ENDMDL
MODEL 3
REMARK VINA RESULT:      -4.6      1.552      2.246
REMARK  0 active torsions:
REMARK  status: ('A' for Active; 'I' for Inactive)
ROOT
HETATM    1  C1  UNL     1     -33.315   6.362   4.839  1.00 20.00     0.352 C 
HETATM    2  C2  UNL     1     -34.858   4.733   4.993  1.00 20.00     0.451 C 
HETATM    3  C3  UNL     1     -35.069   5.497   3.729  1.00 20.00     0.451 C 
HETATM    4  O4  UNL     1     -33.532   5.055   5.386  1.00 20.00    -0.294 OA
HETATM    5  O5  UNL     1     -34.363   6.713   3.924  1.00 20.00    -0.294 OA
HETATM    6  F6  UNL     1     -34.997   3.405   4.837  1.00 20.00    -0.166 F 
HETATM    7  F7  UNL     1     -35.698   5.146   5.968  1.00 20.00    -0.166 F 
HETATM    8  F8  UNL     1     -36.366   5.737   3.468  1.00 20.00    -0.166 F 
HETATM    9  F9  UNL     1     -34.525   4.860   2.668  1.00 20.00    -0.166 F 
ENDROOT
TORSDOF 0
ENDMDL
MODEL 4
REMARK VINA RESULT:      -4.6      1.553      2.556
REMARK  0 active torsions:
REMARK  status: ('A' for Active; 'I' for Inactive)
ROOT
HETATM    1  C1  UNL     1     -33.313   6.358   4.838  1.00 20.00     0.352 C 
HETATM    2  C2  UNL     1     -35.068   5.492   3.729  1.00 20.00     0.451 C 
HETATM    3  C3  UNL     1     -34.858   4.731   4.994  1.00 20.00     0.451 C 
HETATM    4  O4  UNL     1     -34.360   6.707   3.923  1.00 20.00    -0.294 OA
HETATM    5  O5  UNL     1     -33.532   5.051   5.388  1.00 20.00    -0.294 OA
HETATM    6  F6  UNL     1     -36.364   5.734   3.467  1.00 20.00    -0.166 F 
HETATM    7  F7  UNL     1     -34.524   4.853   2.669  1.00 20.00    -0.166 F 
HETATM    8  F8  UNL     1     -34.999   3.402   4.841  1.00 20.00    -0.166 F 
HETATM    9  F9  UNL     1     -35.698   5.145   5.968  1.00 20.00    -0.166 F 
ENDROOT
TORSDOF 0
ENDMDL
MODEL 5
REMARK VINA RESULT:      -4.2     12.339     12.944
REMARK  0 active torsions:
REMARK  status: ('A' for Active; 'I' for Inactive)
ROOT
HETATM    1  C1  UNL     1     -33.938  16.489  -5.340  1.00 20.00     0.352 C 
HETATM    2  C2  UNL     1     -34.245  14.562  -4.221  1.00 20.00     0.451 C 
HETATM    3  C3  UNL     1     -33.025  15.246  -3.702  1.00 20.00     0.451 C 
HETATM    4  O4  UNL     1     -34.958  15.579  -4.908  1.00 20.00    -0.294 OA
HETATM    5  O5  UNL     1     -32.684  16.182  -4.713  1.00 20.00    -0.294 OA
HETATM    6  F6  UNL     1     -35.003  14.025  -3.249  1.00 20.00    -0.166 F 
HETATM    7  F7  UNL     1     -33.932  13.594  -5.110  1.00 20.00    -0.166 F 
HETATM    8  F8  UNL     1     -32.004  14.401  -3.473  1.00 20.00    -0.166 F 
HETATM    9  F9  UNL     1     -33.284  15.929  -2.566  1.00 20.00    -0.166 F 
ENDROOT
TORSDOF 0
ENDMDL
MODEL 6
REMARK VINA RESULT:      -4.2     12.339     13.036
REMARK  0 active torsions:
REMARK  status: ('A' for Active; 'I' for Inactive)
ROOT
HETATM    1  C1  UNL     1     -33.935  16.488  -5.338  1.00 20.00     0.352 C 
HETATM    2  C2  UNL     1     -33.025  15.244  -3.701  1.00 20.00     0.451 C 
HETATM    3  C3  UNL     1     -34.245  14.561  -4.221  1.00 20.00     0.451 C 
HETATM    4  O4  UNL     1     -32.683  16.181  -4.711  1.00 20.00    -0.294 OA
HETATM    5  O5  UNL     1     -34.957  15.578  -4.909  1.00 20.00    -0.294 OA
HETATM    6  F6  UNL     1     -32.004  14.399  -3.472  1.00 20.00    -0.166 F 
HETATM    7  F7  UNL     1     -33.285  15.927  -2.564  1.00 20.00    -0.166 F 
HETATM    8  F8  UNL     1     -35.003  14.023  -3.250  1.00 20.00    -0.166 F 
HETATM    9  F9  UNL     1     -33.930  13.593  -5.111  1.00 20.00    -0.166 F 
ENDROOT
TORSDOF 0
ENDMDL
MODEL 7
REMARK VINA RESULT:      -4.2     11.957     12.665
REMARK  0 active torsions:
REMARK  status: ('A' for Active; 'I' for Inactive)
ROOT
HETATM    1  C1  UNL     1     -34.589  13.153  -4.800  1.00 20.00     0.352 C 
HETATM    2  C2  UNL     1     -34.019  15.329  -4.814  1.00 20.00     0.451 C 
HETATM    3  C3  UNL     1     -33.547  14.701  -3.545  1.00 20.00     0.451 C 
HETATM    4  O4  UNL     1     -34.261  14.234  -5.684  1.00 20.00    -0.294 OA
HETATM    5  O5  UNL     1     -34.298  13.502  -3.440  1.00 20.00    -0.294 OA
HETATM    6  F6  UNL     1     -33.120  16.172  -5.352  1.00 20.00    -0.166 F 
HETATM    7  F7  UNL     1     -35.183  15.991  -4.636  1.00 20.00    -0.166 F 
HETATM    8  F8  UNL     1     -33.742  15.480  -2.467  1.00 20.00    -0.166 F 
HETATM    9  F9  UNL     1     -32.237  14.373  -3.611  1.00 20.00    -0.166 F 
ENDROOT
TORSDOF 0
ENDMDL
MODEL 8
REMARK VINA RESULT:      -4.2     11.952     12.783
REMARK  0 active torsions:
REMARK  status: ('A' for Active; 'I' for Inactive)
ROOT
HETATM    1  C1  UNL     1     -34.596  13.159  -4.815  1.00 20.00     0.352 C 
HETATM    2  C2  UNL     1     -33.545  14.687  -3.542  1.00 20.00     0.451 C 
HETATM    3  C3  UNL     1     -34.006  15.329  -4.807  1.00 20.00     0.451 C 
HETATM    4  O4  UNL     1     -34.308  13.493  -3.451  1.00 20.00    -0.294 OA
HETATM    5  O5  UNL     1     -34.255  14.244  -5.688  1.00 20.00    -0.294 OA
HETATM    6  F6  UNL     1     -33.739  15.458  -2.458  1.00 20.00    -0.166 F 
HETATM    7  F7  UNL     1     -32.239  14.348  -3.605  1.00 20.00    -0.166 F 
HETATM    8  F8  UNL     1     -33.099  16.170  -5.333  1.00 20.00    -0.166 F 
HETATM    9  F9  UNL     1     -35.166  16.000  -4.629  1.00 20.00    -0.166 F 
ENDROOT
TORSDOF 0
ENDMDL
MODEL 9
REMARK VINA RESULT:      -4.2      2.157      3.181
REMARK  0 active torsions:
REMARK  status: ('A' for Active; 'I' for Inactive)
ROOT
HETATM    1  C1  UNL     1     -34.582   5.770   3.825  1.00 20.00     0.352 C 
HETATM    2  C2  UNL     1     -34.005   5.843   5.998  1.00 20.00     0.451 C 
HETATM    3  C3  UNL     1     -34.943   4.705   5.773  1.00 20.00     0.451 C 
HETATM    4  O4  UNL     1     -33.520   6.165   4.704  1.00 20.00    -0.294 OA
HETATM    5  O5  UNL     1     -35.562   4.993   4.528  1.00 20.00    -0.294 OA
HETATM    6  F6  UNL     1     -32.989   5.534   6.823  1.00 20.00    -0.166 F 
HETATM    7  F7  UNL     1     -34.648   6.926   6.488  1.00 20.00    -0.166 F 
HETATM    8  F8  UNL     1     -35.865   4.581   6.744  1.00 20.00    -0.166 F 
HETATM    9  F9  UNL     1     -34.281   3.533   5.653  1.00 20.00    -0.166 F 
ENDROOT
TORSDOF 0
ENDMDL
