MODEL 1
REMARK VINA RESULT:      -5.0      0.000      0.000
REMARK  0 active torsions:
REMARK  status: ('A' for Active; 'I' for Inactive)
ROOT
HETATM    1  C1  UNL     1     -34.638  13.974  -4.342  1.00 20.00     0.100 C 
HETATM    2  C2  UNL     1     -33.894  15.903  -5.649  1.00 20.00     0.042 A 
HETATM    3  C3  UNL     1     -33.551  17.253  -5.696  1.00 20.00     0.118 A 
HETATM    4  C4  UNL     1     -34.265  15.349  -4.426  1.00 20.00     0.054 A 
HETATM    5  C5  UNL     1     -34.262  16.171  -3.317  1.00 20.00    -0.013 A 
HETATM    6  C6  UNL     1     -33.907  17.508  -3.467  1.00 20.00     0.042 A 
HETATM    7  C7  UNL     1     -34.641  15.864  -1.908  1.00 20.00     0.042 C 
HETATM    8  C8  UNL     1     -34.021  18.237  -2.159  1.00 20.00     0.060 C 
HETATM    9  C9  UNL     1     -34.024  17.063  -1.169  1.00 20.00     0.011 C 
HETATM   10  N10 UNL     1     -34.941  12.856  -4.273  1.00 20.00    -0.191 NA
HETATM   11  N11 UNL     1     -33.551  18.085  -4.627  1.00 20.00    -0.265 NA
ENDROOT
TORSDOF 0
ENDMDL
MODEL 2
REMARK VINA RESULT:      -4.8      2.078      2.620
REMARK  0 active torsions:
REMARK  status: ('A' for Active; 'I' for Inactive)
ROOT
HETATM    1  C1  UNL     1     -37.408  14.493  -3.853  1.00 20.00     0.100 C 
HETATM    2  C2  UNL     1     -35.185  13.606  -4.356  1.00 20.00     0.042 A 
HETATM    3  C3  UNL     1     -33.800  13.712  -4.232  1.00 20.00     0.118 A 
HETATM    4  C4  UNL     1     -35.987  14.560  -3.735  1.00 20.00     0.054 A 
HETATM    5  C5  UNL     1     -35.363  15.559  -3.016  1.00 20.00    -0.013 A 
HETATM    6  C6  UNL     1     -33.974  15.581  -2.953  1.00 20.00     0.042 A 
HETATM    7  C7  UNL     1     -35.959  16.716  -2.287  1.00 20.00     0.042 C 
HETATM    8  C8  UNL     1     -33.496  16.772  -2.173  1.00 20.00     0.060 C 
HETATM    9  C9  UNL     1     -34.774  17.153  -1.410  1.00 20.00     0.011 C 
HETATM   10  N10 UNL     1     -38.564  14.438  -3.948  1.00 20.00    -0.191 NA
HETATM   11  N11 UNL     1     -33.162  14.688  -3.543  1.00 20.00    -0.265 NA
ENDROOT
TORSDOF 0
ENDMDL
MODEL 3
REMARK VINA RESULT:      -4.8      0.949      2.922
REMARK  0 active torsions:
REMARK  status: ('A' for Active; 'I' for Inactive)
ROOT
HETATM    1  C1  UNL     1     -34.676  13.814  -4.220  1.00 20.00     0.100 C 
HETATM    2  C2  UNL     1     -34.244  15.612  -2.619  1.00 20.00     0.042 A 
HETATM    3  C3  UNL     1     -33.920  16.947  -2.381  1.00 20.00     0.118 A 
HETATM    4  C4  UNL     1     -34.361  15.177  -3.937  1.00 20.00     0.054 A 
HETATM    5  C5  UNL     1     -34.161  16.102  -4.943  1.00 20.00    -0.013 A 
HETATM    6  C6  UNL     1     -33.839  17.411  -4.602  1.00 20.00     0.042 A 
HETATM    7  C7  UNL     1     -34.188  15.915  -6.422  1.00 20.00     0.042 C 
HETATM    8  C8  UNL     1     -33.609  18.238  -5.835  1.00 20.00     0.060 C 
HETATM    9  C9  UNL     1     -34.297  17.371  -6.901  1.00 20.00     0.011 C 
HETATM   10  N10 UNL     1     -34.931  12.706  -4.451  1.00 20.00    -0.191 NA
HETATM   11  N11 UNL     1     -33.706  17.872  -3.347  1.00 20.00    -0.265 NA
ENDROOT
TORSDOF 0
ENDMDL
MODEL 4
REMARK VINA RESULT:      -4.5      1.722      3.640
REMARK  0 active torsions:
REMARK  status: ('A' for Active; 'I' for Inactive)
ROOT
HETATM    1  C1  UNL     1     -34.493  16.033  -1.973  1.00 20.00     0.100 C 
HETATM    2  C2  UNL     1     -34.533  14.067  -3.427  1.00 20.00     0.042 A 
HETATM    3  C3  UNL     1     -34.518  13.533  -4.715  1.00 20.00     0.118 A 
HETATM    4  C4  UNL     1     -34.465  15.449  -3.275  1.00 20.00     0.054 A 
HETATM    5  C5  UNL     1     -34.375  16.221  -4.416  1.00 20.00    -0.013 A 
HETATM    6  C6  UNL     1     -34.371  15.594  -5.658  1.00 20.00     0.042 A 
HETATM    7  C7  UNL     1     -34.325  17.705  -4.555  1.00 20.00     0.042 C 
HETATM    8  C8  UNL     1     -34.323  16.609  -6.764  1.00 20.00     0.060 C 
HETATM    9  C9  UNL     1     -33.827  17.848  -6.003  1.00 20.00     0.011 C 
HETATM   10  N10 UNL     1     -34.516  16.508  -0.914  1.00 20.00    -0.191 NA
HETATM   11  N11 UNL     1     -34.443  14.267  -5.852  1.00 20.00    -0.265 NA
ENDROOT
TORSDOF 0
ENDMDL
MODEL 5
REMARK VINA RESULT:      -4.5      2.005      3.947
REMARK  0 active torsions:
REMARK  status: ('A' for Active; 'I' for Inactive)
ROOT
HETATM    1  C1  UNL     1     -33.681  17.934  -5.386  1.00 20.00     0.100 C 
HETATM    2  C2  UNL     1     -34.637  16.660  -7.242  1.00 20.00     0.042 A 
HETATM    3  C3  UNL     1     -35.079  15.440  -7.751  1.00 20.00     0.118 A 
HETATM    4  C4  UNL     1     -34.157  16.706  -5.936  1.00 20.00     0.054 A 
HETATM    5  C5  UNL     1     -34.156  15.534  -5.207  1.00 20.00    -0.013 A 
HETATM    6  C6  UNL     1     -34.616  14.365  -5.805  1.00 20.00     0.042 A 
HETATM    7  C7  UNL     1     -33.676  15.282  -3.817  1.00 20.00     0.042 C 
HETATM    8  C8  UNL     1     -34.480  13.200  -4.866  1.00 20.00     0.060 C 
HETATM    9  C9  UNL     1     -34.335  13.926  -3.520  1.00 20.00     0.011 C 
HETATM   10  N10 UNL     1     -33.295  18.933  -4.939  1.00 20.00    -0.191 NA
HETATM   11  N11 UNL     1     -35.078  14.273  -7.063  1.00 20.00    -0.265 NA
ENDROOT
TORSDOF 0
ENDMDL
MODEL 6
REMARK VINA RESULT:      -4.5      2.223      2.644
REMARK  0 active torsions:
REMARK  status: ('A' for Active; 'I' for Inactive)
ROOT
HETATM    1  C1  UNL     1     -35.259  13.521  -4.378  1.00 20.00     0.100 C 
HETATM    2  C2  UNL     1     -37.326  14.819  -4.214  1.00 20.00     0.042 A 
HETATM    3  C3  UNL     1     -38.003  15.929  -3.711  1.00 20.00     0.118 A 
HETATM    4  C4  UNL     1     -35.981  14.654  -3.894  1.00 20.00     0.054 A 
HETATM    5  C5  UNL     1     -35.384  15.612  -3.099  1.00 20.00    -0.013 A 
HETATM    6  C6  UNL     1     -36.145  16.683  -2.644  1.00 20.00     0.042 A 
HETATM    7  C7  UNL     1     -33.988  15.675  -2.577  1.00 20.00     0.042 C 
HETATM    8  C8  UNL     1     -35.327  17.576  -1.755  1.00 20.00     0.060 C 
HETATM    9  C9  UNL     1     -33.903  17.147  -2.142  1.00 20.00     0.011 C 
HETATM   10  N10 UNL     1     -34.672  12.601  -4.771  1.00 20.00    -0.191 NA
HETATM   11  N11 UNL     1     -37.446  16.877  -2.919  1.00 20.00    -0.265 NA
ENDROOT
TORSDOF 0
ENDMDL
MODEL 7
REMARK VINA RESULT:      -4.4      2.135      2.807
REMARK  0 active torsions:
REMARK  status: ('A' for Active; 'I' for Inactive)
ROOT
HETATM    1  C1  UNL     1     -37.021  14.582  -3.866  1.00 20.00     0.100 C 
HETATM    2  C2  UNL     1     -34.669  13.940  -3.668  1.00 20.00     0.042 A 
HETATM    3  C3  UNL     1     -33.323  14.288  -3.769  1.00 20.00     0.118 A 
HETATM    4  C4  UNL     1     -35.633  14.906  -3.944  1.00 20.00     0.054 A 
HETATM    5  C5  UNL     1     -35.200  16.169  -4.295  1.00 20.00    -0.013 A 
HETATM    6  C6  UNL     1     -33.833  16.418  -4.371  1.00 20.00     0.042 A 
HETATM    7  C7  UNL     1     -35.994  17.373  -4.673  1.00 20.00     0.042 C 
HETATM    8  C8  UNL     1     -33.576  17.829  -4.820  1.00 20.00     0.060 C 
HETATM    9  C9  UNL     1     -34.936  18.480  -4.532  1.00 20.00     0.011 C 
HETATM   10  N10 UNL     1     -38.149  14.318  -3.803  1.00 20.00    -0.191 NA
HETATM   11  N11 UNL     1     -32.870  15.516  -4.123  1.00 20.00    -0.265 NA
ENDROOT
TORSDOF 0
ENDMDL
MODEL 8
REMARK VINA RESULT:      -4.4      2.057      2.948
REMARK  0 active torsions:
REMARK  status: ('A' for Active; 'I' for Inactive)
ROOT
HETATM    1  C1  UNL     1     -37.552  14.954  -3.805  1.00 20.00     0.100 C 
HETATM    2  C2  UNL     1     -36.388  17.105  -3.798  1.00 20.00     0.042 A 
HETATM    3  C3  UNL     1     -35.189  17.815  -3.745  1.00 20.00     0.118 A 
HETATM    4  C4  UNL     1     -36.344  15.714  -3.769  1.00 20.00     0.054 A 
HETATM    5  C5  UNL     1     -35.106  15.108  -3.701  1.00 20.00    -0.013 A 
HETATM    6  C6  UNL     1     -33.966  15.903  -3.650  1.00 20.00     0.042 A 
HETATM    7  C7  UNL     1     -34.763  13.658  -3.624  1.00 20.00     0.042 C 
HETATM    8  C8  UNL     1     -32.733  15.054  -3.525  1.00 20.00     0.060 C 
HETATM    9  C9  UNL     1     -33.269  13.690  -3.985  1.00 20.00     0.011 C 
HETATM   10  N10 UNL     1     -38.535  14.337  -3.835  1.00 20.00    -0.191 NA
HETATM   11  N11 UNL     1     -33.961  17.246  -3.666  1.00 20.00    -0.265 NA
ENDROOT
TORSDOF 0
ENDMDL
MODEL 9
REMARK VINA RESULT:      -4.4      1.481      4.558
REMARK  0 active torsions:
REMARK  status: ('A' for Active; 'I' for Inactive)
ROOT
HETATM    1  C1  UNL     1     -33.912  17.011  -3.625  1.00 20.00     0.100 C 
HETATM    2  C2  UNL     1     -34.153  14.596  -3.321  1.00 20.00     0.042 A 
HETATM    3  C3  UNL     1     -34.484  13.352  -3.855  1.00 20.00     0.118 A 
HETATM    4  C4  UNL     1     -34.229  15.718  -4.142  1.00 20.00     0.054 A 
HETATM    5  C5  UNL     1     -34.619  15.535  -5.453  1.00 20.00    -0.013 A 
HETATM    6  C6  UNL     1     -34.932  14.252  -5.892  1.00 20.00     0.042 A 
HETATM    7  C7  UNL     1     -34.819  16.543  -6.533  1.00 20.00     0.042 C 
HETATM    8  C8  UNL     1     -35.384  14.277  -7.324  1.00 20.00     0.060 C 
HETATM    9  C9  UNL     1     -34.842  15.641  -7.778  1.00 20.00     0.011 C 
HETATM   10  N10 UNL     1     -33.655  18.062  -3.206  1.00 20.00    -0.191 NA
HETATM   11  N11 UNL     1     -34.882  13.144  -5.134  1.00 20.00    -0.265 NA
ENDROOT
TORSDOF 0
ENDMDL
