MODEL 1
REMARK VINA RESULT:      -4.1      0.000      0.000
REMARK  1 active torsions:
REMARK  status: ('A' for Active; 'I' for Inactive)
REMARK    1  A    between atoms: C1_1  and  N7_7 
ROOT
HETATM    1  C2  UNL     1     -35.195  15.062  -2.886  1.00 20.00     0.159 C 
HETATM    2  C3  UNL     1     -34.656  16.402  -2.429  1.00 20.00     0.138 C 
HETATM    3  C4  UNL     1     -33.269  15.672  -4.128  1.00 20.00     0.221 C 
HETATM    4  C5  UNL     1     -34.679  16.588  -0.925  1.00 20.00     0.041 C 
HETATM    5  C6  UNL     1     -33.314  16.632  -5.308  1.00 20.00     0.063 C 
HETATM    6  N7  UNL     1     -34.420  14.798  -4.070  1.00 20.00    -0.330 N 
HETATM    7  O9  UNL     1     -33.292  16.422  -2.900  1.00 20.00    -0.360 OA
ENDROOT
BRANCH   6   8
HETATM    8  C1  UNL     1     -34.665  13.756  -4.932  1.00 20.00     0.352 C 
HETATM    9  O8  UNL     1     -34.906  12.591  -4.636  1.00 20.00    -0.283 OA
ENDBRANCH   6   8
TORSDOF 1
ENDMDL
MODEL 2
REMARK VINA RESULT:      -3.8      1.140      2.692
REMARK  1 active torsions:
REMARK  status: ('A' for Active; 'I' for Inactive)
REMARK    1  A    between atoms: C1_1  and  N7_7 
ROOT
HETATM    1  C2  UNL     1     -33.540  15.662  -4.849  1.00 20.00     0.159 C 
HETATM    2  C3  UNL     1     -33.651  17.133  -4.503  1.00 20.00     0.138 C 
HETATM    3  C4  UNL     1     -35.084  16.005  -3.082  1.00 20.00     0.221 C 
HETATM    4  C5  UNL     1     -33.669  18.045  -5.714  1.00 20.00     0.041 C 
HETATM    5  C6  UNL     1     -34.656  16.188  -1.633  1.00 20.00     0.063 C 
HETATM    6  N7  UNL     1     -34.278  15.032  -3.787  1.00 20.00    -0.330 N 
HETATM    7  O9  UNL     1     -34.903  17.243  -3.794  1.00 20.00    -0.360 OA
ENDROOT
BRANCH   6   8
HETATM    8  C1  UNL     1     -34.324  13.674  -3.583  1.00 20.00     0.352 C 
HETATM    9  O8  UNL     1     -34.933  12.845  -4.250  1.00 20.00    -0.283 OA
ENDBRANCH   6   8
TORSDOF 1
ENDMDL
MODEL 3
REMARK VINA RESULT:      -3.8      1.486      2.090
REMARK  1 active torsions:
REMARK  status: ('A' for Active; 'I' for Inactive)
REMARK    1  A    between atoms: C1_1  and  N7_7 
ROOT
HETATM    1  C2  UNL     1     -34.033  15.047  -2.988  1.00 20.00     0.159 C 
HETATM    2  C3  UNL     1     -34.842  15.973  -2.102  1.00 20.00     0.138 C 
HETATM    3  C4  UNL     1     -36.085  15.634  -4.020  1.00 20.00     0.221 C 
HETATM    4  C5  UNL     1     -34.010  17.035  -1.410  1.00 20.00     0.041 C 
HETATM    5  C6  UNL     1     -37.404  14.949  -3.691  1.00 20.00     0.063 C 
HETATM    6  N7  UNL     1     -34.965  14.718  -4.034  1.00 20.00    -0.330 N 
HETATM    7  O9  UNL     1     -35.781  16.601  -3.000  1.00 20.00    -0.360 OA
ENDROOT
BRANCH   6   8
HETATM    8  C1  UNL     1     -34.733  13.768  -4.999  1.00 20.00     0.352 C 
HETATM    9  O8  UNL     1     -34.791  12.550  -4.867  1.00 20.00    -0.283 OA
ENDBRANCH   6   8
TORSDOF 1
ENDMDL
MODEL 4
REMARK VINA RESULT:      -3.7      2.001      2.388
REMARK  1 active torsions:
REMARK  status: ('A' for Active; 'I' for Inactive)
REMARK    1  A    between atoms: C1_1  and  N7_7 
ROOT
HETATM    1  C2  UNL     1     -35.958  16.205  -3.077  1.00 20.00     0.159 C 
HETATM    2  C3  UNL     1     -34.450  16.132  -2.955  1.00 20.00     0.138 C 
HETATM    3  C4  UNL     1     -35.144  14.109  -3.830  1.00 20.00     0.221 C 
HETATM    4  C5  UNL     1     -33.912  16.740  -1.674  1.00 20.00     0.041 C 
HETATM    5  C6  UNL     1     -34.562  13.897  -5.220  1.00 20.00     0.063 C 
HETATM    6  N7  UNL     1     -36.271  15.016  -3.825  1.00 20.00    -0.330 N 
HETATM    7  O9  UNL     1     -34.154  14.720  -2.984  1.00 20.00    -0.360 OA
ENDROOT
BRANCH   6   8
HETATM    8  C1  UNL     1     -37.519  14.728  -4.324  1.00 20.00     0.352 C 
HETATM    9  O8  UNL     1     -38.458  14.219  -3.721  1.00 20.00    -0.283 OA
ENDBRANCH   6   8
TORSDOF 1
ENDMDL
MODEL 5
REMARK VINA RESULT:      -3.7      2.235      3.012
REMARK  1 active torsions:
REMARK  status: ('A' for Active; 'I' for Inactive)
REMARK    1  A    between atoms: C1_1  and  N7_7 
ROOT
HETATM    1  C2  UNL     1     -34.866  16.163  -4.584  1.00 20.00     0.159 C 
HETATM    2  C3  UNL     1     -34.557  16.967  -5.830  1.00 20.00     0.138 C 
HETATM    3  C4  UNL     1     -34.522  14.741  -6.449  1.00 20.00     0.221 C 
HETATM    4  C5  UNL     1     -33.624  18.136  -5.586  1.00 20.00     0.041 C 
HETATM    5  C6  UNL     1     -35.603  14.454  -7.482  1.00 20.00     0.063 C 
HETATM    6  N7  UNL     1     -35.043  14.832  -5.103  1.00 20.00    -0.330 N 
HETATM    7  O9  UNL     1     -33.928  16.023  -6.722  1.00 20.00    -0.360 OA
ENDROOT
BRANCH   6   8
HETATM    8  C1  UNL     1     -35.499  13.771  -4.358  1.00 20.00     0.352 C 
HETATM    9  O8  UNL     1     -35.037  12.636  -4.327  1.00 20.00    -0.283 OA
ENDBRANCH   6   8
TORSDOF 1
ENDMDL
MODEL 6
REMARK VINA RESULT:      -3.6      2.084      3.380
REMARK  1 active torsions:
REMARK  status: ('A' for Active; 'I' for Inactive)
REMARK    1  A    between atoms: C1_1  and  N7_7 
ROOT
HETATM    1  C2  UNL     1     -36.148  15.957  -4.618  1.00 20.00     0.159 C 
HETATM    2  C3  UNL     1     -36.767  14.866  -3.767  1.00 20.00     0.138 C 
HETATM    3  C4  UNL     1     -34.872  13.961  -4.731  1.00 20.00     0.221 C 
HETATM    4  C5  UNL     1     -38.279  14.806  -3.860  1.00 20.00     0.041 C 
HETATM    5  C6  UNL     1     -33.866  13.560  -3.661  1.00 20.00     0.063 C 
HETATM    6  N7  UNL     1     -34.880  15.385  -4.988  1.00 20.00    -0.330 N 
HETATM    7  O9  UNL     1     -36.201  13.643  -4.281  1.00 20.00    -0.360 OA
ENDROOT
BRANCH   6   8
HETATM    8  C1  UNL     1     -33.886  16.076  -5.638  1.00 20.00     0.352 C 
HETATM    9  O8  UNL     1     -32.913  16.625  -5.132  1.00 20.00    -0.283 OA
ENDBRANCH   6   8
TORSDOF 1
ENDMDL
MODEL 7
REMARK VINA RESULT:      -3.6      1.838      2.800
REMARK  1 active torsions:
REMARK  status: ('A' for Active; 'I' for Inactive)
REMARK    1  A    between atoms: C1_1  and  N7_7 
ROOT
HETATM    1  C2  UNL     1     -35.050  15.676  -5.186  1.00 20.00     0.159 C 
HETATM    2  C3  UNL     1     -35.392  17.083  -4.740  1.00 20.00     0.138 C 
HETATM    3  C4  UNL     1     -35.581  15.731  -2.875  1.00 20.00     0.221 C 
HETATM    4  C5  UNL     1     -36.246  17.846  -5.734  1.00 20.00     0.041 C 
HETATM    5  C6  UNL     1     -34.582  16.150  -1.806  1.00 20.00     0.063 C 
HETATM    6  N7  UNL     1     -34.975  14.961  -3.939  1.00 20.00    -0.330 N 
HETATM    7  O9  UNL     1     -36.123  16.904  -3.509  1.00 20.00    -0.360 OA
ENDROOT
BRANCH   6   8
HETATM    8  C1  UNL     1     -34.530  13.666  -3.821  1.00 20.00     0.352 C 
HETATM    9  O8  UNL     1     -35.032  12.663  -4.317  1.00 20.00    -0.283 OA
ENDBRANCH   6   8
TORSDOF 1
ENDMDL
MODEL 8
REMARK VINA RESULT:      -3.6      1.773      2.434
REMARK  1 active torsions:
REMARK  status: ('A' for Active; 'I' for Inactive)
REMARK    1  A    between atoms: C1_1  and  N7_7 
ROOT
HETATM    1  C2  UNL     1     -33.728  16.541  -4.157  1.00 20.00     0.159 C 
HETATM    2  C3  UNL     1     -33.882  15.913  -2.787  1.00 20.00     0.138 C 
HETATM    3  C4  UNL     1     -35.389  14.850  -4.179  1.00 20.00     0.221 C 
HETATM    4  C5  UNL     1     -33.832  16.913  -1.649  1.00 20.00     0.041 C 
HETATM    5  C6  UNL     1     -35.061  13.368  -4.294  1.00 20.00     0.063 C 
HETATM    6  N7  UNL     1     -34.526  15.680  -4.990  1.00 20.00    -0.330 N 
HETATM    7  O9  UNL     1     -35.179  15.283  -2.823  1.00 20.00    -0.360 OA
ENDROOT
BRANCH   6   8
HETATM    8  C1  UNL     1     -34.566  15.758  -6.361  1.00 20.00     0.352 C 
HETATM    9  O8  UNL     1     -34.109  14.951  -7.163  1.00 20.00    -0.283 OA
ENDBRANCH   6   8
TORSDOF 1
ENDMDL
MODEL 9
REMARK VINA RESULT:      -3.5      1.923      3.487
REMARK  1 active torsions:
REMARK  status: ('A' for Active; 'I' for Inactive)
REMARK    1  A    between atoms: C1_1  and  N7_7 
ROOT
HETATM    1  C2  UNL     1     -34.661  17.406  -3.799  1.00 20.00     0.159 C 
HETATM    2  C3  UNL     1     -34.007  17.035  -5.114  1.00 20.00     0.138 C 
HETATM    3  C4  UNL     1     -33.159  15.594  -3.518  1.00 20.00     0.221 C 
HETATM    4  C5  UNL     1     -33.604  18.231  -5.954  1.00 20.00     0.041 C 
HETATM    5  C6  UNL     1     -33.527  14.154  -3.845  1.00 20.00     0.063 C 
HETATM    6  N7  UNL     1     -34.253  16.334  -2.930  1.00 20.00    -0.330 N 
HETATM    7  O9  UNL     1     -32.830  16.291  -4.733  1.00 20.00    -0.360 OA
ENDROOT
BRANCH   6   8
HETATM    8  C1  UNL     1     -34.737  16.150  -1.657  1.00 20.00     0.352 C 
HETATM    9  O8  UNL     1     -34.350  16.698  -0.631  1.00 20.00    -0.283 OA
ENDBRANCH   6   8
TORSDOF 1
ENDMDL
