MODEL 1
REMARK VINA RESULT:      -4.2      0.000      0.000
REMARK  1 active torsions:
REMARK  status: ('A' for Active; 'I' for Inactive)
REMARK    1  A    between atoms: C5_5  and  N8_8 
ROOT
HETATM    1  C1  UNL     1     -36.415  14.253  -4.066  1.00 20.00     0.069 A 
HETATM    2  C2  UNL     1     -36.189  15.375  -3.377  1.00 20.00     0.095 A 
HETATM    3  C3  UNL     1     -35.079  13.620  -4.124  1.00 20.00     0.168 A 
HETATM    4  C6  UNL     1     -34.045  14.468  -3.408  1.00 20.00     0.211 A 
HETATM    5  N8  UNL     1     -34.888  15.576  -2.968  1.00 20.00    -0.354 N 
HETATM    6  O9  UNL     1     -34.857  12.556  -4.679  1.00 20.00    -0.291 OA
ENDROOT
BRANCH   5   7
HETATM    7  C5  UNL     1     -34.423  16.639  -2.259  1.00 20.00    -0.002 C 
HETATM    8  C4  UNL     1     -33.805  17.655  -2.875  1.00 20.00     0.038 C 
HETATM    9  C7  UNL     1     -34.645  16.594  -0.780  1.00 20.00     0.067 C 
ENDBRANCH   5   7
TORSDOF 1
ENDMDL
MODEL 2
REMARK VINA RESULT:      -4.1      0.908      1.728
REMARK  1 active torsions:
REMARK  status: ('A' for Active; 'I' for Inactive)
REMARK    1  A    between atoms: C5_5  and  N8_8 
ROOT
HETATM    1  C1  UNL     1     -33.309  13.954  -3.840  1.00 20.00     0.069 A 
HETATM    2  C2  UNL     1     -33.513  15.061  -3.120  1.00 20.00     0.095 A 
HETATM    3  C3  UNL     1     -34.680  13.536  -4.209  1.00 20.00     0.168 A 
HETATM    4  C6  UNL     1     -35.711  14.494  -3.643  1.00 20.00     0.211 A 
HETATM    5  N8  UNL     1     -34.830  15.437  -2.959  1.00 20.00    -0.354 N 
HETATM    6  O9  UNL     1     -34.928  12.548  -4.881  1.00 20.00    -0.291 OA
ENDROOT
BRANCH   5   7
HETATM    7  C5  UNL     1     -35.278  16.521  -2.271  1.00 20.00    -0.002 C 
HETATM    8  C4  UNL     1     -36.212  17.326  -2.793  1.00 20.00     0.038 C 
HETATM    9  C7  UNL     1     -34.668  16.745  -0.922  1.00 20.00     0.067 C 
ENDBRANCH   5   7
TORSDOF 1
ENDMDL
MODEL 3
REMARK VINA RESULT:      -4.0      1.166      1.361
REMARK  1 active torsions:
REMARK  status: ('A' for Active; 'I' for Inactive)
REMARK    1  A    between atoms: C5_5  and  N8_8 
ROOT
HETATM    1  C1  UNL     1     -34.482  14.692  -5.783  1.00 20.00     0.069 A 
HETATM    2  C2  UNL     1     -34.326  15.845  -5.127  1.00 20.00     0.095 A 
HETATM    3  C3  UNL     1     -34.613  13.700  -4.694  1.00 20.00     0.168 A 
HETATM    4  C6  UNL     1     -34.519  14.369  -3.336  1.00 20.00     0.211 A 
HETATM    5  N8  UNL     1     -34.334  15.757  -3.750  1.00 20.00    -0.354 N 
HETATM    6  O9  UNL     1     -34.773  12.504  -4.882  1.00 20.00    -0.291 OA
ENDROOT
BRANCH   5   7
HETATM    7  C5  UNL     1     -34.193  16.790  -2.878  1.00 20.00    -0.002 C 
HETATM    8  C4  UNL     1     -33.833  18.006  -3.310  1.00 20.00     0.038 C 
HETATM    9  C7  UNL     1     -34.460  16.481  -1.438  1.00 20.00     0.067 C 
ENDBRANCH   5   7
TORSDOF 1
ENDMDL
MODEL 4
REMARK VINA RESULT:      -3.9      2.420      3.283
REMARK  1 active torsions:
REMARK  status: ('A' for Active; 'I' for Inactive)
REMARK    1  A    between atoms: C5_5  and  N8_8 
ROOT
HETATM    1  C1  UNL     1     -33.430  14.292  -3.776  1.00 20.00     0.069 A 
HETATM    2  C2  UNL     1     -33.274  15.535  -4.242  1.00 20.00     0.095 A 
HETATM    3  C3  UNL     1     -34.410  13.702  -4.715  1.00 20.00     0.168 A 
HETATM    4  C6  UNL     1     -34.818  14.707  -5.776  1.00 20.00     0.211 A 
HETATM    5  N8  UNL     1     -34.014  15.853  -5.361  1.00 20.00    -0.354 N 
HETATM    6  O9  UNL     1     -34.823  12.557  -4.631  1.00 20.00    -0.291 OA
ENDROOT
BRANCH   5   7
HETATM    7  C5  UNL     1     -34.019  17.049  -6.007  1.00 20.00    -0.002 C 
HETATM    8  C4  UNL     1     -33.540  18.150  -5.414  1.00 20.00     0.038 C 
HETATM    9  C7  UNL     1     -34.584  17.049  -7.393  1.00 20.00     0.067 C 
ENDBRANCH   5   7
TORSDOF 1
ENDMDL
MODEL 5
REMARK VINA RESULT:      -3.8     11.522     12.163
REMARK  1 active torsions:
REMARK  status: ('A' for Active; 'I' for Inactive)
REMARK    1  A    between atoms: C5_5  and  N8_8 
ROOT
HETATM    1  C1  UNL     1     -33.418   5.869   2.276  1.00 20.00     0.069 A 
HETATM    2  C2  UNL     1     -34.085   5.329   3.300  1.00 20.00     0.095 A 
HETATM    3  C3  UNL     1     -32.601   6.918   2.924  1.00 20.00     0.168 A 
HETATM    4  C6  UNL     1     -32.846   6.951   4.420  1.00 20.00     0.211 A 
HETATM    5  N8  UNL     1     -33.825   5.875   4.539  1.00 20.00    -0.354 N 
HETATM    6  O9  UNL     1     -31.837   7.652   2.317  1.00 20.00    -0.291 OA
ENDROOT
BRANCH   5   7
HETATM    7  C5  UNL     1     -34.382   5.491   5.719  1.00 20.00    -0.002 C 
HETATM    8  C4  UNL     1     -34.324   6.288   6.794  1.00 20.00     0.038 C 
HETATM    9  C7  UNL     1     -35.045   4.150   5.731  1.00 20.00     0.067 C 
ENDBRANCH   5   7
TORSDOF 1
ENDMDL
MODEL 6
REMARK VINA RESULT:      -3.6      1.757      3.223
REMARK  1 active torsions:
REMARK  status: ('A' for Active; 'I' for Inactive)
REMARK    1  A    between atoms: C5_5  and  N8_8 
ROOT
HETATM    1  C1  UNL     1     -34.230  15.129  -2.991  1.00 20.00     0.069 A 
HETATM    2  C2  UNL     1     -35.437  15.577  -3.346  1.00 20.00     0.095 A 
HETATM    3  C3  UNL     1     -34.129  13.835  -3.700  1.00 20.00     0.168 A 
HETATM    4  C6  UNL     1     -35.385  13.559  -4.506  1.00 20.00     0.211 A 
HETATM    5  N8  UNL     1     -36.154  14.760  -4.195  1.00 20.00    -0.354 N 
HETATM    6  O9  UNL     1     -33.157  13.100  -3.633  1.00 20.00    -0.291 OA
ENDROOT
BRANCH   5   7
HETATM    7  C5  UNL     1     -37.397  15.006  -4.688  1.00 20.00    -0.002 C 
HETATM    8  C4  UNL     1     -37.566  15.383  -5.962  1.00 20.00     0.038 C 
HETATM    9  C7  UNL     1     -38.534  14.832  -3.730  1.00 20.00     0.067 C 
ENDBRANCH   5   7
TORSDOF 1
ENDMDL
MODEL 7
REMARK VINA RESULT:      -3.6     11.204     11.771
REMARK  1 active torsions:
REMARK  status: ('A' for Active; 'I' for Inactive)
REMARK    1  A    between atoms: C5_5  and  N8_8 
ROOT
HETATM    1  C1  UNL     1     -34.790   5.073   3.715  1.00 20.00     0.069 A 
HETATM    2  C2  UNL     1     -33.876   5.789   3.054  1.00 20.00     0.095 A 
HETATM    3  C3  UNL     1     -34.562   5.458   5.125  1.00 20.00     0.168 A 
HETATM    4  C6  UNL     1     -33.433   6.465   5.237  1.00 20.00     0.211 A 
HETATM    5  N8  UNL     1     -33.073   6.598   3.829  1.00 20.00    -0.354 N 
HETATM    6  O9  UNL     1     -35.207   5.013   6.061  1.00 20.00    -0.291 OA
ENDROOT
BRANCH   5   7
HETATM    7  C5  UNL     1     -32.080   7.412   3.380  1.00 20.00    -0.002 C 
HETATM    8  C4  UNL     1     -31.052   7.739   4.173  1.00 20.00     0.038 C 
HETATM    9  C7  UNL     1     -32.215   7.905   1.973  1.00 20.00     0.067 C 
ENDBRANCH   5   7
TORSDOF 1
ENDMDL
MODEL 8
REMARK VINA RESULT:      -3.6     11.316     12.573
REMARK  1 active torsions:
REMARK  status: ('A' for Active; 'I' for Inactive)
REMARK    1  A    between atoms: C5_5  and  N8_8 
ROOT
HETATM    1  C1  UNL     1     -41.601   3.087  -2.708  1.00 20.00     0.069 A 
HETATM    2  C2  UNL     1     -41.123   4.008  -1.868  1.00 20.00     0.095 A 
HETATM    3  C3  UNL     1     -42.712   3.794  -3.383  1.00 20.00     0.168 A 
HETATM    4  C6  UNL     1     -42.847   5.213  -2.865  1.00 20.00     0.211 A 
HETATM    5  N8  UNL     1     -41.762   5.230  -1.890  1.00 20.00    -0.354 N 
HETATM    6  O9  UNL     1     -43.417   3.285  -4.240  1.00 20.00    -0.291 OA
ENDROOT
BRANCH   5   7
HETATM    7  C5  UNL     1     -41.452   6.313  -1.127  1.00 20.00    -0.002 C 
HETATM    8  C4  UNL     1     -40.671   6.188  -0.046  1.00 20.00     0.038 C 
HETATM    9  C7  UNL     1     -42.032   7.620  -1.569  1.00 20.00     0.067 C 
ENDBRANCH   5   7
TORSDOF 1
ENDMDL
MODEL 9
REMARK VINA RESULT:      -3.6      2.555      4.124
REMARK  1 active torsions:
REMARK  status: ('A' for Active; 'I' for Inactive)
REMARK    1  A    between atoms: C5_5  and  N8_8 
ROOT
HETATM    1  C1  UNL     1     -34.397  16.277  -1.999  1.00 20.00     0.069 A 
HETATM    2  C2  UNL     1     -34.632  15.248  -2.817  1.00 20.00     0.095 A 
HETATM    3  C3  UNL     1     -33.832  17.302  -2.904  1.00 20.00     0.168 A 
HETATM    4  C6  UNL     1     -33.754  16.787  -4.328  1.00 20.00     0.211 A 
HETATM    5  N8  UNL     1     -34.302  15.447  -4.141  1.00 20.00    -0.354 N 
HETATM    6  O9  UNL     1     -33.479  18.411  -2.534  1.00 20.00    -0.291 OA
ENDROOT
BRANCH   5   7
HETATM    7  C5  UNL     1     -34.452  14.547  -5.151  1.00 20.00    -0.002 C 
HETATM    8  C4  UNL     1     -34.662  13.251  -4.887  1.00 20.00     0.038 C 
HETATM    9  C7  UNL     1     -34.365  15.094  -6.541  1.00 20.00     0.067 C 
ENDBRANCH   5   7
TORSDOF 1
ENDMDL
