MODEL 1
REMARK VINA RESULT:      -4.7      0.000      0.000
REMARK  3 active torsions:
REMARK  status: ('A' for Active; 'I' for Inactive)
REMARK    1  A    between atoms: C3_3  and  C8_8 
REMARK    2  A    between atoms: C7_7  and  C8_8 
REMARK    3  A    between atoms: C8_8  and  C9_9 
ROOT
HETATM    1  C1  UNL     1     -31.983   8.260   2.084  1.00 20.00     0.012 C 
HETATM    2  C2  UNL     1     -32.261   7.415   2.890  1.00 20.00    -0.117 C 
HETATM    3  C7  UNL     1     -32.602   6.378   3.880  1.00 20.00     0.105 C 
ENDROOT
BRANCH   3   4
HETATM    4  C8  UNL     1     -34.071   6.482   4.327  1.00 20.00     0.069 C 
BRANCH   4   5
HETATM    5  C3  UNL     1     -34.967   5.553   3.496  1.00 20.00     0.128 C 
HETATM    6  C4  UNL     1     -34.315   4.839   2.339  1.00 20.00     0.091 C 
HETATM    7  O10 UNL     1     -36.164   5.398   3.739  1.00 20.00    -0.298 OA
ENDBRANCH   4   5
BRANCH   4   8
HETATM    8  C9  UNL     1     -34.301   6.203   5.836  1.00 20.00    -0.011 C 
HETATM    9  C5  UNL     1     -34.109   4.734   6.225  1.00 20.00     0.010 C 
HETATM   10  C6  UNL     1     -33.407   7.090   6.708  1.00 20.00     0.010 C 
ENDBRANCH   4   8
ENDBRANCH   3   4
TORSDOF 3
ENDMDL
MODEL 2
REMARK VINA RESULT:      -4.6     11.036     12.169
REMARK  3 active torsions:
REMARK  status: ('A' for Active; 'I' for Inactive)
REMARK    1  A    between atoms: C3_3  and  C8_8 
REMARK    2  A    between atoms: C7_7  and  C8_8 
REMARK    3  A    between atoms: C8_8  and  C9_9 
ROOT
HETATM    1  C1  UNL     1     -34.624  16.824  -0.509  1.00 20.00     0.012 C 
HETATM    2  C2  UNL     1     -34.694  16.503  -1.663  1.00 20.00    -0.117 C 
HETATM    3  C7  UNL     1     -34.779  16.110  -3.082  1.00 20.00     0.105 C 
ENDROOT
BRANCH   3   4
HETATM    4  C8  UNL     1     -35.541  14.783  -3.257  1.00 20.00     0.069 C 
BRANCH   4   5
HETATM    5  C3  UNL     1     -36.963  15.030  -3.777  1.00 20.00     0.128 C 
HETATM    6  C4  UNL     1     -37.261  16.409  -4.312  1.00 20.00     0.091 C 
HETATM    7  O10 UNL     1     -37.835  14.162  -3.754  1.00 20.00    -0.298 OA
ENDBRANCH   4   5
BRANCH   4   8
HETATM    8  C9  UNL     1     -34.829  13.754  -4.174  1.00 20.00    -0.011 C 
HETATM    9  C5  UNL     1     -34.910  14.101  -5.664  1.00 20.00     0.010 C 
HETATM   10  C6  UNL     1     -33.364  13.565  -3.766  1.00 20.00     0.010 C 
ENDBRANCH   4   8
ENDBRANCH   3   4
TORSDOF 3
ENDMDL
MODEL 3
REMARK VINA RESULT:      -4.6     11.293     12.545
REMARK  3 active torsions:
REMARK  status: ('A' for Active; 'I' for Inactive)
REMARK    1  A    between atoms: C3_3  and  C8_8 
REMARK    2  A    between atoms: C7_7  and  C8_8 
REMARK    3  A    between atoms: C8_8  and  C9_9 
ROOT
HETATM    1  C1  UNL     1     -34.385  17.001  -0.563  1.00 20.00     0.012 C 
HETATM    2  C2  UNL     1     -34.754  16.310  -1.473  1.00 20.00    -0.117 C 
HETATM    3  C7  UNL     1     -35.209  15.462  -2.590  1.00 20.00     0.105 C 
ENDROOT
BRANCH   3   4
HETATM    4  C8  UNL     1     -34.126  15.325  -3.675  1.00 20.00     0.069 C 
BRANCH   4   5
HETATM    5  C3  UNL     1     -33.864  13.850  -4.008  1.00 20.00     0.128 C 
HETATM    6  C4  UNL     1     -34.854  13.175  -4.924  1.00 20.00     0.091 C 
HETATM    7  O10 UNL     1     -32.907  13.228  -3.547  1.00 20.00    -0.298 OA
ENDBRANCH   4   5
BRANCH   4   8
HETATM    8  C9  UNL     1     -34.429  16.101  -4.983  1.00 20.00    -0.011 C 
HETATM    9  C5  UNL     1     -35.823  16.738  -5.009  1.00 20.00     0.010 C 
HETATM   10  C6  UNL     1     -33.367  17.171  -5.255  1.00 20.00     0.010 C 
ENDBRANCH   4   8
ENDBRANCH   3   4
TORSDOF 3
ENDMDL
MODEL 4
REMARK VINA RESULT:      -4.5     10.869     12.642
REMARK  3 active torsions:
REMARK  status: ('A' for Active; 'I' for Inactive)
REMARK    1  A    between atoms: C3_3  and  C8_8 
REMARK    2  A    between atoms: C7_7  and  C8_8 
REMARK    3  A    between atoms: C8_8  and  C9_9 
ROOT
HETATM    1  C1  UNL     1     -34.443  16.619  -1.189  1.00 20.00     0.012 C 
HETATM    2  C2  UNL     1     -35.069  16.125  -2.086  1.00 20.00    -0.117 C 
HETATM    3  C7  UNL     1     -35.839  15.518  -3.188  1.00 20.00     0.105 C 
ENDROOT
BRANCH   3   4
HETATM    4  C8  UNL     1     -34.922  15.076  -4.343  1.00 20.00     0.069 C 
BRANCH   4   5
HETATM    5  C3  UNL     1     -34.378  13.661  -4.102  1.00 20.00     0.128 C 
HETATM    6  C4  UNL     1     -32.963  13.556  -3.591  1.00 20.00     0.091 C 
HETATM    7  O10 UNL     1     -35.044  12.650  -4.325  1.00 20.00    -0.298 OA
ENDBRANCH   4   5
BRANCH   4   8
HETATM    8  C9  UNL     1     -35.585  15.141  -5.744  1.00 20.00    -0.011 C 
HETATM    9  C5  UNL     1     -36.517  16.343  -5.927  1.00 20.00     0.010 C 
HETATM   10  C6  UNL     1     -34.533  15.127  -6.858  1.00 20.00     0.010 C 
ENDBRANCH   4   8
ENDBRANCH   3   4
TORSDOF 3
ENDMDL
MODEL 5
REMARK VINA RESULT:      -4.5     11.630     12.874
REMARK  3 active torsions:
REMARK  status: ('A' for Active; 'I' for Inactive)
REMARK    1  A    between atoms: C3_3  and  C8_8 
REMARK    2  A    between atoms: C7_7  and  C8_8 
REMARK    3  A    between atoms: C8_8  and  C9_9 
ROOT
HETATM    1  C1  UNL     1     -34.786  16.805  -0.718  1.00 20.00     0.012 C 
HETATM    2  C2  UNL     1     -34.381  16.250  -1.702  1.00 20.00    -0.117 C 
HETATM    3  C7  UNL     1     -33.881  15.568  -2.910  1.00 20.00     0.105 C 
ENDROOT
BRANCH   3   4
HETATM    4  C8  UNL     1     -34.785  15.837  -4.127  1.00 20.00     0.069 C 
BRANCH   4   5
HETATM    5  C3  UNL     1     -33.963  16.337  -5.323  1.00 20.00     0.128 C 
HETATM    6  C4  UNL     1     -34.409  15.883  -6.690  1.00 20.00     0.091 C 
HETATM    7  O10 UNL     1     -32.977  17.061  -5.190  1.00 20.00    -0.298 OA
ENDBRANCH   4   5
BRANCH   4   8
HETATM    8  C9  UNL     1     -35.644  14.622  -4.565  1.00 20.00    -0.011 C 
HETATM    9  C5  UNL     1     -35.005  13.268  -4.237  1.00 20.00     0.010 C 
HETATM   10  C6  UNL     1     -37.051  14.688  -3.963  1.00 20.00     0.010 C 
ENDBRANCH   4   8
ENDBRANCH   3   4
TORSDOF 3
ENDMDL
MODEL 6
REMARK VINA RESULT:      -4.5     10.975     12.180
REMARK  3 active torsions:
REMARK  status: ('A' for Active; 'I' for Inactive)
REMARK    1  A    between atoms: C3_3  and  C8_8 
REMARK    2  A    between atoms: C7_7  and  C8_8 
REMARK    3  A    between atoms: C8_8  and  C9_9 
ROOT
HETATM    1  C1  UNL     1     -38.828  14.862  -3.775  1.00 20.00     0.012 C 
HETATM    2  C2  UNL     1     -37.683  15.080  -4.061  1.00 20.00    -0.117 C 
HETATM    3  C7  UNL     1     -36.277  15.349  -4.414  1.00 20.00     0.105 C 
ENDROOT
BRANCH   3   4
HETATM    4  C8  UNL     1     -35.314  14.857  -3.318  1.00 20.00     0.069 C 
BRANCH   4   5
HETATM    5  C3  UNL     1     -34.497  13.652  -3.804  1.00 20.00     0.128 C 
HETATM    6  C4  UNL     1     -33.002  13.725  -3.616  1.00 20.00     0.091 C 
HETATM    7  O10 UNL     1     -35.017  12.672  -4.338  1.00 20.00    -0.298 OA
ENDBRANCH   4   5
BRANCH   4   8
HETATM    8  C9  UNL     1     -34.352  15.946  -2.777  1.00 20.00    -0.011 C 
HETATM    9  C5  UNL     1     -34.266  17.188  -3.670  1.00 20.00     0.010 C 
HETATM   10  C6  UNL     1     -34.726  16.360  -1.350  1.00 20.00     0.010 C 
ENDBRANCH   4   8
ENDBRANCH   3   4
TORSDOF 3
ENDMDL
MODEL 7
REMARK VINA RESULT:      -4.4     11.572     12.865
REMARK  3 active torsions:
REMARK  status: ('A' for Active; 'I' for Inactive)
REMARK    1  A    between atoms: C3_3  and  C8_8 
REMARK    2  A    between atoms: C7_7  and  C8_8 
REMARK    3  A    between atoms: C8_8  and  C9_9 
ROOT
HETATM    1  C1  UNL     1     -34.586  16.292  -1.734  1.00 20.00     0.012 C 
HETATM    2  C2  UNL     1     -33.921  15.761  -2.580  1.00 20.00    -0.117 C 
HETATM    3  C7  UNL     1     -33.103  15.107  -3.618  1.00 20.00     0.105 C 
ENDROOT
BRANCH   3   4
HETATM    4  C8  UNL     1     -33.945  14.736  -4.852  1.00 20.00     0.069 C 
BRANCH   4   5
HETATM    5  C3  UNL     1     -35.152  13.875  -4.456  1.00 20.00     0.128 C 
HETATM    6  C4  UNL     1     -36.490  14.569  -4.392  1.00 20.00     0.091 C 
HETATM    7  O10 UNL     1     -35.050  12.678  -4.185  1.00 20.00    -0.298 OA
ENDBRANCH   4   5
BRANCH   4   8
HETATM    8  C9  UNL     1     -34.432  15.952  -5.683  1.00 20.00    -0.011 C 
HETATM    9  C5  UNL     1     -33.564  17.202  -5.506  1.00 20.00     0.010 C 
HETATM   10  C6  UNL     1     -34.538  15.602  -7.171  1.00 20.00     0.010 C 
ENDBRANCH   4   8
ENDBRANCH   3   4
TORSDOF 3
ENDMDL
MODEL 8
REMARK VINA RESULT:      -4.4     11.177     12.261
REMARK  3 active torsions:
REMARK  status: ('A' for Active; 'I' for Inactive)
REMARK    1  A    between atoms: C3_3  and  C8_8 
REMARK    2  A    between atoms: C7_7  and  C8_8 
REMARK    3  A    between atoms: C8_8  and  C9_9 
ROOT
HETATM    1  C1  UNL     1     -34.867  17.171   0.090  1.00 20.00     0.012 C 
HETATM    2  C2  UNL     1     -34.449  16.805  -0.974  1.00 20.00    -0.117 C 
HETATM    3  C7  UNL     1     -33.934  16.356  -2.280  1.00 20.00     0.105 C 
ENDROOT
BRANCH   3   4
HETATM    4  C8  UNL     1     -34.890  15.354  -2.953  1.00 20.00     0.069 C 
BRANCH   4   5
HETATM    5  C3  UNL     1     -36.066  16.080  -3.621  1.00 20.00     0.128 C 
HETATM    6  C4  UNL     1     -35.727  17.045  -4.729  1.00 20.00     0.091 C 
HETATM    7  O10 UNL     1     -37.234  15.906  -3.272  1.00 20.00    -0.298 OA
ENDBRANCH   4   5
BRANCH   4   8
HETATM    8  C9  UNL     1     -34.211  14.417  -3.985  1.00 20.00    -0.011 C 
HETATM    9  C5  UNL     1     -32.861  13.864  -3.516  1.00 20.00     0.010 C 
HETATM   10  C6  UNL     1     -35.135  13.260  -4.379  1.00 20.00     0.010 C 
ENDBRANCH   4   8
ENDBRANCH   3   4
TORSDOF 3
ENDMDL
MODEL 9
REMARK VINA RESULT:      -4.3     10.723     12.411
REMARK  3 active torsions:
REMARK  status: ('A' for Active; 'I' for Inactive)
REMARK    1  A    between atoms: C3_3  and  C8_8 
REMARK    2  A    between atoms: C7_7  and  C8_8 
REMARK    3  A    between atoms: C8_8  and  C9_9 
ROOT
HETATM    1  C1  UNL     1     -33.711  17.978  -6.064  1.00 20.00     0.012 C 
HETATM    2  C2  UNL     1     -33.549  17.140  -5.219  1.00 20.00    -0.117 C 
HETATM    3  C7  UNL     1     -33.347  16.113  -4.181  1.00 20.00     0.105 C 
ENDROOT
BRANCH   3   4
HETATM    4  C8  UNL     1     -34.603  15.242  -3.995  1.00 20.00     0.069 C 
BRANCH   4   5
HETATM    5  C3  UNL     1     -34.236  13.754  -3.927  1.00 20.00     0.128 C 
HETATM    6  C4  UNL     1     -32.839  13.419  -3.468  1.00 20.00     0.091 C 
HETATM    7  O10 UNL     1     -35.025  12.863  -4.242  1.00 20.00    -0.298 OA
ENDBRANCH   4   5
BRANCH   4   8
HETATM    8  C9  UNL     1     -35.462  15.617  -2.759  1.00 20.00    -0.011 C 
HETATM    9  C5  UNL     1     -34.654  16.240  -1.616  1.00 20.00     0.010 C 
HETATM   10  C6  UNL     1     -36.616  16.549  -3.145  1.00 20.00     0.010 C 
ENDBRANCH   4   8
ENDBRANCH   3   4
TORSDOF 3
ENDMDL
