MODEL 1
REMARK VINA RESULT:      -4.4      0.000      0.000
REMARK  0 active torsions:
REMARK  status: ('A' for Active; 'I' for Inactive)
ROOT
HETATM    1  C1  UNL     1     -34.668  16.388  -1.365  1.00 20.00     0.015 C 
HETATM    2  C2  UNL     1     -34.465  15.833  -2.410  1.00 20.00    -0.073 C 
HETATM    3  C3  UNL     1     -33.743  13.716  -3.480  1.00 20.00     0.225 C 
HETATM    4  C4  UNL     1     -35.043  13.802  -5.366  1.00 20.00     0.442 C 
HETATM    5  C5  UNL     1     -34.214  15.153  -3.693  1.00 20.00     0.240 C 
HETATM    6  C6  UNL     1     -33.158  15.968  -4.466  1.00 20.00     0.066 C 
HETATM    7  C7  UNL     1     -36.649  14.704  -3.827  1.00 20.00     0.315 C 
HETATM    8  N8  UNL     1     -35.407  14.977  -4.558  1.00 20.00     0.130 N 
HETATM    9  O9  UNL     1     -34.062  13.011  -4.686  1.00 20.00    -0.359 OA
ENDROOT
TORSDOF 0
ENDMDL
MODEL 2
REMARK VINA RESULT:      -4.1      1.153      1.153
REMARK  0 active torsions:
REMARK  status: ('A' for Active; 'I' for Inactive)
ROOT
HETATM    1  C1  UNL     1     -34.758  16.318  -1.489  1.00 20.00     0.015 C 
HETATM    2  C2  UNL     1     -34.451  15.723  -2.486  1.00 20.00    -0.073 C 
HETATM    3  C3  UNL     1     -34.792  13.649  -3.801  1.00 20.00     0.225 C 
HETATM    4  C4  UNL     1     -34.555  14.516  -5.910  1.00 20.00     0.442 C 
HETATM    5  C5  UNL     1     -34.072  14.992  -3.708  1.00 20.00     0.240 C 
HETATM    6  C6  UNL     1     -32.543  14.796  -3.691  1.00 20.00     0.066 C 
HETATM    7  C7  UNL     1     -35.735  16.365  -4.933  1.00 20.00     0.315 C 
HETATM    8  N8  UNL     1     -34.453  15.653  -4.981  1.00 20.00     0.130 N 
HETATM    9  O9  UNL     1     -34.808  13.303  -5.192  1.00 20.00    -0.359 OA
ENDROOT
TORSDOF 0
ENDMDL
MODEL 3
REMARK VINA RESULT:      -3.9      1.527      2.320
REMARK  0 active torsions:
REMARK  status: ('A' for Active; 'I' for Inactive)
ROOT
HETATM    1  C1  UNL     1     -34.552  16.373  -1.470  1.00 20.00     0.015 C 
HETATM    2  C2  UNL     1     -34.499  15.863  -2.556  1.00 20.00    -0.073 C 
HETATM    3  C3  UNL     1     -35.797  15.244  -4.576  1.00 20.00     0.225 C 
HETATM    4  C4  UNL     1     -34.161  15.528  -6.157  1.00 20.00     0.442 C 
HETATM    5  C5  UNL     1     -34.434  15.235  -3.888  1.00 20.00     0.240 C 
HETATM    6  C6  UNL     1     -33.917  13.794  -3.710  1.00 20.00     0.066 C 
HETATM    7  C7  UNL     1     -33.588  17.396  -4.763  1.00 20.00     0.315 C 
HETATM    8  N8  UNL     1     -33.570  15.933  -4.872  1.00 20.00     0.130 N 
HETATM    9  O9  UNL     1     -35.532  15.152  -5.981  1.00 20.00    -0.359 OA
ENDROOT
TORSDOF 0
ENDMDL
MODEL 4
REMARK VINA RESULT:      -3.9      1.321      2.320
REMARK  0 active torsions:
REMARK  status: ('A' for Active; 'I' for Inactive)
ROOT
HETATM    1  C1  UNL     1     -34.613  16.313  -1.460  1.00 20.00     0.015 C 
HETATM    2  C2  UNL     1     -34.990  15.799  -2.477  1.00 20.00    -0.073 C 
HETATM    3  C3  UNL     1     -35.127  16.032  -4.942  1.00 20.00     0.225 C 
HETATM    4  C4  UNL     1     -34.943  13.822  -5.524  1.00 20.00     0.442 C 
HETATM    5  C5  UNL     1     -35.455  15.169  -3.726  1.00 20.00     0.240 C 
HETATM    6  C6  UNL     1     -36.975  14.940  -3.606  1.00 20.00     0.066 C 
HETATM    7  C7  UNL     1     -33.384  13.805  -3.699  1.00 20.00     0.315 C 
HETATM    8  N8  UNL     1     -34.804  13.878  -4.060  1.00 20.00     0.130 N 
HETATM    9  O9  UNL     1     -35.094  15.140  -6.064  1.00 20.00    -0.359 OA
ENDROOT
TORSDOF 0
ENDMDL
MODEL 5
REMARK VINA RESULT:      -3.8      1.714      3.205
REMARK  0 active torsions:
REMARK  status: ('A' for Active; 'I' for Inactive)
ROOT
HETATM    1  C1  UNL     1     -34.612  14.808  -6.981  1.00 20.00     0.015 C 
HETATM    2  C2  UNL     1     -34.429  14.884  -5.796  1.00 20.00    -0.073 C 
HETATM    3  C3  UNL     1     -33.333  16.180  -3.988  1.00 20.00     0.225 C 
HETATM    4  C4  UNL     1     -34.881  15.863  -2.328  1.00 20.00     0.442 C 
HETATM    5  C5  UNL     1     -34.202  14.975  -4.343  1.00 20.00     0.240 C 
HETATM    6  C6  UNL     1     -33.539  13.663  -3.880  1.00 20.00     0.066 C 
HETATM    7  C7  UNL     1     -36.416  16.079  -4.161  1.00 20.00     0.315 C 
HETATM    8  N8  UNL     1     -35.421  15.206  -3.529  1.00 20.00     0.130 N 
HETATM    9  O9  UNL     1     -33.630  16.495  -2.623  1.00 20.00    -0.359 OA
ENDROOT
TORSDOF 0
ENDMDL
MODEL 6
REMARK VINA RESULT:      -3.7      1.302      3.415
REMARK  0 active torsions:
REMARK  status: ('A' for Active; 'I' for Inactive)
ROOT
HETATM    1  C1  UNL     1     -36.085  14.963  -7.505  1.00 20.00     0.015 C 
HETATM    2  C2  UNL     1     -35.840  14.775  -6.345  1.00 20.00    -0.073 C 
HETATM    3  C3  UNL     1     -34.771  13.240  -4.716  1.00 20.00     0.225 C 
HETATM    4  C4  UNL     1     -34.039  14.786  -3.190  1.00 20.00     0.442 C 
HETATM    5  C5  UNL     1     -35.542  14.543  -4.920  1.00 20.00     0.240 C 
HETATM    6  C6  UNL     1     -36.878  14.518  -4.152  1.00 20.00     0.066 C 
HETATM    7  C7  UNL     1     -33.597  16.060  -5.176  1.00 20.00     0.315 C 
HETATM    8  N8  UNL     1     -34.649  15.547  -4.292  1.00 20.00     0.130 N 
HETATM    9  O9  UNL     1     -34.074  13.382  -3.473  1.00 20.00    -0.359 OA
ENDROOT
TORSDOF 0
ENDMDL
MODEL 7
REMARK VINA RESULT:      -3.7      1.502      2.905
REMARK  0 active torsions:
REMARK  status: ('A' for Active; 'I' for Inactive)
ROOT
HETATM    1  C1  UNL     1     -37.748  14.767  -3.799  1.00 20.00     0.015 C 
HETATM    2  C2  UNL     1     -36.564  14.717  -3.993  1.00 20.00    -0.073 C 
HETATM    3  C3  UNL     1     -34.662  15.728  -5.221  1.00 20.00     0.225 C 
HETATM    4  C4  UNL     1     -33.016  15.418  -3.656  1.00 20.00     0.442 C 
HETATM    5  C5  UNL     1     -35.112  14.653  -4.234  1.00 20.00     0.240 C 
HETATM    6  C6  UNL     1     -34.778  13.245  -4.764  1.00 20.00     0.066 C 
HETATM    7  C7  UNL     1     -34.802  15.951  -2.143  1.00 20.00     0.315 C 
HETATM    8  N8  UNL     1     -34.264  14.929  -3.048  1.00 20.00     0.130 N 
HETATM    9  O9  UNL     1     -33.270  15.946  -4.963  1.00 20.00    -0.359 OA
ENDROOT
TORSDOF 0
ENDMDL
MODEL 8
REMARK VINA RESULT:      -3.7      1.623      2.467
REMARK  0 active torsions:
REMARK  status: ('A' for Active; 'I' for Inactive)
ROOT
HETATM    1  C1  UNL     1     -36.404  17.459  -4.987  1.00 20.00     0.015 C 
HETATM    2  C2  UNL     1     -35.871  16.445  -4.625  1.00 20.00    -0.073 C 
HETATM    3  C3  UNL     1     -36.214  14.047  -4.093  1.00 20.00     0.225 C 
HETATM    4  C4  UNL     1     -34.185  13.231  -4.780  1.00 20.00     0.442 C 
HETATM    5  C5  UNL     1     -35.218  15.201  -4.179  1.00 20.00     0.240 C 
HETATM    6  C6  UNL     1     -34.569  15.470  -2.807  1.00 20.00     0.066 C 
HETATM    7  C7  UNL     1     -34.485  14.855  -6.523  1.00 20.00     0.315 C 
HETATM    8  N8  UNL     1     -34.184  14.668  -5.099  1.00 20.00     0.130 N 
HETATM    9  O9  UNL     1     -35.441  12.846  -4.209  1.00 20.00    -0.359 OA
ENDROOT
TORSDOF 0
ENDMDL
MODEL 9
REMARK VINA RESULT:      -3.7      1.564      3.141
REMARK  0 active torsions:
REMARK  status: ('A' for Active; 'I' for Inactive)
ROOT
HETATM    1  C1  UNL     1     -34.449  16.969  -6.990  1.00 20.00     0.015 C 
HETATM    2  C2  UNL     1     -34.757  16.115  -6.204  1.00 20.00    -0.073 C 
HETATM    3  C3  UNL     1     -34.803  13.674  -5.769  1.00 20.00     0.225 C 
HETATM    4  C4  UNL     1     -34.483  13.706  -3.499  1.00 20.00     0.442 C 
HETATM    5  C5  UNL     1     -35.137  15.067  -5.240  1.00 20.00     0.240 C 
HETATM    6  C6  UNL     1     -36.647  15.202  -4.960  1.00 20.00     0.066 C 
HETATM    7  C7  UNL     1     -33.002  15.510  -4.058  1.00 20.00     0.315 C 
HETATM    8  N8  UNL     1     -34.408  15.105  -3.948  1.00 20.00     0.130 N 
HETATM    9  O9  UNL     1     -34.679  12.831  -4.617  1.00 20.00    -0.359 OA
ENDROOT
TORSDOF 0
ENDMDL
