MODEL 1
REMARK VINA RESULT:      -4.5      0.000      0.000
REMARK  2 active torsions:
REMARK  status: ('A' for Active; 'I' for Inactive)
REMARK    1  A    between atoms: C1_1  and  C6_6 
REMARK    2  A    between atoms: C7_7  and  C9_9 
ROOT
HETATM    1  C2  UNL     1     -32.891   6.686   4.726  1.00 20.00     0.012 C 
HETATM    2  C3  UNL     1     -32.933   5.386   2.530  1.00 20.00     0.012 C 
HETATM    3  C4  UNL     1     -34.421   6.678   4.743  1.00 20.00     0.005 C 
HETATM    4  C5  UNL     1     -34.463   5.399   2.572  1.00 20.00     0.005 C 
HETATM    5  C6  UNL     1     -32.292   6.511   3.335  1.00 20.00     0.047 C 
HETATM    6  C7  UNL     1     -35.028   5.485   3.994  1.00 20.00    -0.015 C 
ENDROOT
BRANCH   5   7
HETATM    7  C1  UNL     1     -32.429   7.811   2.557  1.00 20.00     0.235 C 
HETATM    8  O10 UNL     1     -31.699   8.117   1.619  1.00 20.00    -0.306 OA
ENDBRANCH   5   7
BRANCH   6   9
HETATM    9  C9  UNL     1     -34.837   4.175   4.762  1.00 20.00     0.000 C 
HETATM   10  C8  UNL     1     -35.078   4.353   6.225  1.00 20.00     0.005 C 
ENDBRANCH   6   9
TORSDOF 2
ENDMDL
MODEL 2
REMARK VINA RESULT:      -4.3     11.205     12.197
REMARK  2 active torsions:
REMARK  status: ('A' for Active; 'I' for Inactive)
REMARK    1  A    between atoms: C1_1  and  C6_6 
REMARK    2  A    between atoms: C7_7  and  C9_9 
ROOT
HETATM    1  C2  UNL     1     -33.794  13.969  -3.535  1.00 20.00     0.012 C 
HETATM    2  C3  UNL     1     -36.202  14.765  -3.822  1.00 20.00     0.012 C 
HETATM    3  C4  UNL     1     -33.333  15.428  -3.492  1.00 20.00     0.005 C 
HETATM    4  C5  UNL     1     -35.710  16.214  -3.780  1.00 20.00     0.005 C 
HETATM    5  C6  UNL     1     -35.129  13.769  -4.245  1.00 20.00     0.047 C 
HETATM    6  C7  UNL     1     -34.414  16.389  -2.982  1.00 20.00    -0.015 C 
ENDROOT
BRANCH   5   7
HETATM    7  C1  UNL     1     -34.924  13.876  -5.748  1.00 20.00     0.235 C 
HETATM    8  O10 UNL     1     -35.750  14.371  -6.509  1.00 20.00    -0.306 OA
ENDBRANCH   5   7
BRANCH   6   9
HETATM    9  C9  UNL     1     -34.648  16.234  -1.477  1.00 20.00     0.000 C 
HETATM   10  C8  UNL     1     -34.028  17.352  -0.705  1.00 20.00     0.005 C 
ENDBRANCH   6   9
TORSDOF 2
ENDMDL
MODEL 3
REMARK VINA RESULT:      -4.3     11.793     12.767
REMARK  2 active torsions:
REMARK  status: ('A' for Active; 'I' for Inactive)
REMARK    1  A    between atoms: C1_1  and  C6_6 
REMARK    2  A    between atoms: C7_7  and  C9_9 
ROOT
HETATM    1  C2  UNL     1     -35.732  16.174  -4.451  1.00 20.00     0.012 C 
HETATM    2  C3  UNL     1     -33.229  16.258  -4.943  1.00 20.00     0.012 C 
HETATM    3  C4  UNL     1     -35.451  15.263  -3.255  1.00 20.00     0.005 C 
HETATM    4  C5  UNL     1     -32.980  15.342  -3.744  1.00 20.00     0.005 C 
HETATM    5  C6  UNL     1     -34.638  16.146  -5.513  1.00 20.00     0.047 C 
HETATM    6  C7  UNL     1     -34.053  15.464  -2.656  1.00 20.00    -0.015 C 
ENDROOT
BRANCH   5   7
HETATM    7  C1  UNL     1     -34.743  14.858  -6.316  1.00 20.00     0.235 C 
HETATM    8  O10 UNL     1     -34.394  14.763  -7.488  1.00 20.00    -0.306 OA
ENDBRANCH   5   7
BRANCH   6   9
HETATM    9  C9  UNL     1     -33.945  16.788  -1.897  1.00 20.00     0.000 C 
HETATM   10  C8  UNL     1     -34.677  16.740  -0.596  1.00 20.00     0.005 C 
ENDBRANCH   6   9
TORSDOF 2
ENDMDL
MODEL 4
REMARK VINA RESULT:      -4.3     11.260     12.633
REMARK  2 active torsions:
REMARK  status: ('A' for Active; 'I' for Inactive)
REMARK    1  A    between atoms: C1_1  and  C6_6 
REMARK    2  A    between atoms: C7_7  and  C9_9 
ROOT
HETATM    1  C2  UNL     1     -35.642  13.955  -4.245  1.00 20.00     0.012 C 
HETATM    2  C3  UNL     1     -35.109  16.281  -5.150  1.00 20.00     0.012 C 
HETATM    3  C4  UNL     1     -34.307  13.955  -3.498  1.00 20.00     0.005 C 
HETATM    4  C5  UNL     1     -33.778  16.251  -4.395  1.00 20.00     0.005 C 
HETATM    5  C6  UNL     1     -35.674  14.896  -5.444  1.00 20.00     0.047 C 
HETATM    6  C7  UNL     1     -33.812  15.364  -3.146  1.00 20.00    -0.015 C 
ENDROOT
BRANCH   5   7
HETATM    7  C1  UNL     1     -34.892  14.280  -6.594  1.00 20.00     0.235 C 
HETATM    8  O10 UNL     1     -34.519  14.916  -7.574  1.00 20.00    -0.306 OA
ENDBRANCH   5   7
BRANCH   6   9
HETATM    9  C9  UNL     1     -34.641  15.994  -2.024  1.00 20.00     0.000 C 
HETATM   10  C8  UNL     1     -33.885  17.070  -1.317  1.00 20.00     0.005 C 
ENDBRANCH   6   9
TORSDOF 2
ENDMDL
MODEL 5
REMARK VINA RESULT:      -4.2      2.313      4.128
REMARK  2 active torsions:
REMARK  status: ('A' for Active; 'I' for Inactive)
REMARK    1  A    between atoms: C1_1  and  C6_6 
REMARK    2  A    between atoms: C7_7  and  C9_9 
ROOT
HETATM    1  C2  UNL     1     -33.731   6.735   5.390  1.00 20.00     0.012 C 
HETATM    2  C3  UNL     1     -35.041   5.584   3.526  1.00 20.00     0.012 C 
HETATM    3  C4  UNL     1     -32.442   6.527   4.593  1.00 20.00     0.005 C 
HETATM    4  C5  UNL     1     -33.734   5.384   2.755  1.00 20.00     0.005 C 
HETATM    5  C6  UNL     1     -34.842   5.755   5.028  1.00 20.00     0.047 C 
HETATM    6  C7  UNL     1     -32.674   6.442   3.079  1.00 20.00    -0.015 C 
ENDROOT
BRANCH   5   7
HETATM    7  C1  UNL     1     -34.539   4.397   5.642  1.00 20.00     0.235 C 
HETATM    8  O10 UNL     1     -35.110   3.363   5.309  1.00 20.00    -0.306 OA
ENDBRANCH   5   7
BRANCH   6   9
HETATM    9  C9  UNL     1     -33.030   7.806   2.481  1.00 20.00     0.000 C 
HETATM   10  C8  UNL     1     -31.914   8.354   1.654  1.00 20.00     0.005 C 
ENDBRANCH   6   9
TORSDOF 2
ENDMDL
MODEL 6
REMARK VINA RESULT:      -4.2     11.524     12.981
REMARK  2 active torsions:
REMARK  status: ('A' for Active; 'I' for Inactive)
REMARK    1  A    between atoms: C1_1  and  C6_6 
REMARK    2  A    between atoms: C7_7  and  C9_9 
ROOT
HETATM    1  C2  UNL     1     -35.588  14.969  -3.671  1.00 20.00     0.012 C 
HETATM    2  C3  UNL     1     -33.068  15.353  -3.813  1.00 20.00     0.012 C 
HETATM    3  C4  UNL     1     -35.787  15.946  -4.831  1.00 20.00     0.005 C 
HETATM    4  C5  UNL     1     -33.299  16.329  -4.968  1.00 20.00     0.005 C 
HETATM    5  C6  UNL     1     -34.284  15.179  -2.909  1.00 20.00     0.047 C 
HETATM    6  C7  UNL     1     -34.574  16.031  -5.766  1.00 20.00    -0.015 C 
ENDROOT
BRANCH   5   7
HETATM    7  C1  UNL     1     -34.410  16.404  -2.015  1.00 20.00     0.235 C 
HETATM    8  O10 UNL     1     -34.658  16.341  -0.815  1.00 20.00    -0.306 OA
ENDBRANCH   5   7
BRANCH   6   9
HETATM    9  C9  UNL     1     -34.426  14.770  -6.622  1.00 20.00     0.000 C 
HETATM   10  C8  UNL     1     -35.595  14.582  -7.532  1.00 20.00     0.005 C 
ENDBRANCH   6   9
TORSDOF 2
ENDMDL
MODEL 7
REMARK VINA RESULT:      -4.1     11.528     13.000
REMARK  2 active torsions:
REMARK  status: ('A' for Active; 'I' for Inactive)
REMARK    1  A    between atoms: C1_1  and  C6_6 
REMARK    2  A    between atoms: C7_7  and  C9_9 
ROOT
HETATM    1  C2  UNL     1     -35.770  15.178  -3.517  1.00 20.00     0.012 C 
HETATM    2  C3  UNL     1     -34.347  15.945  -5.492  1.00 20.00     0.012 C 
HETATM    3  C4  UNL     1     -34.639  15.577  -2.567  1.00 20.00     0.005 C 
HETATM    4  C5  UNL     1     -33.231  16.329  -4.518  1.00 20.00     0.005 C 
HETATM    5  C6  UNL     1     -35.303  14.894  -4.940  1.00 20.00     0.047 C 
HETATM    6  C7  UNL     1     -33.748  16.695  -3.122  1.00 20.00    -0.015 C 
ENDROOT
BRANCH   5   7
HETATM    7  C1  UNL     1     -34.622  13.535  -4.989  1.00 20.00     0.235 C 
HETATM    8  O10 UNL     1     -35.023  12.556  -4.369  1.00 20.00    -0.306 OA
ENDBRANCH   5   7
BRANCH   6   9
HETATM    9  C9  UNL     1     -34.464  18.048  -3.117  1.00 20.00     0.000 C 
HETATM   10  C8  UNL     1     -33.596  19.133  -3.662  1.00 20.00     0.005 C 
ENDBRANCH   6   9
TORSDOF 2
ENDMDL
MODEL 8
REMARK VINA RESULT:      -4.1     10.988     13.338
REMARK  2 active torsions:
REMARK  status: ('A' for Active; 'I' for Inactive)
REMARK    1  A    between atoms: C1_1  and  C6_6 
REMARK    2  A    between atoms: C7_7  and  C9_9 
ROOT
HETATM    1  C2  UNL     1     -34.485  15.535  -3.037  1.00 20.00     0.012 C 
HETATM    2  C3  UNL     1     -35.392  15.229  -5.403  1.00 20.00     0.012 C 
HETATM    3  C4  UNL     1     -33.132  15.940  -3.623  1.00 20.00     0.005 C 
HETATM    4  C5  UNL     1     -34.025  15.633  -5.960  1.00 20.00     0.005 C 
HETATM    5  C6  UNL     1     -35.334  14.688  -3.979  1.00 20.00     0.047 C 
HETATM    6  C7  UNL     1     -33.239  16.557  -5.023  1.00 20.00    -0.015 C 
ENDROOT
BRANCH   5   7
HETATM    7  C1  UNL     1     -34.788  13.268  -4.015  1.00 20.00     0.235 C 
HETATM    8  O10 UNL     1     -34.983  12.493  -4.946  1.00 20.00    -0.306 OA
ENDBRANCH   5   7
BRANCH   6   9
HETATM    9  C9  UNL     1     -33.839  17.965  -4.979  1.00 20.00     0.000 C 
HETATM   10  C8  UNL     1     -33.798  18.624  -6.318  1.00 20.00     0.005 C 
ENDBRANCH   6   9
TORSDOF 2
ENDMDL
MODEL 9
REMARK VINA RESULT:      -3.8      9.584     10.992
REMARK  2 active torsions:
REMARK  status: ('A' for Active; 'I' for Inactive)
REMARK    1  A    between atoms: C1_1  and  C6_6 
REMARK    2  A    between atoms: C7_7  and  C9_9 
ROOT
HETATM    1  C2  UNL     1     -41.926   4.969  -2.185  1.00 20.00     0.012 C 
HETATM    2  C3  UNL     1     -41.004   6.982  -0.916  1.00 20.00     0.012 C 
HETATM    3  C4  UNL     1     -43.227   5.736  -2.427  1.00 20.00     0.005 C 
HETATM    4  C5  UNL     1     -42.319   7.722  -1.169  1.00 20.00     0.005 C 
HETATM    5  C6  UNL     1     -41.136   5.465  -0.979  1.00 20.00     0.047 C 
HETATM    6  C7  UNL     1     -43.039   7.258  -2.440  1.00 20.00    -0.015 C 
ENDROOT
BRANCH   5   7
HETATM    7  C1  UNL     1     -41.803   4.976   0.298  1.00 20.00     0.235 C 
HETATM    8  O10 UNL     1     -42.549   4.004   0.342  1.00 20.00    -0.306 OA
ENDBRANCH   5   7
BRANCH   6   9
HETATM    9  C9  UNL     1     -42.319   7.731  -3.706  1.00 20.00     0.000 C 
HETATM   10  C8  UNL     1     -43.240   8.466  -4.622  1.00 20.00     0.005 C 
ENDBRANCH   6   9
TORSDOF 2
ENDMDL
