MODEL 1
REMARK VINA RESULT:      -5.1      0.000      0.000
REMARK  1 active torsions:
REMARK  status: ('A' for Active; 'I' for Inactive)
REMARK    1  A    between atoms: C1_1  and  C6_6 
ROOT
HETATM    1  C1  UNL     1     -32.626   7.272   2.679  1.00 20.00    -0.100 C 
HETATM    2  C2  UNL     1     -32.300   8.221   2.019  1.00 20.00    -0.111 C 
HETATM    3  C7  UNL     1     -31.904   9.376   1.216  1.00 20.00     0.112 C 
ENDROOT
BRANCH   1   4
HETATM    4  C6  UNL     1     -33.023   6.114   3.483  1.00 20.00     0.090 C 
HETATM    5  C4  UNL     1     -33.478   6.496   4.876  1.00 20.00     0.072 C 
HETATM    6  C3  UNL     1     -34.456   5.391   5.123  1.00 20.00     0.004 C 
HETATM    7  C8  UNL     1     -34.914   5.076   6.510  1.00 20.00     0.065 C 
HETATM    8  N9  UNL     1     -34.903   4.757   4.082  1.00 20.00    -0.297 NA
HETATM    9  C5  UNL     1     -34.247   5.399   2.924  1.00 20.00     0.166 C 
ENDBRANCH   1   4
TORSDOF 1
ENDMDL
MODEL 2
REMARK VINA RESULT:      -4.4     11.554     12.338
REMARK  1 active torsions:
REMARK  status: ('A' for Active; 'I' for Inactive)
REMARK    1  A    between atoms: C1_1  and  C6_6 
ROOT
HETATM    1  C1  UNL     1     -34.286  16.504  -1.461  1.00 20.00    -0.100 C 
HETATM    2  C2  UNL     1     -34.692  16.958  -0.426  1.00 20.00    -0.111 C 
HETATM    3  C7  UNL     1     -35.186  17.511   0.833  1.00 20.00     0.112 C 
ENDROOT
BRANCH   1   4
HETATM    4  C6  UNL     1     -33.790  15.950  -2.722  1.00 20.00     0.090 C 
HETATM    5  C4  UNL     1     -34.735  14.932  -3.327  1.00 20.00     0.072 C 
HETATM    6  C3  UNL     1     -34.421  15.141  -4.775  1.00 20.00     0.004 C 
HETATM    7  C8  UNL     1     -34.804  14.115  -5.792  1.00 20.00     0.065 C 
HETATM    8  N9  UNL     1     -33.841  16.257  -5.097  1.00 20.00    -0.297 NA
HETATM    9  C5  UNL     1     -33.686  16.995  -3.826  1.00 20.00     0.166 C 
ENDBRANCH   1   4
TORSDOF 1
ENDMDL
MODEL 3
REMARK VINA RESULT:      -4.3     10.673     12.049
REMARK  1 active torsions:
REMARK  status: ('A' for Active; 'I' for Inactive)
REMARK    1  A    between atoms: C1_1  and  C6_6 
ROOT
HETATM    1  C1  UNL     1     -34.891  15.777  -2.268  1.00 20.00    -0.100 C 
HETATM    2  C2  UNL     1     -34.608  16.500  -1.352  1.00 20.00    -0.111 C 
HETATM    3  C7  UNL     1     -34.265  17.379  -0.236  1.00 20.00     0.112 C 
ENDROOT
BRANCH   1   4
HETATM    4  C6  UNL     1     -35.236  14.897  -3.386  1.00 20.00     0.090 C 
HETATM    5  C4  UNL     1     -35.183  15.602  -4.726  1.00 20.00     0.072 C 
HETATM    6  C3  UNL     1     -34.814  14.442  -5.596  1.00 20.00     0.004 C 
HETATM    7  C8  UNL     1     -35.005  14.510  -7.076  1.00 20.00     0.065 C 
HETATM    8  N9  UNL     1     -34.294  13.407  -5.008  1.00 20.00    -0.297 NA
HETATM    9  C5  UNL     1     -34.237  13.763  -3.575  1.00 20.00     0.166 C 
ENDBRANCH   1   4
TORSDOF 1
ENDMDL
MODEL 4
REMARK VINA RESULT:      -4.0     11.083     11.663
REMARK  1 active torsions:
REMARK  status: ('A' for Active; 'I' for Inactive)
REMARK    1  A    between atoms: C1_1  and  C6_6 
ROOT
HETATM    1  C1  UNL     1     -34.906  16.643  -1.513  1.00 20.00    -0.100 C 
HETATM    2  C2  UNL     1     -34.790  17.091  -0.405  1.00 20.00    -0.111 C 
HETATM    3  C7  UNL     1     -34.650  17.637   0.943  1.00 20.00     0.112 C 
ENDROOT
BRANCH   1   4
HETATM    4  C6  UNL     1     -35.047  16.097  -2.864  1.00 20.00     0.090 C 
HETATM    5  C4  UNL     1     -34.227  14.842  -3.079  1.00 20.00     0.072 C 
HETATM    6  C3  UNL     1     -35.088  14.160  -4.094  1.00 20.00     0.004 C 
HETATM    7  C8  UNL     1     -34.543  13.050  -4.932  1.00 20.00     0.065 C 
HETATM    8  N9  UNL     1     -36.322  14.554  -4.180  1.00 20.00    -0.297 NA
HETATM    9  C5  UNL     1     -36.462  15.617  -3.162  1.00 20.00     0.166 C 
ENDBRANCH   1   4
TORSDOF 1
ENDMDL
MODEL 5
REMARK VINA RESULT:      -3.9     11.223     12.150
REMARK  1 active torsions:
REMARK  status: ('A' for Active; 'I' for Inactive)
REMARK    1  A    between atoms: C1_1  and  C6_6 
ROOT
HETATM    1  C1  UNL     1     -34.911  15.553  -2.926  1.00 20.00    -0.100 C 
HETATM    2  C2  UNL     1     -34.923  14.517  -3.533  1.00 20.00    -0.111 C 
HETATM    3  C7  UNL     1     -34.937  13.257  -4.273  1.00 20.00     0.112 C 
ENDROOT
BRANCH   1   4
HETATM    4  C6  UNL     1     -34.897  16.816  -2.186  1.00 20.00     0.090 C 
HETATM    5  C4  UNL     1     -34.600  16.629  -0.712  1.00 20.00     0.072 C 
HETATM    6  C3  UNL     1     -33.926  17.936  -0.433  1.00 20.00     0.004 C 
HETATM    7  C8  UNL     1     -33.771  18.427   0.969  1.00 20.00     0.065 C 
HETATM    8  N9  UNL     1     -33.461  18.588  -1.454  1.00 20.00    -0.297 NA
HETATM    9  C5  UNL     1     -33.775  17.748  -2.629  1.00 20.00     0.166 C 
ENDBRANCH   1   4
TORSDOF 1
ENDMDL
MODEL 6
REMARK VINA RESULT:      -3.9      9.762     11.268
REMARK  1 active torsions:
REMARK  status: ('A' for Active; 'I' for Inactive)
REMARK    1  A    between atoms: C1_1  and  C6_6 
ROOT
HETATM    1  C1  UNL     1     -42.116   2.663  -2.854  1.00 20.00    -0.100 C 
HETATM    2  C2  UNL     1     -41.867   1.635  -3.423  1.00 20.00    -0.111 C 
HETATM    3  C7  UNL     1     -41.564   0.384  -4.114  1.00 20.00     0.112 C 
ENDROOT
BRANCH   1   4
HETATM    4  C6  UNL     1     -42.420   3.917  -2.161  1.00 20.00     0.090 C 
HETATM    5  C4  UNL     1     -41.196   4.548  -1.529  1.00 20.00     0.072 C 
HETATM    6  C3  UNL     1     -41.596   5.988  -1.615  1.00 20.00     0.004 C 
HETATM    7  C8  UNL     1     -40.906   7.019  -0.783  1.00 20.00     0.065 C 
HETATM    8  N9  UNL     1     -42.531   6.290  -2.463  1.00 20.00    -0.297 NA
HETATM    9  C5  UNL     1     -42.902   5.011  -3.104  1.00 20.00     0.166 C 
ENDBRANCH   1   4
TORSDOF 1
ENDMDL
MODEL 7
REMARK VINA RESULT:      -3.7     11.366     11.919
REMARK  1 active torsions:
REMARK  status: ('A' for Active; 'I' for Inactive)
REMARK    1  A    between atoms: C1_1  and  C6_6 
ROOT
HETATM    1  C1  UNL     1     -34.646  16.956  -0.983  1.00 20.00    -0.100 C 
HETATM    2  C2  UNL     1     -34.598  16.141  -1.865  1.00 20.00    -0.111 C 
HETATM    3  C7  UNL     1     -34.540  15.151  -2.937  1.00 20.00     0.112 C 
ENDROOT
BRANCH   1   4
HETATM    4  C6  UNL     1     -34.705  17.948   0.092  1.00 20.00     0.090 C 
HETATM    5  C4  UNL     1     -35.275  17.386   1.378  1.00 20.00     0.072 C 
HETATM    6  C3  UNL     1     -34.544  18.244   2.362  1.00 20.00     0.004 C 
HETATM    7  C8  UNL     1     -35.023  18.362   3.772  1.00 20.00     0.065 C 
HETATM    8  N9  UNL     1     -33.470  18.840   1.940  1.00 20.00    -0.297 NA
HETATM    9  C5  UNL     1     -33.327  18.428   0.528  1.00 20.00     0.166 C 
ENDBRANCH   1   4
TORSDOF 1
ENDMDL
MODEL 8
REMARK VINA RESULT:      -3.7     10.070     11.421
REMARK  1 active torsions:
REMARK  status: ('A' for Active; 'I' for Inactive)
REMARK    1  A    between atoms: C1_1  and  C6_6 
ROOT
HETATM    1  C1  UNL     1     -41.781   4.375  -1.985  1.00 20.00    -0.100 C 
HETATM    2  C2  UNL     1     -41.301   5.232  -1.294  1.00 20.00    -0.111 C 
HETATM    3  C7  UNL     1     -40.718   6.276  -0.454  1.00 20.00     0.112 C 
ENDROOT
BRANCH   1   4
HETATM    4  C6  UNL     1     -42.365   3.329  -2.828  1.00 20.00     0.090 C 
HETATM    5  C4  UNL     1     -41.336   2.332  -3.321  1.00 20.00     0.072 C 
HETATM    6  C3  UNL     1     -42.207   1.120  -3.429  1.00 20.00     0.004 C 
HETATM    7  C8  UNL     1     -41.774  -0.059  -4.238  1.00 20.00     0.065 C 
HETATM    8  N9  UNL     1     -43.322   1.135  -2.764  1.00 20.00    -0.297 NA
HETATM    9  C5  UNL     1     -43.344   2.440  -2.072  1.00 20.00     0.166 C 
ENDBRANCH   1   4
TORSDOF 1
ENDMDL
MODEL 9
REMARK VINA RESULT:      -3.6      1.905      4.813
REMARK  1 active torsions:
REMARK  status: ('A' for Active; 'I' for Inactive)
REMARK    1  A    between atoms: C1_1  and  C6_6 
ROOT
HETATM    1  C1  UNL     1     -33.528   5.787   4.284  1.00 20.00    -0.100 C 
HETATM    2  C2  UNL     1     -34.270   5.285   5.083  1.00 20.00    -0.111 C 
HETATM    3  C7  UNL     1     -35.173   4.675   6.057  1.00 20.00     0.112 C 
ENDROOT
BRANCH   1   4
HETATM    4  C6  UNL     1     -32.623   6.399   3.309  1.00 20.00     0.090 C 
HETATM    5  C4  UNL     1     -33.331   7.354   2.369  1.00 20.00     0.072 C 
HETATM    6  C3  UNL     1     -32.206   8.301   2.094  1.00 20.00     0.004 C 
HETATM    7  C8  UNL     1     -32.259   9.223   0.920  1.00 20.00     0.065 C 
HETATM    8  N9  UNL     1     -31.218   8.302   2.936  1.00 20.00    -0.297 NA
HETATM    9  C5  UNL     1     -31.576   7.296   3.957  1.00 20.00     0.166 C 
ENDBRANCH   1   4
TORSDOF 1
ENDMDL
