MODEL 1
REMARK VINA RESULT:      -5.2      0.000      0.000
REMARK  1 active torsions:
REMARK  status: ('A' for Active; 'I' for Inactive)
REMARK    1  A    between atoms: C6_6  and  C11_11 
ROOT
HETATM    1  C1  UNL     1     -33.184  18.652   1.476  1.00 20.00    -0.014 C 
HETATM    2  C2  UNL     1     -34.394  18.072   1.626  1.00 20.00    -0.074 C 
HETATM    3  C3  UNL     1     -32.577  18.725   0.103  1.00 20.00     0.155 C 
HETATM    4  C4  UNL     1     -35.136  17.403   0.488  1.00 20.00     0.039 C 
HETATM    5  C5  UNL     1     -33.369  18.211  -1.078  1.00 20.00     0.088 C 
HETATM    6  C6  UNL     1     -34.222  17.017  -0.677  1.00 20.00     0.000 C 
HETATM    7  C7  UNL     1     -32.356  19.263   2.572  1.00 20.00     0.052 C 
HETATM    8  C8  UNL     1     -35.153  18.030   2.927  1.00 20.00     0.044 C 
HETATM    9  O12 UNL     1     -31.478  19.253  -0.068  1.00 20.00    -0.293 OA
ENDROOT
BRANCH   6  10
HETATM   10  C11 UNL     1     -35.034  16.501  -1.861  1.00 20.00    -0.018 C 
HETATM   11  C9  UNL     1     -35.647  17.663  -2.639  1.00 20.00     0.010 C 
HETATM   12  C10 UNL     1     -34.164  15.642  -2.776  1.00 20.00     0.010 C 
ENDBRANCH   6  10
TORSDOF 1
ENDMDL
MODEL 2
REMARK VINA RESULT:      -5.2      3.498      6.492
REMARK  1 active torsions:
REMARK  status: ('A' for Active; 'I' for Inactive)
REMARK    1  A    between atoms: C6_6  and  C11_11 
ROOT
HETATM    1  C1  UNL     1     -34.660  14.914  -5.528  1.00 20.00    -0.014 C 
HETATM    2  C2  UNL     1     -34.426  16.244  -5.510  1.00 20.00    -0.074 C 
HETATM    3  C3  UNL     1     -34.749  14.172  -4.224  1.00 20.00     0.155 C 
HETATM    4  C4  UNL     1     -34.155  17.017  -4.238  1.00 20.00     0.039 C 
HETATM    5  C5  UNL     1     -34.646  14.949  -2.931  1.00 20.00     0.088 C 
HETATM    6  C6  UNL     1     -33.694  16.126  -3.082  1.00 20.00     0.000 C 
HETATM    7  C7  UNL     1     -34.858  14.069  -6.755  1.00 20.00     0.052 C 
HETATM    8  C8  UNL     1     -34.418  17.114  -6.740  1.00 20.00     0.044 C 
HETATM    9  O12 UNL     1     -34.968  12.961  -4.206  1.00 20.00    -0.293 OA
ENDROOT
BRANCH   6  10
HETATM   10  C11 UNL     1     -33.594  16.922  -1.784  1.00 20.00    -0.018 C 
HETATM   11  C9  UNL     1     -33.609  18.421  -2.071  1.00 20.00     0.010 C 
HETATM   12  C10 UNL     1     -34.729  16.546  -0.835  1.00 20.00     0.010 C 
ENDBRANCH   6  10
TORSDOF 1
ENDMDL
MODEL 3
REMARK VINA RESULT:      -5.1      2.785      5.679
REMARK  1 active torsions:
REMARK  status: ('A' for Active; 'I' for Inactive)
REMARK    1  A    between atoms: C6_6  and  C11_11 
ROOT
HETATM    1  C1  UNL     1     -34.927  14.587  -3.607  1.00 20.00    -0.014 C 
HETATM    2  C2  UNL     1     -33.739  15.114  -3.240  1.00 20.00    -0.074 C 
HETATM    3  C3  UNL     1     -36.193  15.242  -3.129  1.00 20.00     0.155 C 
HETATM    4  C4  UNL     1     -33.613  16.285  -2.289  1.00 20.00     0.039 C 
HETATM    5  C5  UNL     1     -36.098  16.510  -2.311  1.00 20.00     0.088 C 
HETATM    6  C6  UNL     1     -34.861  16.493  -1.427  1.00 20.00     0.000 C 
HETATM    7  C7  UNL     1     -35.126  13.380  -4.480  1.00 20.00     0.052 C 
HETATM    8  C8  UNL     1     -32.407  14.615  -3.736  1.00 20.00     0.044 C 
HETATM    9  O12 UNL     1     -37.292  14.790  -3.450  1.00 20.00    -0.293 OA
ENDROOT
BRANCH   6  10
HETATM   10  C11 UNL     1     -34.752  17.775  -0.609  1.00 20.00    -0.018 C 
HETATM   11  C9  UNL     1     -35.219  17.539   0.826  1.00 20.00     0.010 C 
HETATM   12  C10 UNL     1     -33.320  18.304  -0.627  1.00 20.00     0.010 C 
ENDBRANCH   6  10
TORSDOF 1
ENDMDL
MODEL 4
REMARK VINA RESULT:      -5.1      2.793      4.261
REMARK  1 active torsions:
REMARK  status: ('A' for Active; 'I' for Inactive)
REMARK    1  A    between atoms: C6_6  and  C11_11 
ROOT
HETATM    1  C1  UNL     1     -33.824  17.916  -2.734  1.00 20.00    -0.014 C 
HETATM    2  C2  UNL     1     -34.268  16.799  -2.119  1.00 20.00    -0.074 C 
HETATM    3  C3  UNL     1     -33.655  17.907  -4.228  1.00 20.00     0.155 C 
HETATM    4  C4  UNL     1     -34.517  15.498  -2.851  1.00 20.00     0.039 C 
HETATM    5  C5  UNL     1     -34.053  16.673  -5.003  1.00 20.00     0.088 C 
HETATM    6  C6  UNL     1     -33.783  15.414  -4.192  1.00 20.00     0.000 C 
HETATM    7  C7  UNL     1     -33.480  19.216  -2.062  1.00 20.00     0.052 C 
HETATM    8  C8  UNL     1     -34.577  16.713  -0.647  1.00 20.00     0.044 C 
HETATM    9  O12 UNL     1     -33.258  18.912  -4.819  1.00 20.00    -0.293 OA
ENDROOT
BRANCH   6  10
HETATM   10  C11 UNL     1     -34.195  14.164  -4.964  1.00 20.00    -0.018 C 
HETATM   11  C9  UNL     1     -35.248  13.376  -4.188  1.00 20.00     0.010 C 
HETATM   12  C10 UNL     1     -34.716  14.536  -6.350  1.00 20.00     0.010 C 
ENDBRANCH   6  10
TORSDOF 1
ENDMDL
MODEL 5
REMARK VINA RESULT:      -5.0      3.041      6.095
REMARK  1 active torsions:
REMARK  status: ('A' for Active; 'I' for Inactive)
REMARK    1  A    between atoms: C6_6  and  C11_11 
ROOT
HETATM    1  C1  UNL     1     -34.193  15.522  -5.685  1.00 20.00    -0.014 C 
HETATM    2  C2  UNL     1     -34.147  14.695  -4.619  1.00 20.00    -0.074 C 
HETATM    3  C3  UNL     1     -33.877  16.979  -5.491  1.00 20.00     0.155 C 
HETATM    4  C4  UNL     1     -33.882  15.179  -3.210  1.00 20.00     0.039 C 
HETATM    5  C5  UNL     1     -33.448  17.460  -4.124  1.00 20.00     0.088 C 
HETATM    6  C6  UNL     1     -34.154  16.675  -3.029  1.00 20.00     0.000 C 
HETATM    7  C7  UNL     1     -34.528  15.126  -7.096  1.00 20.00     0.052 C 
HETATM    8  C8  UNL     1     -34.340  13.203  -4.701  1.00 20.00     0.044 C 
HETATM    9  O12 UNL     1     -33.903  17.758  -6.445  1.00 20.00    -0.293 OA
ENDROOT
BRANCH   6  10
HETATM   10  C11 UNL     1     -33.716  17.147  -1.646  1.00 20.00    -0.018 C 
HETATM   11  C9  UNL     1     -33.480  18.655  -1.642  1.00 20.00     0.010 C 
HETATM   12  C10 UNL     1     -34.756  16.764  -0.594  1.00 20.00     0.010 C 
ENDBRANCH   6  10
TORSDOF 1
ENDMDL
MODEL 6
REMARK VINA RESULT:      -4.9      2.919      5.854
REMARK  1 active torsions:
REMARK  status: ('A' for Active; 'I' for Inactive)
REMARK    1  A    between atoms: C6_6  and  C11_11 
ROOT
HETATM    1  C1  UNL     1     -34.304  15.753  -4.878  1.00 20.00    -0.014 C 
HETATM    2  C2  UNL     1     -33.949  17.049  -4.746  1.00 20.00    -0.074 C 
HETATM    3  C3  UNL     1     -34.659  14.966  -3.648  1.00 20.00     0.155 C 
HETATM    4  C4  UNL     1     -33.797  17.731  -3.403  1.00 20.00     0.039 C 
HETATM    5  C5  UNL     1     -34.675  15.667  -2.309  1.00 20.00     0.088 C 
HETATM    6  C6  UNL     1     -33.602  16.745  -2.249  1.00 20.00     0.000 C 
HETATM    7  C7  UNL     1     -34.397  14.990  -6.170  1.00 20.00     0.052 C 
HETATM    8  C8  UNL     1     -33.673  17.970  -5.907  1.00 20.00     0.044 C 
HETATM    9  O12 UNL     1     -34.993  13.785  -3.735  1.00 20.00    -0.293 OA
ENDROOT
BRANCH   6  10
HETATM   10  C11 UNL     1     -33.621  17.466  -0.905  1.00 20.00    -0.018 C 
HETATM   11  C9  UNL     1     -33.483  18.974  -1.102  1.00 20.00     0.010 C 
HETATM   12  C10 UNL     1     -34.901  17.140  -0.139  1.00 20.00     0.010 C 
ENDBRANCH   6  10
TORSDOF 1
ENDMDL
MODEL 7
REMARK VINA RESULT:      -4.7      4.186      5.964
REMARK  1 active torsions:
REMARK  status: ('A' for Active; 'I' for Inactive)
REMARK    1  A    between atoms: C6_6  and  C11_11 
ROOT
HETATM    1  C1  UNL     1     -34.220  14.458  -3.524  1.00 20.00    -0.014 C 
HETATM    2  C2  UNL     1     -34.623  15.621  -2.969  1.00 20.00    -0.074 C 
HETATM    3  C3  UNL     1     -35.197  13.669  -4.350  1.00 20.00     0.155 C 
HETATM    4  C4  UNL     1     -36.046  16.130  -3.059  1.00 20.00     0.039 C 
HETATM    5  C5  UNL     1     -36.577  14.236  -4.594  1.00 20.00     0.088 C 
HETATM    6  C6  UNL     1     -37.056  15.029  -3.387  1.00 20.00     0.000 C 
HETATM    7  C7  UNL     1     -32.850  13.852  -3.408  1.00 20.00     0.052 C 
HETATM    8  C8  UNL     1     -33.713  16.552  -2.209  1.00 20.00     0.044 C 
HETATM    9  O12 UNL     1     -34.859  12.607  -4.874  1.00 20.00    -0.293 OA
ENDROOT
BRANCH   6  10
HETATM   10  C11 UNL     1     -38.443  15.615  -3.631  1.00 20.00    -0.018 C 
HETATM   11  C9  UNL     1     -38.340  16.965  -4.337  1.00 20.00     0.010 C 
HETATM   12  C10 UNL     1     -39.300  14.648  -4.445  1.00 20.00     0.010 C 
ENDBRANCH   6  10
TORSDOF 1
ENDMDL
MODEL 8
REMARK VINA RESULT:      -4.7      2.707      5.642
REMARK  1 active torsions:
REMARK  status: ('A' for Active; 'I' for Inactive)
REMARK    1  A    between atoms: C6_6  and  C11_11 
ROOT
HETATM    1  C1  UNL     1     -34.161  16.021  -4.573  1.00 20.00    -0.014 C 
HETATM    2  C2  UNL     1     -33.942  17.351  -4.508  1.00 20.00    -0.074 C 
HETATM    3  C3  UNL     1     -34.557  15.286  -3.323  1.00 20.00     0.155 C 
HETATM    4  C4  UNL     1     -33.983  18.132  -3.213  1.00 20.00     0.039 C 
HETATM    5  C5  UNL     1     -34.766  16.069  -2.048  1.00 20.00     0.088 C 
HETATM    6  C6  UNL     1     -33.808  17.249  -1.975  1.00 20.00     0.000 C 
HETATM    7  C7  UNL     1     -34.059  15.168  -5.807  1.00 20.00     0.052 C 
HETATM    8  C8  UNL     1     -33.643  18.216  -5.706  1.00 20.00     0.044 C 
HETATM    9  O12 UNL     1     -34.771  14.074  -3.350  1.00 20.00    -0.293 OA
ENDROOT
BRANCH   6  10
HETATM   10  C11 UNL     1     -34.022  18.053  -0.696  1.00 20.00    -0.018 C 
HETATM   11  C9  UNL     1     -34.853  17.255   0.307  1.00 20.00     0.010 C 
HETATM   12  C10 UNL     1     -32.682  18.454  -0.083  1.00 20.00     0.010 C 
ENDBRANCH   6  10
TORSDOF 1
ENDMDL
MODEL 9
REMARK VINA RESULT:      -4.5     14.101     15.877
REMARK  1 active torsions:
REMARK  status: ('A' for Active; 'I' for Inactive)
REMARK    1  A    between atoms: C6_6  and  C11_11 
ROOT
HETATM    1  C1  UNL     1     -41.815   6.426  -1.746  1.00 20.00    -0.014 C 
HETATM    2  C2  UNL     1     -42.663   6.253  -2.781  1.00 20.00    -0.074 C 
HETATM    3  C3  UNL     1     -41.064   5.239  -1.213  1.00 20.00     0.155 C 
HETATM    4  C4  UNL     1     -42.971   4.896  -3.378  1.00 20.00     0.039 C 
HETATM    5  C5  UNL     1     -41.227   3.900  -1.897  1.00 20.00     0.088 C 
HETATM    6  C6  UNL     1     -42.641   3.738  -2.434  1.00 20.00     0.000 C 
HETATM    7  C7  UNL     1     -41.523   7.727  -1.052  1.00 20.00     0.052 C 
HETATM    8  C8  UNL     1     -43.393   7.377  -3.471  1.00 20.00     0.044 C 
HETATM    9  O12 UNL     1     -40.277   5.365  -0.273  1.00 20.00    -0.293 OA
ENDROOT
BRANCH   6  10
HETATM   10  C11 UNL     1     -42.810   2.395  -3.137  1.00 20.00    -0.018 C 
HETATM   11  C9  UNL     1     -41.472   1.900  -3.681  1.00 20.00     0.010 C 
HETATM   12  C10 UNL     1     -43.417   1.364  -2.188  1.00 20.00     0.010 C 
ENDBRANCH   6  10
TORSDOF 1
ENDMDL
