MODEL 1
REMARK VINA RESULT:      -4.4      0.000      0.000
REMARK  1 active torsions:
REMARK  status: ('A' for Active; 'I' for Inactive)
REMARK    1  A    between atoms: C4_4  and  C7_7 
ROOT
HETATM    1  C1  UNL     1     -34.960  13.869  -4.449  1.00 20.00     0.268 C 
HETATM    2  C2  UNL     1     -35.472  14.551  -5.684  1.00 20.00     0.184 C 
HETATM    3  C3  UNL     1     -33.545  16.391  -4.916  1.00 20.00     0.107 C 
HETATM    4  C4  UNL     1     -34.421  16.107  -3.703  1.00 20.00     0.144 C 
HETATM    5  O8  UNL     1     -35.015  12.651  -4.304  1.00 20.00    -0.264 OA
HETATM    6  O9  UNL     1     -34.478  14.682  -3.473  1.00 20.00    -0.314 OA
HETATM    7  S10 UNL     1     -34.213  15.619  -6.419  1.00 20.00    -0.157 SA
ENDROOT
BRANCH   4   8
HETATM    8  C7  UNL     1     -33.825  16.738  -2.449  1.00 20.00     0.008 C 
HETATM    9  C5  UNL     1     -33.700  18.251  -2.614  1.00 20.00     0.012 C 
HETATM   10  C6  UNL     1     -34.672  16.401  -1.223  1.00 20.00     0.012 C 
ENDBRANCH   4   8
TORSDOF 1
ENDMDL
MODEL 2
REMARK VINA RESULT:      -4.3      1.722      1.826
REMARK  1 active torsions:
REMARK  status: ('A' for Active; 'I' for Inactive)
REMARK    1  A    between atoms: C4_4  and  C7_7 
ROOT
HETATM    1  C1  UNL     1     -36.671  14.726  -3.749  1.00 20.00     0.268 C 
HETATM    2  C2  UNL     1     -36.062  14.323  -5.061  1.00 20.00     0.184 C 
HETATM    3  C3  UNL     1     -33.763  14.456  -3.516  1.00 20.00     0.107 C 
HETATM    4  C4  UNL     1     -34.526  15.760  -3.322  1.00 20.00     0.144 C 
HETATM    5  O8  UNL     1     -37.827  14.442  -3.450  1.00 20.00    -0.264 OA
HETATM    6  O9  UNL     1     -35.884  15.470  -2.928  1.00 20.00    -0.314 OA
HETATM    7  S10 UNL     1     -34.507  13.435  -4.823  1.00 20.00    -0.157 SA
ENDROOT
BRANCH   4   8
HETATM    8  C7  UNL     1     -33.903  16.586  -2.201  1.00 20.00     0.008 C 
HETATM    9  C5  UNL     1     -33.742  18.043  -2.631  1.00 20.00     0.012 C 
HETATM   10  C6  UNL     1     -34.747  16.492  -0.931  1.00 20.00     0.012 C 
ENDBRANCH   4   8
TORSDOF 1
ENDMDL
MODEL 3
REMARK VINA RESULT:      -4.1      2.315      3.846
REMARK  1 active torsions:
REMARK  status: ('A' for Active; 'I' for Inactive)
REMARK    1  A    between atoms: C4_4  and  C7_7 
ROOT
HETATM    1  C1  UNL     1     -34.625  13.474  -4.612  1.00 20.00     0.268 C 
HETATM    2  C2  UNL     1     -33.465  14.090  -3.885  1.00 20.00     0.184 C 
HETATM    3  C3  UNL     1     -34.356  16.312  -5.285  1.00 20.00     0.107 C 
HETATM    4  C4  UNL     1     -34.198  15.172  -6.281  1.00 20.00     0.144 C 
HETATM    5  O8  UNL     1     -35.232  12.503  -4.169  1.00 20.00    -0.264 OA
HETATM    6  O9  UNL     1     -34.934  14.019  -5.817  1.00 20.00    -0.314 OA
HETATM    7  S10 UNL     1     -33.702  15.866  -3.649  1.00 20.00    -0.157 SA
ENDROOT
BRANCH   4   8
HETATM    8  C7  UNL     1     -34.780  15.557  -7.637  1.00 20.00     0.008 C 
HETATM    9  C5  UNL     1     -36.062  14.773  -7.915  1.00 20.00     0.012 C 
HETATM   10  C6  UNL     1     -35.047  17.060  -7.701  1.00 20.00     0.012 C 
ENDBRANCH   4   8
TORSDOF 1
ENDMDL
MODEL 4
REMARK VINA RESULT:      -4.0      1.806      2.174
REMARK  1 active torsions:
REMARK  status: ('A' for Active; 'I' for Inactive)
REMARK    1  A    between atoms: C4_4  and  C7_7 
ROOT
HETATM    1  C1  UNL     1     -37.048  14.815  -4.299  1.00 20.00     0.268 C 
HETATM    2  C2  UNL     1     -37.219  15.341  -5.695  1.00 20.00     0.184 C 
HETATM    3  C3  UNL     1     -34.459  15.078  -5.645  1.00 20.00     0.107 C 
HETATM    4  C4  UNL     1     -34.870  15.863  -4.408  1.00 20.00     0.144 C 
HETATM    5  O8  UNL     1     -37.929  14.179  -3.728  1.00 20.00    -0.264 OA
HETATM    6  O9  UNL     1     -35.879  15.128  -3.682  1.00 20.00    -0.314 OA
HETATM    7  S10 UNL     1     -35.864  14.818  -6.769  1.00 20.00    -0.157 SA
ENDROOT
BRANCH   4   8
HETATM    8  C7  UNL     1     -33.684  16.042  -3.465  1.00 20.00     0.008 C 
HETATM    9  C5  UNL     1     -34.163  16.254  -2.030  1.00 20.00     0.012 C 
HETATM   10  C6  UNL     1     -32.747  14.839  -3.545  1.00 20.00     0.012 C 
ENDBRANCH   4   8
TORSDOF 1
ENDMDL
MODEL 5
REMARK VINA RESULT:      -4.0      2.583      3.380
REMARK  1 active torsions:
REMARK  status: ('A' for Active; 'I' for Inactive)
REMARK    1  A    between atoms: C4_4  and  C7_7 
ROOT
HETATM    1  C1  UNL     1     -37.856  14.850  -3.736  1.00 20.00     0.268 C 
HETATM    2  C2  UNL     1     -37.903  16.315  -3.413  1.00 20.00     0.184 C 
HETATM    3  C3  UNL     1     -35.371  16.179  -4.535  1.00 20.00     0.107 C 
HETATM    4  C4  UNL     1     -35.463  15.094  -3.472  1.00 20.00     0.144 C 
HETATM    5  O8  UNL     1     -38.871  14.196  -3.955  1.00 20.00    -0.264 OA
HETATM    6  O9  UNL     1     -36.626  14.273  -3.719  1.00 20.00    -0.314 OA
HETATM    7  S10 UNL     1     -36.826  17.268  -4.507  1.00 20.00    -0.157 SA
ENDROOT
BRANCH   4   8
HETATM    8  C7  UNL     1     -34.248  14.174  -3.534  1.00 20.00     0.008 C 
HETATM    9  C5  UNL     1     -34.369  13.199  -4.703  1.00 20.00     0.012 C 
HETATM   10  C6  UNL     1     -32.961  14.990  -3.648  1.00 20.00     0.012 C 
ENDBRANCH   4   8
TORSDOF 1
ENDMDL
MODEL 6
REMARK VINA RESULT:      -3.9      1.787      2.096
REMARK  1 active torsions:
REMARK  status: ('A' for Active; 'I' for Inactive)
REMARK    1  A    between atoms: C4_4  and  C7_7 
ROOT
HETATM    1  C1  UNL     1     -34.319  15.225  -5.477  1.00 20.00     0.268 C 
HETATM    2  C2  UNL     1     -35.177  14.029  -5.179  1.00 20.00     0.184 C 
HETATM    3  C3  UNL     1     -35.921  15.659  -3.063  1.00 20.00     0.107 C 
HETATM    4  C4  UNL     1     -34.400  15.600  -3.088  1.00 20.00     0.144 C 
HETATM    5  O8  UNL     1     -33.953  15.499  -6.616  1.00 20.00    -0.264 OA
HETATM    6  O9  UNL     1     -33.925  15.959  -4.404  1.00 20.00    -0.314 OA
HETATM    7  S10 UNL     1     -36.654  14.492  -4.248  1.00 20.00    -0.157 SA
ENDROOT
BRANCH   4   8
HETATM    8  C7  UNL     1     -33.806  16.609  -2.110  1.00 20.00     0.008 C 
HETATM    9  C5  UNL     1     -33.753  18.001  -2.736  1.00 20.00     0.012 C 
HETATM   10  C6  UNL     1     -34.611  16.637  -0.811  1.00 20.00     0.012 C 
ENDBRANCH   4   8
TORSDOF 1
ENDMDL
MODEL 7
REMARK VINA RESULT:      -3.9      2.100      2.597
REMARK  1 active torsions:
REMARK  status: ('A' for Active; 'I' for Inactive)
REMARK    1  A    between atoms: C4_4  and  C7_7 
ROOT
HETATM    1  C1  UNL     1     -33.457  15.864  -4.129  1.00 20.00     0.268 C 
HETATM    2  C2  UNL     1     -34.171  14.556  -4.310  1.00 20.00     0.184 C 
HETATM    3  C3  UNL     1     -36.049  15.887  -2.765  1.00 20.00     0.107 C 
HETATM    4  C4  UNL     1     -34.704  16.006  -2.061  1.00 20.00     0.144 C 
HETATM    5  O8  UNL     1     -32.643  16.283  -4.947  1.00 20.00    -0.264 OA
HETATM    6  O9  UNL     1     -33.724  16.537  -2.979  1.00 20.00    -0.314 OA
HETATM    7  S10 UNL     1     -35.962  14.758  -4.187  1.00 20.00    -0.157 SA
ENDROOT
BRANCH   4   8
HETATM    8  C7  UNL     1     -34.794  16.981  -0.892  1.00 20.00     0.008 C 
HETATM    9  C5  UNL     1     -33.483  17.750  -0.729  1.00 20.00     0.012 C 
HETATM   10  C6  UNL     1     -35.960  17.948  -1.085  1.00 20.00     0.012 C 
ENDBRANCH   4   8
TORSDOF 1
ENDMDL
MODEL 8
REMARK VINA RESULT:      -3.9      2.341      3.148
REMARK  1 active torsions:
REMARK  status: ('A' for Active; 'I' for Inactive)
REMARK    1  A    between atoms: C4_4  and  C7_7 
ROOT
HETATM    1  C1  UNL     1     -36.249  14.347  -4.319  1.00 20.00     0.268 C 
HETATM    2  C2  UNL     1     -35.152  13.324  -4.370  1.00 20.00     0.184 C 
HETATM    3  C3  UNL     1     -33.624  15.635  -4.492  1.00 20.00     0.107 C 
HETATM    4  C4  UNL     1     -34.708  15.742  -5.556  1.00 20.00     0.144 C 
HETATM    5  O8  UNL     1     -37.329  14.121  -3.778  1.00 20.00    -0.264 OA
HETATM    6  O9  UNL     1     -36.001  15.523  -4.952  1.00 20.00    -0.314 OA
HETATM    7  S10 UNL     1     -33.600  13.987  -3.725  1.00 20.00    -0.157 SA
ENDROOT
BRANCH   4   8
HETATM    8  C7  UNL     1     -34.730  17.140  -6.163  1.00 20.00     0.008 C 
HETATM    9  C5  UNL     1     -33.579  17.983  -5.618  1.00 20.00     0.012 C 
HETATM   10  C6  UNL     1     -34.664  17.066  -7.688  1.00 20.00     0.012 C 
ENDBRANCH   4   8
TORSDOF 1
ENDMDL
MODEL 9
REMARK VINA RESULT:      -3.7      2.316      4.062
REMARK  1 active torsions:
REMARK  status: ('A' for Active; 'I' for Inactive)
REMARK    1  A    between atoms: C4_4  and  C7_7 
ROOT
HETATM    1  C1  UNL     1     -34.917  16.613  -1.538  1.00 20.00     0.268 C 
HETATM    2  C2  UNL     1     -35.603  17.712  -2.297  1.00 20.00     0.184 C 
HETATM    3  C3  UNL     1     -36.669  15.518  -3.615  1.00 20.00     0.107 C 
HETATM    4  C4  UNL     1     -35.156  15.350  -3.587  1.00 20.00     0.144 C 
HETATM    5  O8  UNL     1     -34.546  16.754  -0.377  1.00 20.00    -0.264 OA
HETATM    6  O9  UNL     1     -34.682  15.467  -2.229  1.00 20.00    -0.314 OA
HETATM    7  S10 UNL     1     -37.171  17.152  -2.998  1.00 20.00    -0.157 SA
ENDROOT
BRANCH   4   8
HETATM    8  C7  UNL     1     -34.760  13.962  -4.080  1.00 20.00     0.008 C 
HETATM    9  C5  UNL     1     -34.964  13.846  -5.589  1.00 20.00     0.012 C 
HETATM   10  C6  UNL     1     -33.310  13.653  -3.710  1.00 20.00     0.012 C 
ENDBRANCH   4   8
TORSDOF 1
ENDMDL
