MODEL 1
REMARK VINA RESULT:      -4.7      0.000      0.000
REMARK  0 active torsions:
REMARK  status: ('A' for Active; 'I' for Inactive)
ROOT
HETATM    1  C1  UNL     1     -33.149  16.296  -4.596  1.00 20.00    -0.029 A 
HETATM    2  C2  UNL     1     -34.406  16.740  -4.701  1.00 20.00    -0.023 A 
HETATM    3  C3  UNL     1     -35.207  13.780  -4.153  1.00 20.00     0.155 C 
HETATM    4  C4  UNL     1     -33.000  15.105  -3.699  1.00 20.00     0.040 A 
HETATM    5  C5  UNL     1     -35.323  15.911  -3.884  1.00 20.00     0.050 A 
HETATM    6  C6  UNL     1     -34.432  14.783  -3.276  1.00 20.00     0.071 A 
HETATM    7  C7  UNL     1     -36.225  14.861  -4.625  1.00 20.00     0.101 C 
HETATM    8  C8  UNL     1     -37.605  14.696  -3.990  1.00 20.00     0.042 C 
HETATM    9  O9  UNL     1     -35.070  12.596  -4.378  1.00 20.00    -0.295 OA
HETATM   10 CL10 UNL     1     -36.343  14.929  -6.416  1.00 20.00    -0.111 Cl
ENDROOT
TORSDOF 0
ENDMDL
MODEL 2
REMARK VINA RESULT:      -4.6      1.945      3.042
REMARK  0 active torsions:
REMARK  status: ('A' for Active; 'I' for Inactive)
ROOT
HETATM    1  C1  UNL     1     -36.194  16.166  -6.327  1.00 20.00    -0.029 A 
HETATM    2  C2  UNL     1     -35.212  16.684  -5.583  1.00 20.00    -0.023 A 
HETATM    3  C3  UNL     1     -34.641  13.731  -4.773  1.00 20.00     0.155 C 
HETATM    4  C4  UNL     1     -35.926  14.769  -6.798  1.00 20.00     0.040 A 
HETATM    5  C5  UNL     1     -34.106  15.710  -5.425  1.00 20.00     0.050 A 
HETATM    6  C6  UNL     1     -34.587  14.416  -6.153  1.00 20.00     0.071 A 
HETATM    7  C7  UNL     1     -33.985  14.949  -4.056  1.00 20.00     0.101 C 
HETATM    8  C8  UNL     1     -32.538  14.686  -3.640  1.00 20.00     0.042 C 
HETATM    9  O9  UNL     1     -35.040  12.648  -4.399  1.00 20.00    -0.295 OA
HETATM   10 CL10 UNL     1     -34.966  15.511  -2.661  1.00 20.00    -0.111 Cl
ENDROOT
TORSDOF 0
ENDMDL
MODEL 3
REMARK VINA RESULT:      -4.4      1.757      2.328
REMARK  0 active torsions:
REMARK  status: ('A' for Active; 'I' for Inactive)
ROOT
HETATM    1  C1  UNL     1     -33.892  16.089  -2.417  1.00 20.00    -0.029 A 
HETATM    2  C2  UNL     1     -33.495  15.848  -3.670  1.00 20.00    -0.023 A 
HETATM    3  C3  UNL     1     -36.402  14.812  -4.098  1.00 20.00     0.155 C 
HETATM    4  C4  UNL     1     -35.355  16.381  -2.288  1.00 20.00     0.040 A 
HETATM    5  C5  UNL     1     -34.641  15.938  -4.607  1.00 20.00     0.050 A 
HETATM    6  C6  UNL     1     -35.888  16.213  -3.710  1.00 20.00     0.071 A 
HETATM    7  C7  UNL     1     -35.263  14.598  -5.140  1.00 20.00     0.101 C 
HETATM    8  C8  UNL     1     -35.753  14.694  -6.584  1.00 20.00     0.042 C 
HETATM    9  O9  UNL     1     -37.343  14.142  -3.728  1.00 20.00    -0.295 OA
HETATM   10 CL10 UNL     1     -34.382  13.059  -4.858  1.00 20.00    -0.111 Cl
ENDROOT
TORSDOF 0
ENDMDL
MODEL 4
REMARK VINA RESULT:      -4.3      1.948      2.508
REMARK  0 active torsions:
REMARK  status: ('A' for Active; 'I' for Inactive)
ROOT
HETATM    1  C1  UNL     1     -34.476  15.230  -6.804  1.00 20.00    -0.029 A 
HETATM    2  C2  UNL     1     -33.995  16.038  -5.854  1.00 20.00    -0.023 A 
HETATM    3  C3  UNL     1     -36.007  14.576  -3.978  1.00 20.00     0.155 C 
HETATM    4  C4  UNL     1     -34.977  13.916  -6.287  1.00 20.00     0.040 A 
HETATM    5  C5  UNL     1     -34.094  15.395  -4.522  1.00 20.00     0.050 A 
HETATM    6  C6  UNL     1     -34.806  14.029  -4.773  1.00 20.00     0.071 A 
HETATM    7  C7  UNL     1     -35.241  15.867  -3.559  1.00 20.00     0.101 C 
HETATM    8  C8  UNL     1     -34.832  15.864  -2.087  1.00 20.00     0.042 C 
HETATM    9  O9  UNL     1     -37.122  14.150  -3.762  1.00 20.00    -0.295 OA
HETATM   10 CL10 UNL     1     -36.162  17.352  -3.970  1.00 20.00    -0.111 Cl
ENDROOT
TORSDOF 0
ENDMDL
MODEL 5
REMARK VINA RESULT:      -4.3      2.296      3.133
REMARK  0 active torsions:
REMARK  status: ('A' for Active; 'I' for Inactive)
ROOT
HETATM    1  C1  UNL     1     -34.441  13.530  -4.918  1.00 20.00    -0.029 A 
HETATM    2  C2  UNL     1     -34.531  14.647  -5.646  1.00 20.00    -0.023 A 
HETATM    3  C3  UNL     1     -33.857  16.110  -2.980  1.00 20.00     0.155 C 
HETATM    4  C4  UNL     1     -33.507  13.638  -3.752  1.00 20.00     0.040 A 
HETATM    5  C5  UNL     1     -33.662  15.708  -5.084  1.00 20.00     0.050 A 
HETATM    6  C6  UNL     1     -33.037  15.091  -3.794  1.00 20.00     0.071 A 
HETATM    7  C7  UNL     1     -34.342  16.857  -4.258  1.00 20.00     0.101 C 
HETATM    8  C8  UNL     1     -33.667  18.216  -4.446  1.00 20.00     0.042 C 
HETATM    9  O9  UNL     1     -34.043  16.266  -1.791  1.00 20.00    -0.295 OA
HETATM   10 CL10 UNL     1     -36.131  17.014  -4.301  1.00 20.00    -0.111 Cl
ENDROOT
TORSDOF 0
ENDMDL
MODEL 6
REMARK VINA RESULT:      -4.2     12.038     13.051
REMARK  0 active torsions:
REMARK  status: ('A' for Active; 'I' for Inactive)
ROOT
HETATM    1  C1  UNL     1     -42.133   5.950   0.292  1.00 20.00    -0.029 A 
HETATM    2  C2  UNL     1     -41.610   4.727   0.163  1.00 20.00    -0.023 A 
HETATM    3  C3  UNL     1     -42.556   4.934  -2.798  1.00 20.00     0.155 C 
HETATM    4  C4  UNL     1     -42.119   6.753  -0.973  1.00 20.00     0.040 A 
HETATM    5  C5  UNL     1     -41.151   4.499  -1.228  1.00 20.00     0.050 A 
HETATM    6  C6  UNL     1     -41.545   5.791  -2.011  1.00 20.00     0.071 A 
HETATM    7  C7  UNL     1     -42.044   3.607  -2.161  1.00 20.00     0.101 C 
HETATM    8  C8  UNL     1     -41.233   2.754  -3.136  1.00 20.00     0.042 C 
HETATM    9  O9  UNL     1     -43.417   5.203  -3.609  1.00 20.00    -0.295 OA
HETATM   10 CL10 UNL     1     -43.382   2.657  -1.432  1.00 20.00    -0.111 Cl
ENDROOT
TORSDOF 0
ENDMDL
MODEL 7
REMARK VINA RESULT:      -4.2      2.585      3.637
REMARK  0 active torsions:
REMARK  status: ('A' for Active; 'I' for Inactive)
ROOT
HETATM    1  C1  UNL     1     -35.140  13.648  -5.797  1.00 20.00    -0.029 A 
HETATM    2  C2  UNL     1     -34.968  13.559  -4.474  1.00 20.00    -0.023 A 
HETATM    3  C3  UNL     1     -33.821  16.446  -4.705  1.00 20.00     0.155 C 
HETATM    4  C4  UNL     1     -35.360  15.046  -6.287  1.00 20.00     0.040 A 
HETATM    5  C5  UNL     1     -35.044  14.899  -3.846  1.00 20.00     0.050 A 
HETATM    6  C6  UNL     1     -35.226  15.901  -5.029  1.00 20.00     0.071 A 
HETATM    7  C7  UNL     1     -33.701  15.586  -3.411  1.00 20.00     0.101 C 
HETATM    8  C8  UNL     1     -33.833  16.414  -2.133  1.00 20.00     0.042 C 
HETATM    9  O9  UNL     1     -33.094  17.246  -5.256  1.00 20.00    -0.295 OA
HETATM   10 CL10 UNL     1     -32.193  14.611  -3.395  1.00 20.00    -0.111 Cl
ENDROOT
TORSDOF 0
ENDMDL
MODEL 8
REMARK VINA RESULT:      -4.2      1.976      2.651
REMARK  0 active torsions:
REMARK  status: ('A' for Active; 'I' for Inactive)
ROOT
HETATM    1  C1  UNL     1     -34.471  17.244  -2.068  1.00 20.00    -0.029 A 
HETATM    2  C2  UNL     1     -34.721  15.944  -1.881  1.00 20.00    -0.023 A 
HETATM    3  C3  UNL     1     -34.739  15.784  -4.992  1.00 20.00     0.155 C 
HETATM    4  C4  UNL     1     -33.740  17.545  -3.340  1.00 20.00     0.040 A 
HETATM    5  C5  UNL     1     -34.194  15.144  -3.012  1.00 20.00     0.050 A 
HETATM    6  C6  UNL     1     -33.612  16.184  -4.020  1.00 20.00     0.071 A 
HETATM    7  C7  UNL     1     -35.217  14.615  -4.080  1.00 20.00     0.101 C 
HETATM    8  C8  UNL     1     -34.852  13.239  -4.635  1.00 20.00     0.042 C 
HETATM    9  O9  UNL     1     -35.104  16.219  -6.064  1.00 20.00    -0.295 OA
HETATM   10 CL10 UNL     1     -36.974  14.721  -3.724  1.00 20.00    -0.111 Cl
ENDROOT
TORSDOF 0
ENDMDL
MODEL 9
REMARK VINA RESULT:      -4.2      2.327      3.046
REMARK  0 active torsions:
REMARK  status: ('A' for Active; 'I' for Inactive)
ROOT
HETATM    1  C1  UNL     1     -34.971  15.890  -2.223  1.00 20.00    -0.029 A 
HETATM    2  C2  UNL     1     -35.475  15.093  -3.171  1.00 20.00    -0.023 A 
HETATM    3  C3  UNL     1     -33.706  16.756  -5.123  1.00 20.00     0.155 C 
HETATM    4  C4  UNL     1     -33.601  16.411  -2.534  1.00 20.00     0.040 A 
HETATM    5  C5  UNL     1     -34.518  14.946  -4.293  1.00 20.00     0.050 A 
HETATM    6  C6  UNL     1     -33.309  15.864  -3.930  1.00 20.00     0.071 A 
HETATM    7  C7  UNL     1     -34.795  15.755  -5.610  1.00 20.00     0.101 C 
HETATM    8  C8  UNL     1     -34.388  15.003  -6.877  1.00 20.00     0.042 C 
HETATM    9  O9  UNL     1     -33.309  17.830  -5.524  1.00 20.00    -0.295 OA
HETATM   10 CL10 UNL     1     -36.391  16.552  -5.818  1.00 20.00    -0.111 Cl
ENDROOT
TORSDOF 0
ENDMDL
