MODEL 1
REMARK VINA RESULT:      -4.5      0.000      0.000
REMARK  3 active torsions:
REMARK  status: ('A' for Active; 'I' for Inactive)
REMARK    1  A    between atoms: C2_2  and  C6_6 
REMARK    2  A    between atoms: C3_3  and  C7_7 
REMARK    3  A    between atoms: C7_7  and  C8_8 
ROOT
HETATM    1  C1  UNL     1     -36.662  14.336  -3.935  1.00 20.00     0.100 C 
HETATM    2  C2  UNL     1     -34.525  14.107  -5.325  1.00 20.00     0.172 A 
HETATM    3  C3  UNL     1     -35.232  14.283  -3.996  1.00 20.00     0.175 A 
HETATM    4  N9  UNL     1     -37.820  14.379  -3.885  1.00 20.00    -0.194 NA
HETATM    5  O10 UNL     1     -34.735  13.007  -4.434  1.00 20.00    -0.353 OA
ENDROOT
BRANCH   3   6
HETATM    6  C7  UNL     1     -34.475  14.849  -2.837  1.00 20.00     0.056 C 
BRANCH   6   7
HETATM    7  C8  UNL     1     -35.083  16.167  -2.330  1.00 20.00    -0.000 C 
HETATM    8  C5  UNL     1     -34.578  16.542  -0.946  1.00 20.00     0.005 C 
ENDBRANCH   6   7
ENDBRANCH   3   6
BRANCH   2   9
HETATM    9  C6  UNL     1     -35.242  13.994  -6.624  1.00 20.00     0.032 C 
HETATM   10  C4  UNL     1     -34.750  14.977  -7.658  1.00 20.00     0.007 C 
ENDBRANCH   2   9
TORSDOF 3
ENDMDL
MODEL 2
REMARK VINA RESULT:      -4.4      2.366      2.504
REMARK  3 active torsions:
REMARK  status: ('A' for Active; 'I' for Inactive)
REMARK    1  A    between atoms: C2_2  and  C6_6 
REMARK    2  A    between atoms: C3_3  and  C7_7 
REMARK    3  A    between atoms: C7_7  and  C8_8 
ROOT
HETATM    1  C1  UNL     1     -33.652  14.356  -3.813  1.00 20.00     0.100 C 
HETATM    2  C2  UNL     1     -33.946  16.369  -5.366  1.00 20.00     0.172 A 
HETATM    3  C3  UNL     1     -33.624  15.775  -4.010  1.00 20.00     0.175 A 
HETATM    4  N9  UNL     1     -33.674  13.208  -3.653  1.00 20.00    -0.194 NA
HETATM    5  O10 UNL     1     -32.596  16.196  -4.923  1.00 20.00    -0.353 OA
ENDROOT
BRANCH   3   6
HETATM    6  C7  UNL     1     -33.727  16.638  -2.793  1.00 20.00     0.056 C 
BRANCH   6   7
HETATM    7  C8  UNL     1     -34.743  16.094  -1.776  1.00 20.00    -0.000 C 
HETATM    8  C5  UNL     1     -34.705  16.853  -0.459  1.00 20.00     0.005 C 
ENDBRANCH   6   7
ENDBRANCH   3   6
BRANCH   2   9
HETATM    9  C6  UNL     1     -34.316  15.550  -6.552  1.00 20.00     0.032 C 
HETATM   10  C4  UNL     1     -34.872  16.372  -7.689  1.00 20.00     0.007 C 
ENDBRANCH   2   9
TORSDOF 3
ENDMDL
MODEL 3
REMARK VINA RESULT:      -4.2      1.867      4.372
REMARK  3 active torsions:
REMARK  status: ('A' for Active; 'I' for Inactive)
REMARK    1  A    between atoms: C2_2  and  C6_6 
REMARK    2  A    between atoms: C3_3  and  C7_7 
REMARK    3  A    between atoms: C7_7  and  C8_8 
ROOT
HETATM    1  C1  UNL     1     -34.637  13.762  -4.954  1.00 20.00     0.100 C 
HETATM    2  C2  UNL     1     -33.932  16.133  -4.300  1.00 20.00     0.172 A 
HETATM    3  C3  UNL     1     -34.446  15.135  -5.317  1.00 20.00     0.175 A 
HETATM    4  N9  UNL     1     -34.793  12.650  -4.661  1.00 20.00    -0.194 NA
HETATM    5  O10 UNL     1     -35.324  16.030  -4.615  1.00 20.00    -0.353 OA
ENDROOT
BRANCH   3   6
HETATM    6  C7  UNL     1     -34.319  15.447  -6.774  1.00 20.00     0.056 C 
BRANCH   6   7
HETATM    7  C8  UNL     1     -35.218  14.554  -7.643  1.00 20.00    -0.000 C 
HETATM    8  C5  UNL     1     -36.609  15.139  -7.828  1.00 20.00     0.005 C 
ENDBRANCH   6   7
ENDBRANCH   3   6
BRANCH   2   9
HETATM    9  C6  UNL     1     -33.588  15.771  -2.898  1.00 20.00     0.032 C 
HETATM   10  C4  UNL     1     -34.613  16.246  -1.897  1.00 20.00     0.007 C 
ENDBRANCH   2   9
TORSDOF 3
ENDMDL
MODEL 4
REMARK VINA RESULT:      -4.1      1.248      4.113
REMARK  3 active torsions:
REMARK  status: ('A' for Active; 'I' for Inactive)
REMARK    1  A    between atoms: C2_2  and  C6_6 
REMARK    2  A    between atoms: C3_3  and  C7_7 
REMARK    3  A    between atoms: C7_7  and  C8_8 
ROOT
HETATM    1  C1  UNL     1     -36.561  14.568  -4.010  1.00 20.00     0.100 C 
HETATM    2  C2  UNL     1     -34.336  15.600  -3.281  1.00 20.00     0.172 A 
HETATM    3  C3  UNL     1     -35.195  14.887  -4.304  1.00 20.00     0.175 A 
HETATM    4  N9  UNL     1     -37.666  14.309  -3.772  1.00 20.00    -0.194 NA
HETATM    5  O10 UNL     1     -34.949  16.302  -4.367  1.00 20.00    -0.353 OA
ENDROOT
BRANCH   3   6
HETATM    6  C7  UNL     1     -34.534  14.119  -5.404  1.00 20.00     0.056 C 
BRANCH   6   7
HETATM    7  C8  UNL     1     -34.475  14.914  -6.718  1.00 20.00    -0.000 C 
HETATM    8  C5  UNL     1     -35.533  14.465  -7.713  1.00 20.00     0.005 C 
ENDBRANCH   6   7
ENDBRANCH   3   6
BRANCH   2   9
HETATM    9  C6  UNL     1     -34.826  15.999  -1.934  1.00 20.00     0.032 C 
HETATM   10  C4  UNL     1     -33.954  17.036  -1.270  1.00 20.00     0.007 C 
ENDBRANCH   2   9
TORSDOF 3
ENDMDL
MODEL 5
REMARK VINA RESULT:      -4.0      1.163      1.317
REMARK  3 active torsions:
REMARK  status: ('A' for Active; 'I' for Inactive)
REMARK    1  A    between atoms: C2_2  and  C6_6 
REMARK    2  A    between atoms: C3_3  and  C7_7 
REMARK    3  A    between atoms: C7_7  and  C8_8 
ROOT
HETATM    1  C1  UNL     1     -36.127  15.738  -3.525  1.00 20.00     0.100 C 
HETATM    2  C2  UNL     1     -34.073  14.674  -4.621  1.00 20.00     0.172 A 
HETATM    3  C3  UNL     1     -34.733  15.410  -3.473  1.00 20.00     0.175 A 
HETATM    4  N9  UNL     1     -37.255  16.003  -3.566  1.00 20.00    -0.194 NA
HETATM    5  O10 UNL     1     -34.489  13.994  -3.432  1.00 20.00    -0.353 OA
ENDROOT
BRANCH   3   6
HETATM    6  C7  UNL     1     -33.881  16.188  -2.520  1.00 20.00     0.056 C 
BRANCH   6   7
HETATM    7  C8  UNL     1     -34.594  16.458  -1.186  1.00 20.00    -0.000 C 
HETATM    8  C5  UNL     1     -33.972  17.616  -0.422  1.00 20.00     0.005 C 
ENDBRANCH   6   7
ENDBRANCH   3   6
BRANCH   2   9
HETATM    9  C6  UNL     1     -34.799  14.261  -5.853  1.00 20.00     0.032 C 
HETATM   10  C4  UNL     1     -34.364  15.025  -7.079  1.00 20.00     0.007 C 
ENDBRANCH   2   9
TORSDOF 3
ENDMDL
MODEL 6
REMARK VINA RESULT:      -4.0      2.418      4.716
REMARK  3 active torsions:
REMARK  status: ('A' for Active; 'I' for Inactive)
REMARK    1  A    between atoms: C2_2  and  C6_6 
REMARK    2  A    between atoms: C3_3  and  C7_7 
REMARK    3  A    between atoms: C7_7  and  C8_8 
ROOT
HETATM    1  C1  UNL     1     -33.647  16.793  -5.159  1.00 20.00     0.100 C 
HETATM    2  C2  UNL     1     -33.919  15.464  -2.989  1.00 20.00     0.172 A 
HETATM    3  C3  UNL     1     -33.847  15.536  -4.501  1.00 20.00     0.175 A 
HETATM    4  N9  UNL     1     -33.485  17.810  -5.693  1.00 20.00    -0.194 NA
HETATM    5  O10 UNL     1     -32.722  15.135  -3.700  1.00 20.00    -0.353 OA
ENDROOT
BRANCH   3   6
HETATM    6  C7  UNL     1     -34.427  14.422  -5.312  1.00 20.00     0.056 C 
BRANCH   6   7
HETATM    7  C8  UNL     1     -35.562  14.898  -6.232  1.00 20.00    -0.000 C 
HETATM    8  C5  UNL     1     -35.299  14.571  -7.693  1.00 20.00     0.005 C 
ENDBRANCH   6   7
ENDBRANCH   3   6
BRANCH   2   9
HETATM    9  C6  UNL     1     -33.804  16.656  -2.106  1.00 20.00     0.032 C 
HETATM   10  C4  UNL     1     -34.676  16.568  -0.877  1.00 20.00     0.007 C 
ENDBRANCH   2   9
TORSDOF 3
ENDMDL
MODEL 7
REMARK VINA RESULT:      -3.9     11.809     12.657
REMARK  3 active torsions:
REMARK  status: ('A' for Active; 'I' for Inactive)
REMARK    1  A    between atoms: C2_2  and  C6_6 
REMARK    2  A    between atoms: C3_3  and  C7_7 
REMARK    3  A    between atoms: C7_7  and  C8_8 
ROOT
HETATM    1  C1  UNL     1     -33.715   6.636   5.650  1.00 20.00     0.100 C 
HETATM    2  C2  UNL     1     -33.238   6.218   3.171  1.00 20.00     0.172 A 
HETATM    3  C3  UNL     1     -34.102   6.046   4.403  1.00 20.00     0.175 A 
HETATM    4  N9  UNL     1     -33.402   7.115   6.659  1.00 20.00    -0.194 NA
HETATM    5  O10 UNL     1     -34.403   7.019   3.389  1.00 20.00    -0.353 OA
ENDROOT
BRANCH   3   6
HETATM    6  C7  UNL     1     -35.081   4.917   4.454  1.00 20.00     0.056 C 
BRANCH   6   7
HETATM    7  C8  UNL     1     -34.751   3.906   5.564  1.00 20.00    -0.000 C 
HETATM    8  C5  UNL     1     -35.454   4.231   6.872  1.00 20.00     0.005 C 
ENDBRANCH   6   7
ENDBRANCH   3   6
BRANCH   2   9
HETATM    9  C6  UNL     1     -31.959   6.979   3.167  1.00 20.00     0.032 C 
HETATM   10  C4  UNL     1     -31.954   8.122   2.181  1.00 20.00     0.007 C 
ENDBRANCH   2   9
TORSDOF 3
ENDMDL
MODEL 8
REMARK VINA RESULT:      -3.9      2.391      2.574
REMARK  3 active torsions:
REMARK  status: ('A' for Active; 'I' for Inactive)
REMARK    1  A    between atoms: C2_2  and  C6_6 
REMARK    2  A    between atoms: C3_3  and  C7_7 
REMARK    3  A    between atoms: C7_7  and  C8_8 
ROOT
HETATM    1  C1  UNL     1     -33.772  17.019  -4.954  1.00 20.00     0.100 C 
HETATM    2  C2  UNL     1     -34.523  14.675  -5.655  1.00 20.00     0.172 A 
HETATM    3  C3  UNL     1     -34.214  15.706  -4.589  1.00 20.00     0.175 A 
HETATM    4  N9  UNL     1     -33.415  18.082  -5.250  1.00 20.00    -0.194 NA
HETATM    5  O10 UNL     1     -35.559  15.426  -5.014  1.00 20.00    -0.353 OA
ENDROOT
BRANCH   3   6
HETATM    6  C7  UNL     1     -33.925  15.249  -3.195  1.00 20.00     0.056 C 
BRANCH   6   7
HETATM    7  C8  UNL     1     -34.872  15.883  -2.164  1.00 20.00    -0.000 C 
HETATM    8  C5  UNL     1     -34.155  16.856  -1.241  1.00 20.00     0.005 C 
ENDBRANCH   6   7
ENDBRANCH   3   6
BRANCH   2   9
HETATM    9  C6  UNL     1     -34.383  14.937  -7.113  1.00 20.00     0.032 C 
HETATM   10  C4  UNL     1     -35.612  14.560  -7.903  1.00 20.00     0.007 C 
ENDBRANCH   2   9
TORSDOF 3
ENDMDL
MODEL 9
REMARK VINA RESULT:      -3.8     10.899     11.727
REMARK  3 active torsions:
REMARK  status: ('A' for Active; 'I' for Inactive)
REMARK    1  A    between atoms: C2_2  and  C6_6 
REMARK    2  A    between atoms: C3_3  and  C7_7 
REMARK    3  A    between atoms: C7_7  and  C8_8 
ROOT
HETATM    1  C1  UNL     1     -33.876   5.692   2.837  1.00 20.00     0.100 C 
HETATM    2  C2  UNL     1     -32.209   7.584   3.275  1.00 20.00     0.172 A 
HETATM    3  C3  UNL     1     -33.095   6.457   3.764  1.00 20.00     0.175 A 
HETATM    4  N9  UNL     1     -34.509   5.073   2.088  1.00 20.00    -0.194 NA
HETATM    5  O10 UNL     1     -31.679   6.289   3.578  1.00 20.00    -0.353 OA
ENDROOT
BRANCH   3   6
HETATM    6  C7  UNL     1     -33.514   6.429   5.199  1.00 20.00     0.056 C 
BRANCH   6   7
HETATM    7  C8  UNL     1     -34.802   5.620   5.416  1.00 20.00    -0.000 C 
HETATM    8  C5  UNL     1     -34.529   4.241   5.994  1.00 20.00     0.005 C 
ENDBRANCH   6   7
ENDBRANCH   3   6
BRANCH   2   9
HETATM    9  C6  UNL     1     -32.097   7.975   1.843  1.00 20.00     0.032 C 
HETATM   10  C4  UNL     1     -32.397   9.435   1.604  1.00 20.00     0.007 C 
ENDBRANCH   2   9
TORSDOF 3
ENDMDL
