MODEL 1
REMARK VINA RESULT:      -3.6      0.000      0.000
REMARK  0 active torsions:
REMARK  status: ('A' for Active; 'I' for Inactive)
ROOT
HETATM    1  C1  UNL     1     -35.063  13.745  -5.635  1.00 20.00     0.147 A 
HETATM    2  C2  UNL     1     -33.496  17.214  -5.491  1.00 20.00     0.168 A 
HETATM    3  C3  UNL     1     -34.542  15.070  -5.679  1.00 20.00     0.061 A 
HETATM    4  C4  UNL     1     -33.669  15.227  -4.640  1.00 20.00     0.134 A 
HETATM    5  N5  UNL     1     -34.666  12.911  -4.670  1.00 20.00    -0.220 NA
HETATM    6  N6  UNL     1     -33.063  16.441  -4.516  1.00 20.00    -0.244 NA
HETATM    7  S7  UNL     1     -34.640  16.536  -6.598  1.00 20.00    -0.078 SA
HETATM    8  S8  UNL     1     -33.568  13.754  -3.711  1.00 20.00     0.032 SA
ENDROOT
TORSDOF 0
ENDMDL
MODEL 2
REMARK VINA RESULT:      -3.4      1.799      2.180
REMARK  0 active torsions:
REMARK  status: ('A' for Active; 'I' for Inactive)
ROOT
HETATM    1  C1  UNL     1     -34.387  13.546  -3.627  1.00 20.00     0.147 A 
HETATM    2  C2  UNL     1     -34.102  17.327  -4.006  1.00 20.00     0.168 A 
HETATM    3  C3  UNL     1     -34.249  14.964  -3.652  1.00 20.00     0.061 A 
HETATM    4  C4  UNL     1     -34.541  15.406  -4.912  1.00 20.00     0.134 A 
HETATM    5  N5  UNL     1     -34.749  12.898  -4.737  1.00 20.00    -0.220 NA
HETATM    6  N6  UNL     1     -34.463  16.747  -5.133  1.00 20.00    -0.244 NA
HETATM    7  S7  UNL     1     -33.840  16.305  -2.634  1.00 20.00    -0.078 SA
HETATM    8  S8  UNL     1     -34.952  14.059  -5.941  1.00 20.00     0.032 SA
ENDROOT
TORSDOF 0
ENDMDL
MODEL 3
REMARK VINA RESULT:      -3.4      2.227      2.237
REMARK  0 active torsions:
REMARK  status: ('A' for Active; 'I' for Inactive)
ROOT
HETATM    1  C1  UNL     1     -35.917  13.880  -4.198  1.00 20.00     0.147 A 
HETATM    2  C2  UNL     1     -34.704  17.076  -2.514  1.00 20.00     0.168 A 
HETATM    3  C3  UNL     1     -35.577  15.116  -3.576  1.00 20.00     0.061 A 
HETATM    4  C4  UNL     1     -34.245  15.097  -3.272  1.00 20.00     0.134 A 
HETATM    5  N5  UNL     1     -34.974  12.953  -4.381  1.00 20.00    -0.220 NA
HETATM    6  N6  UNL     1     -33.730  16.203  -2.668  1.00 20.00    -0.244 NA
HETATM    7  S7  UNL     1     -36.275  16.623  -3.081  1.00 20.00    -0.078 SA
HETATM    8  S8  UNL     1     -33.537  13.582  -3.769  1.00 20.00     0.032 SA
ENDROOT
TORSDOF 0
ENDMDL
MODEL 4
REMARK VINA RESULT:      -3.4      1.676      2.024
REMARK  0 active torsions:
REMARK  status: ('A' for Active; 'I' for Inactive)
ROOT
HETATM    1  C1  UNL     1     -32.975  14.644  -3.730  1.00 20.00     0.147 A 
HETATM    2  C2  UNL     1     -34.890  16.974  -6.058  1.00 20.00     0.168 A 
HETATM    3  C3  UNL     1     -33.617  15.604  -4.564  1.00 20.00     0.061 A 
HETATM    4  C4  UNL     1     -34.630  14.983  -5.240  1.00 20.00     0.134 A 
HETATM    5  N5  UNL     1     -33.409  13.381  -3.722  1.00 20.00    -0.220 NA
HETATM    6  N6  UNL     1     -35.365  15.746  -6.095  1.00 20.00    -0.244 NA
HETATM    7  S7  UNL     1     -33.549  17.277  -5.007  1.00 20.00    -0.078 SA
HETATM    8  S8  UNL     1     -34.702  13.297  -4.798  1.00 20.00     0.032 SA
ENDROOT
TORSDOF 0
ENDMDL
MODEL 5
REMARK VINA RESULT:      -3.3     12.436     13.231
REMARK  0 active torsions:
REMARK  status: ('A' for Active; 'I' for Inactive)
ROOT
HETATM    1  C1  UNL     1     -43.199   5.557  -3.162  1.00 20.00     0.147 A 
HETATM    2  C2  UNL     1     -40.598   5.914  -0.401  1.00 20.00     0.168 A 
HETATM    3  C3  UNL     1     -42.252   5.809  -2.129  1.00 20.00     0.061 A 
HETATM    4  C4  UNL     1     -41.660   4.626  -1.785  1.00 20.00     0.134 A 
HETATM    5  N5  UNL     1     -43.367   4.311  -3.614  1.00 20.00    -0.220 NA
HETATM    6  N6  UNL     1     -40.716   4.665  -0.804  1.00 20.00    -0.244 NA
HETATM    7  S7  UNL     1     -41.601   7.097  -1.169  1.00 20.00    -0.078 SA
HETATM    8  S8  UNL     1     -42.312   3.326  -2.748  1.00 20.00     0.032 SA
ENDROOT
TORSDOF 0
ENDMDL
MODEL 6
REMARK VINA RESULT:      -3.3     12.592     13.744
REMARK  0 active torsions:
REMARK  status: ('A' for Active; 'I' for Inactive)
ROOT
HETATM    1  C1  UNL     1     -40.791   4.721  -1.113  1.00 20.00     0.147 A 
HETATM    2  C2  UNL     1     -43.417   3.588  -3.631  1.00 20.00     0.168 A 
HETATM    3  C3  UNL     1     -41.740   4.183  -2.029  1.00 20.00     0.061 A 
HETATM    4  C4  UNL     1     -42.409   5.220  -2.618  1.00 20.00     0.134 A 
HETATM    5  N5  UNL     1     -40.691   6.044  -0.966  1.00 20.00    -0.220 NA
HETATM    6  N6  UNL     1     -43.367   4.901  -3.532  1.00 20.00    -0.244 NA
HETATM    7  S7  UNL     1     -42.329   2.674  -2.643  1.00 20.00    -0.078 SA
HETATM    8  S8  UNL     1     -41.821   6.742  -2.002  1.00 20.00     0.032 SA
ENDROOT
TORSDOF 0
ENDMDL
MODEL 7
REMARK VINA RESULT:      -3.3      1.789      3.340
REMARK  0 active torsions:
REMARK  status: ('A' for Active; 'I' for Inactive)
ROOT
HETATM    1  C1  UNL     1     -34.156  16.237  -6.240  1.00 20.00     0.147 A 
HETATM    2  C2  UNL     1     -34.119  13.397  -3.700  1.00 20.00     0.168 A 
HETATM    3  C3  UNL     1     -34.079  15.248  -5.217  1.00 20.00     0.061 A 
HETATM    4  C4  UNL     1     -34.732  14.127  -5.648  1.00 20.00     0.134 A 
HETATM    5  N5  UNL     1     -34.799  15.961  -7.378  1.00 20.00    -0.220 NA
HETATM    6  N6  UNL     1     -34.765  13.063  -4.798  1.00 20.00    -0.244 NA
HETATM    7  S7  UNL     1     -33.443  14.989  -3.627  1.00 20.00    -0.078 SA
HETATM    8  S8  UNL     1     -35.375  14.383  -7.248  1.00 20.00     0.032 SA
ENDROOT
TORSDOF 0
ENDMDL
MODEL 8
REMARK VINA RESULT:      -3.2      2.566      3.584
REMARK  0 active torsions:
REMARK  status: ('A' for Active; 'I' for Inactive)
ROOT
HETATM    1  C1  UNL     1     -35.822  16.461  -3.464  1.00 20.00     0.147 A 
HETATM    2  C2  UNL     1     -33.817  13.298  -4.168  1.00 20.00     0.168 A 
HETATM    3  C3  UNL     1     -34.973  15.343  -3.706  1.00 20.00     0.061 A 
HETATM    4  C4  UNL     1     -35.752  14.265  -4.019  1.00 20.00     0.134 A 
HETATM    5  N5  UNL     1     -37.146  16.318  -3.566  1.00 20.00    -0.220 NA
HETATM    6  N6  UNL     1     -35.114  13.093  -4.286  1.00 20.00    -0.244 NA
HETATM    7  S7  UNL     1     -33.300  14.892  -3.737  1.00 20.00    -0.078 SA
HETATM    8  S8  UNL     1     -37.438  14.714  -3.989  1.00 20.00     0.032 SA
ENDROOT
TORSDOF 0
ENDMDL
MODEL 9
REMARK VINA RESULT:      -3.2     11.721     12.607
REMARK  0 active torsions:
REMARK  status: ('A' for Active; 'I' for Inactive)
ROOT
HETATM    1  C1  UNL     1     -43.009   5.220  -3.045  1.00 20.00     0.147 A 
HETATM    2  C2  UNL     1     -40.618   6.215  -0.250  1.00 20.00     0.168 A 
HETATM    3  C3  UNL     1     -42.113   5.476  -1.968  1.00 20.00     0.061 A 
HETATM    4  C4  UNL     1     -41.831   6.813  -1.945  1.00 20.00     0.134 A 
HETATM    5  N5  UNL     1     -43.416   6.230  -3.819  1.00 20.00    -0.220 NA
HETATM    6  N6  UNL     1     -40.983   7.253  -0.976  1.00 20.00    -0.244 NA
HETATM    7  S7  UNL     1     -41.267   4.672  -0.687  1.00 20.00    -0.078 SA
HETATM    8  S8  UNL     1     -42.680   7.627  -3.234  1.00 20.00     0.032 SA
ENDROOT
TORSDOF 0
ENDMDL
