MODEL 1
REMARK VINA RESULT:      -5.2      0.000      0.000
REMARK  0 active torsions:
REMARK  status: ('A' for Active; 'I' for Inactive)
ROOT
HETATM    1  C1  UNL     1     -34.380  14.773  -4.224  1.00 20.00     0.088 C 
HETATM    2  C2  UNL     1     -34.463  16.381  -2.432  1.00 20.00    -0.041 C 
HETATM    3  C3  UNL     1     -34.298  17.539  -3.313  1.00 20.00    -0.050 C 
HETATM    4  C4  UNL     1     -34.500  15.105  -2.853  1.00 20.00     0.101 C 
HETATM    5  C5  UNL     1     -33.716  17.502  -4.523  1.00 20.00    -0.081 C 
HETATM    6  C6  UNL     1     -34.615  16.704  -0.957  1.00 20.00     0.044 C 
HETATM    7  C7  UNL     1     -34.786  18.841  -2.728  1.00 20.00     0.040 C 
HETATM    8  C8  UNL     1     -34.117  19.163  -1.386  1.00 20.00     0.009 C 
HETATM    9  C9  UNL     1     -33.756  17.915  -0.557  1.00 20.00    -0.014 C 
HETATM   10  C10 UNL     1     -33.580  18.730  -5.374  1.00 20.00     0.043 C 
HETATM   11  C11 UNL     1     -33.167  16.231  -5.100  1.00 20.00     0.043 C 
HETATM   12  C12 UNL     1     -33.868  18.201   0.939  1.00 20.00     0.010 C 
HETATM   13  N13 UNL     1     -34.282  14.492  -5.346  1.00 20.00    -0.192 NA
ENDROOT
TORSDOF 0
ENDMDL
MODEL 2
REMARK VINA RESULT:      -5.2      1.618      2.088
REMARK  0 active torsions:
REMARK  status: ('A' for Active; 'I' for Inactive)
ROOT
HETATM    1  C1  UNL     1     -34.512  13.448  -4.080  1.00 20.00     0.088 C 
HETATM    2  C2  UNL     1     -34.474  15.650  -3.102  1.00 20.00    -0.041 C 
HETATM    3  C3  UNL     1     -35.288  16.255  -4.159  1.00 20.00    -0.050 C 
HETATM    4  C4  UNL     1     -34.117  14.355  -3.066  1.00 20.00     0.101 C 
HETATM    5  C5  UNL     1     -35.392  15.779  -5.411  1.00 20.00    -0.081 C 
HETATM    6  C6  UNL     1     -34.051  16.590  -1.989  1.00 20.00     0.044 C 
HETATM    7  C7  UNL     1     -35.979  17.534  -3.756  1.00 20.00     0.040 C 
HETATM    8  C8  UNL     1     -34.995  18.593  -3.246  1.00 20.00     0.009 C 
HETATM    9  C9  UNL     1     -33.765  18.002  -2.527  1.00 20.00    -0.014 C 
HETATM   10  C10 UNL     1     -36.245  16.452  -6.445  1.00 20.00     0.043 C 
HETATM   11  C11 UNL     1     -34.664  14.544  -5.851  1.00 20.00     0.043 C 
HETATM   12  C12 UNL     1     -33.285  18.931  -1.413  1.00 20.00     0.010 C 
HETATM   13  N13 UNL     1     -34.831  12.698  -4.907  1.00 20.00    -0.192 NA
ENDROOT
TORSDOF 0
ENDMDL
MODEL 3
REMARK VINA RESULT:      -5.1      1.908      3.583
REMARK  0 active torsions:
REMARK  status: ('A' for Active; 'I' for Inactive)
ROOT
HETATM    1  C1  UNL     1     -33.688  18.957  -6.553  1.00 20.00     0.088 C 
HETATM    2  C2  UNL     1     -33.762  17.730  -4.481  1.00 20.00    -0.041 C 
HETATM    3  C3  UNL     1     -33.886  16.423  -5.130  1.00 20.00    -0.050 C 
HETATM    4  C4  UNL     1     -33.671  18.898  -5.138  1.00 20.00     0.101 C 
HETATM    5  C5  UNL     1     -34.381  16.225  -6.363  1.00 20.00    -0.081 C 
HETATM    6  C6  UNL     1     -33.720  17.700  -2.965  1.00 20.00     0.044 C 
HETATM    7  C7  UNL     1     -33.465  15.258  -4.269  1.00 20.00     0.040 C 
HETATM    8  C8  UNL     1     -34.233  15.207  -2.942  1.00 20.00     0.009 C 
HETATM    9  C9  UNL     1     -34.627  16.595  -2.400  1.00 20.00    -0.014 C 
HETATM   10  C10 UNL     1     -34.479  14.856  -6.967  1.00 20.00     0.043 C 
HETATM   11  C11 UNL     1     -34.863  17.362  -7.214  1.00 20.00     0.043 C 
HETATM   12  C12 UNL     1     -34.627  16.606  -0.873  1.00 20.00     0.010 C 
HETATM   13  N13 UNL     1     -33.702  19.014  -7.712  1.00 20.00    -0.192 NA
ENDROOT
TORSDOF 0
ENDMDL
MODEL 4
REMARK VINA RESULT:      -5.0      2.008      4.178
REMARK  0 active torsions:
REMARK  status: ('A' for Active; 'I' for Inactive)
ROOT
HETATM    1  C1  UNL     1     -33.849  18.134  -1.165  1.00 20.00     0.088 C 
HETATM    2  C2  UNL     1     -33.999  16.311  -2.732  1.00 20.00    -0.041 C 
HETATM    3  C3  UNL     1     -33.695  17.142  -3.900  1.00 20.00    -0.050 C 
HETATM    4  C4  UNL     1     -34.070  16.770  -1.471  1.00 20.00     0.101 C 
HETATM    5  C5  UNL     1     -33.902  18.467  -3.969  1.00 20.00    -0.081 C 
HETATM    6  C6  UNL     1     -34.221  14.839  -3.024  1.00 20.00     0.044 C 
HETATM    7  C7  UNL     1     -33.171  16.376  -5.089  1.00 20.00     0.040 C 
HETATM    8  C8  UNL     1     -34.128  15.263  -5.532  1.00 20.00     0.009 C 
HETATM    9  C9  UNL     1     -34.928  14.635  -4.374  1.00 20.00    -0.014 C 
HETATM   10  C10 UNL     1     -33.567  19.257  -5.199  1.00 20.00     0.043 C 
HETATM   11  C11 UNL     1     -34.479  19.240  -2.821  1.00 20.00     0.043 C 
HETATM   12  C12 UNL     1     -35.201  13.155  -4.637  1.00 20.00     0.010 C 
HETATM   13  N13 UNL     1     -33.670  19.251  -0.905  1.00 20.00    -0.192 NA
ENDROOT
TORSDOF 0
ENDMDL
MODEL 5
REMARK VINA RESULT:      -4.8      1.867      3.142
REMARK  0 active torsions:
REMARK  status: ('A' for Active; 'I' for Inactive)
ROOT
HETATM    1  C1  UNL     1     -34.934  15.800  -6.759  1.00 20.00     0.088 C 
HETATM    2  C2  UNL     1     -35.140  16.755  -4.557  1.00 20.00    -0.041 C 
HETATM    3  C3  UNL     1     -34.332  15.718  -3.910  1.00 20.00    -0.050 C 
HETATM    4  C4  UNL     1     -35.417  16.792  -5.871  1.00 20.00     0.101 C 
HETATM    5  C5  UNL     1     -34.157  14.475  -4.388  1.00 20.00    -0.081 C 
HETATM    6  C6  UNL     1     -35.656  17.844  -3.636  1.00 20.00     0.044 C 
HETATM    7  C7  UNL     1     -33.735  16.131  -2.588  1.00 20.00     0.040 C 
HETATM    8  C8  UNL     1     -34.799  16.599  -1.588  1.00 20.00     0.009 C 
HETATM    9  C9  UNL     1     -36.012  17.284  -2.249  1.00 20.00    -0.014 C 
HETATM   10  C10 UNL     1     -33.315  13.463  -3.672  1.00 20.00     0.043 C 
HETATM   11  C11 UNL     1     -34.792  14.024  -5.670  1.00 20.00     0.043 C 
HETATM   12  C12 UNL     1     -36.585  18.372  -1.343  1.00 20.00     0.010 C 
HETATM   13  N13 UNL     1     -34.542  14.991  -7.494  1.00 20.00    -0.192 NA
ENDROOT
TORSDOF 0
ENDMDL
MODEL 6
REMARK VINA RESULT:      -4.7      2.593      5.142
REMARK  0 active torsions:
REMARK  status: ('A' for Active; 'I' for Inactive)
ROOT
HETATM    1  C1  UNL     1     -35.554  16.668  -1.909  1.00 20.00     0.088 C 
HETATM    2  C2  UNL     1     -36.025  15.672  -4.052  1.00 20.00    -0.041 C 
HETATM    3  C3  UNL     1     -34.781  14.899  -4.092  1.00 20.00    -0.050 C 
HETATM    4  C4  UNL     1     -36.380  16.487  -3.045  1.00 20.00     0.101 C 
HETATM    5  C5  UNL     1     -33.660  15.220  -3.425  1.00 20.00    -0.081 C 
HETATM    6  C6  UNL     1     -36.943  15.485  -5.245  1.00 20.00     0.044 C 
HETATM    7  C7  UNL     1     -34.818  13.707  -5.015  1.00 20.00     0.040 C 
HETATM    8  C8  UNL     1     -35.185  14.094  -6.452  1.00 20.00     0.009 C 
HETATM    9  C9  UNL     1     -36.143  15.299  -6.545  1.00 20.00    -0.014 C 
HETATM   10  C10 UNL     1     -32.419  14.382  -3.512  1.00 20.00     0.043 C 
HETATM   11  C11 UNL     1     -33.579  16.436  -2.551  1.00 20.00     0.043 C 
HETATM   12  C12 UNL     1     -37.070  15.169  -7.752  1.00 20.00     0.010 C 
HETATM   13  N13 UNL     1     -34.882  16.822  -0.975  1.00 20.00    -0.192 NA
ENDROOT
TORSDOF 0
ENDMDL
MODEL 7
REMARK VINA RESULT:      -4.6      1.976      2.793
REMARK  0 active torsions:
REMARK  status: ('A' for Active; 'I' for Inactive)
ROOT
HETATM    1  C1  UNL     1     -37.012  15.744  -4.934  1.00 20.00     0.088 C 
HETATM    2  C2  UNL     1     -36.032  16.823  -3.016  1.00 20.00    -0.041 C 
HETATM    3  C3  UNL     1     -34.814  16.010  -3.041  1.00 20.00    -0.050 C 
HETATM    4  C4  UNL     1     -37.045  16.700  -3.889  1.00 20.00     0.101 C 
HETATM    5  C5  UNL     1     -34.723  14.785  -3.585  1.00 20.00    -0.081 C 
HETATM    6  C6  UNL     1     -36.090  17.871  -1.920  1.00 20.00     0.044 C 
HETATM    7  C7  UNL     1     -33.636  16.633  -2.334  1.00 20.00     0.040 C 
HETATM    8  C8  UNL     1     -33.949  16.977  -0.873  1.00 20.00     0.009 C 
HETATM    9  C9  UNL     1     -35.419  17.372  -0.630  1.00 20.00    -0.014 C 
HETATM   10  C10 UNL     1     -33.441  14.007  -3.575  1.00 20.00     0.043 C 
HETATM   11  C11 UNL     1     -35.898  14.120  -4.238  1.00 20.00     0.043 C 
HETATM   12  C12 UNL     1     -35.530  18.407   0.487  1.00 20.00     0.010 C 
HETATM   13  N13 UNL     1     -36.993  14.964  -5.793  1.00 20.00    -0.192 NA
ENDROOT
TORSDOF 0
ENDMDL
MODEL 8
REMARK VINA RESULT:      -4.5      2.654      4.817
REMARK  0 active torsions:
REMARK  status: ('A' for Active; 'I' for Inactive)
ROOT
HETATM    1  C1  UNL     1     -33.868  13.382  -4.271  1.00 20.00     0.088 C 
HETATM    2  C2  UNL     1     -35.190  14.689  -5.803  1.00 20.00    -0.041 C 
HETATM    3  C3  UNL     1     -34.690  15.976  -5.313  1.00 20.00    -0.050 C 
HETATM    4  C4  UNL     1     -34.810  13.493  -5.322  1.00 20.00     0.101 C 
HETATM    5  C5  UNL     1     -34.187  16.183  -4.084  1.00 20.00    -0.081 C 
HETATM    6  C6  UNL     1     -36.187  14.773  -6.943  1.00 20.00     0.044 C 
HETATM    7  C7  UNL     1     -34.838  17.114  -6.291  1.00 20.00     0.040 C 
HETATM    8  C8  UNL     1     -36.290  17.308  -6.744  1.00 20.00     0.009 C 
HETATM    9  C9  UNL     1     -37.103  15.999  -6.800  1.00 20.00    -0.014 C 
HETATM   10  C10 UNL     1     -33.692  17.529  -3.648  1.00 20.00     0.043 C 
HETATM   11  C11 UNL     1     -34.088  15.079  -3.073  1.00 20.00     0.043 C 
HETATM   12  C12 UNL     1     -38.141  16.048  -7.918  1.00 20.00     0.010 C 
HETATM   13  N13 UNL     1     -33.096  13.282  -3.409  1.00 20.00    -0.192 NA
ENDROOT
TORSDOF 0
ENDMDL
MODEL 9
REMARK VINA RESULT:      -4.5      2.438      4.503
REMARK  0 active torsions:
REMARK  status: ('A' for Active; 'I' for Inactive)
ROOT
HETATM    1  C1  UNL     1     -34.960  17.782  -0.451  1.00 20.00     0.088 C 
HETATM    2  C2  UNL     1     -34.828  16.319  -2.361  1.00 20.00    -0.041 C 
HETATM    3  C3  UNL     1     -35.545  17.234  -3.252  1.00 20.00    -0.050 C 
HETATM    4  C4  UNL     1     -34.559  16.572  -1.069  1.00 20.00     0.101 C 
HETATM    5  C5  UNL     1     -36.407  18.180  -2.844  1.00 20.00    -0.081 C 
HETATM    6  C6  UNL     1     -34.367  15.022  -2.998  1.00 20.00     0.044 C 
HETATM    7  C7  UNL     1     -35.291  16.998  -4.720  1.00 20.00     0.040 C 
HETATM    8  C8  UNL     1     -35.622  15.563  -5.145  1.00 20.00     0.009 C 
HETATM    9  C9  UNL     1     -35.379  14.516  -4.039  1.00 20.00    -0.014 C 
HETATM   10  C10 UNL     1     -37.107  19.085  -3.814  1.00 20.00     0.043 C 
HETATM   11  C11 UNL     1     -36.721  18.392  -1.393  1.00 20.00     0.043 C 
HETATM   12  C12 UNL     1     -34.939  13.182  -4.636  1.00 20.00     0.010 C 
HETATM   13  N13 UNL     1     -35.285  18.770   0.063  1.00 20.00    -0.192 NA
ENDROOT
TORSDOF 0
ENDMDL
