MODEL 1
REMARK VINA RESULT:      -5.2      0.000      0.000
REMARK  2 active torsions:
REMARK  status: ('A' for Active; 'I' for Inactive)
REMARK    1  A    between atoms: C2_2  and  C3_3 
REMARK    2  A    between atoms: C3_3  and  O11_11 
ROOT
HETATM    1  C1  UNL     1     -34.889  15.316  -5.865  1.00 20.00    -0.008 C 
HETATM    2  C2  UNL     1     -34.878  14.866  -4.607  1.00 20.00     0.020 C 
HETATM    3  C4  UNL     1     -33.449  16.733  -4.636  1.00 20.00     0.022 C 
HETATM    4  C5  UNL     1     -33.827  16.350  -6.079  1.00 20.00     0.006 C 
HETATM    5  C6  UNL     1     -33.827  15.517  -3.753  1.00 20.00    -0.014 C 
HETATM    6  C7  UNL     1     -34.313  17.547  -6.885  1.00 20.00     0.014 C 
HETATM    7  C8  UNL     1     -32.625  14.584  -3.556  1.00 20.00     0.020 C 
HETATM    8  C9  UNL     1     -34.354  15.991  -2.394  1.00 20.00     0.020 C 
ENDROOT
BRANCH   2   9
HETATM    9  C3  UNL     1     -35.781  13.813  -4.167  1.00 20.00     0.172 C 
HETATM   10  O10 UNL     1     -36.939  13.987  -3.811  1.00 20.00    -0.646 OA
BRANCH   9  11
HETATM   11  O11 UNL     1     -35.153  12.616  -4.209  1.00 20.00    -0.773 OA
HETATM   12  H25 UNL     1     -35.056  12.277  -5.125  1.00 20.00     0.167 HD
ENDBRANCH   9  11
ENDBRANCH   2   9
TORSDOF 2
ENDMDL
MODEL 2
REMARK VINA RESULT:      -4.9      1.376      3.105
REMARK  2 active torsions:
REMARK  status: ('A' for Active; 'I' for Inactive)
REMARK    1  A    between atoms: C2_2  and  C3_3 
REMARK    2  A    between atoms: C3_3  and  O11_11 
ROOT
HETATM    1  C1  UNL     1     -34.395  15.316  -2.408  1.00 20.00    -0.008 C 
HETATM    2  C2  UNL     1     -34.436  14.909  -3.681  1.00 20.00     0.020 C 
HETATM    3  C4  UNL     1     -34.513  17.258  -3.752  1.00 20.00     0.022 C 
HETATM    4  C5  UNL     1     -34.688  16.780  -2.299  1.00 20.00     0.006 C 
HETATM    5  C6  UNL     1     -34.750  16.016  -4.648  1.00 20.00    -0.014 C 
HETATM    6  C7  UNL     1     -33.758  17.506  -1.337  1.00 20.00     0.014 C 
HETATM    7  C8  UNL     1     -36.210  15.941  -5.112  1.00 20.00     0.020 C 
HETATM    8  C9  UNL     1     -33.813  16.049  -5.860  1.00 20.00     0.020 C 
ENDROOT
BRANCH   2   9
HETATM    9  C3  UNL     1     -34.239  13.513  -4.041  1.00 20.00     0.172 C 
HETATM   10  O10 UNL     1     -35.127  12.745  -4.382  1.00 20.00    -0.646 OA
BRANCH   9  11
HETATM   11  O11 UNL     1     -32.928  13.191  -3.942  1.00 20.00    -0.773 OA
HETATM   12  H25 UNL     1     -32.428  13.407  -4.758  1.00 20.00     0.167 HD
ENDBRANCH   9  11
ENDBRANCH   2   9
TORSDOF 2
ENDMDL
MODEL 3
REMARK VINA RESULT:      -4.8      1.404      1.854
REMARK  2 active torsions:
REMARK  status: ('A' for Active; 'I' for Inactive)
REMARK    1  A    between atoms: C2_2  and  C3_3 
REMARK    2  A    between atoms: C3_3  and  O11_11 
ROOT
HETATM    1  C1  UNL     1     -34.410  14.715  -6.236  1.00 20.00    -0.008 C 
HETATM    2  C2  UNL     1     -34.493  14.622  -4.905  1.00 20.00     0.020 C 
HETATM    3  C4  UNL     1     -35.306  16.759  -5.453  1.00 20.00     0.022 C 
HETATM    4  C5  UNL     1     -34.663  16.118  -6.696  1.00 20.00     0.006 C 
HETATM    5  C6  UNL     1     -34.823  15.927  -4.238  1.00 20.00    -0.014 C 
HETATM    6  C7  UNL     1     -35.569  16.193  -7.917  1.00 20.00     0.014 C 
HETATM    7  C8  UNL     1     -33.572  16.550  -3.605  1.00 20.00     0.020 C 
HETATM    8  C9  UNL     1     -35.940  15.811  -3.195  1.00 20.00     0.020 C 
ENDROOT
BRANCH   2   9
HETATM    9  C3  UNL     1     -34.232  13.369  -4.213  1.00 20.00     0.172 C 
HETATM   10  O10 UNL     1     -33.170  13.067  -3.687  1.00 20.00    -0.646 OA
BRANCH   9  11
HETATM   11  O11 UNL     1     -35.337  12.588  -4.238  1.00 20.00    -0.773 OA
HETATM   12  H25 UNL     1     -35.703  12.429  -3.342  1.00 20.00     0.167 HD
ENDBRANCH   9  11
ENDBRANCH   2   9
TORSDOF 2
ENDMDL
MODEL 4
REMARK VINA RESULT:      -4.8      1.368      1.995
REMARK  2 active torsions:
REMARK  status: ('A' for Active; 'I' for Inactive)
REMARK    1  A    between atoms: C2_2  and  C3_3 
REMARK    2  A    between atoms: C3_3  and  O11_11 
ROOT
HETATM    1  C1  UNL     1     -33.378  15.787  -4.898  1.00 20.00    -0.008 C 
HETATM    2  C2  UNL     1     -34.176  15.034  -4.136  1.00 20.00     0.020 C 
HETATM    3  C4  UNL     1     -35.048  17.214  -4.022  1.00 20.00     0.022 C 
HETATM    4  C5  UNL     1     -33.673  17.244  -4.714  1.00 20.00     0.006 C 
HETATM    5  C6  UNL     1     -35.150  15.837  -3.320  1.00 20.00    -0.014 C 
HETATM    6  C7  UNL     1     -33.703  18.018  -6.024  1.00 20.00     0.014 C 
HETATM    7  C8  UNL     1     -34.695  15.928  -1.858  1.00 20.00     0.020 C 
HETATM    8  C9  UNL     1     -36.586  15.308  -3.392  1.00 20.00     0.020 C 
ENDROOT
BRANCH   2   9
HETATM    9  C3  UNL     1     -34.046  13.585  -4.097  1.00 20.00     0.172 C 
HETATM   10  O10 UNL     1     -34.949  12.794  -4.332  1.00 20.00    -0.646 OA
BRANCH   9  11
HETATM   11  O11 UNL     1     -32.780  13.243  -3.763  1.00 20.00    -0.773 OA
HETATM   12  H25 UNL     1     -32.114  13.854  -4.145  1.00 20.00     0.167 HD
ENDBRANCH   9  11
ENDBRANCH   2   9
TORSDOF 2
ENDMDL
MODEL 5
REMARK VINA RESULT:      -4.7      1.787      3.234
REMARK  2 active torsions:
REMARK  status: ('A' for Active; 'I' for Inactive)
REMARK    1  A    between atoms: C2_2  and  C3_3 
REMARK    2  A    between atoms: C3_3  and  O11_11 
ROOT
HETATM    1  C1  UNL     1     -34.177  15.250  -2.506  1.00 20.00    -0.008 C 
HETATM    2  C2  UNL     1     -34.749  14.706  -3.585  1.00 20.00     0.020 C 
HETATM    3  C4  UNL     1     -35.661  16.864  -3.392  1.00 20.00     0.022 C 
HETATM    4  C5  UNL     1     -34.853  16.531  -2.125  1.00 20.00     0.006 C 
HETATM    5  C6  UNL     1     -35.892  15.519  -4.125  1.00 20.00    -0.014 C 
HETATM    6  C7  UNL     1     -33.874  17.638  -1.758  1.00 20.00     0.014 C 
HETATM    7  C8  UNL     1     -37.239  14.899  -3.730  1.00 20.00     0.020 C 
HETATM    8  C9  UNL     1     -35.830  15.722  -5.642  1.00 20.00     0.020 C 
ENDROOT
BRANCH   2   9
HETATM    9  C3  UNL     1     -34.305  13.427  -4.118  1.00 20.00     0.172 C 
HETATM   10  O10 UNL     1     -35.035  12.589  -4.627  1.00 20.00    -0.646 OA
BRANCH   9  11
HETATM   11  O11 UNL     1     -32.966  13.303  -3.966  1.00 20.00    -0.773 OA
HETATM   12  H25 UNL     1     -32.690  13.351  -3.026  1.00 20.00     0.167 HD
ENDBRANCH   9  11
ENDBRANCH   2   9
TORSDOF 2
ENDMDL
MODEL 6
REMARK VINA RESULT:      -4.7      1.643      3.136
REMARK  2 active torsions:
REMARK  status: ('A' for Active; 'I' for Inactive)
REMARK    1  A    between atoms: C2_2  and  C3_3 
REMARK    2  A    between atoms: C3_3  and  O11_11 
ROOT
HETATM    1  C1  UNL     1     -36.048  16.263  -2.950  1.00 20.00    -0.008 C 
HETATM    2  C2  UNL     1     -36.093  15.326  -3.903  1.00 20.00     0.020 C 
HETATM    3  C4  UNL     1     -33.899  15.283  -3.061  1.00 20.00     0.022 C 
HETATM    4  C5  UNL     1     -34.640  16.512  -2.504  1.00 20.00     0.006 C 
HETATM    5  C6  UNL     1     -34.741  14.774  -4.257  1.00 20.00    -0.014 C 
HETATM    6  C7  UNL     1     -34.505  16.631  -0.992  1.00 20.00     0.014 C 
HETATM    7  C8  UNL     1     -34.237  15.367  -5.579  1.00 20.00     0.020 C 
HETATM    8  C9  UNL     1     -34.707  13.243  -4.319  1.00 20.00     0.020 C 
ENDROOT
BRANCH   2   9
HETATM    9  C3  UNL     1     -37.346  14.947  -4.538  1.00 20.00     0.172 C 
HETATM   10  O10 UNL     1     -37.666  15.234  -5.683  1.00 20.00    -0.646 OA
BRANCH   9  11
HETATM   11  O11 UNL     1     -38.104  14.231  -3.676  1.00 20.00    -0.773 OA
HETATM   12  H25 UNL     1     -38.526  14.794  -2.992  1.00 20.00     0.167 HD
ENDBRANCH   9  11
ENDBRANCH   2   9
TORSDOF 2
ENDMDL
MODEL 7
REMARK VINA RESULT:      -4.6      1.399      2.866
REMARK  2 active torsions:
REMARK  status: ('A' for Active; 'I' for Inactive)
REMARK    1  A    between atoms: C2_2  and  C3_3 
REMARK    2  A    between atoms: C3_3  and  O11_11 
ROOT
HETATM    1  C1  UNL     1     -34.363  15.740  -3.531  1.00 20.00    -0.008 C 
HETATM    2  C2  UNL     1     -34.546  14.860  -4.520  1.00 20.00     0.020 C 
HETATM    3  C4  UNL     1     -34.857  16.984  -5.480  1.00 20.00     0.022 C 
HETATM    4  C5  UNL     1     -34.777  17.117  -3.949  1.00 20.00     0.006 C 
HETATM    5  C6  UNL     1     -35.098  15.481  -5.773  1.00 20.00    -0.014 C 
HETATM    6  C7  UNL     1     -33.793  18.195  -3.514  1.00 20.00     0.014 C 
HETATM    7  C8  UNL     1     -36.596  15.181  -5.917  1.00 20.00     0.020 C 
HETATM    8  C9  UNL     1     -34.351  15.059  -7.042  1.00 20.00     0.020 C 
ENDROOT
BRANCH   2   9
HETATM    9  C3  UNL     1     -34.268  13.443  -4.340  1.00 20.00     0.172 C 
HETATM   10  O10 UNL     1     -35.090  12.546  -4.467  1.00 20.00    -0.646 OA
BRANCH   9  11
HETATM   11  O11 UNL     1     -32.968  13.264  -4.011  1.00 20.00    -0.773 OA
HETATM   12  H25 UNL     1     -32.851  13.028  -3.066  1.00 20.00     0.167 HD
ENDBRANCH   9  11
ENDBRANCH   2   9
TORSDOF 2
ENDMDL
MODEL 8
REMARK VINA RESULT:      -4.6      1.591      3.130
REMARK  2 active torsions:
REMARK  status: ('A' for Active; 'I' for Inactive)
REMARK    1  A    between atoms: C2_2  and  C3_3 
REMARK    2  A    between atoms: C3_3  and  O11_11 
ROOT
HETATM    1  C1  UNL     1     -35.618  15.401  -2.951  1.00 20.00    -0.008 C 
HETATM    2  C2  UNL     1     -35.091  14.829  -4.038  1.00 20.00     0.020 C 
HETATM    3  C4  UNL     1     -35.674  17.015  -4.679  1.00 20.00     0.022 C 
HETATM    4  C5  UNL     1     -36.260  16.712  -3.288  1.00 20.00     0.006 C 
HETATM    5  C6  UNL     1     -35.270  15.647  -5.286  1.00 20.00    -0.014 C 
HETATM    6  C7  UNL     1     -35.946  17.808  -2.279  1.00 20.00     0.014 C 
HETATM    7  C8  UNL     1     -36.395  15.076  -6.158  1.00 20.00     0.020 C 
HETATM    8  C9  UNL     1     -33.985  15.790  -6.109  1.00 20.00     0.020 C 
ENDROOT
BRANCH   2   9
HETATM    9  C3  UNL     1     -34.458  13.520  -3.977  1.00 20.00     0.172 C 
HETATM   10  O10 UNL     1     -33.264  13.327  -3.794  1.00 20.00    -0.646 OA
BRANCH   9  11
HETATM   11  O11 UNL     1     -35.385  12.550  -4.153  1.00 20.00    -0.773 OA
HETATM   12  H25 UNL     1     -34.985  11.695  -4.421  1.00 20.00     0.167 HD
ENDBRANCH   9  11
ENDBRANCH   2   9
TORSDOF 2
ENDMDL
MODEL 9
REMARK VINA RESULT:      -4.5      2.047      3.281
REMARK  2 active torsions:
REMARK  status: ('A' for Active; 'I' for Inactive)
REMARK    1  A    between atoms: C2_2  and  C3_3 
REMARK    2  A    between atoms: C3_3  and  O11_11 
ROOT
HETATM    1  C1  UNL     1     -33.688  16.794  -3.836  1.00 20.00    -0.008 C 
HETATM    2  C2  UNL     1     -34.488  15.960  -4.509  1.00 20.00     0.020 C 
HETATM    3  C4  UNL     1     -34.904  15.555  -2.230  1.00 20.00     0.022 C 
HETATM    4  C5  UNL     1     -33.671  16.466  -2.375  1.00 20.00     0.006 C 
HETATM    5  C6  UNL     1     -35.155  14.939  -3.630  1.00 20.00    -0.014 C 
HETATM    6  C7  UNL     1     -33.756  17.697  -1.484  1.00 20.00     0.014 C 
HETATM    7  C8  UNL     1     -34.470  13.573  -3.762  1.00 20.00     0.020 C 
HETATM    8  C9  UNL     1     -36.659  14.803  -3.890  1.00 20.00     0.020 C 
ENDROOT
BRANCH   2   9
HETATM    9  C3  UNL     1     -34.629  16.041  -5.954  1.00 20.00     0.172 C 
HETATM   10  O10 UNL     1     -35.487  16.687  -6.539  1.00 20.00    -0.646 OA
BRANCH   9  11
HETATM   11  O11 UNL     1     -33.671  15.298  -6.555  1.00 20.00    -0.773 OA
HETATM   12  H25 UNL     1     -33.590  15.495  -7.513  1.00 20.00     0.167 HD
ENDBRANCH   9  11
ENDBRANCH   2   9
TORSDOF 2
ENDMDL
