MODEL 1
REMARK VINA RESULT:      -4.3      0.000      0.000
REMARK  3 active torsions:
REMARK  status: ('A' for Active; 'I' for Inactive)
REMARK    1  A    between atoms: C1_1  and  C2_2 
REMARK    2  A    between atoms: C1_1  and  O11_11 
REMARK    3  A    between atoms: C8_8  and  N9_9 
ROOT
HETATM    1  C2  UNL     1     -35.356  15.149  -4.591  1.00 20.00     0.355 A 
HETATM    2  C3  UNL     1     -34.917  15.508  -5.997  1.00 20.00     0.264 A 
HETATM    3  C4  UNL     1     -35.108  14.580  -7.145  1.00 20.00     0.046 C 
HETATM    4  N9  UNL     1     -33.944  15.168  -4.970  1.00 20.00     0.115 N 
ENDROOT
BRANCH   1   5
HETATM    5  C1  UNL     1     -35.821  13.804  -4.250  1.00 20.00     0.294 C 
HETATM    6  O10 UNL     1     -35.107  12.810  -4.254  1.00 20.00    -0.263 OA
BRANCH   5   7
HETATM    7  O11 UNL     1     -37.147  13.845  -3.936  1.00 20.00    -0.325 OA
HETATM    8  C7  UNL     1     -37.670  15.145  -3.643  1.00 20.00     0.213 C 
ENDBRANCH   5   7
ENDBRANCH   1   5
BRANCH   4   9
HETATM    9  C8  UNL     1     -33.228  16.328  -4.452  1.00 20.00     0.216 C 
HETATM   10  C5  UNL     1     -33.676  16.594  -3.023  1.00 20.00     0.042 C 
HETATM   11  C6  UNL     1     -33.499  17.519  -5.359  1.00 20.00     0.042 C 
ENDBRANCH   4   9
TORSDOF 3
ENDMDL
MODEL 2
REMARK VINA RESULT:      -4.2      1.531      2.590
REMARK  3 active torsions:
REMARK  status: ('A' for Active; 'I' for Inactive)
REMARK    1  A    between atoms: C1_1  and  C2_2 
REMARK    2  A    between atoms: C1_1  and  O11_11 
REMARK    3  A    between atoms: C8_8  and  N9_9 
ROOT
HETATM    1  C2  UNL     1     -34.589  14.462  -3.510  1.00 20.00     0.355 A 
HETATM    2  C3  UNL     1     -35.808  15.233  -3.045  1.00 20.00     0.264 A 
HETATM    3  C4  UNL     1     -37.125  15.117  -3.731  1.00 20.00     0.046 C 
HETATM    4  N9  UNL     1     -34.713  15.902  -3.731  1.00 20.00     0.115 N 
ENDROOT
BRANCH   1   5
HETATM    5  C1  UNL     1     -34.588  13.706  -4.763  1.00 20.00     0.294 C 
HETATM    6  O10 UNL     1     -34.821  12.507  -4.841  1.00 20.00    -0.263 OA
BRANCH   5   7
HETATM    7  O11 UNL     1     -34.295  14.542  -5.800  1.00 20.00    -0.325 OA
HETATM    8  C7  UNL     1     -35.139  14.416  -6.949  1.00 20.00     0.213 C 
ENDBRANCH   5   7
ENDBRANCH   1   5
BRANCH   4   9
HETATM    9  C8  UNL     1     -33.874  16.693  -2.838  1.00 20.00     0.216 C 
HETATM   10  C5  UNL     1     -34.388  16.550  -1.413  1.00 20.00     0.042 C 
HETATM   11  C6  UNL     1     -33.893  18.143  -3.300  1.00 20.00     0.042 C 
ENDBRANCH   4   9
TORSDOF 3
ENDMDL
MODEL 3
REMARK VINA RESULT:      -4.2      1.495      2.002
REMARK  3 active torsions:
REMARK  status: ('A' for Active; 'I' for Inactive)
REMARK    1  A    between atoms: C1_1  and  C2_2 
REMARK    2  A    between atoms: C1_1  and  O11_11 
REMARK    3  A    between atoms: C8_8  and  N9_9 
ROOT
HETATM    1  C2  UNL     1     -34.971  15.491  -3.364  1.00 20.00     0.355 A 
HETATM    2  C3  UNL     1     -34.230  16.493  -4.228  1.00 20.00     0.264 A 
HETATM    3  C4  UNL     1     -33.642  16.119  -5.544  1.00 20.00     0.046 C 
HETATM    4  N9  UNL     1     -33.632  15.962  -3.012  1.00 20.00     0.115 N 
ENDROOT
BRANCH   1   5
HETATM    5  C1  UNL     1     -34.991  14.064  -3.687  1.00 20.00     0.294 C 
HETATM    6  O10 UNL     1     -34.051  13.304  -3.491  1.00 20.00    -0.263 OA
BRANCH   5   7
HETATM    7  O11 UNL     1     -36.199  13.734  -4.225  1.00 20.00    -0.325 OA
HETATM    8  C7  UNL     1     -37.271  14.635  -3.930  1.00 20.00     0.213 C 
ENDBRANCH   5   7
ENDBRANCH   1   5
BRANCH   4   9
HETATM    9  C8  UNL     1     -33.632  16.916  -1.909  1.00 20.00     0.216 C 
HETATM   10  C5  UNL     1     -34.729  16.540  -0.924  1.00 20.00     0.042 C 
HETATM   11  C6  UNL     1     -33.834  18.316  -2.469  1.00 20.00     0.042 C 
ENDBRANCH   4   9
TORSDOF 3
ENDMDL
MODEL 4
REMARK VINA RESULT:      -4.2      1.726      2.893
REMARK  3 active torsions:
REMARK  status: ('A' for Active; 'I' for Inactive)
REMARK    1  A    between atoms: C1_1  and  C2_2 
REMARK    2  A    between atoms: C1_1  and  O11_11 
REMARK    3  A    between atoms: C8_8  and  N9_9 
ROOT
HETATM    1  C2  UNL     1     -34.810  15.107  -4.339  1.00 20.00     0.355 A 
HETATM    2  C3  UNL     1     -33.527  15.520  -3.643  1.00 20.00     0.264 A 
HETATM    3  C4  UNL     1     -32.314  14.657  -3.647  1.00 20.00     0.046 C 
HETATM    4  N9  UNL     1     -34.691  15.095  -2.881  1.00 20.00     0.115 N 
ENDROOT
BRANCH   1   5
HETATM    5  C1  UNL     1     -34.986  13.765  -4.893  1.00 20.00     0.294 C 
HETATM    6  O10 UNL     1     -35.090  12.751  -4.214  1.00 20.00    -0.263 OA
BRANCH   5   7
HETATM    7  O11 UNL     1     -35.017  13.833  -6.254  1.00 20.00    -0.325 OA
HETATM    8  C7  UNL     1     -35.850  14.860  -6.800  1.00 20.00     0.213 C 
ENDBRANCH   5   7
ENDBRANCH   1   5
BRANCH   4   9
HETATM    9  C8  UNL     1     -35.392  16.201  -2.240  1.00 20.00     0.216 C 
HETATM   10  C5  UNL     1     -35.502  17.359  -3.221  1.00 20.00     0.042 C 
HETATM   11  C6  UNL     1     -34.636  16.600  -0.981  1.00 20.00     0.042 C 
ENDBRANCH   4   9
TORSDOF 3
ENDMDL
MODEL 5
REMARK VINA RESULT:      -4.0      2.078      3.101
REMARK  3 active torsions:
REMARK  status: ('A' for Active; 'I' for Inactive)
REMARK    1  A    between atoms: C1_1  and  C2_2 
REMARK    2  A    between atoms: C1_1  and  O11_11 
REMARK    3  A    between atoms: C8_8  and  N9_9 
ROOT
HETATM    1  C2  UNL     1     -34.361  15.584  -3.267  1.00 20.00     0.355 A 
HETATM    2  C3  UNL     1     -34.403  16.777  -4.202  1.00 20.00     0.264 A 
HETATM    3  C4  UNL     1     -33.672  16.789  -5.500  1.00 20.00     0.046 C 
HETATM    4  N9  UNL     1     -33.640  16.820  -2.964  1.00 20.00     0.115 N 
ENDROOT
BRANCH   1   5
HETATM    5  C1  UNL     1     -33.457  14.457  -3.499  1.00 20.00     0.294 C 
HETATM    6  O10 UNL     1     -32.236  14.547  -3.507  1.00 20.00    -0.263 OA
BRANCH   5   7
HETATM    7  O11 UNL     1     -34.185  13.321  -3.697  1.00 20.00    -0.325 OA
HETATM    8  C7  UNL     1     -34.743  13.167  -5.005  1.00 20.00     0.213 C 
ENDBRANCH   5   7
ENDBRANCH   1   5
BRANCH   4   9
HETATM    9  C8  UNL     1     -34.280  17.615  -1.923  1.00 20.00     0.216 C 
HETATM   10  C5  UNL     1     -33.366  18.771  -1.543  1.00 20.00     0.042 C 
HETATM   11  C6  UNL     1     -34.579  16.718  -0.731  1.00 20.00     0.042 C 
ENDBRANCH   4   9
TORSDOF 3
ENDMDL
MODEL 6
REMARK VINA RESULT:      -3.9      1.821      2.656
REMARK  3 active torsions:
REMARK  status: ('A' for Active; 'I' for Inactive)
REMARK    1  A    between atoms: C1_1  and  C2_2 
REMARK    2  A    between atoms: C1_1  and  O11_11 
REMARK    3  A    between atoms: C8_8  and  N9_9 
ROOT
HETATM    1  C2  UNL     1     -35.784  14.545  -5.199  1.00 20.00     0.355 A 
HETATM    2  C3  UNL     1     -34.431  13.870  -5.083  1.00 20.00     0.264 A 
HETATM    3  C4  UNL     1     -33.846  13.496  -3.766  1.00 20.00     0.046 C 
HETATM    4  N9  UNL     1     -34.541  15.279  -5.430  1.00 20.00     0.115 N 
ENDROOT
BRANCH   1   5
HETATM    5  C1  UNL     1     -36.505  15.031  -4.022  1.00 20.00     0.294 C 
HETATM    6  O10 UNL     1     -36.195  16.035  -3.394  1.00 20.00    -0.263 OA
BRANCH   5   7
HETATM    7  O11 UNL     1     -37.551  14.199  -3.752  1.00 20.00    -0.325 OA
HETATM    8  C7  UNL     1     -38.849  14.732  -4.032  1.00 20.00     0.213 C 
ENDBRANCH   5   7
ENDBRANCH   1   5
BRANCH   4   9
HETATM    9  C8  UNL     1     -34.286  15.543  -6.841  1.00 20.00     0.216 C 
HETATM   10  C5  UNL     1     -34.551  17.013  -7.131  1.00 20.00     0.042 C 
HETATM   11  C6  UNL     1     -35.173  14.635  -7.681  1.00 20.00     0.042 C 
ENDBRANCH   4   9
TORSDOF 3
ENDMDL
MODEL 7
REMARK VINA RESULT:      -3.9      1.281      2.223
REMARK  3 active torsions:
REMARK  status: ('A' for Active; 'I' for Inactive)
REMARK    1  A    between atoms: C1_1  and  C2_2 
REMARK    2  A    between atoms: C1_1  and  O11_11 
REMARK    3  A    between atoms: C8_8  and  N9_9 
ROOT
HETATM    1  C2  UNL     1     -34.063  14.873  -4.723  1.00 20.00     0.355 A 
HETATM    2  C3  UNL     1     -33.679  15.840  -3.620  1.00 20.00     0.264 A 
HETATM    3  C4  UNL     1     -34.317  15.797  -2.275  1.00 20.00     0.046 C 
HETATM    4  N9  UNL     1     -34.470  16.277  -4.761  1.00 20.00     0.115 N 
ENDROOT
BRANCH   1   5
HETATM    5  C1  UNL     1     -35.204  13.967  -4.589  1.00 20.00     0.294 C 
HETATM    6  O10 UNL     1     -35.120  12.809  -4.202  1.00 20.00    -0.263 OA
BRANCH   5   7
HETATM    7  O11 UNL     1     -36.346  14.615  -4.956  1.00 20.00    -0.325 OA
HETATM    8  C7  UNL     1     -37.408  14.583  -3.998  1.00 20.00     0.213 C 
ENDBRANCH   5   7
ENDBRANCH   1   5
BRANCH   4   9
HETATM    9  C8  UNL     1     -33.707  17.069  -5.718  1.00 20.00     0.216 C 
HETATM   10  C5  UNL     1     -33.550  18.484  -5.183  1.00 20.00     0.042 C 
HETATM   11  C6  UNL     1     -34.427  17.050  -7.059  1.00 20.00     0.042 C 
ENDBRANCH   4   9
TORSDOF 3
ENDMDL
MODEL 8
REMARK VINA RESULT:      -3.9      1.769      2.191
REMARK  3 active torsions:
REMARK  status: ('A' for Active; 'I' for Inactive)
REMARK    1  A    between atoms: C1_1  and  C2_2 
REMARK    2  A    between atoms: C1_1  and  O11_11 
REMARK    3  A    between atoms: C8_8  and  N9_9 
ROOT
HETATM    1  C2  UNL     1     -35.584  15.480  -4.356  1.00 20.00     0.355 A 
HETATM    2  C3  UNL     1     -34.363  14.588  -4.472  1.00 20.00     0.264 A 
HETATM    3  C4  UNL     1     -34.466  13.156  -4.868  1.00 20.00     0.046 C 
HETATM    4  N9  UNL     1     -34.875  14.997  -3.172  1.00 20.00     0.115 N 
ENDROOT
BRANCH   1   5
HETATM    5  C1  UNL     1     -36.942  14.941  -4.448  1.00 20.00     0.294 C 
HETATM    6  O10 UNL     1     -37.493  14.315  -3.552  1.00 20.00    -0.263 OA
BRANCH   5   7
HETATM    7  O11 UNL     1     -37.473  15.248  -5.665  1.00 20.00    -0.325 OA
HETATM    8  C7  UNL     1     -37.119  16.533  -6.185  1.00 20.00     0.213 C 
ENDBRANCH   5   7
ENDBRANCH   1   5
BRANCH   4   9
HETATM    9  C8  UNL     1     -34.061  16.025  -2.534  1.00 20.00     0.216 C 
HETATM   10  C5  UNL     1     -34.719  16.444  -1.227  1.00 20.00     0.042 C 
HETATM   11  C6  UNL     1     -33.911  17.200  -3.490  1.00 20.00     0.042 C 
ENDBRANCH   4   9
TORSDOF 3
ENDMDL
MODEL 9
REMARK VINA RESULT:      -3.9      2.188      2.932
REMARK  3 active torsions:
REMARK  status: ('A' for Active; 'I' for Inactive)
REMARK    1  A    between atoms: C1_1  and  C2_2 
REMARK    2  A    between atoms: C1_1  and  O11_11 
REMARK    3  A    between atoms: C8_8  and  N9_9 
ROOT
HETATM    1  C2  UNL     1     -33.452  16.246  -4.390  1.00 20.00     0.355 A 
HETATM    2  C3  UNL     1     -33.109  15.041  -3.536  1.00 20.00     0.264 A 
HETATM    3  C4  UNL     1     -33.504  13.659  -3.926  1.00 20.00     0.046 C 
HETATM    4  N9  UNL     1     -34.144  15.981  -3.129  1.00 20.00     0.115 N 
ENDROOT
BRANCH   1   5
HETATM    5  C1  UNL     1     -34.345  16.142  -5.545  1.00 20.00     0.294 C 
HETATM    6  O10 UNL     1     -33.968  15.886  -6.681  1.00 20.00    -0.263 OA
BRANCH   5   7
HETATM    7  O11 UNL     1     -35.630  16.369  -5.150  1.00 20.00    -0.325 OA
HETATM    8  C7  UNL     1     -36.614  15.511  -5.735  1.00 20.00     0.213 C 
ENDBRANCH   5   7
ENDBRANCH   1   5
BRANCH   4   9
HETATM    9  C8  UNL     1     -33.723  16.864  -2.048  1.00 20.00     0.216 C 
HETATM   10  C5  UNL     1     -34.639  16.661  -0.850  1.00 20.00     0.042 C 
HETATM   11  C6  UNL     1     -33.756  18.302  -2.545  1.00 20.00     0.042 C 
ENDBRANCH   4   9
TORSDOF 3
ENDMDL
