MODEL 1
REMARK VINA RESULT:      -4.5      0.000      0.000
REMARK  1 active torsions:
REMARK  status: ('A' for Active; 'I' for Inactive)
REMARK    1  A    between atoms: C6_6  and  C9_9 
ROOT
HETATM    1  C1  UNL     1     -33.352  16.410  -4.855  1.00 20.00     0.302 C 
HETATM    2  C2  UNL     1     -33.101  15.394  -3.730  1.00 20.00     0.303 C 
HETATM    3  C3  UNL     1     -35.594  15.614  -5.074  1.00 20.00     0.307 C 
HETATM    4  C4  UNL     1     -35.089  17.418  -3.562  1.00 20.00     0.308 C 
HETATM    5  C5  UNL     1     -35.379  14.603  -3.922  1.00 20.00     0.247 C 
HETATM    6  C6  UNL     1     -34.878  16.392  -2.424  1.00 20.00     0.251 C 
HETATM    7  C7  UNL     1     -35.071  13.197  -4.440  1.00 20.00     0.045 C 
HETATM    8  N10 UNL     1     -34.770  16.829  -4.883  1.00 20.00     0.094 N 
HETATM    9  N11 UNL     1     -34.344  15.112  -2.976  1.00 20.00     0.102 N 
ENDROOT
BRANCH   6  10
HETATM   10  C9  UNL     1     -34.014  16.957  -1.293  1.00 20.00     0.033 C 
HETATM   11  C8  UNL     1     -34.800  17.128  -0.036  1.00 20.00     0.007 C 
ENDBRANCH   6  10
TORSDOF 1
ENDMDL
MODEL 2
REMARK VINA RESULT:      -4.4      1.420      2.779
REMARK  1 active torsions:
REMARK  status: ('A' for Active; 'I' for Inactive)
REMARK    1  A    between atoms: C6_6  and  C9_9 
ROOT
HETATM    1  C1  UNL     1     -36.518  14.450  -4.153  1.00 20.00     0.302 C 
HETATM    2  C2  UNL     1     -36.166  15.807  -4.779  1.00 20.00     0.303 C 
HETATM    3  C3  UNL     1     -34.790  13.409  -5.434  1.00 20.00     0.307 C 
HETATM    4  C4  UNL     1     -34.314  14.291  -3.246  1.00 20.00     0.308 C 
HETATM    5  C5  UNL     1     -34.392  14.769  -6.057  1.00 20.00     0.247 C 
HETATM    6  C6  UNL     1     -33.922  15.643  -3.887  1.00 20.00     0.251 C 
HETATM    7  C7  UNL     1     -34.995  14.963  -7.450  1.00 20.00     0.045 C 
HETATM    8  N10 UNL     1     -35.324  13.581  -4.065  1.00 20.00     0.094 N 
HETATM    9  N11 UNL     1     -34.726  15.882  -5.121  1.00 20.00     0.102 N 
ENDROOT
BRANCH   6  10
HETATM   10  C9  UNL     1     -34.009  16.800  -2.888  1.00 20.00     0.033 C 
HETATM   11  C8  UNL     1     -34.481  16.335  -1.550  1.00 20.00     0.007 C 
ENDBRANCH   6  10
TORSDOF 1
ENDMDL
MODEL 3
REMARK VINA RESULT:      -4.3      1.022      3.597
REMARK  1 active torsions:
REMARK  status: ('A' for Active; 'I' for Inactive)
REMARK    1  A    between atoms: C6_6  and  C9_9 
ROOT
HETATM    1  C1  UNL     1     -35.711  17.133  -4.000  1.00 20.00     0.302 C 
HETATM    2  C2  UNL     1     -36.048  16.039  -2.975  1.00 20.00     0.303 C 
HETATM    3  C3  UNL     1     -33.773  17.723  -2.732  1.00 20.00     0.307 C 
HETATM    4  C4  UNL     1     -33.628  16.060  -4.466  1.00 20.00     0.308 C 
HETATM    5  C5  UNL     1     -34.071  16.607  -1.702  1.00 20.00     0.247 C 
HETATM    6  C6  UNL     1     -33.929  14.959  -3.421  1.00 20.00     0.251 C 
HETATM    7  C7  UNL     1     -34.774  17.148  -0.454  1.00 20.00     0.045 C 
HETATM    8  N10 UNL     1     -34.250  17.348  -4.082  1.00 20.00     0.094 N 
HETATM    9  N11 UNL     1     -34.821  15.493  -2.350  1.00 20.00     0.102 N 
ENDROOT
BRANCH   6  10
HETATM   10  C9  UNL     1     -34.475  13.684  -4.070  1.00 20.00     0.033 C 
HETATM   11  C8  UNL     1     -34.668  13.857  -5.540  1.00 20.00     0.007 C 
ENDBRANCH   6  10
TORSDOF 1
ENDMDL
MODEL 4
REMARK VINA RESULT:      -4.2      1.626      3.941
REMARK  1 active torsions:
REMARK  status: ('A' for Active; 'I' for Inactive)
REMARK    1  A    between atoms: C6_6  and  C9_9 
ROOT
HETATM    1  C1  UNL     1     -35.044  13.431  -4.128  1.00 20.00     0.302 C 
HETATM    2  C2  UNL     1     -33.804  14.337  -4.181  1.00 20.00     0.303 C 
HETATM    3  C3  UNL     1     -36.307  15.215  -3.165  1.00 20.00     0.307 C 
HETATM    4  C4  UNL     1     -36.218  14.945  -5.555  1.00 20.00     0.308 C 
HETATM    5  C5  UNL     1     -35.084  16.160  -3.237  1.00 20.00     0.247 C 
HETATM    6  C6  UNL     1     -34.994  15.890  -5.606  1.00 20.00     0.251 C 
HETATM    7  C7  UNL     1     -34.353  16.258  -1.896  1.00 20.00     0.045 C 
HETATM    8  N10 UNL     1     -36.285  14.223  -4.263  1.00 20.00     0.094 N 
HETATM    9  N11 UNL     1     -34.186  15.757  -4.358  1.00 20.00     0.102 N 
ENDROOT
BRANCH   6  10
HETATM   10  C9  UNL     1     -34.163  15.688  -6.876  1.00 20.00     0.033 C 
HETATM   11  C8  UNL     1     -34.900  14.877  -7.889  1.00 20.00     0.007 C 
ENDBRANCH   6  10
TORSDOF 1
ENDMDL
MODEL 5
REMARK VINA RESULT:      -4.2      1.243      2.560
REMARK  1 active torsions:
REMARK  status: ('A' for Active; 'I' for Inactive)
REMARK    1  A    between atoms: C6_6  and  C9_9 
ROOT
HETATM    1  C1  UNL     1     -35.342  13.457  -4.259  1.00 20.00     0.302 C 
HETATM    2  C2  UNL     1     -36.328  14.562  -3.851  1.00 20.00     0.303 C 
HETATM    3  C3  UNL     1     -34.427  14.893  -5.935  1.00 20.00     0.307 C 
HETATM    4  C4  UNL     1     -33.507  14.885  -3.711  1.00 20.00     0.308 C 
HETATM    5  C5  UNL     1     -35.386  16.035  -5.523  1.00 20.00     0.247 C 
HETATM    6  C6  UNL     1     -34.476  16.026  -3.318  1.00 20.00     0.251 C 
HETATM    7  C7  UNL     1     -36.608  16.120  -6.441  1.00 20.00     0.045 C 
HETATM    8  N10 UNL     1     -34.084  14.035  -4.779  1.00 20.00     0.094 N 
HETATM    9  N11 UNL     1     -35.752  15.907  -4.083  1.00 20.00     0.102 N 
ENDROOT
BRANCH   6  10
HETATM   10  C9  UNL     1     -34.695  16.098  -1.804  1.00 20.00     0.033 C 
HETATM   11  C8  UNL     1     -33.883  17.186  -1.184  1.00 20.00     0.007 C 
ENDBRANCH   6  10
TORSDOF 1
ENDMDL
MODEL 6
REMARK VINA RESULT:      -4.1      1.535      2.164
REMARK  1 active torsions:
REMARK  status: ('A' for Active; 'I' for Inactive)
REMARK    1  A    between atoms: C6_6  and  C9_9 
ROOT
HETATM    1  C1  UNL     1     -36.287  17.193  -4.856  1.00 20.00     0.302 C 
HETATM    2  C2  UNL     1     -34.763  17.227  -5.048  1.00 20.00     0.303 C 
HETATM    3  C3  UNL     1     -36.317  14.892  -5.499  1.00 20.00     0.307 C 
HETATM    4  C4  UNL     1     -36.043  15.502  -3.187  1.00 20.00     0.308 C 
HETATM    5  C5  UNL     1     -34.779  14.888  -5.669  1.00 20.00     0.247 C 
HETATM    6  C6  UNL     1     -34.508  15.494  -3.377  1.00 20.00     0.251 C 
HETATM    7  C7  UNL     1     -34.361  15.056  -7.132  1.00 20.00     0.045 C 
HETATM    8  N10 UNL     1     -36.739  15.845  -4.448  1.00 20.00     0.094 N 
HETATM    9  N11 UNL     1     -34.158  15.904  -4.769  1.00 20.00     0.102 N 
ENDROOT
BRANCH   6  10
HETATM   10  C9  UNL     1     -33.793  16.333  -2.314  1.00 20.00     0.033 C 
HETATM   11  C8  UNL     1     -34.645  16.527  -1.104  1.00 20.00     0.007 C 
ENDBRANCH   6  10
TORSDOF 1
ENDMDL
MODEL 7
REMARK VINA RESULT:      -4.1      1.300      2.698
REMARK  1 active torsions:
REMARK  status: ('A' for Active; 'I' for Inactive)
REMARK    1  A    between atoms: C6_6  and  C9_9 
ROOT
HETATM    1  C1  UNL     1     -36.161  16.022  -4.450  1.00 20.00     0.302 C 
HETATM    2  C2  UNL     1     -35.753  17.364  -3.825  1.00 20.00     0.303 C 
HETATM    3  C3  UNL     1     -33.974  15.791  -5.384  1.00 20.00     0.307 C 
HETATM    4  C4  UNL     1     -34.456  14.915  -3.195  1.00 20.00     0.308 C 
HETATM    5  C5  UNL     1     -33.525  17.125  -4.740  1.00 20.00     0.247 C 
HETATM    6  C6  UNL     1     -34.005  16.256  -2.570  1.00 20.00     0.251 C 
HETATM    7  C7  UNL     1     -33.579  18.290  -5.731  1.00 20.00     0.045 C 
HETATM    8  N10 UNL     1     -34.998  15.114  -4.559  1.00 20.00     0.094 N 
HETATM    9  N11 UNL     1     -34.308  17.386  -3.497  1.00 20.00     0.102 N 
ENDROOT
BRANCH   6  10
HETATM   10  C9  UNL     1     -34.590  16.463  -1.170  1.00 20.00     0.033 C 
HETATM   11  C8  UNL     1     -33.954  17.622  -0.477  1.00 20.00     0.007 C 
ENDBRANCH   6  10
TORSDOF 1
ENDMDL
MODEL 8
REMARK VINA RESULT:      -3.9      1.285      3.711
REMARK  1 active torsions:
REMARK  status: ('A' for Active; 'I' for Inactive)
REMARK    1  A    between atoms: C6_6  and  C9_9 
ROOT
HETATM    1  C1  UNL     1     -36.769  16.605  -4.030  1.00 20.00     0.302 C 
HETATM    2  C2  UNL     1     -36.312  15.334  -3.297  1.00 20.00     0.303 C 
HETATM    3  C3  UNL     1     -34.808  17.745  -3.277  1.00 20.00     0.307 C 
HETATM    4  C4  UNL     1     -34.790  16.550  -5.367  1.00 20.00     0.308 C 
HETATM    5  C5  UNL     1     -34.308  16.470  -2.557  1.00 20.00     0.247 C 
HETATM    6  C6  UNL     1     -34.291  15.286  -4.628  1.00 20.00     0.251 C 
HETATM    7  C7  UNL     1     -34.621  16.495  -1.059  1.00 20.00     0.045 C 
HETATM    8  N10 UNL     1     -35.608  17.405  -4.476  1.00 20.00     0.094 N 
HETATM    9  N11 UNL     1     -34.834  15.252  -3.238  1.00 20.00     0.102 N 
ENDROOT
BRANCH   6  10
HETATM   10  C9  UNL     1     -34.589  14.005  -5.413  1.00 20.00     0.033 C 
HETATM   11  C8  UNL     1     -35.185  14.307  -6.748  1.00 20.00     0.007 C 
ENDBRANCH   6  10
TORSDOF 1
ENDMDL
MODEL 9
REMARK VINA RESULT:      -3.9      1.329      3.748
REMARK  1 active torsions:
REMARK  status: ('A' for Active; 'I' for Inactive)
REMARK    1  A    between atoms: C6_6  and  C9_9 
ROOT
HETATM    1  C1  UNL     1     -33.884  17.263  -4.915  1.00 20.00     0.302 C 
HETATM    2  C2  UNL     1     -35.264  17.344  -4.244  1.00 20.00     0.303 C 
HETATM    3  C3  UNL     1     -33.250  15.523  -3.405  1.00 20.00     0.307 C 
HETATM    4  C4  UNL     1     -34.299  14.985  -5.504  1.00 20.00     0.308 C 
HETATM    5  C5  UNL     1     -34.643  15.560  -2.731  1.00 20.00     0.247 C 
HETATM    6  C6  UNL     1     -35.682  15.028  -4.812  1.00 20.00     0.251 C 
HETATM    7  C7  UNL     1     -34.635  16.376  -1.436  1.00 20.00     0.045 C 
HETATM    8  N10 UNL     1     -33.336  15.892  -4.836  1.00 20.00     0.094 N 
HETATM    9  N11 UNL     1     -35.674  16.027  -3.703  1.00 20.00     0.102 N 
ENDROOT
BRANCH   6  10
HETATM   10  C9  UNL     1     -36.818  15.261  -5.812  1.00 20.00     0.033 C 
HETATM   11  C8  UNL     1     -36.374  15.006  -7.214  1.00 20.00     0.007 C 
ENDBRANCH   6  10
TORSDOF 1
ENDMDL
