MODEL 1
REMARK VINA RESULT:      -4.9      0.000      0.000
REMARK  0 active torsions:
REMARK  status: ('A' for Active; 'I' for Inactive)
ROOT
HETATM    1  C1  UNL     1     -33.142   6.500   4.811  1.00 20.00     0.117 A 
HETATM    2  C2  UNL     1     -33.864   5.844   3.901  1.00 20.00    -0.042 A 
HETATM    3  C3  UNL     1     -32.096   7.225   4.084  1.00 20.00     0.186 A 
HETATM    4  C4  UNL     1     -35.001   4.964   4.289  1.00 20.00     0.039 C 
HETATM    5  C5  UNL     1     -33.435   6.058   2.486  1.00 20.00     0.049 A 
HETATM    6  C6  UNL     1     -34.966   4.715   5.802  1.00 20.00     0.031 C 
HETATM    7  C7  UNL     1     -34.583   5.989   6.562  1.00 20.00     0.176 C 
HETATM    8  C8  UNL     1     -32.180   6.941   2.600  1.00 20.00     0.062 A 
HETATM    9  C9  UNL     1     -32.280   8.222   1.789  1.00 20.00     0.018 C 
HETATM   10  O10 UNL     1     -31.275   7.951   4.623  1.00 20.00    -0.290 OA
HETATM   11  O11 UNL     1     -33.310   6.526   6.162  1.00 20.00    -0.347 OA
ENDROOT
TORSDOF 0
ENDMDL
MODEL 2
REMARK VINA RESULT:      -4.8     11.457     13.391
REMARK  0 active torsions:
REMARK  status: ('A' for Active; 'I' for Inactive)
ROOT
HETATM    1  C1  UNL     1     -34.471  14.692  -5.298  1.00 20.00     0.117 A 
HETATM    2  C2  UNL     1     -34.192  15.972  -5.552  1.00 20.00    -0.042 A 
HETATM    3  C3  UNL     1     -34.091  14.441  -3.905  1.00 20.00     0.186 A 
HETATM    4  C4  UNL     1     -34.416  16.571  -6.896  1.00 20.00     0.039 C 
HETATM    5  C5  UNL     1     -33.636  16.736  -4.394  1.00 20.00     0.049 A 
HETATM    6  C6  UNL     1     -34.681  15.458  -7.918  1.00 20.00     0.031 C 
HETATM    7  C7  UNL     1     -35.567  14.360  -7.320  1.00 20.00     0.176 C 
HETATM    8  C8  UNL     1     -33.490  15.682  -3.281  1.00 20.00     0.062 A 
HETATM    9  C9  UNL     1     -34.210  16.070  -2.001  1.00 20.00     0.018 C 
HETATM   10  O10 UNL     1     -34.243  13.366  -3.345  1.00 20.00    -0.290 OA
HETATM   11  O11 UNL     1     -35.010  13.764  -6.136  1.00 20.00    -0.347 OA
ENDROOT
TORSDOF 0
ENDMDL
MODEL 3
REMARK VINA RESULT:      -4.8     11.850     12.872
REMARK  0 active torsions:
REMARK  status: ('A' for Active; 'I' for Inactive)
ROOT
HETATM    1  C1  UNL     1     -33.756  17.125  -3.136  1.00 20.00     0.117 A 
HETATM    2  C2  UNL     1     -34.285  16.182  -2.353  1.00 20.00    -0.042 A 
HETATM    3  C3  UNL     1     -33.464  16.492  -4.426  1.00 20.00     0.186 A 
HETATM    4  C4  UNL     1     -34.672  16.462  -0.943  1.00 20.00     0.039 C 
HETATM    5  C5  UNL     1     -34.444  14.845  -2.999  1.00 20.00     0.049 A 
HETATM    6  C6  UNL     1     -34.087  17.811  -0.507  1.00 20.00     0.031 C 
HETATM    7  C7  UNL     1     -34.184  18.845  -1.634  1.00 20.00     0.176 C 
HETATM    8  C8  UNL     1     -33.817  15.021  -4.394  1.00 20.00     0.062 A 
HETATM    9  C9  UNL     1     -34.765  14.648  -5.521  1.00 20.00     0.018 C 
HETATM   10  O10 UNL     1     -32.994  17.089  -5.382  1.00 20.00    -0.290 OA
HETATM   11  O11 UNL     1     -33.519  18.432  -2.840  1.00 20.00    -0.347 OA
ENDROOT
TORSDOF 0
ENDMDL
MODEL 4
REMARK VINA RESULT:      -4.6      0.856      3.726
REMARK  0 active torsions:
REMARK  status: ('A' for Active; 'I' for Inactive)
ROOT
HETATM    1  C1  UNL     1     -33.195   6.705   4.632  1.00 20.00     0.117 A 
HETATM    2  C2  UNL     1     -33.491   6.089   3.486  1.00 20.00    -0.042 A 
HETATM    3  C3  UNL     1     -34.130   6.199   5.641  1.00 20.00     0.186 A 
HETATM    4  C4  UNL     1     -32.760   6.390   2.224  1.00 20.00     0.039 C 
HETATM    5  C5  UNL     1     -34.605   5.097   3.574  1.00 20.00     0.049 A 
HETATM    6  C6  UNL     1     -31.920   7.660   2.406  1.00 20.00     0.031 C 
HETATM    7  C7  UNL     1     -31.268   7.697   3.793  1.00 20.00     0.176 C 
HETATM    8  C8  UNL     1     -35.102   5.216   5.026  1.00 20.00     0.062 A 
HETATM    9  C9  UNL     1     -35.098   3.888   5.764  1.00 20.00     0.018 C 
HETATM   10  O10 UNL     1     -34.112   6.541   6.814  1.00 20.00    -0.290 OA
HETATM   11  O11 UNL     1     -32.220   7.626   4.868  1.00 20.00    -0.347 OA
ENDROOT
TORSDOF 0
ENDMDL
MODEL 5
REMARK VINA RESULT:      -4.6     11.255     12.616
REMARK  0 active torsions:
REMARK  status: ('A' for Active; 'I' for Inactive)
ROOT
HETATM    1  C1  UNL     1     -36.068  14.406  -3.917  1.00 20.00     0.117 A 
HETATM    2  C2  UNL     1     -35.277  15.442  -3.633  1.00 20.00    -0.042 A 
HETATM    3  C3  UNL     1     -37.449  14.860  -3.728  1.00 20.00     0.186 A 
HETATM    4  C4  UNL     1     -33.793  15.330  -3.683  1.00 20.00     0.039 C 
HETATM    5  C5  UNL     1     -35.995  16.697  -3.259  1.00 20.00     0.049 A 
HETATM    6  C6  UNL     1     -33.390  13.853  -3.780  1.00 20.00     0.031 C 
HETATM    7  C7  UNL     1     -34.330  13.086  -4.716  1.00 20.00     0.176 C 
HETATM    8  C8  UNL     1     -37.480  16.294  -3.246  1.00 20.00     0.062 A 
HETATM    9  C9  UNL     1     -38.339  17.168  -4.144  1.00 20.00     0.018 C 
HETATM   10  O10 UNL     1     -38.427  14.158  -3.932  1.00 20.00    -0.290 OA
HETATM   11  O11 UNL     1     -35.709  13.154  -4.315  1.00 20.00    -0.347 OA
ENDROOT
TORSDOF 0
ENDMDL
MODEL 6
REMARK VINA RESULT:      -4.6     11.496     12.675
REMARK  0 active torsions:
REMARK  status: ('A' for Active; 'I' for Inactive)
ROOT
HETATM    1  C1  UNL     1     -36.462  14.607  -4.189  1.00 20.00     0.117 A 
HETATM    2  C2  UNL     1     -36.170  15.898  -4.365  1.00 20.00    -0.042 A 
HETATM    3  C3  UNL     1     -35.206  13.864  -4.329  1.00 20.00     0.186 A 
HETATM    4  C4  UNL     1     -37.223  16.950  -4.328  1.00 20.00     0.039 C 
HETATM    5  C5  UNL     1     -34.725  16.189  -4.607  1.00 20.00     0.049 A 
HETATM    6  C6  UNL     1     -38.609  16.294  -4.385  1.00 20.00     0.031 C 
HETATM    7  C7  UNL     1     -38.652  15.021  -3.532  1.00 20.00     0.176 C 
HETATM    8  C8  UNL     1     -34.063  14.800  -4.661  1.00 20.00     0.062 A 
HETATM    9  C9  UNL     1     -32.915  14.652  -3.676  1.00 20.00     0.018 C 
HETATM   10  O10 UNL     1     -35.117  12.653  -4.198  1.00 20.00    -0.290 OA
HETATM   11  O11 UNL     1     -37.672  14.044  -3.923  1.00 20.00    -0.347 OA
ENDROOT
TORSDOF 0
ENDMDL
MODEL 7
REMARK VINA RESULT:      -4.5     11.682     13.449
REMARK  0 active torsions:
REMARK  status: ('A' for Active; 'I' for Inactive)
ROOT
HETATM    1  C1  UNL     1     -36.035  14.935  -5.270  1.00 20.00     0.117 A 
HETATM    2  C2  UNL     1     -34.734  15.024  -5.551  1.00 20.00    -0.042 A 
HETATM    3  C3  UNL     1     -36.152  14.860  -3.811  1.00 20.00     0.186 A 
HETATM    4  C4  UNL     1     -34.238  15.080  -6.954  1.00 20.00     0.039 C 
HETATM    5  C5  UNL     1     -33.834  15.052  -4.359  1.00 20.00     0.049 A 
HETATM    6  C6  UNL     1     -35.373  14.708  -7.917  1.00 20.00     0.031 C 
HETATM    7  C7  UNL     1     -36.703  15.319  -7.462  1.00 20.00     0.176 C 
HETATM    8  C8  UNL     1     -34.784  14.865  -3.163  1.00 20.00     0.062 A 
HETATM    9  C9  UNL     1     -34.658  15.970  -2.128  1.00 20.00     0.018 C 
HETATM   10  O10 UNL     1     -37.218  14.798  -3.218  1.00 20.00    -0.290 OA
HETATM   11  O11 UNL     1     -37.087  14.919  -6.135  1.00 20.00    -0.347 OA
ENDROOT
TORSDOF 0
ENDMDL
MODEL 8
REMARK VINA RESULT:      -4.4     11.881     13.017
REMARK  0 active torsions:
REMARK  status: ('A' for Active; 'I' for Inactive)
ROOT
HETATM    1  C1  UNL     1     -33.972  17.021  -3.366  1.00 20.00     0.117 A 
HETATM    2  C2  UNL     1     -34.433  16.063  -2.559  1.00 20.00    -0.042 A 
HETATM    3  C3  UNL     1     -33.754  18.209  -2.535  1.00 20.00     0.186 A 
HETATM    4  C4  UNL     1     -34.803  14.716  -3.075  1.00 20.00     0.039 C 
HETATM    5  C5  UNL     1     -34.551  16.454  -1.122  1.00 20.00     0.049 A 
HETATM    6  C6  UNL     1     -34.870  14.752  -4.606  1.00 20.00     0.031 C 
HETATM    7  C7  UNL     1     -33.734  15.600  -5.188  1.00 20.00     0.176 C 
HETATM    8  C8  UNL     1     -34.162  17.943  -1.102  1.00 20.00     0.062 A 
HETATM    9  C9  UNL     1     -33.032  18.247  -0.133  1.00 20.00     0.018 C 
HETATM   10  O10 UNL     1     -33.307  19.262  -2.963  1.00 20.00    -0.290 OA
HETATM   11  O11 UNL     1     -33.731  16.954  -4.704  1.00 20.00    -0.347 OA
ENDROOT
TORSDOF 0
ENDMDL
MODEL 9
REMARK VINA RESULT:      -4.3     11.477     13.669
REMARK  0 active torsions:
REMARK  status: ('A' for Active; 'I' for Inactive)
ROOT
HETATM    1  C1  UNL     1     -34.046  15.668  -5.552  1.00 20.00     0.117 A 
HETATM    2  C2  UNL     1     -34.671  14.497  -5.691  1.00 20.00    -0.042 A 
HETATM    3  C3  UNL     1     -34.419  16.490  -6.706  1.00 20.00     0.186 A 
HETATM    4  C4  UNL     1     -34.491  13.391  -4.710  1.00 20.00     0.039 C 
HETATM    5  C5  UNL     1     -35.544  14.390  -6.899  1.00 20.00     0.049 A 
HETATM    6  C6  UNL     1     -33.305  13.707  -3.791  1.00 20.00     0.031 C 
HETATM    7  C7  UNL     1     -33.282  15.191  -3.410  1.00 20.00     0.176 C 
HETATM    8  C8  UNL     1     -35.323  15.719  -7.644  1.00 20.00     0.062 A 
HETATM    9  C9  UNL     1     -36.617  16.468  -7.917  1.00 20.00     0.018 C 
HETATM   10  O10 UNL     1     -34.037  17.638  -6.872  1.00 20.00    -0.290 OA
HETATM   11  O11 UNL     1     -33.218  16.068  -4.548  1.00 20.00    -0.347 OA
ENDROOT
TORSDOF 0
ENDMDL
