MODEL 1
REMARK VINA RESULT:      -3.9      0.000      0.000
REMARK  1 active torsions:
REMARK  status: ('A' for Active; 'I' for Inactive)
REMARK    1  A    between atoms: C3_3  and  C7_7 
ROOT
HETATM    1  C1  UNL     1     -34.795  15.942  -2.649  1.00 20.00     0.255 C 
HETATM    2  C2  UNL     1     -35.239  14.302  -4.074  1.00 20.00     0.157 C 
HETATM    3  C3  UNL     1     -35.276  15.631  -4.804  1.00 20.00     0.164 C 
HETATM    4  C4  UNL     1     -34.544  13.157  -4.782  1.00 20.00     0.043 C 
HETATM    5  O8  UNL     1     -34.564  14.621  -2.858  1.00 20.00    -0.314 OA
HETATM    6  O9  UNL     1     -35.351  16.563  -3.722  1.00 20.00    -0.313 OA
HETATM    7  S10 UNL     1     -34.436  16.713  -1.244  1.00 20.00    -0.025 SA
ENDROOT
BRANCH   3   8
HETATM    8  C7  UNL     1     -34.056  15.970  -5.651  1.00 20.00     0.010 C 
HETATM    9  C5  UNL     1     -34.358  15.796  -7.141  1.00 20.00     0.012 C 
HETATM   10  C6  UNL     1     -33.577  17.398  -5.373  1.00 20.00     0.012 C 
ENDBRANCH   3   8
TORSDOF 1
ENDMDL
MODEL 2
REMARK VINA RESULT:      -3.8      1.145      2.668
REMARK  1 active torsions:
REMARK  status: ('A' for Active; 'I' for Inactive)
REMARK    1  A    between atoms: C3_3  and  C7_7 
ROOT
HETATM    1  C1  UNL     1     -34.114  16.477  -2.555  1.00 20.00     0.255 C 
HETATM    2  C2  UNL     1     -33.372  16.883  -4.604  1.00 20.00     0.157 C 
HETATM    3  C3  UNL     1     -33.759  15.421  -4.486  1.00 20.00     0.164 C 
HETATM    4  C4  UNL     1     -33.794  17.596  -5.874  1.00 20.00     0.043 C 
HETATM    5  O8  UNL     1     -33.998  17.476  -3.467  1.00 20.00    -0.314 OA
HETATM    6  O9  UNL     1     -33.843  15.250  -3.069  1.00 20.00    -0.313 OA
HETATM    7  S10 UNL     1     -34.542  16.727  -0.988  1.00 20.00    -0.025 SA
ENDROOT
BRANCH   3   8
HETATM    8  C7  UNL     1     -35.095  15.024  -5.101  1.00 20.00     0.010 C 
HETATM    9  C5  UNL     1     -34.897  14.396  -6.482  1.00 20.00     0.012 C 
HETATM   10  C6  UNL     1     -35.852  14.058  -4.186  1.00 20.00     0.012 C 
ENDBRANCH   3   8
TORSDOF 1
ENDMDL
MODEL 3
REMARK VINA RESULT:      -3.7      2.459      3.270
REMARK  1 active torsions:
REMARK  status: ('A' for Active; 'I' for Inactive)
REMARK    1  A    between atoms: C3_3  and  C7_7 
ROOT
HETATM    1  C1  UNL     1     -34.054  17.392  -5.698  1.00 20.00     0.255 C 
HETATM    2  C2  UNL     1     -33.544  16.047  -4.011  1.00 20.00     0.157 C 
HETATM    3  C3  UNL     1     -34.774  15.519  -4.725  1.00 20.00     0.164 C 
HETATM    4  C4  UNL     1     -32.498  15.024  -3.614  1.00 20.00     0.043 C 
HETATM    5  O8  UNL     1     -33.003  16.978  -4.946  1.00 20.00    -0.314 OA
HETATM    6  O9  UNL     1     -35.176  16.651  -5.501  1.00 20.00    -0.313 OA
HETATM    7  S10 UNL     1     -33.978  18.657  -6.743  1.00 20.00    -0.025 SA
ENDROOT
BRANCH   3   8
HETATM    8  C7  UNL     1     -34.555  14.341  -5.666  1.00 20.00     0.010 C 
HETATM    9  C5  UNL     1     -34.848  13.015  -4.960  1.00 20.00     0.012 C 
HETATM   10  C6  UNL     1     -35.423  14.474  -6.920  1.00 20.00     0.012 C 
ENDBRANCH   3   8
TORSDOF 1
ENDMDL
MODEL 4
REMARK VINA RESULT:      -3.7      2.432      3.482
REMARK  1 active torsions:
REMARK  status: ('A' for Active; 'I' for Inactive)
REMARK    1  A    between atoms: C3_3  and  C7_7 
ROOT
HETATM    1  C1  UNL     1     -34.124  16.571  -5.670  1.00 20.00     0.255 C 
HETATM    2  C2  UNL     1     -33.549  14.963  -4.256  1.00 20.00     0.157 C 
HETATM    3  C3  UNL     1     -33.649  16.280  -3.511  1.00 20.00     0.164 C 
HETATM    4  C4  UNL     1     -34.145  13.749  -3.571  1.00 20.00     0.043 C 
HETATM    5  O8  UNL     1     -34.233  15.232  -5.480  1.00 20.00    -0.314 OA
HETATM    6  O9  UNL     1     -33.646  17.228  -4.581  1.00 20.00    -0.313 OA
HETATM    7  S10 UNL     1     -34.532  17.323  -7.073  1.00 20.00    -0.025 SA
ENDROOT
BRANCH   3   8
HETATM    8  C7  UNL     1     -34.909  16.494  -2.681  1.00 20.00     0.010 C 
HETATM    9  C5  UNL     1     -34.591  16.454  -1.184  1.00 20.00     0.012 C 
HETATM   10  C6  UNL     1     -35.585  17.819  -3.042  1.00 20.00     0.012 C 
ENDBRANCH   3   8
TORSDOF 1
ENDMDL
MODEL 5
REMARK VINA RESULT:      -3.6      2.050      3.299
REMARK  1 active torsions:
REMARK  status: ('A' for Active; 'I' for Inactive)
REMARK    1  A    between atoms: C3_3  and  C7_7 
ROOT
HETATM    1  C1  UNL     1     -33.671  17.654  -5.329  1.00 20.00     0.255 C 
HETATM    2  C2  UNL     1     -34.041  15.765  -6.428  1.00 20.00     0.157 C 
HETATM    3  C3  UNL     1     -33.574  15.448  -5.020  1.00 20.00     0.164 C 
HETATM    4  C4  UNL     1     -35.192  14.937  -6.964  1.00 20.00     0.043 C 
HETATM    5  O8  UNL     1     -34.411  17.140  -6.344  1.00 20.00    -0.314 OA
HETATM    6  O9  UNL     1     -33.036  16.703  -4.596  1.00 20.00    -0.313 OA
HETATM    7  S10 UNL     1     -33.558  19.263  -5.014  1.00 20.00    -0.025 SA
ENDROOT
BRANCH   3   8
HETATM    8  C7  UNL     1     -34.652  15.026  -4.030  1.00 20.00     0.010 C 
HETATM    9  C5  UNL     1     -34.706  13.502  -3.897  1.00 20.00     0.012 C 
HETATM   10  C6  UNL     1     -34.418  15.667  -2.660  1.00 20.00     0.012 C 
ENDBRANCH   3   8
TORSDOF 1
ENDMDL
MODEL 6
REMARK VINA RESULT:      -3.6     12.669     13.704
REMARK  1 active torsions:
REMARK  status: ('A' for Active; 'I' for Inactive)
REMARK    1  A    between atoms: C3_3  and  C7_7 
ROOT
HETATM    1  C1  UNL     1     -43.279   3.944  -3.067  1.00 20.00     0.255 C 
HETATM    2  C2  UNL     1     -43.417   6.150  -2.900  1.00 20.00     0.157 C 
HETATM    3  C3  UNL     1     -42.796   5.585  -1.637  1.00 20.00     0.164 C 
HETATM    4  C4  UNL     1     -42.779   7.402  -3.468  1.00 20.00     0.043 C 
HETATM    5  O8  UNL     1     -43.308   5.070  -3.825  1.00 20.00    -0.314 OA
HETATM    6  O9  UNL     1     -43.121   4.196  -1.742  1.00 20.00    -0.313 OA
HETATM    7  S10 UNL     1     -43.416   2.430  -3.690  1.00 20.00    -0.025 SA
ENDROOT
BRANCH   3   8
HETATM    8  C7  UNL     1     -41.283   5.719  -1.509  1.00 20.00     0.010 C 
HETATM    9  C5  UNL     1     -40.914   6.787  -0.478  1.00 20.00     0.012 C 
HETATM   10  C6  UNL     1     -40.645   4.379  -1.133  1.00 20.00     0.012 C 
ENDBRANCH   3   8
TORSDOF 1
ENDMDL
MODEL 7
REMARK VINA RESULT:      -3.6      1.666      2.456
REMARK  1 active torsions:
REMARK  status: ('A' for Active; 'I' for Inactive)
REMARK    1  A    between atoms: C3_3  and  C7_7 
ROOT
HETATM    1  C1  UNL     1     -34.496  16.691  -2.332  1.00 20.00     0.255 C 
HETATM    2  C2  UNL     1     -36.070  15.944  -3.702  1.00 20.00     0.157 C 
HETATM    3  C3  UNL     1     -34.714  15.455  -4.175  1.00 20.00     0.164 C 
HETATM    4  C4  UNL     1     -37.203  14.937  -3.733  1.00 20.00     0.043 C 
HETATM    5  O8  UNL     1     -35.813  16.365  -2.363  1.00 20.00    -0.314 OA
HETATM    6  O9  UNL     1     -33.823  16.302  -3.445  1.00 20.00    -0.313 OA
HETATM    7  S10 UNL     1     -33.786  17.473  -1.073  1.00 20.00    -0.025 SA
ENDROOT
BRANCH   3   8
HETATM    8  C7  UNL     1     -34.370  14.005  -3.857  1.00 20.00     0.010 C 
HETATM    9  C5  UNL     1     -34.708  13.091  -5.038  1.00 20.00     0.012 C 
HETATM   10  C6  UNL     1     -32.892  13.862  -3.485  1.00 20.00     0.012 C 
ENDBRANCH   3   8
TORSDOF 1
ENDMDL
MODEL 8
REMARK VINA RESULT:      -3.6      2.436      2.984
REMARK  1 active torsions:
REMARK  status: ('A' for Active; 'I' for Inactive)
REMARK    1  A    between atoms: C3_3  and  C7_7 
ROOT
HETATM    1  C1  UNL     1     -37.523  15.237  -3.801  1.00 20.00     0.255 C 
HETATM    2  C2  UNL     1     -35.799  14.333  -4.862  1.00 20.00     0.157 C 
HETATM    3  C3  UNL     1     -35.361  15.619  -4.188  1.00 20.00     0.164 C 
HETATM    4  C4  UNL     1     -34.855  13.152  -4.751  1.00 20.00     0.043 C 
HETATM    5  O8  UNL     1     -37.041  14.040  -4.223  1.00 20.00    -0.314 OA
HETATM    6  O9  UNL     1     -36.614  16.242  -3.892  1.00 20.00    -0.313 OA
HETATM    7  S10 UNL     1     -39.050  15.449  -3.233  1.00 20.00    -0.025 SA
ENDROOT
BRANCH   3   8
HETATM    8  C7  UNL     1     -34.578  15.468  -2.889  1.00 20.00     0.010 C 
HETATM    9  C5  UNL     1     -33.077  15.638  -3.132  1.00 20.00     0.012 C 
HETATM   10  C6  UNL     1     -35.060  16.474  -1.840  1.00 20.00     0.012 C 
ENDBRANCH   3   8
TORSDOF 1
ENDMDL
MODEL 9
REMARK VINA RESULT:      -3.6      2.650      3.634
REMARK  1 active torsions:
REMARK  status: ('A' for Active; 'I' for Inactive)
REMARK    1  A    between atoms: C3_3  and  C7_7 
ROOT
HETATM    1  C1  UNL     1     -35.237  14.735  -5.951  1.00 20.00     0.255 C 
HETATM    2  C2  UNL     1     -36.570  14.480  -4.198  1.00 20.00     0.157 C 
HETATM    3  C3  UNL     1     -35.151  14.726  -3.723  1.00 20.00     0.164 C 
HETATM    4  C4  UNL     1     -37.671  15.213  -3.458  1.00 20.00     0.043 C 
HETATM    5  O8  UNL     1     -36.529  14.889  -5.565  1.00 20.00    -0.314 OA
HETATM    6  O9  UNL     1     -34.394  14.493  -4.914  1.00 20.00    -0.313 OA
HETATM    7  S10 UNL     1     -34.742  14.836  -7.515  1.00 20.00    -0.025 SA
ENDROOT
BRANCH   3   8
HETATM    8  C7  UNL     1     -34.840  16.131  -3.221  1.00 20.00     0.010 C 
HETATM    9  C5  UNL     1     -34.689  16.147  -1.698  1.00 20.00     0.012 C 
HETATM   10  C6  UNL     1     -33.574  16.681  -3.883  1.00 20.00     0.012 C 
ENDBRANCH   3   8
TORSDOF 1
ENDMDL
