MODEL 1
REMARK VINA RESULT:      -4.8      0.000      0.000
REMARK  1 active torsions:
REMARK  status: ('A' for Active; 'I' for Inactive)
REMARK    1  A    between atoms: C2_2  and  C3_3 
ROOT
HETATM    1  C1  UNL     1     -33.076   7.155   5.384  1.00 20.00    -0.016 C 
HETATM    2  C2  UNL     1     -32.971   6.588   4.180  1.00 20.00    -0.020 C 
HETATM    3  C4  UNL     1     -34.004   6.385   6.263  1.00 20.00     0.032 C 
HETATM    4  C5  UNL     1     -33.804   5.351   4.044  1.00 20.00     0.021 C 
HETATM    5  C6  UNL     1     -34.753   5.494   5.257  1.00 20.00    -0.007 C 
HETATM    6  C7  UNL     1     -34.578   5.248   2.734  1.00 20.00     0.015 C 
HETATM    7  C8  UNL     1     -35.167   4.157   5.857  1.00 20.00     0.011 C 
ENDROOT
BRANCH   2   8
HETATM    8  C3  UNL     1     -32.079   7.115   3.159  1.00 20.00     0.265 C 
HETATM    9  O9  UNL     1     -32.360   8.090   2.463  1.00 20.00    -0.302 OA
ENDBRANCH   2   8
TORSDOF 1
ENDMDL
MODEL 2
REMARK VINA RESULT:      -4.3      2.336      4.064
REMARK  1 active torsions:
REMARK  status: ('A' for Active; 'I' for Inactive)
REMARK    1  A    between atoms: C2_2  and  C3_3 
ROOT
HETATM    1  C1  UNL     1     -34.819   5.155   3.740  1.00 20.00    -0.016 C 
HETATM    2  C2  UNL     1     -34.486   5.331   5.021  1.00 20.00    -0.020 C 
HETATM    3  C4  UNL     1     -33.906   5.914   2.836  1.00 20.00     0.032 C 
HETATM    4  C5  UNL     1     -33.303   6.233   5.196  1.00 20.00     0.021 C 
HETATM    5  C6  UNL     1     -33.225   6.899   3.801  1.00 20.00    -0.007 C 
HETATM    6  C7  UNL     1     -33.454   7.269   6.305  1.00 20.00     0.015 C 
HETATM    7  C8  UNL     1     -31.803   7.243   3.378  1.00 20.00     0.011 C 
ENDROOT
BRANCH   2   8
HETATM    8  C3  UNL     1     -35.187   4.649   6.096  1.00 20.00     0.265 C 
HETATM    9  O9  UNL     1     -35.479   3.454   6.054  1.00 20.00    -0.302 OA
ENDBRANCH   2   8
TORSDOF 1
ENDMDL
MODEL 3
REMARK VINA RESULT:      -4.2     11.738     12.175
REMARK  1 active torsions:
REMARK  status: ('A' for Active; 'I' for Inactive)
REMARK    1  A    between atoms: C2_2  and  C3_3 
ROOT
HETATM    1  C1  UNL     1     -33.261  15.277  -3.995  1.00 20.00    -0.016 C 
HETATM    2  C2  UNL     1     -34.448  14.667  -4.051  1.00 20.00    -0.020 C 
HETATM    3  C4  UNL     1     -33.189  16.209  -2.832  1.00 20.00     0.032 C 
HETATM    4  C5  UNL     1     -35.369  15.083  -2.946  1.00 20.00     0.021 C 
HETATM    5  C6  UNL     1     -34.667  16.365  -2.438  1.00 20.00    -0.007 C 
HETATM    6  C7  UNL     1     -36.801  15.364  -3.386  1.00 20.00     0.015 C 
HETATM    7  C8  UNL     1     -34.851  16.599  -0.944  1.00 20.00     0.011 C 
ENDROOT
BRANCH   2   8
HETATM    8  C3  UNL     1     -34.748  13.664  -5.060  1.00 20.00     0.265 C 
HETATM    9  O9  UNL     1     -34.856  12.466  -4.803  1.00 20.00    -0.302 OA
ENDBRANCH   2   8
TORSDOF 1
ENDMDL
MODEL 4
REMARK VINA RESULT:      -4.2      1.503      2.753
REMARK  1 active torsions:
REMARK  status: ('A' for Active; 'I' for Inactive)
REMARK    1  A    between atoms: C2_2  and  C3_3 
ROOT
HETATM    1  C1  UNL     1     -35.132   4.753   4.860  1.00 20.00    -0.016 C 
HETATM    2  C2  UNL     1     -34.563   5.513   3.921  1.00 20.00    -0.020 C 
HETATM    3  C4  UNL     1     -34.810   5.255   6.228  1.00 20.00     0.032 C 
HETATM    4  C5  UNL     1     -33.766   6.645   4.492  1.00 20.00     0.021 C 
HETATM    5  C6  UNL     1     -33.622   6.196   5.966  1.00 20.00    -0.007 C 
HETATM    6  C7  UNL     1     -32.407   6.859   3.835  1.00 20.00     0.015 C 
HETATM    7  C8  UNL     1     -33.571   7.360   6.946  1.00 20.00     0.011 C 
ENDROOT
BRANCH   2   8
HETATM    8  C3  UNL     1     -34.774   5.267   2.504  1.00 20.00     0.265 C 
HETATM    9  O9  UNL     1     -33.948   4.698   1.792  1.00 20.00    -0.302 OA
ENDBRANCH   2   8
TORSDOF 1
ENDMDL
MODEL 5
REMARK VINA RESULT:      -4.2     11.723     13.334
REMARK  1 active torsions:
REMARK  status: ('A' for Active; 'I' for Inactive)
REMARK    1  A    between atoms: C2_2  and  C3_3 
ROOT
HETATM    1  C1  UNL     1     -34.242  15.290  -3.027  1.00 20.00    -0.016 C 
HETATM    2  C2  UNL     1     -34.794  14.930  -4.188  1.00 20.00    -0.020 C 
HETATM    3  C4  UNL     1     -33.587  16.627  -3.134  1.00 20.00     0.032 C 
HETATM    4  C5  UNL     1     -34.606  15.954  -5.266  1.00 20.00     0.021 C 
HETATM    5  C6  UNL     1     -33.484  16.827  -4.655  1.00 20.00    -0.007 C 
HETATM    6  C7  UNL     1     -34.199  15.383  -6.619  1.00 20.00     0.015 C 
HETATM    7  C8  UNL     1     -33.575  18.292  -5.059  1.00 20.00     0.011 C 
ENDROOT
BRANCH   2   8
HETATM    8  C3  UNL     1     -35.546  13.693  -4.329  1.00 20.00     0.265 C 
HETATM    9  O9  UNL     1     -35.010  12.588  -4.401  1.00 20.00    -0.302 OA
ENDBRANCH   2   8
TORSDOF 1
ENDMDL
MODEL 6
REMARK VINA RESULT:      -4.1     11.619     13.163
REMARK  1 active torsions:
REMARK  status: ('A' for Active; 'I' for Inactive)
REMARK    1  A    between atoms: C2_2  and  C3_3 
ROOT
HETATM    1  C1  UNL     1     -34.458  13.560  -5.040  1.00 20.00    -0.016 C 
HETATM    2  C2  UNL     1     -34.444  14.726  -5.691  1.00 20.00    -0.020 C 
HETATM    3  C4  UNL     1     -34.409  13.768  -3.562  1.00 20.00     0.032 C 
HETATM    4  C5  UNL     1     -34.382  15.907  -4.771  1.00 20.00     0.021 C 
HETATM    5  C6  UNL     1     -33.951  15.231  -3.447  1.00 20.00    -0.007 C 
HETATM    6  C7  UNL     1     -33.397  16.990  -5.195  1.00 20.00     0.015 C 
HETATM    7  C8  UNL     1     -34.511  15.923  -2.211  1.00 20.00     0.011 C 
ENDROOT
BRANCH   2   8
HETATM    8  C3  UNL     1     -34.545  14.796  -7.140  1.00 20.00     0.265 C 
HETATM    9  O9  UNL     1     -35.470  14.288  -7.773  1.00 20.00    -0.302 OA
ENDBRANCH   2   8
TORSDOF 1
ENDMDL
MODEL 7
REMARK VINA RESULT:      -4.1     11.853     12.334
REMARK  1 active torsions:
REMARK  status: ('A' for Active; 'I' for Inactive)
REMARK    1  A    between atoms: C2_2  and  C3_3 
ROOT
HETATM    1  C1  UNL     1     -35.986  14.994  -3.421  1.00 20.00    -0.016 C 
HETATM    2  C2  UNL     1     -34.877  14.685  -4.097  1.00 20.00    -0.020 C 
HETATM    3  C4  UNL     1     -35.733  16.093  -2.443  1.00 20.00     0.032 C 
HETATM    4  C5  UNL     1     -33.697  15.515  -3.691  1.00 20.00     0.021 C 
HETATM    5  C6  UNL     1     -34.197  16.112  -2.355  1.00 20.00    -0.007 C 
HETATM    6  C7  UNL     1     -32.403  14.730  -3.507  1.00 20.00     0.015 C 
HETATM    7  C8  UNL     1     -33.646  17.504  -2.075  1.00 20.00     0.011 C 
ENDROOT
BRANCH   2   8
HETATM    8  C3  UNL     1     -34.875  13.685  -5.153  1.00 20.00     0.265 C 
HETATM    9  O9  UNL     1     -34.807  12.477  -4.931  1.00 20.00    -0.302 OA
ENDBRANCH   2   8
TORSDOF 1
ENDMDL
MODEL 8
REMARK VINA RESULT:      -4.0     11.864     13.655
REMARK  1 active torsions:
REMARK  status: ('A' for Active; 'I' for Inactive)
REMARK    1  A    between atoms: C2_2  and  C3_3 
ROOT
HETATM    1  C1  UNL     1     -34.461  15.068  -6.248  1.00 20.00    -0.016 C 
HETATM    2  C2  UNL     1     -34.129  14.736  -4.998  1.00 20.00    -0.020 C 
HETATM    3  C4  UNL     1     -34.362  16.542  -6.459  1.00 20.00     0.032 C 
HETATM    4  C5  UNL     1     -33.756  15.922  -4.161  1.00 20.00     0.021 C 
HETATM    5  C6  UNL     1     -34.312  17.081  -5.020  1.00 20.00    -0.007 C 
HETATM    6  C7  UNL     1     -34.355  15.923  -2.759  1.00 20.00     0.015 C 
HETATM    7  C8  UNL     1     -33.495  18.361  -4.904  1.00 20.00     0.011 C 
ENDROOT
BRANCH   2   8
HETATM    8  C3  UNL     1     -34.087  13.352  -4.557  1.00 20.00     0.265 C 
HETATM    9  O9  UNL     1     -35.099  12.682  -4.353  1.00 20.00    -0.302 OA
ENDBRANCH   2   8
TORSDOF 1
ENDMDL
MODEL 9
REMARK VINA RESULT:      -4.0     11.678     12.336
REMARK  1 active torsions:
REMARK  status: ('A' for Active; 'I' for Inactive)
REMARK    1  A    between atoms: C2_2  and  C3_3 
ROOT
HETATM    1  C1  UNL     1     -35.855  16.036  -2.593  1.00 20.00    -0.016 C 
HETATM    2  C2  UNL     1     -36.142  15.244  -3.630  1.00 20.00    -0.020 C 
HETATM    3  C4  UNL     1     -34.384  16.085  -2.345  1.00 20.00     0.032 C 
HETATM    4  C5  UNL     1     -34.924  14.630  -4.248  1.00 20.00     0.021 C 
HETATM    5  C6  UNL     1     -33.871  14.875  -3.142  1.00 20.00    -0.007 C 
HETATM    6  C7  UNL     1     -35.059  13.147  -4.577  1.00 20.00     0.015 C 
HETATM    7  C8  UNL     1     -32.465  15.088  -3.688  1.00 20.00     0.011 C 
ENDROOT
BRANCH   2   8
HETATM    8  C3  UNL     1     -37.504  15.076  -4.112  1.00 20.00     0.265 C 
HETATM    9  O9  UNL     1     -38.248  14.178  -3.719  1.00 20.00    -0.302 OA
ENDBRANCH   2   8
TORSDOF 1
ENDMDL
