MODEL 1
REMARK VINA RESULT:      -4.4      0.000      0.000
REMARK  1 active torsions:
REMARK  status: ('A' for Active; 'I' for Inactive)
REMARK    1  A    between atoms: C4_4  and  C5_5 
ROOT
HETATM    1  C1  UNL     1     -32.020   8.085   2.173  1.00 20.00     0.015 C 
HETATM    2  C2  UNL     1     -32.454   7.180   2.832  1.00 20.00    -0.083 C 
HETATM    3  C3  UNL     1     -32.970   6.104   3.617  1.00 20.00     0.229 A 
HETATM    4  C4  UNL     1     -34.434   6.081   3.974  1.00 20.00     0.177 A 
HETATM    5  O6  UNL     1     -33.444   6.526   4.907  1.00 20.00    -0.361 OA
ENDROOT
BRANCH   4   6
HETATM    6  C5  UNL     1     -35.110   4.812   4.353  1.00 20.00     0.150 C 
HETATM    7 CL7  UNL     1     -35.056   4.548   6.119  1.00 20.00    -0.128 Cl
ENDBRANCH   4   6
TORSDOF 1
ENDMDL
MODEL 2
REMARK VINA RESULT:      -4.0      2.521      4.006
REMARK  1 active torsions:
REMARK  status: ('A' for Active; 'I' for Inactive)
REMARK    1  A    between atoms: C4_4  and  C5_5 
ROOT
HETATM    1  C1  UNL     1     -35.128   4.447   6.238  1.00 20.00     0.015 C 
HETATM    2  C2  UNL     1     -34.722   4.899   5.203  1.00 20.00    -0.083 C 
HETATM    3  C3  UNL     1     -34.240   5.437   3.971  1.00 20.00     0.229 A 
HETATM    4  C4  UNL     1     -33.012   6.310   3.972  1.00 20.00     0.177 A 
HETATM    5  O6  UNL     1     -34.328   6.870   3.910  1.00 20.00    -0.361 OA
ENDROOT
BRANCH   4   6
HETATM    6  C5  UNL     1     -32.205   6.500   2.737  1.00 20.00     0.150 C 
HETATM    7 CL7  UNL     1     -32.141   8.220   2.259  1.00 20.00    -0.128 Cl
ENDBRANCH   4   6
TORSDOF 1
ENDMDL
MODEL 3
REMARK VINA RESULT:      -4.0      2.949      4.195
REMARK  1 active torsions:
REMARK  status: ('A' for Active; 'I' for Inactive)
REMARK    1  A    between atoms: C4_4  and  C5_5 
ROOT
HETATM    1  C1  UNL     1     -35.233   5.020   4.410  1.00 20.00     0.015 C 
HETATM    2  C2  UNL     1     -34.257   5.701   4.252  1.00 20.00    -0.083 C 
HETATM    3  C3  UNL     1     -33.095   6.510   4.064  1.00 20.00     0.229 A 
HETATM    4  C4  UNL     1     -32.728   6.973   2.678  1.00 20.00     0.177 A 
HETATM    5  O6  UNL     1     -32.074   5.857   3.291  1.00 20.00    -0.361 OA
ENDROOT
BRANCH   4   6
HETATM    6  C5  UNL     1     -31.856   8.159   2.471  1.00 20.00     0.150 C 
HETATM    7 CL7  UNL     1     -32.150   8.916   0.880  1.00 20.00    -0.128 Cl
ENDBRANCH   4   6
TORSDOF 1
ENDMDL
MODEL 4
REMARK VINA RESULT:      -3.4     11.716     11.986
REMARK  1 active torsions:
REMARK  status: ('A' for Active; 'I' for Inactive)
REMARK    1  A    between atoms: C4_4  and  C5_5 
ROOT
HETATM    1  C1  UNL     1     -34.469  16.757  -0.734  1.00 20.00     0.015 C 
HETATM    2  C2  UNL     1     -34.803  16.202  -1.745  1.00 20.00    -0.083 C 
HETATM    3  C3  UNL     1     -35.200  15.542  -2.948  1.00 20.00     0.229 A 
HETATM    4  C4  UNL     1     -34.427  14.340  -3.427  1.00 20.00     0.177 A 
HETATM    5  O6  UNL     1     -34.217  15.638  -3.993  1.00 20.00    -0.361 OA
ENDROOT
BRANCH   4   6
HETATM    6  C5  UNL     1     -35.039  13.356  -4.357  1.00 20.00     0.150 C 
HETATM    7 CL7  UNL     1     -35.028  13.955  -6.040  1.00 20.00    -0.128 Cl
ENDBRANCH   4   6
TORSDOF 1
ENDMDL
MODEL 5
REMARK VINA RESULT:      -3.4     11.801     11.966
REMARK  1 active torsions:
REMARK  status: ('A' for Active; 'I' for Inactive)
REMARK    1  A    between atoms: C4_4  and  C5_5 
ROOT
HETATM    1  C1  UNL     1     -34.615  16.352  -1.570  1.00 20.00     0.015 C 
HETATM    2  C2  UNL     1     -34.318  15.634  -2.485  1.00 20.00    -0.083 C 
HETATM    3  C3  UNL     1     -33.965  14.780  -3.574  1.00 20.00     0.229 A 
HETATM    4  C4  UNL     1     -35.021  13.913  -4.211  1.00 20.00     0.177 A 
HETATM    5  O6  UNL     1     -34.093  13.384  -3.258  1.00 20.00    -0.361 OA
ENDROOT
BRANCH   4   6
HETATM    6  C5  UNL     1     -34.851  13.387  -5.591  1.00 20.00     0.150 C 
HETATM    7 CL7  UNL     1     -35.506  14.522  -6.806  1.00 20.00    -0.128 Cl
ENDBRANCH   4   6
TORSDOF 1
ENDMDL
MODEL 6
REMARK VINA RESULT:      -3.3     11.692     12.089
REMARK  1 active torsions:
REMARK  status: ('A' for Active; 'I' for Inactive)
REMARK    1  A    between atoms: C4_4  and  C5_5 
ROOT
HETATM    1  C1  UNL     1     -34.599  13.176  -4.866  1.00 20.00     0.015 C 
HETATM    2  C2  UNL     1     -34.045  14.025  -4.223  1.00 20.00    -0.083 C 
HETATM    3  C3  UNL     1     -33.385  15.035  -3.457  1.00 20.00     0.229 A 
HETATM    4  C4  UNL     1     -34.159  16.246  -3.002  1.00 20.00     0.177 A 
HETATM    5  O6  UNL     1     -33.298  16.294  -4.145  1.00 20.00    -0.361 OA
ENDROOT
BRANCH   4   6
HETATM    6  C5  UNL     1     -33.695  17.062  -1.849  1.00 20.00     0.150 C 
HETATM    7 CL7  UNL     1     -34.693  16.763  -0.397  1.00 20.00    -0.128 Cl
ENDBRANCH   4   6
TORSDOF 1
ENDMDL
MODEL 7
REMARK VINA RESULT:      -3.2     11.872     12.112
REMARK  1 active torsions:
REMARK  status: ('A' for Active; 'I' for Inactive)
REMARK    1  A    between atoms: C4_4  and  C5_5 
ROOT
HETATM    1  C1  UNL     1     -34.721  17.024  -0.156  1.00 20.00     0.015 C 
HETATM    2  C2  UNL     1     -34.728  16.745  -1.323  1.00 20.00    -0.083 C 
HETATM    3  C3  UNL     1     -34.736  16.414  -2.713  1.00 20.00     0.229 A 
HETATM    4  C4  UNL     1     -33.785  15.365  -3.232  1.00 20.00     0.177 A 
HETATM    5  O6  UNL     1     -33.512  16.762  -3.381  1.00 20.00    -0.361 OA
ENDROOT
BRANCH   4   6
HETATM    6  C5  UNL     1     -34.054  14.652  -4.508  1.00 20.00     0.150 C 
HETATM    7 CL7  UNL     1     -35.070  13.206  -4.245  1.00 20.00    -0.128 Cl
ENDBRANCH   4   6
TORSDOF 1
ENDMDL
MODEL 8
REMARK VINA RESULT:      -3.2     12.414     13.030
REMARK  1 active torsions:
REMARK  status: ('A' for Active; 'I' for Inactive)
REMARK    1  A    between atoms: C4_4  and  C5_5 
ROOT
HETATM    1  C1  UNL     1     -34.747  16.958  -0.367  1.00 20.00     0.015 C 
HETATM    2  C2  UNL     1     -34.340  16.542  -1.417  1.00 20.00    -0.083 C 
HETATM    3  C3  UNL     1     -33.855  16.047  -2.666  1.00 20.00     0.229 A 
HETATM    4  C4  UNL     1     -34.138  16.817  -3.930  1.00 20.00     0.177 A 
HETATM    5  O6  UNL     1     -34.908  15.667  -3.566  1.00 20.00    -0.361 OA
ENDROOT
BRANCH   4   6
HETATM    6  C5  UNL     1     -33.297  16.635  -5.143  1.00 20.00     0.150 C 
HETATM    7 CL7  UNL     1     -34.116  15.611  -6.356  1.00 20.00    -0.128 Cl
ENDBRANCH   4   6
TORSDOF 1
ENDMDL
MODEL 9
REMARK VINA RESULT:      -3.0      9.834     10.343
REMARK  1 active torsions:
REMARK  status: ('A' for Active; 'I' for Inactive)
REMARK    1  A    between atoms: C4_4  and  C5_5 
ROOT
HETATM    1  C1  UNL     1     -41.136   7.223  -0.867  1.00 20.00     0.015 C 
HETATM    2  C2  UNL     1     -41.114   6.039  -1.068  1.00 20.00    -0.083 C 
HETATM    3  C3  UNL     1     -41.088   4.631  -1.307  1.00 20.00     0.229 A 
HETATM    4  C4  UNL     1     -41.926   4.051  -2.418  1.00 20.00     0.177 A 
HETATM    5  O6  UNL     1     -42.351   3.994  -1.052  1.00 20.00    -0.361 OA
ENDROOT
BRANCH   4   6
HETATM    6  C5  UNL     1     -41.598   2.729  -3.014  1.00 20.00     0.150 C 
HETATM    7 CL7  UNL     1     -42.901   1.542  -2.726  1.00 20.00    -0.128 Cl
ENDBRANCH   4   6
TORSDOF 1
ENDMDL
