MODEL 1
REMARK VINA RESULT:      -5.1      0.000      0.000
REMARK  1 active torsions:
REMARK  status: ('A' for Active; 'I' for Inactive)
REMARK    1  A    between atoms: C1_1  and  C10_10 
ROOT
HETATM    1  C1  UNL     1     -34.634  14.632  -5.452  1.00 20.00     0.025 C 
HETATM    2  C2  UNL     1     -33.944  15.662  -4.977  1.00 20.00    -0.038 C 
HETATM    3  C3  UNL     1     -34.528  13.596  -4.406  1.00 20.00     0.290 C 
HETATM    4  C4  UNL     1     -33.940  17.115  -5.282  1.00 20.00     0.038 C 
HETATM    5  C5  UNL     1     -33.638  17.720  -3.899  1.00 20.00     0.007 C 
HETATM    6  C6  UNL     1     -33.781  16.570  -2.888  1.00 20.00     0.037 C 
HETATM    7  C7  UNL     1     -33.316  15.365  -3.681  1.00 20.00     0.162 C 
HETATM    8  O11 UNL     1     -35.006  12.477  -4.471  1.00 20.00    -0.260 OA
HETATM    9  O12 UNL     1     -33.864  14.112  -3.317  1.00 20.00    -0.308 OA
ENDROOT
BRANCH   1  10
HETATM   10  C10 UNL     1     -35.519  14.515  -6.630  1.00 20.00     0.017 C 
HETATM   11  C8  UNL     1     -36.802  15.333  -6.438  1.00 20.00     0.015 C 
HETATM   12  C9  UNL     1     -34.805  14.947  -7.916  1.00 20.00     0.015 C 
ENDBRANCH   1  10
TORSDOF 1
ENDMDL
MODEL 2
REMARK VINA RESULT:      -4.9      1.683      4.059
REMARK  1 active torsions:
REMARK  status: ('A' for Active; 'I' for Inactive)
REMARK    1  A    between atoms: C1_1  and  C10_10 
ROOT
HETATM    1  C1  UNL     1     -34.273  15.480  -2.940  1.00 20.00     0.025 C 
HETATM    2  C2  UNL     1     -35.474  15.145  -3.398  1.00 20.00    -0.038 C 
HETATM    3  C3  UNL     1     -33.335  14.614  -3.681  1.00 20.00     0.290 C 
HETATM    4  C4  UNL     1     -36.790  15.830  -3.406  1.00 20.00     0.038 C 
HETATM    5  C5  UNL     1     -37.385  15.342  -4.739  1.00 20.00     0.007 C 
HETATM    6  C6  UNL     1     -36.236  14.655  -5.495  1.00 20.00     0.037 C 
HETATM    7  C7  UNL     1     -35.414  14.047  -4.376  1.00 20.00     0.162 C 
HETATM    8  O11 UNL     1     -32.126  14.593  -3.529  1.00 20.00    -0.260 OA
HETATM    9  O12 UNL     1     -34.029  13.884  -4.618  1.00 20.00    -0.308 OA
ENDROOT
BRANCH   1  10
HETATM   10  C10 UNL     1     -33.842  16.588  -2.063  1.00 20.00     0.017 C 
HETATM   11  C8  UNL     1     -33.931  17.934  -2.793  1.00 20.00     0.015 C 
HETATM   12  C9  UNL     1     -34.663  16.634  -0.769  1.00 20.00     0.015 C 
ENDBRANCH   1  10
TORSDOF 1
ENDMDL
MODEL 3
REMARK VINA RESULT:      -4.9      2.368      3.608
REMARK  1 active torsions:
REMARK  status: ('A' for Active; 'I' for Inactive)
REMARK    1  A    between atoms: C1_1  and  C10_10 
ROOT
HETATM    1  C1  UNL     1     -34.294  15.914  -3.183  1.00 20.00     0.025 C 
HETATM    2  C2  UNL     1     -34.500  16.762  -2.182  1.00 20.00    -0.038 C 
HETATM    3  C3  UNL     1     -33.696  16.737  -4.252  1.00 20.00     0.290 C 
HETATM    4  C4  UNL     1     -34.694  16.586  -0.720  1.00 20.00     0.038 C 
HETATM    5  C5  UNL     1     -34.015  17.851  -0.165  1.00 20.00     0.007 C 
HETATM    6  C6  UNL     1     -33.251  18.480  -1.341  1.00 20.00     0.037 C 
HETATM    7  C7  UNL     1     -34.129  18.141  -2.530  1.00 20.00     0.162 C 
HETATM    8  O11 UNL     1     -33.383  16.334  -5.359  1.00 20.00    -0.260 OA
HETATM    9  O12 UNL     1     -33.483  18.012  -3.784  1.00 20.00    -0.308 OA
ENDROOT
BRANCH   1  10
HETATM   10  C10 UNL     1     -34.396  14.441  -3.246  1.00 20.00     0.017 C 
HETATM   11  C8  UNL     1     -35.498  14.007  -4.221  1.00 20.00     0.015 C 
HETATM   12  C9  UNL     1     -33.061  13.800  -3.641  1.00 20.00     0.015 C 
ENDBRANCH   1  10
TORSDOF 1
ENDMDL
MODEL 4
REMARK VINA RESULT:      -4.7      1.159      3.680
REMARK  1 active torsions:
REMARK  status: ('A' for Active; 'I' for Inactive)
REMARK    1  A    between atoms: C1_1  and  C10_10 
ROOT
HETATM    1  C1  UNL     1     -34.437  15.028  -3.647  1.00 20.00     0.025 C 
HETATM    2  C2  UNL     1     -35.476  15.093  -4.472  1.00 20.00    -0.038 C 
HETATM    3  C3  UNL     1     -33.766  13.759  -3.992  1.00 20.00     0.290 C 
HETATM    4  C4  UNL     1     -36.328  16.210  -4.952  1.00 20.00     0.038 C 
HETATM    5  C5  UNL     1     -36.650  15.756  -6.388  1.00 20.00     0.007 C 
HETATM    6  C6  UNL     1     -35.719  14.569  -6.682  1.00 20.00     0.037 C 
HETATM    7  C7  UNL     1     -35.588  13.902  -5.327  1.00 20.00     0.162 C 
HETATM    8  O11 UNL     1     -32.776  13.314  -3.438  1.00 20.00    -0.260 OA
HETATM    9  O12 UNL     1     -34.388  13.192  -5.078  1.00 20.00    -0.308 OA
ENDROOT
BRANCH   1  10
HETATM   10  C10 UNL     1     -33.867  16.028  -2.720  1.00 20.00     0.017 C 
HETATM   11  C8  UNL     1     -33.620  17.362  -3.435  1.00 20.00     0.015 C 
HETATM   12  C9  UNL     1     -34.769  16.242  -1.500  1.00 20.00     0.015 C 
ENDBRANCH   1  10
TORSDOF 1
ENDMDL
MODEL 5
REMARK VINA RESULT:      -4.6      1.799      3.100
REMARK  1 active torsions:
REMARK  status: ('A' for Active; 'I' for Inactive)
REMARK    1  A    between atoms: C1_1  and  C10_10 
ROOT
HETATM    1  C1  UNL     1     -35.279  15.043  -4.860  1.00 20.00     0.025 C 
HETATM    2  C2  UNL     1     -36.308  15.850  -4.630  1.00 20.00    -0.038 C 
HETATM    3  C3  UNL     1     -35.687  13.746  -4.285  1.00 20.00     0.290 C 
HETATM    4  C4  UNL     1     -36.758  17.128  -5.238  1.00 20.00     0.038 C 
HETATM    5  C5  UNL     1     -38.289  16.994  -5.141  1.00 20.00     0.007 C 
HETATM    6  C6  UNL     1     -38.567  15.533  -4.750  1.00 20.00     0.037 C 
HETATM    7  C7  UNL     1     -37.381  15.189  -3.871  1.00 20.00     0.162 C 
HETATM    8  O11 UNL     1     -35.001  12.738  -4.265  1.00 20.00    -0.260 OA
HETATM    9  O12 UNL     1     -36.984  13.831  -3.838  1.00 20.00    -0.308 OA
ENDROOT
BRANCH   1  10
HETATM   10  C10 UNL     1     -34.062  15.228  -5.677  1.00 20.00     0.017 C 
HETATM   11  C8  UNL     1     -34.399  15.234  -7.173  1.00 20.00     0.015 C 
HETATM   12  C9  UNL     1     -33.320  16.514  -5.298  1.00 20.00     0.015 C 
ENDBRANCH   1  10
TORSDOF 1
ENDMDL
MODEL 6
REMARK VINA RESULT:      -4.6      2.583      3.692
REMARK  1 active torsions:
REMARK  status: ('A' for Active; 'I' for Inactive)
REMARK    1  A    between atoms: C1_1  and  C10_10 
ROOT
HETATM    1  C1  UNL     1     -34.270  16.207  -3.870  1.00 20.00     0.025 C 
HETATM    2  C2  UNL     1     -34.548  16.768  -2.699  1.00 20.00    -0.038 C 
HETATM    3  C3  UNL     1     -33.701  17.300  -4.682  1.00 20.00     0.290 C 
HETATM    4  C4  UNL     1     -34.762  16.227  -1.333  1.00 20.00     0.038 C 
HETATM    5  C5  UNL     1     -34.174  17.350  -0.460  1.00 20.00     0.007 C 
HETATM    6  C6  UNL     1     -33.425  18.290  -1.418  1.00 20.00     0.037 C 
HETATM    7  C7  UNL     1     -34.255  18.210  -2.684  1.00 20.00     0.162 C 
HETATM    8  O11 UNL     1     -33.340  17.201  -5.842  1.00 20.00    -0.260 OA
HETATM    9  O12 UNL     1     -33.576  18.430  -3.907  1.00 20.00    -0.308 OA
ENDROOT
BRANCH   1  10
HETATM   10  C10 UNL     1     -34.280  14.792  -4.297  1.00 20.00     0.017 C 
HETATM   11  C8  UNL     1     -33.157  14.004  -3.613  1.00 20.00     0.015 C 
HETATM   12  C9  UNL     1     -35.634  14.130  -4.019  1.00 20.00     0.015 C 
ENDBRANCH   1  10
TORSDOF 1
ENDMDL
MODEL 7
REMARK VINA RESULT:      -4.5      2.161      4.675
REMARK  1 active torsions:
REMARK  status: ('A' for Active; 'I' for Inactive)
REMARK    1  A    between atoms: C1_1  and  C10_10 
ROOT
HETATM    1  C1  UNL     1     -33.917  16.639  -2.865  1.00 20.00     0.025 C 
HETATM    2  C2  UNL     1     -33.746  15.529  -3.574  1.00 20.00    -0.038 C 
HETATM    3  C3  UNL     1     -33.639  17.735  -3.813  1.00 20.00     0.290 C 
HETATM    4  C4  UNL     1     -34.212  14.130  -3.406  1.00 20.00     0.038 C 
HETATM    5  C5  UNL     1     -34.410  13.692  -4.869  1.00 20.00     0.007 C 
HETATM    6  C6  UNL     1     -34.313  14.972  -5.716  1.00 20.00     0.037 C 
HETATM    7  C7  UNL     1     -33.305  15.806  -4.950  1.00 20.00     0.162 C 
HETATM    8  O11 UNL     1     -33.659  18.923  -3.542  1.00 20.00    -0.260 OA
HETATM    9  O12 UNL     1     -33.420  17.212  -5.066  1.00 20.00    -0.308 OA
ENDROOT
BRANCH   1  10
HETATM   10  C10 UNL     1     -34.465  16.851  -1.509  1.00 20.00     0.017 C 
HETATM   11  C8  UNL     1     -33.505  17.686  -0.653  1.00 20.00     0.015 C 
HETATM   12  C9  UNL     1     -35.845  17.517  -1.557  1.00 20.00     0.015 C 
ENDBRANCH   1  10
TORSDOF 1
ENDMDL
MODEL 8
REMARK VINA RESULT:      -4.5      2.136      3.177
REMARK  1 active torsions:
REMARK  status: ('A' for Active; 'I' for Inactive)
REMARK    1  A    between atoms: C1_1  and  C10_10 
ROOT
HETATM    1  C1  UNL     1     -36.094  15.706  -3.952  1.00 20.00     0.025 C 
HETATM    2  C2  UNL     1     -34.835  15.410  -4.253  1.00 20.00    -0.038 C 
HETATM    3  C3  UNL     1     -36.800  14.410  -3.981  1.00 20.00     0.290 C 
HETATM    4  C4  UNL     1     -33.543  16.109  -4.035  1.00 20.00     0.038 C 
HETATM    5  C5  UNL     1     -32.586  14.924  -3.812  1.00 20.00     0.007 C 
HETATM    6  C6  UNL     1     -33.474  13.681  -3.640  1.00 20.00     0.037 C 
HETATM    7  C7  UNL     1     -34.651  13.981  -4.548  1.00 20.00     0.162 C 
HETATM    8  O11 UNL     1     -37.993  14.253  -3.785  1.00 20.00    -0.260 OA
HETATM    9  O12 UNL     1     -35.893  13.400  -4.197  1.00 20.00    -0.308 OA
ENDROOT
BRANCH   1  10
HETATM   10  C10 UNL     1     -36.710  16.961  -3.470  1.00 20.00     0.017 C 
HETATM   11  C8  UNL     1     -36.054  17.429  -2.166  1.00 20.00     0.015 C 
HETATM   12  C9  UNL     1     -36.632  18.068  -4.527  1.00 20.00     0.015 C 
ENDBRANCH   1  10
TORSDOF 1
ENDMDL
MODEL 9
REMARK VINA RESULT:      -4.5      2.275      4.329
REMARK  1 active torsions:
REMARK  status: ('A' for Active; 'I' for Inactive)
REMARK    1  A    between atoms: C1_1  and  C10_10 
ROOT
HETATM    1  C1  UNL     1     -35.351  16.538  -2.971  1.00 20.00     0.025 C 
HETATM    2  C2  UNL     1     -34.643  15.634  -3.638  1.00 20.00    -0.038 C 
HETATM    3  C3  UNL     1     -36.751  16.273  -3.356  1.00 20.00     0.290 C 
HETATM    4  C4  UNL     1     -33.284  15.065  -3.454  1.00 20.00     0.038 C 
HETATM    5  C5  UNL     1     -33.487  13.618  -3.940  1.00 20.00     0.007 C 
HETATM    6  C6  UNL     1     -35.005  13.422  -4.083  1.00 20.00     0.037 C 
HETATM    7  C7  UNL     1     -35.481  14.797  -4.509  1.00 20.00     0.162 C 
HETATM    8  O11 UNL     1     -37.718  16.913  -2.978  1.00 20.00    -0.260 OA
HETATM    9  O12 UNL     1     -36.804  15.153  -4.151  1.00 20.00    -0.308 OA
ENDROOT
BRANCH   1  10
HETATM   10  C10 UNL     1     -34.961  17.486  -1.907  1.00 20.00     0.017 C 
HETATM   11  C8  UNL     1     -34.628  16.746  -0.606  1.00 20.00     0.015 C 
HETATM   12  C9  UNL     1     -33.777  18.359  -2.336  1.00 20.00     0.015 C 
ENDBRANCH   1  10
TORSDOF 1
ENDMDL
