MODEL 1
REMARK VINA RESULT:      -4.2      0.000      0.000
REMARK  1 active torsions:
REMARK  status: ('A' for Active; 'I' for Inactive)
REMARK    1  A    between atoms: C4_4  and  C5_5 
ROOT
HETATM    1  C1  UNL     1     -32.508   6.252   3.117  1.00 20.00     0.015 C 
HETATM    2  C2  UNL     1     -33.605   5.875   3.425  1.00 20.00    -0.083 C 
HETATM    3  C3  UNL     1     -34.911   5.428   3.793  1.00 20.00     0.229 A 
HETATM    4  C4  UNL     1     -35.256   5.091   5.223  1.00 20.00     0.177 A 
HETATM    5  O6  UNL     1     -34.929   4.073   4.273  1.00 20.00    -0.361 OA
ENDROOT
BRANCH   4   6
HETATM    6  C5  UNL     1     -34.293   5.217   6.350  1.00 20.00     0.150 C 
HETATM    7 CL7  UNL     1     -33.895   6.928   6.674  1.00 20.00    -0.128 Cl
ENDBRANCH   4   6
TORSDOF 1
ENDMDL
MODEL 2
REMARK VINA RESULT:      -3.9      1.821      2.900
REMARK  1 active torsions:
REMARK  status: ('A' for Active; 'I' for Inactive)
REMARK    1  A    between atoms: C4_4  and  C5_5 
ROOT
HETATM    1  C1  UNL     1     -33.916   6.881   6.786  1.00 20.00     0.015 C 
HETATM    2  C2  UNL     1     -34.252   5.958   6.096  1.00 20.00    -0.083 C 
HETATM    3  C3  UNL     1     -34.651   4.859   5.274  1.00 20.00     0.229 A 
HETATM    4  C4  UNL     1     -34.491   4.898   3.774  1.00 20.00     0.177 A 
HETATM    5  O6  UNL     1     -35.747   5.178   4.400  1.00 20.00    -0.361 OA
ENDROOT
BRANCH   4   6
HETATM    6  C5  UNL     1     -33.895   6.048   3.043  1.00 20.00     0.150 C 
HETATM    7 CL7  UNL     1     -32.111   6.026   3.145  1.00 20.00    -0.128 Cl
ENDBRANCH   4   6
TORSDOF 1
ENDMDL
MODEL 3
REMARK VINA RESULT:      -3.8      1.975      3.123
REMARK  1 active torsions:
REMARK  status: ('A' for Active; 'I' for Inactive)
REMARK    1  A    between atoms: C4_4  and  C5_5 
ROOT
HETATM    1  C1  UNL     1     -34.924   4.706   6.647  1.00 20.00     0.015 C 
HETATM    2  C2  UNL     1     -34.942   4.696   5.447  1.00 20.00    -0.083 C 
HETATM    3  C3  UNL     1     -34.961   4.684   4.018  1.00 20.00     0.229 A 
HETATM    4  C4  UNL     1     -34.062   5.587   3.210  1.00 20.00     0.177 A 
HETATM    5  O6  UNL     1     -35.432   5.919   3.450  1.00 20.00    -0.361 OA
ENDROOT
BRANCH   4   6
HETATM    6  C5  UNL     1     -33.082   6.526   3.819  1.00 20.00     0.150 C 
HETATM    7 CL7  UNL     1     -32.178   7.423   2.565  1.00 20.00    -0.128 Cl
ENDBRANCH   4   6
TORSDOF 1
ENDMDL
MODEL 4
REMARK VINA RESULT:      -3.7     12.425     13.099
REMARK  1 active torsions:
REMARK  status: ('A' for Active; 'I' for Inactive)
REMARK    1  A    between atoms: C4_4  and  C5_5 
ROOT
HETATM    1  C1  UNL     1     -34.742  15.810  -2.519  1.00 20.00     0.015 C 
HETATM    2  C2  UNL     1     -34.422  14.817  -3.112  1.00 20.00    -0.083 C 
HETATM    3  C3  UNL     1     -34.041  13.635  -3.819  1.00 20.00     0.229 A 
HETATM    4  C4  UNL     1     -34.465  13.400  -5.248  1.00 20.00     0.177 A 
HETATM    5  O6  UNL     1     -35.158  12.793  -4.154  1.00 20.00    -0.361 OA
ENDROOT
BRANCH   4   6
HETATM    6  C5  UNL     1     -35.275  14.370  -6.033  1.00 20.00     0.150 C 
HETATM    7 CL7  UNL     1     -34.232  15.492  -6.952  1.00 20.00    -0.128 Cl
ENDBRANCH   4   6
TORSDOF 1
ENDMDL
MODEL 5
REMARK VINA RESULT:      -3.7     11.960     12.794
REMARK  1 active torsions:
REMARK  status: ('A' for Active; 'I' for Inactive)
REMARK    1  A    between atoms: C4_4  and  C5_5 
ROOT
HETATM    1  C1  UNL     1     -34.446  15.024  -6.999  1.00 20.00     0.015 C 
HETATM    2  C2  UNL     1     -34.634  14.333  -6.036  1.00 20.00    -0.083 C 
HETATM    3  C3  UNL     1     -34.859  13.512  -4.889  1.00 20.00     0.229 A 
HETATM    4  C4  UNL     1     -34.495  13.979  -3.501  1.00 20.00     0.177 A 
HETATM    5  O6  UNL     1     -33.642  13.101  -4.242  1.00 20.00    -0.361 OA
ENDROOT
BRANCH   4   6
HETATM    6  C5  UNL     1     -33.908  15.315  -3.214  1.00 20.00     0.150 C 
HETATM    7 CL7  UNL     1     -34.646  16.049  -1.762  1.00 20.00    -0.128 Cl
ENDBRANCH   4   6
TORSDOF 1
ENDMDL
MODEL 6
REMARK VINA RESULT:      -3.5     12.226     12.890
REMARK  1 active torsions:
REMARK  status: ('A' for Active; 'I' for Inactive)
REMARK    1  A    between atoms: C4_4  and  C5_5 
ROOT
HETATM    1  C1  UNL     1     -34.503  16.518  -1.167  1.00 20.00     0.015 C 
HETATM    2  C2  UNL     1     -34.041  16.311  -2.256  1.00 20.00    -0.083 C 
HETATM    3  C3  UNL     1     -33.494  16.065  -3.552  1.00 20.00     0.229 A 
HETATM    4  C4  UNL     1     -33.820  14.807  -4.320  1.00 20.00     0.177 A 
HETATM    5  O6  UNL     1     -32.601  14.938  -3.583  1.00 20.00    -0.361 OA
ENDROOT
BRANCH   4   6
HETATM    6  C5  UNL     1     -34.739  13.753  -3.814  1.00 20.00     0.150 C 
HETATM    7 CL7  UNL     1     -36.446  14.177  -4.125  1.00 20.00    -0.128 Cl
ENDBRANCH   4   6
TORSDOF 1
ENDMDL
MODEL 7
REMARK VINA RESULT:      -3.5      2.862      3.696
REMARK  1 active torsions:
REMARK  status: ('A' for Active; 'I' for Inactive)
REMARK    1  A    between atoms: C4_4  and  C5_5 
ROOT
HETATM    1  C1  UNL     1     -32.581   9.521   1.488  1.00 20.00     0.015 C 
HETATM    2  C2  UNL     1     -32.176   8.496   1.961  1.00 20.00    -0.083 C 
HETATM    3  C3  UNL     1     -31.694   7.273   2.523  1.00 20.00     0.229 A 
HETATM    4  C4  UNL     1     -32.566   6.415   3.407  1.00 20.00     0.177 A 
HETATM    5  O6  UNL     1     -31.597   7.312   3.957  1.00 20.00    -0.361 OA
ENDROOT
BRANCH   4   6
HETATM    6  C5  UNL     1     -33.977   6.748   3.739  1.00 20.00     0.150 C 
HETATM    7 CL7  UNL     1     -35.009   5.290   3.724  1.00 20.00    -0.128 Cl
ENDBRANCH   4   6
TORSDOF 1
ENDMDL
MODEL 8
REMARK VINA RESULT:      -3.4     12.686     13.419
REMARK  1 active torsions:
REMARK  status: ('A' for Active; 'I' for Inactive)
REMARK    1  A    between atoms: C4_4  and  C5_5 
ROOT
HETATM    1  C1  UNL     1     -37.652  14.906  -3.866  1.00 20.00     0.015 C 
HETATM    2  C2  UNL     1     -36.529  14.485  -3.853  1.00 20.00    -0.083 C 
HETATM    3  C3  UNL     1     -35.190  13.985  -3.837  1.00 20.00     0.229 A 
HETATM    4  C4  UNL     1     -34.405  13.794  -5.112  1.00 20.00     0.177 A 
HETATM    5  O6  UNL     1     -35.061  12.699  -4.467  1.00 20.00    -0.361 OA
ENDROOT
BRANCH   4   6
HETATM    6  C5  UNL     1     -34.937  14.128  -6.460  1.00 20.00     0.150 C 
HETATM    7 CL7  UNL     1     -34.238  15.653  -7.074  1.00 20.00    -0.128 Cl
ENDBRANCH   4   6
TORSDOF 1
ENDMDL
MODEL 9
REMARK VINA RESULT:      -3.4      3.028      4.018
REMARK  1 active torsions:
REMARK  status: ('A' for Active; 'I' for Inactive)
REMARK    1  A    between atoms: C4_4  and  C5_5 
ROOT
HETATM    1  C1  UNL     1     -35.355   5.558   3.700  1.00 20.00     0.015 C 
HETATM    2  C2  UNL     1     -34.210   5.854   3.905  1.00 20.00    -0.083 C 
HETATM    3  C3  UNL     1     -32.848   6.208   4.149  1.00 20.00     0.229 A 
HETATM    4  C4  UNL     1     -32.136   7.235   3.302  1.00 20.00     0.177 A 
HETATM    5  O6  UNL     1     -31.966   5.833   3.076  1.00 20.00    -0.361 OA
ENDROOT
BRANCH   4   6
HETATM    6  C5  UNL     1     -32.787   7.968   2.183  1.00 20.00     0.150 C 
HETATM    7 CL7  UNL     1     -31.575   8.611   1.038  1.00 20.00    -0.128 Cl
ENDBRANCH   4   6
TORSDOF 1
ENDMDL
