MODEL 1
REMARK VINA RESULT:      -5.6      0.000      0.000
REMARK  1 active torsions:
REMARK  status: ('A' for Active; 'I' for Inactive)
REMARK    1  A    between atoms: C5_5  and  C10_10 
ROOT
HETATM    1  C1  UNL     1     -35.928  14.524  -3.899  1.00 20.00     0.166 C 
HETATM    2  C2  UNL     1     -35.664  15.791  -3.111  1.00 20.00     0.086 C 
HETATM    3  C3  UNL     1     -33.194  15.268  -3.238  1.00 20.00     0.009 C 
HETATM    4  C4  UNL     1     -33.501  13.956  -3.959  1.00 20.00     0.052 C 
HETATM    5  C5  UNL     1     -34.357  15.678  -2.325  1.00 20.00    -0.004 C 
HETATM    6  C6  UNL     1     -34.797  14.002  -4.768  1.00 20.00     0.159 C 
HETATM    7  C7  UNL     1     -34.682  14.843  -6.033  1.00 20.00     0.060 C 
HETATM    8  O11 UNL     1     -37.033  13.982  -3.888  1.00 20.00    -0.294 OA
HETATM    9  F12 UNL     1     -35.069  12.722  -5.166  1.00 20.00    -0.235 F 
ENDROOT
BRANCH   5  10
HETATM   10  C10 UNL     1     -34.046  16.992  -1.611  1.00 20.00    -0.018 C 
HETATM   11  C8  UNL     1     -34.447  18.182  -2.480  1.00 20.00     0.010 C 
HETATM   12  C9  UNL     1     -34.753  17.049  -0.259  1.00 20.00     0.010 C 
ENDBRANCH   5  10
TORSDOF 1
ENDMDL
MODEL 2
REMARK VINA RESULT:      -5.4      1.396      1.641
REMARK  1 active torsions:
REMARK  status: ('A' for Active; 'I' for Inactive)
REMARK    1  A    between atoms: C5_5  and  C10_10 
ROOT
HETATM    1  C1  UNL     1     -34.917  13.948  -4.319  1.00 20.00     0.166 C 
HETATM    2  C2  UNL     1     -34.764  14.805  -3.080  1.00 20.00     0.086 C 
HETATM    3  C3  UNL     1     -33.949  16.681  -4.566  1.00 20.00     0.009 C 
HETATM    4  C4  UNL     1     -34.038  15.763  -5.784  1.00 20.00     0.052 C 
HETATM    5  C5  UNL     1     -33.689  15.872  -3.287  1.00 20.00    -0.004 C 
HETATM    6  C6  UNL     1     -35.098  14.671  -5.643  1.00 20.00     0.159 C 
HETATM    7  C7  UNL     1     -36.521  15.204  -5.754  1.00 20.00     0.060 C 
HETATM    8  O11 UNL     1     -34.963  12.720  -4.247  1.00 20.00    -0.294 OA
HETATM    9  F12 UNL     1     -34.918  13.798  -6.679  1.00 20.00    -0.235 F 
ENDROOT
BRANCH   5  10
HETATM   10  C10 UNL     1     -33.608  16.795  -2.073  1.00 20.00    -0.018 C 
HETATM   11  C8  UNL     1     -33.724  18.256  -2.500  1.00 20.00     0.010 C 
HETATM   12  C9  UNL     1     -34.694  16.443  -1.058  1.00 20.00     0.010 C 
ENDBRANCH   5  10
TORSDOF 1
ENDMDL
MODEL 3
REMARK VINA RESULT:      -4.9      1.698      2.220
REMARK  1 active torsions:
REMARK  status: ('A' for Active; 'I' for Inactive)
REMARK    1  A    between atoms: C5_5  and  C10_10 
ROOT
HETATM    1  C1  UNL     1     -34.102  15.637  -5.286  1.00 20.00     0.166 C 
HETATM    2  C2  UNL     1     -33.430  16.193  -4.048  1.00 20.00     0.086 C 
HETATM    3  C3  UNL     1     -35.434  15.433  -2.707  1.00 20.00     0.009 C 
HETATM    4  C4  UNL     1     -36.119  14.957  -3.987  1.00 20.00     0.052 C 
HETATM    5  C5  UNL     1     -34.469  16.590  -2.998  1.00 20.00    -0.004 C 
HETATM    6  C6  UNL     1     -35.135  14.542  -5.080  1.00 20.00     0.159 C 
HETATM    7  C7  UNL     1     -34.438  13.219  -4.784  1.00 20.00     0.060 C 
HETATM    8  O11 UNL     1     -33.776  16.008  -6.413  1.00 20.00    -0.294 OA
HETATM    9  F12 UNL     1     -35.858  14.362  -6.227  1.00 20.00    -0.235 F 
ENDROOT
BRANCH   5  10
HETATM   10  C10 UNL     1     -33.783  17.057  -1.716  1.00 20.00    -0.018 C 
HETATM   11  C8  UNL     1     -33.431  18.540  -1.805  1.00 20.00     0.010 C 
HETATM   12  C9  UNL     1     -34.671  16.787  -0.504  1.00 20.00     0.010 C 
ENDBRANCH   5  10
TORSDOF 1
ENDMDL
MODEL 4
REMARK VINA RESULT:      -4.8      2.081      3.021
REMARK  1 active torsions:
REMARK  status: ('A' for Active; 'I' for Inactive)
REMARK    1  A    between atoms: C5_5  and  C10_10 
ROOT
HETATM    1  C1  UNL     1     -33.656  14.242  -4.151  1.00 20.00     0.166 C 
HETATM    2  C2  UNL     1     -33.438  15.732  -3.995  1.00 20.00     0.086 C 
HETATM    3  C3  UNL     1     -34.725  16.073  -6.144  1.00 20.00     0.009 C 
HETATM    4  C4  UNL     1     -34.856  14.560  -6.314  1.00 20.00     0.052 C 
HETATM    5  C5  UNL     1     -33.457  16.429  -5.356  1.00 20.00    -0.004 C 
HETATM    6  C6  UNL     1     -34.845  13.800  -4.987  1.00 20.00     0.159 C 
HETATM    7  C7  UNL     1     -36.133  13.972  -4.191  1.00 20.00     0.060 C 
HETATM    8  O11 UNL     1     -32.942  13.426  -3.569  1.00 20.00    -0.294 OA
HETATM    9  F12 UNL     1     -34.737  12.470  -5.285  1.00 20.00    -0.235 F 
ENDROOT
BRANCH   5  10
HETATM   10  C10 UNL     1     -33.336  17.942  -5.185  1.00 20.00    -0.018 C 
HETATM   11  C8  UNL     1     -33.996  18.669  -6.355  1.00 20.00     0.010 C 
HETATM   12  C9  UNL     1     -33.954  18.384  -3.860  1.00 20.00     0.010 C 
ENDBRANCH   5  10
TORSDOF 1
ENDMDL
MODEL 5
REMARK VINA RESULT:      -4.7      2.066      3.280
REMARK  1 active torsions:
REMARK  status: ('A' for Active; 'I' for Inactive)
REMARK    1  A    between atoms: C5_5  and  C10_10 
ROOT
HETATM    1  C1  UNL     1     -34.354  14.119  -4.282  1.00 20.00     0.166 C 
HETATM    2  C2  UNL     1     -35.802  14.521  -4.471  1.00 20.00     0.086 C 
HETATM    3  C3  UNL     1     -35.416  16.411  -2.838  1.00 20.00     0.009 C 
HETATM    4  C4  UNL     1     -33.984  15.929  -2.608  1.00 20.00     0.052 C 
HETATM    5  C5  UNL     1     -36.331  15.244  -3.232  1.00 20.00    -0.004 C 
HETATM    6  C6  UNL     1     -33.393  15.197  -3.812  1.00 20.00     0.159 C 
HETATM    7  C7  UNL     1     -33.051  16.129  -4.968  1.00 20.00     0.060 C 
HETATM    8  O11 UNL     1     -33.962  12.986  -4.562  1.00 20.00    -0.294 OA
HETATM    9  F12 UNL     1     -32.219  14.627  -3.401  1.00 20.00    -0.235 F 
ENDROOT
BRANCH   5  10
HETATM   10  C10 UNL     1     -37.759  15.734  -3.467  1.00 20.00    -0.018 C 
HETATM   11  C8  UNL     1     -37.757  17.009  -4.308  1.00 20.00     0.010 C 
HETATM   12  C9  UNL     1     -38.596  14.647  -4.137  1.00 20.00     0.010 C 
ENDBRANCH   5  10
TORSDOF 1
ENDMDL
MODEL 6
REMARK VINA RESULT:      -4.6      2.547      4.133
REMARK  1 active torsions:
REMARK  status: ('A' for Active; 'I' for Inactive)
REMARK    1  A    between atoms: C5_5  and  C10_10 
ROOT
HETATM    1  C1  UNL     1     -33.856  16.114  -4.708  1.00 20.00     0.166 C 
HETATM    2  C2  UNL     1     -35.260  16.353  -5.223  1.00 20.00     0.086 C 
HETATM    3  C3  UNL     1     -35.965  14.207  -4.088  1.00 20.00     0.009 C 
HETATM    4  C4  UNL     1     -34.521  13.955  -3.654  1.00 20.00     0.052 C 
HETATM    5  C5  UNL     1     -36.013  15.031  -5.382  1.00 20.00    -0.004 C 
HETATM    6  C6  UNL     1     -33.711  15.238  -3.476  1.00 20.00     0.159 C 
HETATM    7  C7  UNL     1     -34.105  16.024  -2.230  1.00 20.00     0.060 C 
HETATM    8  O11 UNL     1     -32.882  16.661  -5.225  1.00 20.00    -0.294 OA
HETATM    9  F12 UNL     1     -32.403  14.871  -3.316  1.00 20.00    -0.235 F 
ENDROOT
BRANCH   5  10
HETATM   10  C10 UNL     1     -37.457  15.285  -5.806  1.00 20.00    -0.018 C 
HETATM   11  C8  UNL     1     -38.418  14.956  -4.665  1.00 20.00     0.010 C 
HETATM   12  C9  UNL     1     -37.637  16.732  -6.260  1.00 20.00     0.010 C 
ENDBRANCH   5  10
TORSDOF 1
ENDMDL
MODEL 7
REMARK VINA RESULT:      -4.4      2.735      4.601
REMARK  1 active torsions:
REMARK  status: ('A' for Active; 'I' for Inactive)
REMARK    1  A    between atoms: C5_5  and  C10_10 
ROOT
HETATM    1  C1  UNL     1     -33.919  17.524  -3.803  1.00 20.00     0.166 C 
HETATM    2  C2  UNL     1     -34.380  17.235  -5.217  1.00 20.00     0.086 C 
HETATM    3  C3  UNL     1     -34.010  14.777  -4.759  1.00 20.00     0.009 C 
HETATM    4  C4  UNL     1     -33.473  15.110  -3.367  1.00 20.00     0.052 C 
HETATM    5  C5  UNL     1     -33.763  15.935  -5.734  1.00 20.00    -0.004 C 
HETATM    6  C6  UNL     1     -34.053  16.401  -2.789  1.00 20.00     0.159 C 
HETATM    7  C7  UNL     1     -35.507  16.260  -2.357  1.00 20.00     0.060 C 
HETATM    8  O11 UNL     1     -33.519  18.641  -3.475  1.00 20.00    -0.294 OA
HETATM    9  F12 UNL     1     -33.332  16.699  -1.666  1.00 20.00    -0.235 F 
ENDROOT
BRANCH   5  10
HETATM   10  C10 UNL     1     -34.307  15.598  -7.121  1.00 20.00    -0.018 C 
HETATM   11  C8  UNL     1     -35.302  14.443  -7.040  1.00 20.00     0.010 C 
HETATM   12  C9  UNL     1     -34.957  16.826  -7.755  1.00 20.00     0.010 C 
ENDBRANCH   5  10
TORSDOF 1
ENDMDL
MODEL 8
REMARK VINA RESULT:      -4.4      2.966      4.607
REMARK  1 active torsions:
REMARK  status: ('A' for Active; 'I' for Inactive)
REMARK    1  A    between atoms: C5_5  and  C10_10 
ROOT
HETATM    1  C1  UNL     1     -33.881  17.900  -3.923  1.00 20.00     0.166 C 
HETATM    2  C2  UNL     1     -34.649  16.658  -4.324  1.00 20.00     0.086 C 
HETATM    3  C3  UNL     1     -34.515  15.885  -1.921  1.00 20.00     0.009 C 
HETATM    4  C4  UNL     1     -33.671  17.109  -1.568  1.00 20.00     0.052 C 
HETATM    5  C5  UNL     1     -34.321  15.491  -3.392  1.00 20.00    -0.004 C 
HETATM    6  C6  UNL     1     -33.951  18.315  -2.463  1.00 20.00     0.159 C 
HETATM    7  C7  UNL     1     -35.295  18.973  -2.174  1.00 20.00     0.060 C 
HETATM    8  O11 UNL     1     -33.283  18.580  -4.756  1.00 20.00    -0.294 OA
HETATM    9  F12 UNL     1     -32.987  19.248  -2.198  1.00 20.00    -0.235 F 
ENDROOT
BRANCH   5  10
HETATM   10  C10 UNL     1     -35.172  14.272  -3.740  1.00 20.00    -0.018 C 
HETATM   11  C8  UNL     1     -36.503  14.703  -4.350  1.00 20.00     0.010 C 
HETATM   12  C9  UNL     1     -34.418  13.345  -4.691  1.00 20.00     0.010 C 
ENDBRANCH   5  10
TORSDOF 1
ENDMDL
MODEL 9
REMARK VINA RESULT:      -4.4      1.958      2.812
REMARK  1 active torsions:
REMARK  status: ('A' for Active; 'I' for Inactive)
REMARK    1  A    between atoms: C5_5  and  C10_10 
ROOT
HETATM    1  C1  UNL     1     -37.567  14.809  -4.241  1.00 20.00     0.166 C 
HETATM    2  C2  UNL     1     -36.420  15.049  -3.281  1.00 20.00     0.086 C 
HETATM    3  C3  UNL     1     -34.898  15.317  -5.282  1.00 20.00     0.009 C 
HETATM    4  C4  UNL     1     -36.060  14.990  -6.218  1.00 20.00     0.052 C 
HETATM    5  C5  UNL     1     -35.089  14.645  -3.915  1.00 20.00    -0.004 C 
HETATM    6  C6  UNL     1     -37.424  15.371  -5.645  1.00 20.00     0.159 C 
HETATM    7  C7  UNL     1     -37.665  16.876  -5.630  1.00 20.00     0.060 C 
HETATM    8  O11 UNL     1     -38.598  14.244  -3.877  1.00 20.00    -0.294 OA
HETATM    9  F12 UNL     1     -38.374  14.826  -6.464  1.00 20.00    -0.235 F 
ENDROOT
BRANCH   5  10
HETATM   10  C10 UNL     1     -33.927  14.981  -2.982  1.00 20.00    -0.018 C 
HETATM   11  C8  UNL     1     -32.635  15.157  -3.777  1.00 20.00     0.010 C 
HETATM   12  C9  UNL     1     -34.236  16.237  -2.172  1.00 20.00     0.010 C 
ENDBRANCH   5  10
TORSDOF 1
ENDMDL
