MODEL 1
REMARK VINA RESULT:      -4.2      0.000      0.000
REMARK  1 active torsions:
REMARK  status: ('A' for Active; 'I' for Inactive)
REMARK    1  A    between atoms: C4_4  and  C7_7 
ROOT
HETATM    1  C1  UNL     1     -34.437  13.606  -4.503  1.00 20.00     0.075 C 
HETATM    2  C2  UNL     1     -33.792  15.916  -5.078  1.00 20.00     0.105 C 
HETATM    3  C3  UNL     1     -34.018  14.904  -3.964  1.00 20.00     0.164 C 
HETATM    4  C4  UNL     1     -34.610  17.305  -2.867  1.00 20.00     0.113 C 
HETATM    5  N8  UNL     1     -34.768  12.580  -4.929  1.00 20.00    -0.196 NA
HETATM    6  S9  UNL     1     -33.563  17.558  -4.338  1.00 20.00    -0.151 SA
HETATM    7  S10 UNL     1     -35.292  15.618  -2.886  1.00 20.00    -0.133 SA
ENDROOT
BRANCH   4   8
HETATM    8  C7  UNL     1     -33.785  17.520  -1.606  1.00 20.00     0.001 C 
HETATM    9  C5  UNL     1     -33.378  18.987  -1.469  1.00 20.00     0.011 C 
HETATM   10  C6  UNL     1     -34.558  17.063  -0.369  1.00 20.00     0.011 C 
ENDBRANCH   4   8
TORSDOF 1
ENDMDL
MODEL 2
REMARK VINA RESULT:      -4.0      1.917      1.939
REMARK  1 active torsions:
REMARK  status: ('A' for Active; 'I' for Inactive)
REMARK    1  A    between atoms: C4_4  and  C7_7 
ROOT
HETATM    1  C1  UNL     1     -37.246  14.743  -3.658  1.00 20.00     0.075 C 
HETATM    2  C2  UNL     1     -34.984  15.314  -4.456  1.00 20.00     0.105 C 
HETATM    3  C3  UNL     1     -35.946  15.306  -3.278  1.00 20.00     0.164 C 
HETATM    4  C4  UNL     1     -34.332  17.436  -2.857  1.00 20.00     0.113 C 
HETATM    5  N8  UNL     1     -38.273  14.296  -3.958  1.00 20.00    -0.196 NA
HETATM    6  S9  UNL     1     -33.513  16.279  -4.004  1.00 20.00    -0.151 SA
HETATM    7  S10 UNL     1     -36.103  17.035  -2.745  1.00 20.00    -0.133 SA
ENDROOT
BRANCH   4   8
HETATM    8  C7  UNL     1     -33.687  17.337  -1.481  1.00 20.00     0.001 C 
HETATM    9  C5  UNL     1     -33.091  18.682  -1.065  1.00 20.00     0.011 C 
HETATM   10  C6  UNL     1     -34.700  16.858  -0.442  1.00 20.00     0.011 C 
ENDBRANCH   4   8
TORSDOF 1
ENDMDL
MODEL 3
REMARK VINA RESULT:      -3.8      2.874      4.850
REMARK  1 active torsions:
REMARK  status: ('A' for Active; 'I' for Inactive)
REMARK    1  A    between atoms: C4_4  and  C7_7 
ROOT
HETATM    1  C1  UNL     1     -34.620  16.132  -1.895  1.00 20.00     0.075 C 
HETATM    2  C2  UNL     1     -34.335  14.130  -3.306  1.00 20.00     0.105 C 
HETATM    3  C3  UNL     1     -34.690  15.608  -3.263  1.00 20.00     0.164 C 
HETATM    4  C4  UNL     1     -36.113  14.600  -5.331  1.00 20.00     0.113 C 
HETATM    5  N8  UNL     1     -34.563  16.546  -0.813  1.00 20.00    -0.196 NA
HETATM    6  S9  UNL     1     -34.721  13.483  -4.958  1.00 20.00    -0.151 SA
HETATM    7  S10 UNL     1     -36.370  15.741  -3.938  1.00 20.00    -0.133 SA
ENDROOT
BRANCH   4   8
HETATM    8  C7  UNL     1     -35.815  15.385  -6.601  1.00 20.00     0.001 C 
HETATM    9  C5  UNL     1     -34.434  15.024  -7.149  1.00 20.00     0.011 C 
HETATM   10  C6  UNL     1     -36.891  15.134  -7.657  1.00 20.00     0.011 C 
ENDBRANCH   4   8
TORSDOF 1
ENDMDL
MODEL 4
REMARK VINA RESULT:      -3.8      2.476      4.455
REMARK  1 active torsions:
REMARK  status: ('A' for Active; 'I' for Inactive)
REMARK    1  A    between atoms: C4_4  and  C7_7 
ROOT
HETATM    1  C1  UNL     1     -34.773  16.586  -1.382  1.00 20.00     0.075 C 
HETATM    2  C2  UNL     1     -35.114  17.564  -3.620  1.00 20.00     0.105 C 
HETATM    3  C3  UNL     1     -34.938  16.289  -2.809  1.00 20.00     0.164 C 
HETATM    4  C4  UNL     1     -33.888  15.729  -5.238  1.00 20.00     0.113 C 
HETATM    5  N8  UNL     1     -34.643  16.822  -0.255  1.00 20.00    -0.196 NA
HETATM    6  S9  UNL     1     -35.021  17.151  -5.386  1.00 20.00    -0.151 SA
HETATM    7  S10 UNL     1     -33.474  15.459  -3.488  1.00 20.00    -0.133 SA
ENDROOT
BRANCH   4   8
HETATM    8  C7  UNL     1     -34.547  14.485  -5.817  1.00 20.00     0.001 C 
HETATM    9  C5  UNL     1     -34.483  13.326  -4.823  1.00 20.00     0.011 C 
HETATM   10  C6  UNL     1     -35.996  14.773  -6.209  1.00 20.00     0.011 C 
ENDBRANCH   4   8
TORSDOF 1
ENDMDL
MODEL 5
REMARK VINA RESULT:      -3.8      2.184      2.855
REMARK  1 active torsions:
REMARK  status: ('A' for Active; 'I' for Inactive)
REMARK    1  A    between atoms: C4_4  and  C7_7 
ROOT
HETATM    1  C1  UNL     1     -36.104  14.885  -6.890  1.00 20.00     0.075 C 
HETATM    2  C2  UNL     1     -34.855  13.633  -5.171  1.00 20.00     0.105 C 
HETATM    3  C3  UNL     1     -35.432  14.977  -5.590  1.00 20.00     0.164 C 
HETATM    4  C4  UNL     1     -33.257  15.577  -4.097  1.00 20.00     0.113 C 
HETATM    5  N8  UNL     1     -36.636  14.811  -7.918  1.00 20.00    -0.196 NA
HETATM    6  S9  UNL     1     -33.798  13.878  -3.715  1.00 20.00    -0.151 SA
HETATM    7  S10 UNL     1     -34.031  16.130  -5.647  1.00 20.00    -0.133 SA
ENDROOT
BRANCH   4   8
HETATM    8  C7  UNL     1     -33.648  16.508  -2.958  1.00 20.00     0.001 C 
HETATM    9  C5  UNL     1     -34.128  17.855  -3.499  1.00 20.00     0.011 C 
HETATM   10  C6  UNL     1     -34.726  15.870  -2.082  1.00 20.00     0.011 C 
ENDBRANCH   4   8
TORSDOF 1
ENDMDL
MODEL 6
REMARK VINA RESULT:      -3.8      2.386      4.450
REMARK  1 active torsions:
REMARK  status: ('A' for Active; 'I' for Inactive)
REMARK    1  A    between atoms: C4_4  and  C7_7 
ROOT
HETATM    1  C1  UNL     1     -34.748  16.875  -1.164  1.00 20.00     0.075 C 
HETATM    2  C2  UNL     1     -33.971  17.889  -3.274  1.00 20.00     0.105 C 
HETATM    3  C3  UNL     1     -34.715  16.732  -2.623  1.00 20.00     0.164 C 
HETATM    4  C4  UNL     1     -33.618  15.692  -4.867  1.00 20.00     0.113 C 
HETATM    5  N8  UNL     1     -34.774  16.989  -0.011  1.00 20.00    -0.196 NA
HETATM    6  S9  UNL     1     -33.716  17.506  -5.031  1.00 20.00    -0.151 SA
HETATM    7  S10 UNL     1     -33.836  15.224  -3.123  1.00 20.00    -0.133 SA
ENDROOT
BRANCH   4   8
HETATM    8  C7  UNL     1     -34.696  15.041  -5.721  1.00 20.00     0.001 C 
HETATM    9  C5  UNL     1     -34.330  15.115  -7.204  1.00 20.00     0.011 C 
HETATM   10  C6  UNL     1     -34.917  13.588  -5.299  1.00 20.00     0.011 C 
ENDBRANCH   4   8
TORSDOF 1
ENDMDL
MODEL 7
REMARK VINA RESULT:      -3.7      2.531      3.754
REMARK  1 active torsions:
REMARK  status: ('A' for Active; 'I' for Inactive)
REMARK    1  A    between atoms: C4_4  and  C7_7 
ROOT
HETATM    1  C1  UNL     1     -37.612  14.862  -3.864  1.00 20.00     0.075 C 
HETATM    2  C2  UNL     1     -35.701  15.876  -2.679  1.00 20.00     0.105 C 
HETATM    3  C3  UNL     1     -36.339  15.572  -4.027  1.00 20.00     0.164 C 
HETATM    4  C4  UNL     1     -33.673  15.557  -4.488  1.00 20.00     0.113 C 
HETATM    5  N8  UNL     1     -38.619  14.302  -3.735  1.00 20.00    -0.196 NA
HETATM    6  S9  UNL     1     -34.013  16.484  -2.956  1.00 20.00    -0.151 SA
HETATM    7  S10 UNL     1     -35.132  14.568  -4.939  1.00 20.00    -0.133 SA
ENDROOT
BRANCH   4   8
HETATM    8  C7  UNL     1     -33.333  16.527  -5.611  1.00 20.00     0.001 C 
HETATM    9  C5  UNL     1     -34.176  16.237  -6.852  1.00 20.00     0.011 C 
HETATM   10  C6  UNL     1     -33.533  17.973  -5.155  1.00 20.00     0.011 C 
ENDBRANCH   4   8
TORSDOF 1
ENDMDL
MODEL 8
REMARK VINA RESULT:      -3.7      2.613      3.007
REMARK  1 active torsions:
REMARK  status: ('A' for Active; 'I' for Inactive)
REMARK    1  A    between atoms: C4_4  and  C7_7 
ROOT
HETATM    1  C1  UNL     1     -38.170  14.694  -4.183  1.00 20.00     0.075 C 
HETATM    2  C2  UNL     1     -36.242  15.180  -5.641  1.00 20.00     0.105 C 
HETATM    3  C3  UNL     1     -36.749  15.055  -4.212  1.00 20.00     0.164 C 
HETATM    4  C4  UNL     1     -34.784  16.911  -4.102  1.00 20.00     0.113 C 
HETATM    5  N8  UNL     1     -39.293  14.409  -4.160  1.00 20.00    -0.196 NA
HETATM    6  S9  UNL     1     -34.577  15.905  -5.609  1.00 20.00    -0.151 SA
HETATM    7  S10 UNL     1     -36.456  16.667  -3.431  1.00 20.00    -0.133 SA
ENDROOT
BRANCH   4   8
HETATM    8  C7  UNL     1     -33.742  16.507  -3.068  1.00 20.00     0.001 C 
HETATM    9  C5  UNL     1     -34.380  16.357  -1.687  1.00 20.00     0.011 C 
HETATM   10  C6  UNL     1     -33.047  15.209  -3.479  1.00 20.00     0.011 C 
ENDBRANCH   4   8
TORSDOF 1
ENDMDL
MODEL 9
REMARK VINA RESULT:      -3.6      1.917      2.105
REMARK  1 active torsions:
REMARK  status: ('A' for Active; 'I' for Inactive)
REMARK    1  A    between atoms: C4_4  and  C7_7 
ROOT
HETATM    1  C1  UNL     1     -34.580  15.309  -6.448  1.00 20.00     0.075 C 
HETATM    2  C2  UNL     1     -36.147  16.589  -5.037  1.00 20.00     0.105 C 
HETATM    3  C3  UNL     1     -34.756  15.984  -5.158  1.00 20.00     0.164 C 
HETATM    4  C4  UNL     1     -35.332  15.907  -2.516  1.00 20.00     0.113 C 
HETATM    5  N8  UNL     1     -34.441  14.777  -7.469  1.00 20.00    -0.196 NA
HETATM    6  S9  UNL     1     -36.397  17.146  -3.327  1.00 20.00    -0.151 SA
HETATM    7  S10 UNL     1     -34.591  14.822  -3.773  1.00 20.00    -0.133 SA
ENDROOT
BRANCH   4   8
HETATM    8  C7  UNL     1     -34.239  16.610  -1.723  1.00 20.00     0.001 C 
HETATM    9  C5  UNL     1     -33.809  17.901  -2.420  1.00 20.00     0.011 C 
HETATM   10  C6  UNL     1     -34.709  16.904  -0.298  1.00 20.00     0.011 C 
ENDBRANCH   4   8
TORSDOF 1
ENDMDL
