MODEL 1
REMARK VINA RESULT:      -4.3      0.000      0.000
REMARK  2 active torsions:
REMARK  status: ('A' for Active; 'I' for Inactive)
REMARK    1  A    between atoms: C2_2  and  C4_4 
REMARK    2  A    between atoms: C4_4  and  C5_5 
ROOT
HETATM    1  C1  UNL     1     -35.071   4.463   4.660  1.00 20.00     0.147 A 
HETATM    2  C2  UNL     1     -34.471   5.322   3.572  1.00 20.00     0.151 A 
HETATM    3  C3  UNL     1     -34.903   4.749   6.108  1.00 20.00     0.042 C 
HETATM    4  O6  UNL     1     -35.853   5.428   3.942  1.00 20.00    -0.376 OA
ENDROOT
BRANCH   2   5
HETATM    5  C4  UNL     1     -33.657   6.534   3.848  1.00 20.00     0.049 C 
BRANCH   5   6
HETATM    6  C5  UNL     1     -32.275   6.547   3.171  1.00 20.00     0.117 C 
HETATM    7 CL7  UNL     1     -32.049   8.004   2.177  1.00 20.00    -0.130 Cl
ENDBRANCH   5   6
ENDBRANCH   2   5
TORSDOF 2
ENDMDL
MODEL 2
REMARK VINA RESULT:      -3.9      2.088      3.307
REMARK  2 active torsions:
REMARK  status: ('A' for Active; 'I' for Inactive)
REMARK    1  A    between atoms: C2_2  and  C4_4 
REMARK    2  A    between atoms: C4_4  and  C5_5 
ROOT
HETATM    1  C1  UNL     1     -33.661   6.347   3.081  1.00 20.00     0.147 A 
HETATM    2  C2  UNL     1     -34.754   5.649   3.854  1.00 20.00     0.151 A 
HETATM    3  C3  UNL     1     -32.216   6.182   3.386  1.00 20.00     0.042 C 
HETATM    4  O6  UNL     1     -34.307   5.169   2.578  1.00 20.00    -0.376 OA
ENDROOT
BRANCH   2   5
HETATM    5  C4  UNL     1     -34.489   4.733   4.993  1.00 20.00     0.049 C 
BRANCH   5   6
HETATM    6  C5  UNL     1     -34.748   5.343   6.382  1.00 20.00     0.117 C 
HETATM    7 CL7  UNL     1     -33.849   6.861   6.605  1.00 20.00    -0.130 Cl
ENDBRANCH   5   6
ENDBRANCH   2   5
TORSDOF 2
ENDMDL
MODEL 3
REMARK VINA RESULT:      -3.8      1.272      1.303
REMARK  2 active torsions:
REMARK  status: ('A' for Active; 'I' for Inactive)
REMARK    1  A    between atoms: C2_2  and  C4_4 
REMARK    2  A    between atoms: C4_4  and  C5_5 
ROOT
HETATM    1  C1  UNL     1     -35.045   5.346   5.312  1.00 20.00     0.147 A 
HETATM    2  C2  UNL     1     -34.442   6.266   4.277  1.00 20.00     0.151 A 
HETATM    3  C3  UNL     1     -34.723   3.898   5.400  1.00 20.00     0.042 C 
HETATM    4  O6  UNL     1     -33.956   6.225   5.626  1.00 20.00    -0.376 OA
ENDROOT
BRANCH   2   5
HETATM    5  C4  UNL     1     -33.470   5.810   3.250  1.00 20.00     0.049 C 
BRANCH   5   6
HETATM    6  C5  UNL     1     -32.114   6.536   3.282  1.00 20.00     0.117 C 
HETATM    7 CL7  UNL     1     -32.112   7.962   2.219  1.00 20.00    -0.130 Cl
ENDBRANCH   5   6
ENDBRANCH   2   5
TORSDOF 2
ENDMDL
MODEL 4
REMARK VINA RESULT:      -3.8      1.679      2.095
REMARK  2 active torsions:
REMARK  status: ('A' for Active; 'I' for Inactive)
REMARK    1  A    between atoms: C2_2  and  C4_4 
REMARK    2  A    between atoms: C4_4  and  C5_5 
ROOT
HETATM    1  C1  UNL     1     -34.120   5.240   6.347  1.00 20.00     0.147 A 
HETATM    2  C2  UNL     1     -34.674   4.611   5.091  1.00 20.00     0.151 A 
HETATM    3  C3  UNL     1     -33.954   6.707   6.517  1.00 20.00     0.042 C 
HETATM    4  O6  UNL     1     -35.481   4.795   6.263  1.00 20.00    -0.376 OA
ENDROOT
BRANCH   2   5
HETATM    5  C4  UNL     1     -35.106   5.399   3.907  1.00 20.00     0.049 C 
BRANCH   5   6
HETATM    6  C5  UNL     1     -34.105   5.402   2.738  1.00 20.00     0.117 C 
HETATM    7 CL7  UNL     1     -32.591   6.225   3.179  1.00 20.00    -0.130 Cl
ENDBRANCH   5   6
ENDBRANCH   2   5
TORSDOF 2
ENDMDL
MODEL 5
REMARK VINA RESULT:      -3.7      2.716      3.866
REMARK  2 active torsions:
REMARK  status: ('A' for Active; 'I' for Inactive)
REMARK    1  A    between atoms: C2_2  and  C4_4 
REMARK    2  A    between atoms: C4_4  and  C5_5 
ROOT
HETATM    1  C1  UNL     1     -32.881   6.858   3.038  1.00 20.00     0.147 A 
HETATM    2  C2  UNL     1     -33.881   6.288   4.015  1.00 20.00     0.151 A 
HETATM    3  C3  UNL     1     -31.667   7.605   3.458  1.00 20.00     0.042 C 
HETATM    4  O6  UNL     1     -32.884   5.467   3.390  1.00 20.00    -0.376 OA
ENDROOT
BRANCH   2   5
HETATM    5  C4  UNL     1     -33.745   6.420   5.490  1.00 20.00     0.049 C 
BRANCH   5   6
HETATM    6  C5  UNL     1     -34.680   5.510   6.305  1.00 20.00     0.117 C 
HETATM    7 CL7  UNL     1     -34.943   3.950   5.492  1.00 20.00    -0.130 Cl
ENDBRANCH   5   6
ENDBRANCH   2   5
TORSDOF 2
ENDMDL
MODEL 6
REMARK VINA RESULT:      -3.6      2.889      4.256
REMARK  2 active torsions:
REMARK  status: ('A' for Active; 'I' for Inactive)
REMARK    1  A    between atoms: C2_2  and  C4_4 
REMARK    2  A    between atoms: C4_4  and  C5_5 
ROOT
HETATM    1  C1  UNL     1     -31.743   7.505   2.432  1.00 20.00     0.147 A 
HETATM    2  C2  UNL     1     -32.425   6.467   3.292  1.00 20.00     0.151 A 
HETATM    3  C3  UNL     1     -32.428   8.726   1.934  1.00 20.00     0.042 C 
HETATM    4  O6  UNL     1     -31.553   7.459   3.852  1.00 20.00    -0.376 OA
ENDROOT
BRANCH   2   5
HETATM    5  C4  UNL     1     -33.844   6.570   3.721  1.00 20.00     0.049 C 
BRANCH   5   6
HETATM    6  C5  UNL     1     -34.292   5.489   4.720  1.00 20.00     0.117 C 
HETATM    7 CL7  UNL     1     -34.244   6.088   6.394  1.00 20.00    -0.130 Cl
ENDBRANCH   5   6
ENDBRANCH   2   5
TORSDOF 2
ENDMDL
MODEL 7
REMARK VINA RESULT:      -3.5     11.323     12.041
REMARK  2 active torsions:
REMARK  status: ('A' for Active; 'I' for Inactive)
REMARK    1  A    between atoms: C2_2  and  C4_4 
REMARK    2  A    between atoms: C4_4  and  C5_5 
ROOT
HETATM    1  C1  UNL     1     -34.943  13.536  -4.524  1.00 20.00     0.147 A 
HETATM    2  C2  UNL     1     -34.103  14.146  -3.427  1.00 20.00     0.151 A 
HETATM    3  C3  UNL     1     -35.021  14.098  -5.897  1.00 20.00     0.042 C 
HETATM    4  O6  UNL     1     -33.662  12.999  -4.166  1.00 20.00    -0.376 OA
ENDROOT
BRANCH   2   5
HETATM    5  C4  UNL     1     -33.276  15.367  -3.618  1.00 20.00     0.049 C 
BRANCH   5   6
HETATM    6  C5  UNL     1     -33.815  16.624  -2.913  1.00 20.00     0.117 C 
HETATM    7 CL7  UNL     1     -34.647  16.215  -1.395  1.00 20.00    -0.130 Cl
ENDBRANCH   5   6
ENDBRANCH   2   5
TORSDOF 2
ENDMDL
MODEL 8
REMARK VINA RESULT:      -3.5      1.421      1.623
REMARK  2 active torsions:
REMARK  status: ('A' for Active; 'I' for Inactive)
REMARK    1  A    between atoms: C2_2  and  C4_4 
REMARK    2  A    between atoms: C4_4  and  C5_5 
ROOT
HETATM    1  C1  UNL     1     -34.000   5.680   4.857  1.00 20.00     0.147 A 
HETATM    2  C2  UNL     1     -33.185   6.050   3.641  1.00 20.00     0.151 A 
HETATM    3  C3  UNL     1     -33.960   6.449   6.128  1.00 20.00     0.042 C 
HETATM    4  O6  UNL     1     -34.577   6.382   3.748  1.00 20.00    -0.376 OA
ENDROOT
BRANCH   2   5
HETATM    5  C4  UNL     1     -32.267   7.218   3.601  1.00 20.00     0.049 C 
BRANCH   5   6
HETATM    6  C5  UNL     1     -31.961   7.746   2.188  1.00 20.00     0.117 C 
HETATM    7 CL7  UNL     1     -32.551   9.409   1.972  1.00 20.00    -0.130 Cl
ENDBRANCH   5   6
ENDBRANCH   2   5
TORSDOF 2
ENDMDL
MODEL 9
REMARK VINA RESULT:      -3.3     11.662     12.581
REMARK  2 active torsions:
REMARK  status: ('A' for Active; 'I' for Inactive)
REMARK    1  A    between atoms: C2_2  and  C4_4 
REMARK    2  A    between atoms: C4_4  and  C5_5 
ROOT
HETATM    1  C1  UNL     1     -34.101  13.728  -3.769  1.00 20.00     0.147 A 
HETATM    2  C2  UNL     1     -34.403  13.377  -5.206  1.00 20.00     0.151 A 
HETATM    3  C3  UNL     1     -34.610  14.957  -3.107  1.00 20.00     0.042 C 
HETATM    4  O6  UNL     1     -35.110  12.769  -4.116  1.00 20.00    -0.376 OA
ENDROOT
BRANCH   2   5
HETATM    5  C4  UNL     1     -35.238  14.228  -6.094  1.00 20.00     0.049 C 
BRANCH   5   6
HETATM    6  C5  UNL     1     -34.446  15.055  -7.121  1.00 20.00     0.117 C 
HETATM    7 CL7  UNL     1     -34.142  16.707  -6.535  1.00 20.00    -0.130 Cl
ENDBRANCH   5   6
ENDBRANCH   2   5
TORSDOF 2
ENDMDL
