MODEL 1
REMARK VINA RESULT:      -3.8      0.000      0.000
REMARK  1 active torsions:
REMARK  status: ('A' for Active; 'I' for Inactive)
REMARK    1  A    between atoms: C2_2  and  C4_4 
ROOT
HETATM    1  C1  UNL     1     -34.723   4.515   4.557  1.00 20.00     0.171 A 
HETATM    2  C2  UNL     1     -34.054   5.859   4.370  1.00 20.00     0.175 A 
HETATM    3  C3  UNL     1     -35.205   4.008   5.871  1.00 20.00     0.044 C 
HETATM    4  O5  UNL     1     -35.443   5.652   4.067  1.00 20.00    -0.352 OA
HETATM    5 CL6  UNL     1     -33.657   6.844   5.774  1.00 20.00    -0.084 Cl
ENDROOT
BRANCH   2   6
HETATM    6  C4  UNL     1     -33.211   6.093   3.158  1.00 20.00     0.172 C 
HETATM    7 CL7  UNL     1     -31.866   7.210   3.516  1.00 20.00    -0.126 Cl
ENDBRANCH   2   6
TORSDOF 1
ENDMDL
MODEL 2
REMARK VINA RESULT:      -3.5      1.971      3.400
REMARK  1 active torsions:
REMARK  status: ('A' for Active; 'I' for Inactive)
REMARK    1  A    between atoms: C2_2  and  C4_4 
ROOT
HETATM    1  C1  UNL     1     -32.838   6.769   2.965  1.00 20.00     0.171 A 
HETATM    2  C2  UNL     1     -33.609   6.092   4.078  1.00 20.00     0.175 A 
HETATM    3  C3  UNL     1     -31.863   7.870   3.187  1.00 20.00     0.044 C 
HETATM    4  O5  UNL     1     -32.430   5.506   3.504  1.00 20.00    -0.352 OA
HETATM    5 CL6  UNL     1     -33.501   6.713   5.722  1.00 20.00    -0.084 Cl
ENDROOT
BRANCH   2   6
HETATM    6  C4  UNL     1     -34.862   5.346   3.752  1.00 20.00     0.172 C 
HETATM    7 CL7  UNL     1     -35.220   4.116   4.993  1.00 20.00    -0.126 Cl
ENDBRANCH   2   6
TORSDOF 1
ENDMDL
MODEL 3
REMARK VINA RESULT:      -3.3      2.148      3.433
REMARK  1 active torsions:
REMARK  status: ('A' for Active; 'I' for Inactive)
REMARK    1  A    between atoms: C2_2  and  C4_4 
ROOT
HETATM    1  C1  UNL     1     -33.141   5.914   4.043  1.00 20.00     0.171 A 
HETATM    2  C2  UNL     1     -34.575   5.460   4.215  1.00 20.00     0.175 A 
HETATM    3  C3  UNL     1     -32.701   6.886   3.006  1.00 20.00     0.044 C 
HETATM    4  O5  UNL     1     -33.992   6.474   5.049  1.00 20.00    -0.352 OA
HETATM    5 CL6  UNL     1     -35.797   5.958   3.050  1.00 20.00    -0.084 Cl
ENDROOT
BRANCH   2   6
HETATM    6  C4  UNL     1     -34.857   4.184   4.939  1.00 20.00     0.172 C 
HETATM    7 CL7  UNL     1     -35.211   4.487   6.661  1.00 20.00    -0.126 Cl
ENDBRANCH   2   6
TORSDOF 1
ENDMDL
MODEL 4
REMARK VINA RESULT:      -3.1      9.818     10.085
REMARK  1 active torsions:
REMARK  status: ('A' for Active; 'I' for Inactive)
REMARK    1  A    between atoms: C2_2  and  C4_4 
ROOT
HETATM    1  C1  UNL     1     -41.456   5.954  -1.640  1.00 20.00     0.171 A 
HETATM    2  C2  UNL     1     -41.973   4.642  -1.091  1.00 20.00     0.175 A 
HETATM    3  C3  UNL     1     -41.151   7.140  -0.794  1.00 20.00     0.044 C 
HETATM    4  O5  UNL     1     -40.588   4.837  -1.418  1.00 20.00    -0.352 OA
HETATM    5 CL6  UNL     1     -42.404   4.513   0.611  1.00 20.00    -0.084 Cl
ENDROOT
BRANCH   2   6
HETATM    6  C4  UNL     1     -42.671   3.690  -2.007  1.00 20.00     0.172 C 
HETATM    7 CL7  UNL     1     -41.501   2.754  -2.976  1.00 20.00    -0.126 Cl
ENDBRANCH   2   6
TORSDOF 1
ENDMDL
MODEL 5
REMARK VINA RESULT:      -3.1     12.268     12.649
REMARK  1 active torsions:
REMARK  status: ('A' for Active; 'I' for Inactive)
REMARK    1  A    between atoms: C2_2  and  C4_4 
ROOT
HETATM    1  C1  UNL     1     -35.064  15.387  -2.871  1.00 20.00     0.171 A 
HETATM    2  C2  UNL     1     -34.153  14.662  -3.837  1.00 20.00     0.175 A 
HETATM    3  C3  UNL     1     -34.574  16.211  -1.733  1.00 20.00     0.044 C 
HETATM    4  O5  UNL     1     -34.754  15.925  -4.162  1.00 20.00    -0.352 OA
HETATM    5 CL6  UNL     1     -32.417  14.628  -3.547  1.00 20.00    -0.084 Cl
ENDROOT
BRANCH   2   6
HETATM    6  C4  UNL     1     -34.695  13.523  -4.639  1.00 20.00     0.172 C 
HETATM    7 CL7  UNL     1     -35.125  14.047  -6.289  1.00 20.00    -0.126 Cl
ENDBRANCH   2   6
TORSDOF 1
ENDMDL
MODEL 6
REMARK VINA RESULT:      -3.1      1.934      3.058
REMARK  1 active torsions:
REMARK  status: ('A' for Active; 'I' for Inactive)
REMARK    1  A    between atoms: C2_2  and  C4_4 
ROOT
HETATM    1  C1  UNL     1     -33.109   6.278   4.170  1.00 20.00     0.171 A 
HETATM    2  C2  UNL     1     -34.269   5.687   4.943  1.00 20.00     0.175 A 
HETATM    3  C3  UNL     1     -32.710   5.828   2.809  1.00 20.00     0.044 C 
HETATM    4  O5  UNL     1     -34.386   6.924   4.223  1.00 20.00    -0.352 OA
HETATM    5 CL6  UNL     1     -35.120   4.283   4.309  1.00 20.00    -0.084 Cl
ENDROOT
BRANCH   2   6
HETATM    6  C4  UNL     1     -34.320   5.856   6.427  1.00 20.00     0.172 C 
HETATM    7 CL7  UNL     1     -33.618   7.420   6.920  1.00 20.00    -0.126 Cl
ENDBRANCH   2   6
TORSDOF 1
ENDMDL
MODEL 7
REMARK VINA RESULT:      -3.1     12.501     13.081
REMARK  1 active torsions:
REMARK  status: ('A' for Active; 'I' for Inactive)
REMARK    1  A    between atoms: C2_2  and  C4_4 
ROOT
HETATM    1  C1  UNL     1     -34.537  15.654  -5.287  1.00 20.00     0.171 A 
HETATM    2  C2  UNL     1     -34.039  15.204  -3.930  1.00 20.00     0.175 A 
HETATM    3  C3  UNL     1     -34.547  14.783  -6.493  1.00 20.00     0.044 C 
HETATM    4  O5  UNL     1     -35.438  15.236  -4.254  1.00 20.00    -0.352 OA
HETATM    5 CL6  UNL     1     -33.272  13.629  -3.757  1.00 20.00    -0.084 Cl
ENDROOT
BRANCH   2   6
HETATM    6  C4  UNL     1     -33.640  16.231  -2.920  1.00 20.00     0.172 C 
HETATM    7 CL7  UNL     1     -34.694  16.162  -1.483  1.00 20.00    -0.126 Cl
ENDBRANCH   2   6
TORSDOF 1
ENDMDL
MODEL 8
REMARK VINA RESULT:      -3.1     12.176     12.587
REMARK  1 active torsions:
REMARK  status: ('A' for Active; 'I' for Inactive)
REMARK    1  A    between atoms: C2_2  and  C4_4 
ROOT
HETATM    1  C1  UNL     1     -33.777  14.791  -3.678  1.00 20.00     0.171 A 
HETATM    2  C2  UNL     1     -34.942  14.019  -4.261  1.00 20.00     0.175 A 
HETATM    3  C3  UNL     1     -33.923  15.842  -2.635  1.00 20.00     0.044 C 
HETATM    4  O5  UNL     1     -34.105  13.471  -3.230  1.00 20.00    -0.352 OA
HETATM    5 CL6  UNL     1     -36.590  14.463  -3.832  1.00 20.00    -0.084 Cl
ENDROOT
BRANCH   2   6
HETATM    6  C4  UNL     1     -34.780  13.338  -5.581  1.00 20.00     0.172 C 
HETATM    7 CL7  UNL     1     -35.291  14.401  -6.920  1.00 20.00    -0.126 Cl
ENDBRANCH   2   6
TORSDOF 1
ENDMDL
MODEL 9
REMARK VINA RESULT:      -3.0     12.342     13.447
REMARK  1 active torsions:
REMARK  status: ('A' for Active; 'I' for Inactive)
REMARK    1  A    between atoms: C2_2  and  C4_4 
ROOT
HETATM    1  C1  UNL     1     -33.465  16.277  -5.127  1.00 20.00     0.171 A 
HETATM    2  C2  UNL     1     -33.629  15.324  -3.963  1.00 20.00     0.175 A 
HETATM    3  C3  UNL     1     -33.628  17.752  -5.016  1.00 20.00     0.044 C 
HETATM    4  O5  UNL     1     -32.336  15.757  -4.415  1.00 20.00    -0.352 OA
HETATM    5 CL6  UNL     1     -34.201  15.926  -2.411  1.00 20.00    -0.084 Cl
ENDROOT
BRANCH   2   6
HETATM    6  C4  UNL     1     -33.899  13.879  -4.233  1.00 20.00     0.172 C 
HETATM    7 CL7  UNL     1     -35.649  13.532  -4.189  1.00 20.00    -0.126 Cl
ENDBRANCH   2   6
TORSDOF 1
ENDMDL
