MODEL 1
REMARK VINA RESULT:      -4.9      0.000      0.000
REMARK  1 active torsions:
REMARK  status: ('A' for Active; 'I' for Inactive)
REMARK    1  A    between atoms: C2_2  and  C10_10 
ROOT
HETATM    1  C1  UNL     1     -32.957  15.161  -3.804  1.00 20.00    -0.017 C 
HETATM    2  C2  UNL     1     -33.763  15.629  -2.828  1.00 20.00    -0.068 C 
HETATM    3  C3  UNL     1     -36.017  14.974  -3.830  1.00 20.00     0.135 C 
HETATM    4  C4  UNL     1     -35.731  14.750  -5.299  1.00 20.00     0.080 C 
HETATM    5  C5  UNL     1     -34.571  13.742  -5.308  1.00 20.00     0.017 C 
HETATM    6  C6  UNL     1     -33.768  13.898  -4.010  1.00 20.00     0.024 C 
HETATM    7  C7  UNL     1     -34.774  14.509  -3.011  1.00 20.00     0.092 C 
HETATM    8  O11 UNL     1     -37.052  15.485  -3.417  1.00 20.00    -0.297 OA
ENDROOT
BRANCH   2   9
HETATM    9  C10 UNL     1     -33.731  16.880  -1.931  1.00 20.00     0.007 C 
HETATM   10  C8  UNL     1     -34.088  18.088  -2.765  1.00 20.00     0.014 C 
HETATM   11  C9  UNL     1     -34.674  16.684  -0.765  1.00 20.00     0.014 C 
ENDBRANCH   2   9
TORSDOF 1
ENDMDL
MODEL 2
REMARK VINA RESULT:      -4.8      1.641      2.059
REMARK  1 active torsions:
REMARK  status: ('A' for Active; 'I' for Inactive)
REMARK    1  A    between atoms: C2_2  and  C10_10 
ROOT
HETATM    1  C1  UNL     1     -34.065  17.272  -4.371  1.00 20.00    -0.017 C 
HETATM    2  C2  UNL     1     -33.606  16.603  -3.293  1.00 20.00    -0.068 C 
HETATM    3  C3  UNL     1     -33.955  14.217  -4.128  1.00 20.00     0.135 C 
HETATM    4  C4  UNL     1     -34.948  14.351  -5.262  1.00 20.00     0.080 C 
HETATM    5  C5  UNL     1     -34.318  15.401  -6.192  1.00 20.00     0.017 C 
HETATM    6  C6  UNL     1     -33.419  16.324  -5.361  1.00 20.00     0.024 C 
HETATM    7  C7  UNL     1     -33.032  15.474  -4.132  1.00 20.00     0.092 C 
HETATM    8  O11 UNL     1     -33.957  13.278  -3.339  1.00 20.00    -0.297 OA
ENDROOT
BRANCH   2   9
HETATM    9  C10 UNL     1     -33.708  16.837  -1.774  1.00 20.00     0.007 C 
HETATM   10  C8  UNL     1     -33.455  18.299  -1.487  1.00 20.00     0.014 C 
HETATM   11  C9  UNL     1     -35.065  16.380  -1.287  1.00 20.00     0.014 C 
ENDBRANCH   2   9
TORSDOF 1
ENDMDL
MODEL 3
REMARK VINA RESULT:      -4.7      1.719      3.920
REMARK  1 active torsions:
REMARK  status: ('A' for Active; 'I' for Inactive)
REMARK    1  A    between atoms: C2_2  and  C10_10 
ROOT
HETATM    1  C1  UNL     1     -35.245  16.008  -2.030  1.00 20.00    -0.017 C 
HETATM    2  C2  UNL     1     -34.815  15.230  -3.045  1.00 20.00    -0.068 C 
HETATM    3  C3  UNL     1     -33.359  16.936  -4.263  1.00 20.00     0.135 C 
HETATM    4  C4  UNL     1     -33.836  18.279  -3.751  1.00 20.00     0.080 C 
HETATM    5  C5  UNL     1     -33.746  18.152  -2.222  1.00 20.00     0.017 C 
HETATM    6  C6  UNL     1     -33.899  16.676  -1.836  1.00 20.00     0.024 C 
HETATM    7  C7  UNL     1     -33.455  15.904  -3.097  1.00 20.00     0.092 C 
HETATM    8  O11 UNL     1     -33.016  16.742  -5.424  1.00 20.00    -0.297 OA
ENDROOT
BRANCH   2   9
HETATM    9  C10 UNL     1     -35.480  14.136  -3.902  1.00 20.00     0.007 C 
HETATM   10  C8  UNL     1     -36.439  14.790  -4.870  1.00 20.00     0.014 C 
HETATM   11  C9  UNL     1     -34.410  13.331  -4.604  1.00 20.00     0.014 C 
ENDBRANCH   2   9
TORSDOF 1
ENDMDL
MODEL 4
REMARK VINA RESULT:      -4.6      1.820      2.452
REMARK  1 active torsions:
REMARK  status: ('A' for Active; 'I' for Inactive)
REMARK    1  A    between atoms: C2_2  and  C10_10 
ROOT
HETATM    1  C1  UNL     1     -35.851  16.031  -2.580  1.00 20.00    -0.017 C 
HETATM    2  C2  UNL     1     -34.601  16.498  -2.378  1.00 20.00    -0.068 C 
HETATM    3  C3  UNL     1     -33.303  14.737  -3.694  1.00 20.00     0.135 C 
HETATM    4  C4  UNL     1     -34.263  13.574  -3.825  1.00 20.00     0.080 C 
HETATM    5  C5  UNL     1     -35.531  14.198  -4.430  1.00 20.00     0.017 C 
HETATM    6  C6  UNL     1     -35.594  15.678  -4.032  1.00 20.00     0.024 C 
HETATM    7  C7  UNL     1     -34.125  16.061  -3.753  1.00 20.00     0.092 C 
HETATM    8  O11 UNL     1     -32.097  14.597  -3.521  1.00 20.00    -0.297 OA
ENDROOT
BRANCH   2   9
HETATM    9  C10 UNL     1     -33.887  17.140  -1.174  1.00 20.00     0.007 C 
HETATM   10  C8  UNL     1     -33.436  18.530  -1.558  1.00 20.00     0.014 C 
HETATM   11  C9  UNL     1     -34.820  17.144   0.017  1.00 20.00     0.014 C 
ENDBRANCH   2   9
TORSDOF 1
ENDMDL
MODEL 5
REMARK VINA RESULT:      -4.6      1.012      1.555
REMARK  1 active torsions:
REMARK  status: ('A' for Active; 'I' for Inactive)
REMARK    1  A    between atoms: C2_2  and  C10_10 
ROOT
HETATM    1  C1  UNL     1     -33.876  14.642  -3.235  1.00 20.00    -0.017 C 
HETATM    2  C2  UNL     1     -34.870  15.503  -2.933  1.00 20.00    -0.068 C 
HETATM    3  C3  UNL     1     -36.249  15.280  -5.069  1.00 20.00     0.135 C 
HETATM    4  C4  UNL     1     -35.294  14.684  -6.080  1.00 20.00     0.080 C 
HETATM    5  C5  UNL     1     -34.751  13.423  -5.387  1.00 20.00     0.017 C 
HETATM    6  C6  UNL     1     -34.808  13.628  -3.868  1.00 20.00     0.024 C 
HETATM    7  C7  UNL     1     -35.917  14.682  -3.667  1.00 20.00     0.092 C 
HETATM    8  O11 UNL     1     -37.090  16.125  -5.355  1.00 20.00    -0.297 OA
ENDROOT
BRANCH   2   9
HETATM    9  C10 UNL     1     -34.918  16.860  -2.206  1.00 20.00     0.007 C 
HETATM   10  C8  UNL     1     -34.619  16.639  -0.741  1.00 20.00     0.014 C 
HETATM   11  C9  UNL     1     -33.940  17.811  -2.857  1.00 20.00     0.014 C 
ENDBRANCH   2   9
TORSDOF 1
ENDMDL
MODEL 6
REMARK VINA RESULT:      -4.5      1.962      4.234
REMARK  1 active torsions:
REMARK  status: ('A' for Active; 'I' for Inactive)
REMARK    1  A    between atoms: C2_2  and  C10_10 
ROOT
HETATM    1  C1  UNL     1     -35.928  16.464  -4.785  1.00 20.00    -0.017 C 
HETATM    2  C2  UNL     1     -36.348  15.364  -5.446  1.00 20.00    -0.068 C 
HETATM    3  C3  UNL     1     -35.032  13.600  -4.154  1.00 20.00     0.135 C 
HETATM    4  C4  UNL     1     -33.929  14.374  -3.466  1.00 20.00     0.080 C 
HETATM    5  C5  UNL     1     -34.668  15.485  -2.703  1.00 20.00     0.017 C 
HETATM    6  C6  UNL     1     -35.984  15.793  -3.427  1.00 20.00     0.024 C 
HETATM    7  C7  UNL     1     -36.307  14.497  -4.200  1.00 20.00     0.092 C 
HETATM    8  O11 UNL     1     -34.875  12.477  -4.622  1.00 20.00    -0.297 OA
ENDROOT
BRANCH   2   9
HETATM    9  C10 UNL     1     -36.656  15.066  -6.925  1.00 20.00     0.007 C 
HETATM   10  C8  UNL     1     -37.243  16.305  -7.561  1.00 20.00     0.014 C 
HETATM   11  C9  UNL     1     -35.394  14.604  -7.617  1.00 20.00     0.014 C 
ENDBRANCH   2   9
TORSDOF 1
ENDMDL
MODEL 7
REMARK VINA RESULT:      -4.4      1.754      2.435
REMARK  1 active torsions:
REMARK  status: ('A' for Active; 'I' for Inactive)
REMARK    1  A    between atoms: C2_2  and  C10_10 
ROOT
HETATM    1  C1  UNL     1     -33.502  16.173  -4.558  1.00 20.00    -0.017 C 
HETATM    2  C2  UNL     1     -34.768  16.563  -4.302  1.00 20.00    -0.068 C 
HETATM    3  C3  UNL     1     -35.801  14.276  -3.836  1.00 20.00     0.135 C 
HETATM    4  C4  UNL     1     -34.832  13.288  -4.450  1.00 20.00     0.080 C 
HETATM    5  C5  UNL     1     -33.476  13.654  -3.827  1.00 20.00     0.017 C 
HETATM    6  C6  UNL     1     -33.488  15.140  -3.449  1.00 20.00     0.024 C 
HETATM    7  C7  UNL     1     -34.983  15.474  -3.264  1.00 20.00     0.092 C 
HETATM    8  O11 UNL     1     -37.018  14.129  -3.861  1.00 20.00    -0.297 OA
ENDROOT
BRANCH   2   9
HETATM    9  C10 UNL     1     -35.691  17.640  -4.902  1.00 20.00     0.007 C 
HETATM   10  C8  UNL     1     -36.244  17.134  -6.214  1.00 20.00     0.014 C 
HETATM   11  C9  UNL     1     -36.779  17.978  -3.908  1.00 20.00     0.014 C 
ENDBRANCH   2   9
TORSDOF 1
ENDMDL
MODEL 8
REMARK VINA RESULT:      -4.4      2.139      4.272
REMARK  1 active torsions:
REMARK  status: ('A' for Active; 'I' for Inactive)
REMARK    1  A    between atoms: C2_2  and  C10_10 
ROOT
HETATM    1  C1  UNL     1     -35.003  15.755  -1.947  1.00 20.00    -0.017 C 
HETATM    2  C2  UNL     1     -33.818  16.028  -2.533  1.00 20.00    -0.068 C 
HETATM    3  C3  UNL     1     -33.832  18.569  -2.288  1.00 20.00     0.135 C 
HETATM    4  C4  UNL     1     -35.282  18.920  -2.039  1.00 20.00     0.080 C 
HETATM    5  C5  UNL     1     -35.685  18.037  -0.847  1.00 20.00     0.017 C 
HETATM    6  C6  UNL     1     -34.810  16.777  -0.845  1.00 20.00     0.024 C 
HETATM    7  C7  UNL     1     -33.534  17.198  -1.606  1.00 20.00     0.092 C 
HETATM    8  O11 UNL     1     -33.078  19.260  -2.964  1.00 20.00    -0.297 OA
ENDROOT
BRANCH   2   9
HETATM    9  C10 UNL     1     -33.073  15.444  -3.747  1.00 20.00     0.007 C 
HETATM   10  C8  UNL     1     -33.251  13.944  -3.755  1.00 20.00     0.014 C 
HETATM   11  C9  UNL     1     -33.589  16.093  -5.012  1.00 20.00     0.014 C 
ENDBRANCH   2   9
TORSDOF 1
ENDMDL
MODEL 9
REMARK VINA RESULT:      -4.3      2.267      3.624
REMARK  1 active torsions:
REMARK  status: ('A' for Active; 'I' for Inactive)
REMARK    1  A    between atoms: C2_2  and  C10_10 
ROOT
HETATM    1  C1  UNL     1     -35.840  14.039  -4.259  1.00 20.00    -0.017 C 
HETATM    2  C2  UNL     1     -35.842  15.101  -5.092  1.00 20.00    -0.068 C 
HETATM    3  C3  UNL     1     -33.407  15.818  -4.825  1.00 20.00     0.135 C 
HETATM    4  C4  UNL     1     -32.955  15.163  -3.538  1.00 20.00     0.080 C 
HETATM    5  C5  UNL     1     -33.296  13.677  -3.731  1.00 20.00     0.017 C 
HETATM    6  C6  UNL     1     -34.474  13.561  -4.707  1.00 20.00     0.024 C 
HETATM    7  C7  UNL     1     -34.410  14.859  -5.538  1.00 20.00     0.092 C 
HETATM    8  O11 UNL     1     -33.049  16.938  -5.172  1.00 20.00    -0.297 OA
ENDROOT
BRANCH   2   9
HETATM    9  C10 UNL     1     -36.869  16.205  -5.405  1.00 20.00     0.007 C 
HETATM   10  C8  UNL     1     -36.852  17.219  -4.284  1.00 20.00     0.014 C 
HETATM   11  C9  UNL     1     -36.547  16.823  -6.747  1.00 20.00     0.014 C 
ENDBRANCH   2   9
TORSDOF 1
ENDMDL
