MODEL 1
REMARK VINA RESULT:      -5.0      0.000      0.000
REMARK  1 active torsions:
REMARK  status: ('A' for Active; 'I' for Inactive)
REMARK    1  A    between atoms: C3_3  and  C6_6 
ROOT
HETATM    1  C1  UNL     1     -34.682  15.219  -2.509  1.00 20.00    -0.009 C 
HETATM    2  C2  UNL     1     -34.395  16.532  -2.516  1.00 20.00    -0.086 C 
HETATM    3  C4  UNL     1     -34.690  17.406  -3.709  1.00 20.00     0.037 C 
HETATM    4  C5  UNL     1     -35.797  15.407  -4.794  1.00 20.00     0.023 C 
HETATM    5  C6  UNL     1     -35.350  14.503  -3.644  1.00 20.00     0.110 C 
HETATM    6  C7  UNL     1     -34.890  16.629  -5.021  1.00 20.00    -0.014 C 
HETATM    7  C8  UNL     1     -33.778  17.216  -1.331  1.00 20.00     0.043 C 
HETATM    8  C9  UNL     1     -33.547  16.252  -5.653  1.00 20.00     0.010 C 
ENDROOT
BRANCH   5   9
HETATM    9  C3  UNL     1     -34.393  13.424  -4.114  1.00 20.00     0.180 C 
HETATM   10  O10 UNL     1     -33.236  13.473  -3.611  1.00 20.00    -0.647 OA
HETATM   11  O11 UNL     1     -34.878  12.613  -4.951  1.00 20.00    -0.647 OA
ENDBRANCH   5   9
TORSDOF 1
ENDMDL
MODEL 2
REMARK VINA RESULT:      -4.8      1.103      2.819
REMARK  1 active torsions:
REMARK  status: ('A' for Active; 'I' for Inactive)
REMARK    1  A    between atoms: C3_3  and  C6_6 
ROOT
HETATM    1  C1  UNL     1     -35.497  15.051  -5.380  1.00 20.00    -0.009 C 
HETATM    2  C2  UNL     1     -36.117  16.176  -4.986  1.00 20.00    -0.086 C 
HETATM    3  C4  UNL     1     -35.426  17.209  -4.132  1.00 20.00     0.037 C 
HETATM    4  C5  UNL     1     -33.312  15.833  -4.326  1.00 20.00     0.023 C 
HETATM    5  C6  UNL     1     -34.070  14.724  -5.057  1.00 20.00     0.110 C 
HETATM    6  C7  UNL     1     -34.188  16.679  -3.387  1.00 20.00    -0.014 C 
HETATM    7  C8  UNL     1     -37.530  16.485  -5.385  1.00 20.00     0.043 C 
HETATM    8  C9  UNL     1     -34.586  15.921  -2.117  1.00 20.00     0.010 C 
ENDROOT
BRANCH   5   9
HETATM    9  C3  UNL     1     -34.078  13.431  -4.265  1.00 20.00     0.180 C 
HETATM   10  O10 UNL     1     -35.149  12.765  -4.331  1.00 20.00    -0.647 OA
HETATM   11  O11 UNL     1     -33.009  13.185  -3.640  1.00 20.00    -0.647 OA
ENDBRANCH   5   9
TORSDOF 1
ENDMDL
MODEL 3
REMARK VINA RESULT:      -4.6      1.385      2.793
REMARK  1 active torsions:
REMARK  status: ('A' for Active; 'I' for Inactive)
REMARK    1  A    between atoms: C3_3  and  C6_6 
ROOT
HETATM    1  C1  UNL     1     -34.695  15.942  -5.513  1.00 20.00    -0.009 C 
HETATM    2  C2  UNL     1     -34.484  17.173  -5.017  1.00 20.00    -0.086 C 
HETATM    3  C4  UNL     1     -33.696  17.397  -3.751  1.00 20.00     0.037 C 
HETATM    4  C5  UNL     1     -33.220  14.913  -3.707  1.00 20.00     0.023 C 
HETATM    5  C6  UNL     1     -34.150  14.688  -4.900  1.00 20.00     0.110 C 
HETATM    6  C7  UNL     1     -33.573  16.149  -2.861  1.00 20.00    -0.014 C 
HETATM    7  C8  UNL     1     -35.002  18.404  -5.701  1.00 20.00     0.043 C 
HETATM    8  C9  UNL     1     -34.834  15.940  -2.018  1.00 20.00     0.010 C 
ENDROOT
BRANCH   5   9
HETATM    9  C3  UNL     1     -35.338  13.819  -4.533  1.00 20.00     0.180 C 
HETATM   10  O10 UNL     1     -36.459  14.399  -4.561  1.00 20.00    -0.647 OA
HETATM   11  O11 UNL     1     -35.052  12.623  -4.245  1.00 20.00    -0.647 OA
ENDBRANCH   5   9
TORSDOF 1
ENDMDL
MODEL 4
REMARK VINA RESULT:      -4.5      2.028      3.297
REMARK  1 active torsions:
REMARK  status: ('A' for Active; 'I' for Inactive)
REMARK    1  A    between atoms: C3_3  and  C6_6 
ROOT
HETATM    1  C1  UNL     1     -35.359  15.972  -5.490  1.00 20.00    -0.009 C 
HETATM    2  C2  UNL     1     -34.190  16.557  -5.175  1.00 20.00    -0.086 C 
HETATM    3  C4  UNL     1     -33.312  16.035  -4.065  1.00 20.00     0.037 C 
HETATM    4  C5  UNL     1     -34.932  14.111  -3.800  1.00 20.00     0.023 C 
HETATM    5  C6  UNL     1     -35.885  14.740  -4.818  1.00 20.00     0.110 C 
HETATM    6  C7  UNL     1     -34.042  15.126  -3.063  1.00 20.00    -0.014 C 
HETATM    7  C8  UNL     1     -33.678  17.756  -5.917  1.00 20.00     0.043 C 
HETATM    8  C9  UNL     1     -34.823  15.948  -2.033  1.00 20.00     0.010 C 
ENDROOT
BRANCH   5   9
HETATM    9  C3  UNL     1     -37.215  15.110  -4.189  1.00 20.00     0.180 C 
HETATM   10  O10 UNL     1     -37.522  16.333  -4.258  1.00 20.00    -0.647 OA
HETATM   11  O11 UNL     1     -37.847  14.145  -3.676  1.00 20.00    -0.647 OA
ENDBRANCH   5   9
TORSDOF 1
ENDMDL
MODEL 5
REMARK VINA RESULT:      -4.5      2.275      4.011
REMARK  1 active torsions:
REMARK  status: ('A' for Active; 'I' for Inactive)
REMARK    1  A    between atoms: C3_3  and  C6_6 
ROOT
HETATM    1  C1  UNL     1     -35.004  16.051  -5.587  1.00 20.00    -0.009 C 
HETATM    2  C2  UNL     1     -35.010  14.822  -6.131  1.00 20.00    -0.086 C 
HETATM    3  C4  UNL     1     -35.056  13.576  -5.283  1.00 20.00     0.037 C 
HETATM    4  C5  UNL     1     -35.287  15.067  -3.253  1.00 20.00     0.023 C 
HETATM    5  C6  UNL     1     -35.082  16.315  -4.114  1.00 20.00     0.110 C 
HETATM    6  C7  UNL     1     -34.632  13.797  -3.821  1.00 20.00    -0.014 C 
HETATM    7  C8  UNL     1     -34.990  14.612  -7.617  1.00 20.00     0.043 C 
HETATM    8  C9  UNL     1     -33.106  13.814  -3.682  1.00 20.00     0.010 C 
ENDROOT
BRANCH   5   9
HETATM    9  C3  UNL     1     -33.821  17.064  -3.729  1.00 20.00     0.180 C 
HETATM   10  O10 UNL     1     -33.082  17.408  -4.693  1.00 20.00    -0.647 OA
HETATM   11  O11 UNL     1     -33.671  17.248  -2.488  1.00 20.00    -0.647 OA
ENDBRANCH   5   9
TORSDOF 1
ENDMDL
MODEL 6
REMARK VINA RESULT:      -4.5      1.990      2.575
REMARK  1 active torsions:
REMARK  status: ('A' for Active; 'I' for Inactive)
REMARK    1  A    between atoms: C3_3  and  C6_6 
ROOT
HETATM    1  C1  UNL     1     -35.998  16.363  -2.976  1.00 20.00    -0.009 C 
HETATM    2  C2  UNL     1     -34.829  16.198  -2.334  1.00 20.00    -0.086 C 
HETATM    3  C4  UNL     1     -33.592  15.709  -3.044  1.00 20.00     0.037 C 
HETATM    4  C5  UNL     1     -34.906  15.782  -5.205  1.00 20.00     0.023 C 
HETATM    5  C6  UNL     1     -36.188  16.126  -4.443  1.00 20.00     0.110 C 
HETATM    6  C7  UNL     1     -33.877  14.995  -4.377  1.00 20.00    -0.014 C 
HETATM    7  C8  UNL     1     -34.675  16.505  -0.873  1.00 20.00     0.043 C 
HETATM    8  C9  UNL     1     -34.298  13.540  -4.149  1.00 20.00     0.010 C 
ENDROOT
BRANCH   5   9
HETATM    9  C3  UNL     1     -37.237  15.040  -4.587  1.00 20.00     0.180 C 
HETATM   10  O10 UNL     1     -37.504  14.406  -3.528  1.00 20.00    -0.647 OA
HETATM   11  O11 UNL     1     -37.710  14.909  -5.750  1.00 20.00    -0.647 OA
ENDBRANCH   5   9
TORSDOF 1
ENDMDL
MODEL 7
REMARK VINA RESULT:      -4.4      1.418      2.675
REMARK  1 active torsions:
REMARK  status: ('A' for Active; 'I' for Inactive)
REMARK    1  A    between atoms: C3_3  and  C6_6 
ROOT
HETATM    1  C1  UNL     1     -35.960  15.972  -5.212  1.00 20.00    -0.009 C 
HETATM    2  C2  UNL     1     -35.836  17.216  -4.718  1.00 20.00    -0.086 C 
HETATM    3  C4  UNL     1     -34.649  17.627  -3.883  1.00 20.00     0.037 C 
HETATM    4  C5  UNL     1     -33.658  15.340  -4.316  1.00 20.00     0.023 C 
HETATM    5  C6  UNL     1     -34.937  14.892  -5.026  1.00 20.00     0.110 C 
HETATM    6  C7  UNL     1     -33.875  16.446  -3.271  1.00 20.00    -0.014 C 
HETATM    7  C8  UNL     1     -36.860  18.280  -4.981  1.00 20.00     0.043 C 
HETATM    8  C9  UNL     1     -34.564  15.928  -2.004  1.00 20.00     0.010 C 
ENDROOT
BRANCH   5   9
HETATM    9  C3  UNL     1     -35.620  13.754  -4.292  1.00 20.00     0.180 C 
HETATM   10  O10 UNL     1     -34.935  12.699  -4.176  1.00 20.00    -0.647 OA
HETATM   11  O11 UNL     1     -36.789  14.007  -3.890  1.00 20.00    -0.647 OA
ENDBRANCH   5   9
TORSDOF 1
ENDMDL
MODEL 8
REMARK VINA RESULT:      -4.4      1.308      1.818
REMARK  1 active torsions:
REMARK  status: ('A' for Active; 'I' for Inactive)
REMARK    1  A    between atoms: C3_3  and  C6_6 
ROOT
HETATM    1  C1  UNL     1     -34.423  16.054  -3.915  1.00 20.00    -0.009 C 
HETATM    2  C2  UNL     1     -34.362  17.063  -4.802  1.00 20.00    -0.086 C 
HETATM    3  C4  UNL     1     -35.157  17.047  -6.083  1.00 20.00     0.037 C 
HETATM    4  C5  UNL     1     -36.225  14.894  -5.294  1.00 20.00     0.023 C 
HETATM    5  C6  UNL     1     -35.298  14.849  -4.079  1.00 20.00     0.110 C 
HETATM    6  C7  UNL     1     -35.642  15.648  -6.501  1.00 20.00    -0.014 C 
HETATM    7  C8  UNL     1     -33.514  18.278  -4.564  1.00 20.00     0.043 C 
HETATM    8  C9  UNL     1     -34.531  14.861  -7.202  1.00 20.00     0.010 C 
ENDROOT
BRANCH   5   9
HETATM    9  C3  UNL     1     -34.386  13.638  -4.110  1.00 20.00     0.180 C 
HETATM   10  O10 UNL     1     -33.189  13.856  -3.772  1.00 20.00    -0.647 OA
HETATM   11  O11 UNL     1     -34.942  12.563  -4.471  1.00 20.00    -0.647 OA
ENDBRANCH   5   9
TORSDOF 1
ENDMDL
MODEL 9
REMARK VINA RESULT:      -4.4      2.125      2.891
REMARK  1 active torsions:
REMARK  status: ('A' for Active; 'I' for Inactive)
REMARK    1  A    between atoms: C3_3  and  C6_6 
ROOT
HETATM    1  C1  UNL     1     -36.346  14.412  -3.997  1.00 20.00    -0.009 C 
HETATM    2  C2  UNL     1     -36.982  15.163  -4.912  1.00 20.00    -0.086 C 
HETATM    3  C4  UNL     1     -36.572  15.169  -6.363  1.00 20.00     0.037 C 
HETATM    4  C5  UNL     1     -34.889  13.364  -5.807  1.00 20.00     0.023 C 
HETATM    5  C6  UNL     1     -35.212  13.486  -4.317  1.00 20.00     0.110 C 
HETATM    6  C7  UNL     1     -35.146  14.648  -6.613  1.00 20.00    -0.014 C 
HETATM    7  C8  UNL     1     -38.152  16.031  -4.552  1.00 20.00     0.043 C 
HETATM    8  C9  UNL     1     -34.102  15.733  -6.333  1.00 20.00     0.010 C 
ENDROOT
BRANCH   5   9
HETATM    9  C3  UNL     1     -34.012  13.959  -3.518  1.00 20.00     0.180 C 
HETATM   10  O10 UNL     1     -34.187  15.025  -2.864  1.00 20.00    -0.647 OA
HETATM   11  O11 UNL     1     -32.990  13.224  -3.610  1.00 20.00    -0.647 OA
ENDBRANCH   5   9
TORSDOF 1
ENDMDL
