MODEL 1
REMARK VINA RESULT:      -4.6      0.000      0.000
REMARK  2 active torsions:
REMARK  status: ('A' for Active; 'I' for Inactive)
REMARK    1  A    between atoms: C3_3  and  C4_4 
REMARK    2  A    between atoms: C4_4  and  C5_5 
ROOT
HETATM    1  C1  UNL     1     -32.062   8.244   2.123  1.00 20.00    -0.151 C 
HETATM    2  C2  UNL     1     -32.045   8.899   1.003  1.00 20.00     0.096 C 
HETATM    3  C3  UNL     1     -32.077   7.591   3.247  1.00 20.00     0.103 C 
ENDROOT
BRANCH   3   4
HETATM    4  C4  UNL     1     -32.566   6.195   3.301  1.00 20.00     0.188 C 
HETATM    5  O9  UNL     1     -32.549   5.433   2.346  1.00 20.00    -0.290 OA
BRANCH   4   6
HETATM    6  C5  UNL     1     -33.085   5.760   4.598  1.00 20.00     0.230 A 
HETATM    7  C6  UNL     1     -34.553   5.442   4.804  1.00 20.00     0.088 A 
HETATM    8  C7  UNL     1     -34.947   4.570   5.954  1.00 20.00     0.049 C 
HETATM    9  C8  UNL     1     -35.533   5.546   3.678  1.00 20.00     0.049 C 
HETATM   10  O10 UNL     1     -33.991   6.700   5.199  1.00 20.00    -0.362 OA
ENDBRANCH   4   6
ENDBRANCH   3   4
TORSDOF 2
ENDMDL
MODEL 2
REMARK VINA RESULT:      -4.5     11.080     11.980
REMARK  2 active torsions:
REMARK  status: ('A' for Active; 'I' for Inactive)
REMARK    1  A    between atoms: C3_3  and  C4_4 
REMARK    2  A    between atoms: C4_4  and  C5_5 
ROOT
HETATM    1  C1  UNL     1     -33.961  16.069  -2.268  1.00 20.00    -0.151 C 
HETATM    2  C2  UNL     1     -34.658  16.489  -1.257  1.00 20.00     0.096 C 
HETATM    3  C3  UNL     1     -33.261  15.652  -3.280  1.00 20.00     0.103 C 
ENDROOT
BRANCH   3   4
HETATM    4  C4  UNL     1     -33.664  14.441  -4.028  1.00 20.00     0.188 C 
HETATM    5  O9  UNL     1     -33.422  13.302  -3.657  1.00 20.00    -0.290 OA
BRANCH   4   6
HETATM    6  C5  UNL     1     -34.392  14.684  -5.274  1.00 20.00     0.230 A 
HETATM    7  C6  UNL     1     -35.907  14.679  -5.328  1.00 20.00     0.088 A 
HETATM    8  C7  UNL     1     -36.590  15.382  -6.457  1.00 20.00     0.049 C 
HETATM    9  C8  UNL     1     -36.724  14.440  -4.097  1.00 20.00     0.049 C 
HETATM   10  O10 UNL     1     -35.135  13.543  -5.737  1.00 20.00    -0.362 OA
ENDBRANCH   4   6
ENDBRANCH   3   4
TORSDOF 2
ENDMDL
MODEL 3
REMARK VINA RESULT:      -4.4     11.424     12.379
REMARK  2 active torsions:
REMARK  status: ('A' for Active; 'I' for Inactive)
REMARK    1  A    between atoms: C3_3  and  C4_4 
REMARK    2  A    between atoms: C4_4  and  C5_5 
ROOT
HETATM    1  C1  UNL     1     -34.549  16.572  -1.127  1.00 20.00    -0.151 C 
HETATM    2  C2  UNL     1     -34.824  17.144   0.005  1.00 20.00     0.096 C 
HETATM    3  C3  UNL     1     -34.269  15.999  -2.260  1.00 20.00     0.103 C 
ENDROOT
BRANCH   3   4
HETATM    4  C4  UNL     1     -35.324  15.782  -3.274  1.00 20.00     0.188 C 
HETATM    5  O9  UNL     1     -36.482  15.499  -3.000  1.00 20.00    -0.290 OA
BRANCH   4   6
HETATM    6  C5  UNL     1     -34.898  15.927  -4.666  1.00 20.00     0.230 A 
HETATM    7  C6  UNL     1     -34.476  14.735  -5.501  1.00 20.00     0.088 A 
HETATM    8  C7  UNL     1     -34.516  14.848  -6.992  1.00 20.00     0.049 C 
HETATM    9  C8  UNL     1     -34.494  13.349  -4.935  1.00 20.00     0.049 C 
HETATM   10  O10 UNL     1     -33.515  15.598  -4.881  1.00 20.00    -0.362 OA
ENDBRANCH   4   6
ENDBRANCH   3   4
TORSDOF 2
ENDMDL
MODEL 4
REMARK VINA RESULT:      -4.4     10.845     12.449
REMARK  2 active torsions:
REMARK  status: ('A' for Active; 'I' for Inactive)
REMARK    1  A    between atoms: C3_3  and  C4_4 
REMARK    2  A    between atoms: C4_4  and  C5_5 
ROOT
HETATM    1  C1  UNL     1     -34.439  15.732  -2.418  1.00 20.00    -0.151 C 
HETATM    2  C2  UNL     1     -33.865  16.731  -1.821  1.00 20.00     0.096 C 
HETATM    3  C3  UNL     1     -35.017  14.732  -3.013  1.00 20.00     0.103 C 
ENDROOT
BRANCH   3   4
HETATM    4  C4  UNL     1     -34.294  13.943  -4.035  1.00 20.00     0.188 C 
HETATM    5  O9  UNL     1     -33.253  13.340  -3.817  1.00 20.00    -0.290 OA
BRANCH   4   6
HETATM    6  C5  UNL     1     -34.908  13.920  -5.363  1.00 20.00     0.230 A 
HETATM    7  C6  UNL     1     -34.684  15.033  -6.367  1.00 20.00     0.088 A 
HETATM    8  C7  UNL     1     -34.915  14.753  -7.818  1.00 20.00     0.049 C 
HETATM    9  C8  UNL     1     -33.805  16.201  -6.042  1.00 20.00     0.049 C 
HETATM   10  O10 UNL     1     -35.872  14.966  -5.568  1.00 20.00    -0.362 OA
ENDBRANCH   4   6
ENDBRANCH   3   4
TORSDOF 2
ENDMDL
MODEL 5
REMARK VINA RESULT:      -4.3     11.022     12.034
REMARK  2 active torsions:
REMARK  status: ('A' for Active; 'I' for Inactive)
REMARK    1  A    between atoms: C3_3  and  C4_4 
REMARK    2  A    between atoms: C4_4  and  C5_5 
ROOT
HETATM    1  C1  UNL     1     -35.469  14.618  -6.643  1.00 20.00    -0.151 C 
HETATM    2  C2  UNL     1     -36.494  14.833  -7.408  1.00 20.00     0.096 C 
HETATM    3  C3  UNL     1     -34.438  14.402  -5.880  1.00 20.00     0.103 C 
ENDROOT
BRANCH   3   4
HETATM    4  C4  UNL     1     -34.613  13.860  -4.514  1.00 20.00     0.188 C 
HETATM    5  O9  UNL     1     -35.126  12.777  -4.274  1.00 20.00    -0.290 OA
BRANCH   4   6
HETATM    6  C5  UNL     1     -34.123  14.714  -3.431  1.00 20.00     0.230 A 
HETATM    7  C6  UNL     1     -34.993  15.782  -2.800  1.00 20.00     0.088 A 
HETATM    8  C7  UNL     1     -34.647  16.280  -1.433  1.00 20.00     0.049 C 
HETATM    9  C8  UNL     1     -36.404  15.997  -3.252  1.00 20.00     0.049 C 
HETATM   10  O10 UNL     1     -34.014  16.100  -3.797  1.00 20.00    -0.362 OA
ENDBRANCH   4   6
ENDBRANCH   3   4
TORSDOF 2
ENDMDL
MODEL 6
REMARK VINA RESULT:      -4.2     11.242     12.399
REMARK  2 active torsions:
REMARK  status: ('A' for Active; 'I' for Inactive)
REMARK    1  A    between atoms: C3_3  and  C4_4 
REMARK    2  A    between atoms: C4_4  and  C5_5 
ROOT
HETATM    1  C1  UNL     1     -34.146  17.111  -1.796  1.00 20.00    -0.151 C 
HETATM    2  C2  UNL     1     -34.632  16.667  -0.678  1.00 20.00     0.096 C 
HETATM    3  C3  UNL     1     -33.659  17.559  -2.915  1.00 20.00     0.103 C 
ENDROOT
BRANCH   3   4
HETATM    4  C4  UNL     1     -33.793  16.775  -4.163  1.00 20.00     0.188 C 
HETATM    5  O9  UNL     1     -32.863  16.542  -4.921  1.00 20.00    -0.290 OA
BRANCH   4   6
HETATM    6  C5  UNL     1     -35.138  16.277  -4.452  1.00 20.00     0.230 A 
HETATM    7  C6  UNL     1     -35.523  14.831  -4.213  1.00 20.00     0.088 A 
HETATM    8  C7  UNL     1     -36.970  14.486  -4.062  1.00 20.00     0.049 C 
HETATM    9  C8  UNL     1     -34.540  13.852  -3.651  1.00 20.00     0.049 C 
HETATM   10  O10 UNL     1     -35.176  15.313  -5.517  1.00 20.00    -0.362 OA
ENDBRANCH   4   6
ENDBRANCH   3   4
TORSDOF 2
ENDMDL
MODEL 7
REMARK VINA RESULT:      -4.1     11.153     12.076
REMARK  2 active torsions:
REMARK  status: ('A' for Active; 'I' for Inactive)
REMARK    1  A    between atoms: C3_3  and  C4_4 
REMARK    2  A    between atoms: C4_4  and  C5_5 
ROOT
HETATM    1  C1  UNL     1     -34.177  17.500  -0.154  1.00 20.00    -0.151 C 
HETATM    2  C2  UNL     1     -33.612  18.421   0.565  1.00 20.00     0.096 C 
HETATM    3  C3  UNL     1     -34.743  16.575  -0.871  1.00 20.00     0.103 C 
ENDROOT
BRANCH   3   4
HETATM    4  C4  UNL     1     -35.010  16.795  -2.309  1.00 20.00     0.188 C 
HETATM    5  O9  UNL     1     -34.907  17.882  -2.861  1.00 20.00    -0.290 OA
BRANCH   4   6
HETATM    6  C5  UNL     1     -35.417  15.609  -3.063  1.00 20.00     0.230 A 
HETATM    7  C6  UNL     1     -34.409  14.735  -3.782  1.00 20.00     0.088 A 
HETATM    8  C7  UNL     1     -34.785  13.325  -4.114  1.00 20.00     0.049 C 
HETATM    9  C8  UNL     1     -32.945  15.043  -3.735  1.00 20.00     0.049 C 
HETATM   10  O10 UNL     1     -35.184  15.719  -4.477  1.00 20.00    -0.362 OA
ENDBRANCH   4   6
ENDBRANCH   3   4
TORSDOF 2
ENDMDL
MODEL 8
REMARK VINA RESULT:      -4.1     11.366     12.365
REMARK  2 active torsions:
REMARK  status: ('A' for Active; 'I' for Inactive)
REMARK    1  A    between atoms: C3_3  and  C4_4 
REMARK    2  A    between atoms: C4_4  and  C5_5 
ROOT
HETATM    1  C1  UNL     1     -33.995  16.008  -6.050  1.00 20.00    -0.151 C 
HETATM    2  C2  UNL     1     -33.598  17.207  -5.753  1.00 20.00     0.096 C 
HETATM    3  C3  UNL     1     -34.390  14.807  -6.352  1.00 20.00     0.103 C 
ENDROOT
BRANCH   3   4
HETATM    4  C4  UNL     1     -35.209  14.022  -5.401  1.00 20.00     0.188 C 
HETATM    5  O9  UNL     1     -34.908  12.904  -5.008  1.00 20.00    -0.290 OA
BRANCH   4   6
HETATM    6  C5  UNL     1     -36.435  14.673  -4.940  1.00 20.00     0.230 A 
HETATM    7  C6  UNL     1     -36.509  15.382  -3.602  1.00 20.00     0.088 A 
HETATM    8  C7  UNL     1     -37.576  16.409  -3.388  1.00 20.00     0.049 C 
HETATM    9  C8  UNL     1     -35.317  15.459  -2.701  1.00 20.00     0.049 C 
HETATM   10  O10 UNL     1     -37.014  14.053  -3.779  1.00 20.00    -0.362 OA
ENDBRANCH   4   6
ENDBRANCH   3   4
TORSDOF 2
ENDMDL
MODEL 9
REMARK VINA RESULT:      -4.1     10.862     12.586
REMARK  2 active torsions:
REMARK  status: ('A' for Active; 'I' for Inactive)
REMARK    1  A    between atoms: C3_3  and  C4_4 
REMARK    2  A    between atoms: C4_4  and  C5_5 
ROOT
HETATM    1  C1  UNL     1     -36.462  14.777  -3.776  1.00 20.00    -0.151 C 
HETATM    2  C2  UNL     1     -37.318  15.716  -3.517  1.00 20.00     0.096 C 
HETATM    3  C3  UNL     1     -35.606  13.833  -4.036  1.00 20.00     0.103 C 
ENDROOT
BRANCH   3   4
HETATM    4  C4  UNL     1     -34.152  14.087  -3.940  1.00 20.00     0.188 C 
HETATM    5  O9  UNL     1     -33.308  13.203  -3.923  1.00 20.00    -0.290 OA
BRANCH   4   6
HETATM    6  C5  UNL     1     -33.762  15.495  -3.864  1.00 20.00     0.230 A 
HETATM    7  C6  UNL     1     -33.634  16.357  -5.104  1.00 20.00     0.088 A 
HETATM    8  C7  UNL     1     -33.710  17.844  -4.960  1.00 20.00     0.049 C 
HETATM    9  C8  UNL     1     -33.919  15.801  -6.465  1.00 20.00     0.049 C 
HETATM   10  O10 UNL     1     -32.489  15.773  -4.471  1.00 20.00    -0.362 OA
ENDBRANCH   4   6
ENDBRANCH   3   4
TORSDOF 2
ENDMDL
