MODEL 1
REMARK VINA RESULT:      -4.5      0.000      0.000
REMARK  1 active torsions:
REMARK  status: ('A' for Active; 'I' for Inactive)
REMARK    1  A    between atoms: C5_5  and  C8_8 
ROOT
HETATM    1  C1  UNL     1     -34.902  15.984  -4.740  1.00 20.00     0.006 A 
HETATM    2  C2  UNL     1     -34.613  14.931  -5.500  1.00 20.00     0.076 A 
HETATM    3  C3  UNL     1     -34.555  13.764  -4.613  1.00 20.00     0.171 A 
HETATM    4  C4  UNL     1     -34.861  14.151  -3.193  1.00 20.00     0.093 A 
HETATM    5  C5  UNL     1     -35.059  15.671  -3.279  1.00 20.00     0.020 A 
HETATM    6  O9  UNL     1     -34.301  12.629  -4.985  1.00 20.00    -0.291 OA
HETATM    7 CL10 UNL     1     -34.358  14.867  -7.164  1.00 20.00    -0.081 Cl
ENDROOT
BRANCH   5   8
HETATM    8  C8  UNL     1     -34.047  16.433  -2.431  1.00 20.00    -0.015 C 
HETATM    9  C6  UNL     1     -33.754  17.803  -3.041  1.00 20.00     0.010 C 
HETATM   10  C7  UNL     1     -34.550  16.584  -0.996  1.00 20.00     0.010 C 
ENDBRANCH   5   8
TORSDOF 1
ENDMDL
MODEL 2
REMARK VINA RESULT:      -4.3      1.999      2.484
REMARK  1 active torsions:
REMARK  status: ('A' for Active; 'I' for Inactive)
REMARK    1  A    between atoms: C5_5  and  C8_8 
ROOT
HETATM    1  C1  UNL     1     -33.622  15.785  -3.090  1.00 20.00     0.006 A 
HETATM    2  C2  UNL     1     -34.509  14.853  -3.431  1.00 20.00     0.076 A 
HETATM    3  C3  UNL     1     -35.837  15.391  -3.115  1.00 20.00     0.171 A 
HETATM    4  C4  UNL     1     -35.737  16.782  -2.555  1.00 20.00     0.093 A 
HETATM    5  C5  UNL     1     -34.222  17.031  -2.504  1.00 20.00     0.020 A 
HETATM    6  O9  UNL     1     -36.883  14.787  -3.294  1.00 20.00    -0.291 OA
HETATM    7 CL10 UNL     1     -34.240  13.335  -4.107  1.00 20.00    -0.081 Cl
ENDROOT
BRANCH   5   8
HETATM    8  C8  UNL     1     -33.725  17.279  -1.085  1.00 20.00    -0.015 C 
HETATM    9  C6  UNL     1     -33.121  18.677  -0.961  1.00 20.00     0.010 C 
HETATM   10  C7  UNL     1     -34.858  17.095  -0.076  1.00 20.00     0.010 C 
ENDBRANCH   5   8
TORSDOF 1
ENDMDL
MODEL 3
REMARK VINA RESULT:      -4.3      1.951      2.323
REMARK  1 active torsions:
REMARK  status: ('A' for Active; 'I' for Inactive)
REMARK    1  A    between atoms: C5_5  and  C8_8 
ROOT
HETATM    1  C1  UNL     1     -35.524  15.781  -3.141  1.00 20.00     0.006 A 
HETATM    2  C2  UNL     1     -36.105  14.708  -3.672  1.00 20.00     0.076 A 
HETATM    3  C3  UNL     1     -35.036  13.750  -3.977  1.00 20.00     0.171 A 
HETATM    4  C4  UNL     1     -33.694  14.290  -3.570  1.00 20.00     0.093 A 
HETATM    5  C5  UNL     1     -34.028  15.691  -3.036  1.00 20.00     0.020 A 
HETATM    6  O9  UNL     1     -35.220  12.655  -4.487  1.00 20.00    -0.291 OA
HETATM    7 CL10 UNL     1     -37.740  14.425  -3.960  1.00 20.00    -0.081 Cl
ENDROOT
BRANCH   5   8
HETATM    8  C8  UNL     1     -33.343  16.792  -3.837  1.00 20.00    -0.015 C 
HETATM    9  C6  UNL     1     -33.380  16.476  -5.331  1.00 20.00     0.010 C 
HETATM   10  C7  UNL     1     -33.994  18.146  -3.560  1.00 20.00     0.010 C 
ENDBRANCH   5   8
TORSDOF 1
ENDMDL
MODEL 4
REMARK VINA RESULT:      -4.2      1.690      2.378
REMARK  1 active torsions:
REMARK  status: ('A' for Active; 'I' for Inactive)
REMARK    1  A    between atoms: C5_5  and  C8_8 
ROOT
HETATM    1  C1  UNL     1     -34.333  14.684  -3.104  1.00 20.00     0.006 A 
HETATM    2  C2  UNL     1     -34.332  14.521  -4.424  1.00 20.00     0.076 A 
HETATM    3  C3  UNL     1     -33.902  15.793  -5.013  1.00 20.00     0.171 A 
HETATM    4  C4  UNL     1     -33.595  16.806  -3.945  1.00 20.00     0.093 A 
HETATM    5  C5  UNL     1     -33.927  16.056  -2.646  1.00 20.00     0.020 A 
HETATM    6  O9  UNL     1     -33.799  15.996  -6.213  1.00 20.00    -0.291 OA
HETATM    7 CL10 UNL     1     -34.725  13.149  -5.320  1.00 20.00    -0.081 Cl
ENDROOT
BRANCH   5   8
HETATM    8  C8  UNL     1     -35.040  16.736  -1.857  1.00 20.00    -0.015 C 
HETATM    9  C6  UNL     1     -34.629  16.923  -0.398  1.00 20.00     0.010 C 
HETATM   10  C7  UNL     1     -35.405  18.080  -2.487  1.00 20.00     0.010 C 
ENDBRANCH   5   8
TORSDOF 1
ENDMDL
MODEL 5
REMARK VINA RESULT:      -4.2      2.618      3.740
REMARK  1 active torsions:
REMARK  status: ('A' for Active; 'I' for Inactive)
REMARK    1  A    between atoms: C5_5  and  C8_8 
ROOT
HETATM    1  C1  UNL     1     -33.307  16.063  -4.720  1.00 20.00     0.006 A 
HETATM    2  C2  UNL     1     -33.553  17.368  -4.637  1.00 20.00     0.076 A 
HETATM    3  C3  UNL     1     -33.877  17.655  -3.236  1.00 20.00     0.171 A 
HETATM    4  C4  UNL     1     -33.794  16.410  -2.397  1.00 20.00     0.093 A 
HETATM    5  C5  UNL     1     -33.443  15.321  -3.421  1.00 20.00     0.020 A 
HETATM    6  O9  UNL     1     -34.165  18.763  -2.810  1.00 20.00    -0.291 OA
HETATM    7 CL10 UNL     1     -33.511  18.531  -5.855  1.00 20.00    -0.081 Cl
ENDROOT
BRANCH   5   8
HETATM    8  C8  UNL     1     -34.514  14.240  -3.502  1.00 20.00    -0.015 C 
HETATM    9  C6  UNL     1     -35.909  14.862  -3.524  1.00 20.00     0.010 C 
HETATM   10  C7  UNL     1     -34.302  13.361  -4.735  1.00 20.00     0.010 C 
ENDBRANCH   5   8
TORSDOF 1
ENDMDL
MODEL 6
REMARK VINA RESULT:      -4.1      2.973      4.471
REMARK  1 active torsions:
REMARK  status: ('A' for Active; 'I' for Inactive)
REMARK    1  A    between atoms: C5_5  and  C8_8 
ROOT
HETATM    1  C1  UNL     1     -35.283  15.487  -3.148  1.00 20.00     0.006 A 
HETATM    2  C2  UNL     1     -34.719  16.418  -2.383  1.00 20.00     0.076 A 
HETATM    3  C3  UNL     1     -34.160  17.432  -3.283  1.00 20.00     0.171 A 
HETATM    4  C4  UNL     1     -34.435  17.088  -4.720  1.00 20.00     0.093 A 
HETATM    5  C5  UNL     1     -35.167  15.741  -4.624  1.00 20.00     0.020 A 
HETATM    6  O9  UNL     1     -33.559  18.427  -2.909  1.00 20.00    -0.291 OA
HETATM    7 CL10 UNL     1     -34.631  16.493  -0.702  1.00 20.00    -0.081 Cl
ENDROOT
BRANCH   5   8
HETATM    8  C8  UNL     1     -34.410  14.622  -5.329  1.00 20.00    -0.015 C 
HETATM    9  C6  UNL     1     -34.685  13.278  -4.656  1.00 20.00     0.010 C 
HETATM   10  C7  UNL     1     -34.784  14.565  -6.809  1.00 20.00     0.010 C 
ENDBRANCH   5   8
TORSDOF 1
ENDMDL
MODEL 7
REMARK VINA RESULT:      -4.1      1.975      2.325
REMARK  1 active torsions:
REMARK  status: ('A' for Active; 'I' for Inactive)
REMARK    1  A    between atoms: C5_5  and  C8_8 
ROOT
HETATM    1  C1  UNL     1     -36.330  14.750  -4.149  1.00 20.00     0.006 A 
HETATM    2  C2  UNL     1     -36.547  14.942  -5.448  1.00 20.00     0.076 A 
HETATM    3  C3  UNL     1     -35.435  14.308  -6.166  1.00 20.00     0.171 A 
HETATM    4  C4  UNL     1     -34.476  13.658  -5.208  1.00 20.00     0.093 A 
HETATM    5  C5  UNL     1     -35.071  13.995  -3.833  1.00 20.00     0.020 A 
HETATM    6  O9  UNL     1     -35.314  14.305  -7.381  1.00 20.00    -0.291 OA
HETATM    7 CL10 UNL     1     -37.828  15.735  -6.201  1.00 20.00    -0.081 Cl
ENDROOT
BRANCH   5   8
HETATM    8  C8  UNL     1     -34.118  14.826  -2.981  1.00 20.00    -0.015 C 
HETATM    9  C6  UNL     1     -32.983  15.390  -3.834  1.00 20.00     0.010 C 
HETATM   10  C7  UNL     1     -34.869  15.955  -2.276  1.00 20.00     0.010 C 
ENDBRANCH   5   8
TORSDOF 1
ENDMDL
MODEL 8
REMARK VINA RESULT:      -4.0      5.882      7.415
REMARK  1 active torsions:
REMARK  status: ('A' for Active; 'I' for Inactive)
REMARK    1  A    between atoms: C5_5  and  C8_8 
ROOT
HETATM    1  C1  UNL     1     -34.105  18.521   1.521  1.00 20.00     0.006 A 
HETATM    2  C2  UNL     1     -33.323  18.489   2.597  1.00 20.00     0.076 A 
HETATM    3  C3  UNL     1     -31.974  18.859   2.158  1.00 20.00     0.171 A 
HETATM    4  C4  UNL     1     -31.950  19.163   0.686  1.00 20.00     0.093 A 
HETATM    5  C5  UNL     1     -33.398  18.894   0.249  1.00 20.00     0.020 A 
HETATM    6  O9  UNL     1     -31.003  18.920   2.896  1.00 20.00    -0.291 OA
HETATM    7 CL10 UNL     1     -33.731  18.116   4.189  1.00 20.00    -0.081 Cl
ENDROOT
BRANCH   5   8
HETATM    8  C8  UNL     1     -33.489  17.782  -0.790  1.00 20.00    -0.015 C 
HETATM    9  C6  UNL     1     -34.660  16.850  -0.481  1.00 20.00     0.010 C 
HETATM   10  C7  UNL     1     -33.628  18.367  -2.195  1.00 20.00     0.010 C 
ENDBRANCH   5   8
TORSDOF 1
ENDMDL
MODEL 9
REMARK VINA RESULT:      -4.0      2.617      3.877
REMARK  1 active torsions:
REMARK  status: ('A' for Active; 'I' for Inactive)
REMARK    1  A    between atoms: C5_5  and  C8_8 
ROOT
HETATM    1  C1  UNL     1     -33.880  15.065  -4.200  1.00 20.00     0.006 A 
HETATM    2  C2  UNL     1     -34.823  15.284  -3.287  1.00 20.00     0.076 A 
HETATM    3  C3  UNL     1     -36.072  14.728  -3.818  1.00 20.00     0.171 A 
HETATM    4  C4  UNL     1     -35.851  14.097  -5.165  1.00 20.00     0.093 A 
HETATM    5  C5  UNL     1     -34.364  14.364  -5.437  1.00 20.00     0.020 A 
HETATM    6  O9  UNL     1     -37.145  14.766  -3.236  1.00 20.00    -0.291 OA
HETATM    7 CL10 UNL     1     -34.687  16.036  -1.786  1.00 20.00    -0.081 Cl
ENDROOT
BRANCH   5   8
HETATM    8  C8  UNL     1     -34.149  15.214  -6.684  1.00 20.00    -0.015 C 
HETATM    9  C6  UNL     1     -35.164  14.850  -7.766  1.00 20.00     0.010 C 
HETATM   10  C7  UNL     1     -34.240  16.701  -6.345  1.00 20.00     0.010 C 
ENDBRANCH   5   8
TORSDOF 1
ENDMDL
