MODEL 1
REMARK VINA RESULT:      -4.2      0.000      0.000
REMARK  0 active torsions:
REMARK  status: ('A' for Active; 'I' for Inactive)
ROOT
HETATM    1  C1  UNL     1     -34.760  16.676  -0.575  1.00 20.00     0.024 A 
HETATM    2  C2  UNL     1     -34.659  16.433  -1.978  1.00 20.00    -0.016 A 
HETATM    3  C3  UNL     1     -33.951  17.436  -2.608  1.00 20.00    -0.007 A 
HETATM    4  C4  UNL     1     -34.124  17.842  -0.203  1.00 20.00    -0.020 A 
HETATM    5  C5  UNL     1     -35.248  15.277  -2.732  1.00 20.00     0.311 C 
HETATM    6  C6  UNL     1     -33.648  17.447  -4.070  1.00 20.00     0.077 C 
HETATM    7  C7  UNL     1     -34.503  16.384  -4.787  1.00 20.00     0.277 C 
HETATM    8  C8  UNL     1     -34.004  18.434   1.147  1.00 20.00     0.056 C 
HETATM    9  C9  UNL     1     -33.356  14.381  -3.989  1.00 20.00     0.310 C 
HETATM   10  N10 UNL     1     -34.624  15.103  -4.060  1.00 20.00     0.088 N 
HETATM   11  S11 UNL     1     -33.409  18.641  -1.540  1.00 20.00    -0.099 SA
ENDROOT
TORSDOF 0
ENDMDL
MODEL 2
REMARK VINA RESULT:      -4.2      2.231      3.123
REMARK  0 active torsions:
REMARK  status: ('A' for Active; 'I' for Inactive)
ROOT
HETATM    1  C1  UNL     1     -34.546  15.045  -2.982  1.00 20.00     0.024 A 
HETATM    2  C2  UNL     1     -35.142  14.967  -4.277  1.00 20.00    -0.016 A 
HETATM    3  C3  UNL     1     -36.001  16.025  -4.495  1.00 20.00    -0.007 A 
HETATM    4  C4  UNL     1     -34.971  16.154  -2.281  1.00 20.00    -0.020 A 
HETATM    5  C5  UNL     1     -34.929  13.888  -5.298  1.00 20.00     0.311 C 
HETATM    6  C6  UNL     1     -36.748  16.240  -5.770  1.00 20.00     0.077 C 
HETATM    7  C7  UNL     1     -36.674  14.968  -6.637  1.00 20.00     0.277 C 
HETATM    8  C8  UNL     1     -34.586  16.584  -0.919  1.00 20.00     0.056 C 
HETATM    9  C9  UNL     1     -34.335  15.117  -7.323  1.00 20.00     0.310 C 
HETATM   10  N10 UNL     1     -35.351  14.311  -6.650  1.00 20.00     0.088 N 
HETATM   11  S11 UNL     1     -36.085  17.097  -3.180  1.00 20.00    -0.099 SA
ENDROOT
TORSDOF 0
ENDMDL
MODEL 3
REMARK VINA RESULT:      -4.0      2.124      4.178
REMARK  0 active torsions:
REMARK  status: ('A' for Active; 'I' for Inactive)
ROOT
HETATM    1  C1  UNL     1     -34.612  15.102  -2.926  1.00 20.00     0.024 A 
HETATM    2  C2  UNL     1     -34.370  16.349  -2.276  1.00 20.00    -0.016 A 
HETATM    3  C3  UNL     1     -33.886  17.289  -3.164  1.00 20.00    -0.007 A 
HETATM    4  C4  UNL     1     -34.310  15.151  -4.271  1.00 20.00    -0.020 A 
HETATM    5  C5  UNL     1     -34.564  16.653  -0.819  1.00 20.00     0.311 C 
HETATM    6  C6  UNL     1     -33.569  18.700  -2.791  1.00 20.00     0.077 C 
HETATM    7  C7  UNL     1     -33.546  18.838  -1.255  1.00 20.00     0.277 C 
HETATM    8  C8  UNL     1     -34.426  14.075  -5.280  1.00 20.00     0.056 C 
HETATM    9  C9  UNL     1     -35.944  18.668  -0.827  1.00 20.00     0.310 C 
HETATM   10  N10 UNL     1     -34.622  18.106  -0.557  1.00 20.00     0.088 N 
HETATM   11  S11 UNL     1     -33.735  16.693  -4.747  1.00 20.00    -0.099 SA
ENDROOT
TORSDOF 0
ENDMDL
MODEL 4
REMARK VINA RESULT:      -4.0      1.296      1.582
REMARK  0 active torsions:
REMARK  status: ('A' for Active; 'I' for Inactive)
ROOT
HETATM    1  C1  UNL     1     -34.698  16.231  -1.677  1.00 20.00     0.024 A 
HETATM    2  C2  UNL     1     -35.136  15.991  -3.014  1.00 20.00    -0.016 A 
HETATM    3  C3  UNL     1     -34.758  17.019  -3.854  1.00 20.00    -0.007 A 
HETATM    4  C4  UNL     1     -34.006  17.419  -1.562  1.00 20.00    -0.020 A 
HETATM    5  C5  UNL     1     -35.932  14.815  -3.499  1.00 20.00     0.311 C 
HETATM    6  C6  UNL     1     -35.040  17.041  -5.320  1.00 20.00     0.077 C 
HETATM    7  C7  UNL     1     -36.070  15.948  -5.667  1.00 20.00     0.277 C 
HETATM    8  C8  UNL     1     -33.395  18.015  -0.353  1.00 20.00     0.056 C 
HETATM    9  C9  UNL     1     -34.640  13.986  -5.399  1.00 20.00     0.310 C 
HETATM   10  N10 UNL     1     -35.861  14.664  -4.967  1.00 20.00     0.088 N 
HETATM   11  S11 UNL     1     -33.887  18.242  -3.060  1.00 20.00    -0.099 SA
ENDROOT
TORSDOF 0
ENDMDL
MODEL 5
REMARK VINA RESULT:      -4.0      1.930      2.988
REMARK  0 active torsions:
REMARK  status: ('A' for Active; 'I' for Inactive)
ROOT
HETATM    1  C1  UNL     1     -33.662  17.794  -4.172  1.00 20.00     0.024 A 
HETATM    2  C2  UNL     1     -33.968  16.457  -4.565  1.00 20.00    -0.016 A 
HETATM    3  C3  UNL     1     -34.290  15.677  -3.472  1.00 20.00    -0.007 A 
HETATM    4  C4  UNL     1     -33.769  17.972  -2.808  1.00 20.00    -0.020 A 
HETATM    5  C5  UNL     1     -33.933  15.902  -5.959  1.00 20.00     0.311 C 
HETATM    6  C6  UNL     1     -34.690  14.241  -3.564  1.00 20.00     0.077 C 
HETATM    7  C7  UNL     1     -34.371  13.702  -4.973  1.00 20.00     0.277 C 
HETATM    8  C8  UNL     1     -33.538  19.202  -2.020  1.00 20.00     0.056 C 
HETATM    9  C9  UNL     1     -36.124  14.857  -6.222  1.00 20.00     0.310 C 
HETATM   10  N10 UNL     1     -34.687  14.636  -6.073  1.00 20.00     0.088 N 
HETATM   11  S11 UNL     1     -34.236  16.532  -2.005  1.00 20.00    -0.099 SA
ENDROOT
TORSDOF 0
ENDMDL
MODEL 6
REMARK VINA RESULT:      -4.0      2.488      4.412
REMARK  0 active torsions:
REMARK  status: ('A' for Active; 'I' for Inactive)
ROOT
HETATM    1  C1  UNL     1     -34.050  15.105  -2.983  1.00 20.00     0.024 A 
HETATM    2  C2  UNL     1     -34.518  16.300  -2.358  1.00 20.00    -0.016 A 
HETATM    3  C3  UNL     1     -35.842  16.539  -2.667  1.00 20.00    -0.007 A 
HETATM    4  C4  UNL     1     -35.033  14.491  -3.729  1.00 20.00    -0.020 A 
HETATM    5  C5  UNL     1     -33.719  17.232  -1.495  1.00 20.00     0.311 C 
HETATM    6  C6  UNL     1     -36.624  17.695  -2.136  1.00 20.00     0.077 C 
HETATM    7  C7  UNL     1     -35.668  18.718  -1.491  1.00 20.00     0.277 C 
HETATM    8  C8  UNL     1     -34.944  13.242  -4.518  1.00 20.00     0.056 C 
HETATM    9  C9  UNL     1     -35.080  17.464   0.521  1.00 20.00     0.310 C 
HETATM   10  N10 UNL     1     -34.583  18.120  -0.687  1.00 20.00     0.088 N 
HETATM   11  S11 UNL     1     -36.514  15.351  -3.678  1.00 20.00    -0.099 SA
ENDROOT
TORSDOF 0
ENDMDL
MODEL 7
REMARK VINA RESULT:      -3.9      1.479      1.728
REMARK  0 active torsions:
REMARK  status: ('A' for Active; 'I' for Inactive)
ROOT
HETATM    1  C1  UNL     1     -34.501  16.609  -0.811  1.00 20.00     0.024 A 
HETATM    2  C2  UNL     1     -34.756  16.396  -2.199  1.00 20.00    -0.016 A 
HETATM    3  C3  UNL     1     -35.761  17.227  -2.654  1.00 20.00    -0.007 A 
HETATM    4  C4  UNL     1     -35.312  17.589  -0.278  1.00 20.00    -0.020 A 
HETATM    5  C5  UNL     1     -34.081  15.397  -3.091  1.00 20.00     0.311 C 
HETATM    6  C6  UNL     1     -36.231  17.263  -4.071  1.00 20.00     0.077 C 
HETATM    7  C7  UNL     1     -35.678  16.043  -4.834  1.00 20.00     0.277 C 
HETATM    8  C8  UNL     1     -35.351  18.097   1.111  1.00 20.00     0.056 C 
HETATM    9  C9  UNL     1     -33.341  16.731  -4.998  1.00 20.00     0.310 C 
HETATM   10  N10 UNL     1     -34.273  15.711  -4.523  1.00 20.00     0.088 N 
HETATM   11  S11 UNL     1     -36.379  18.249  -1.446  1.00 20.00    -0.099 SA
ENDROOT
TORSDOF 0
ENDMDL
MODEL 8
REMARK VINA RESULT:      -3.9      2.350      3.587
REMARK  0 active torsions:
REMARK  status: ('A' for Active; 'I' for Inactive)
ROOT
HETATM    1  C1  UNL     1     -34.192  17.260  -3.587  1.00 20.00     0.024 A 
HETATM    2  C2  UNL     1     -34.290  16.659  -4.879  1.00 20.00    -0.016 A 
HETATM    3  C3  UNL     1     -34.611  15.320  -4.782  1.00 20.00    -0.007 A 
HETATM    4  C4  UNL     1     -34.446  16.358  -2.575  1.00 20.00    -0.020 A 
HETATM    5  C5  UNL     1     -34.057  17.332  -6.199  1.00 20.00     0.311 C 
HETATM    6  C6  UNL     1     -34.816  14.428  -5.962  1.00 20.00     0.077 C 
HETATM    7  C7  UNL     1     -34.304  15.126  -7.238  1.00 20.00     0.277 C 
HETATM    8  C8  UNL     1     -34.445  16.591  -1.114  1.00 20.00     0.056 C 
HETATM    9  C9  UNL     1     -36.066  16.799  -7.483  1.00 20.00     0.310 C 
HETATM   10  N10 UNL     1     -34.632  16.563  -7.324  1.00 20.00     0.088 N 
HETATM   11  S11 UNL     1     -34.800  14.794  -3.179  1.00 20.00    -0.099 SA
ENDROOT
TORSDOF 0
ENDMDL
MODEL 9
REMARK VINA RESULT:      -3.7      2.930      4.247
REMARK  0 active torsions:
REMARK  status: ('A' for Active; 'I' for Inactive)
ROOT
HETATM    1  C1  UNL     1     -34.426  18.324   3.091  1.00 20.00     0.024 A 
HETATM    2  C2  UNL     1     -34.341  18.404   1.668  1.00 20.00    -0.016 A 
HETATM    3  C3  UNL     1     -33.059  18.713   1.262  1.00 20.00    -0.007 A 
HETATM    4  C4  UNL     1     -33.212  18.567   3.698  1.00 20.00    -0.020 A 
HETATM    5  C5  UNL     1     -35.466  18.221   0.692  1.00 20.00     0.311 C 
HETATM    6  C6  UNL     1     -32.646  18.833  -0.168  1.00 20.00     0.077 C 
HETATM    7  C7  UNL     1     -33.898  18.892  -1.067  1.00 20.00     0.277 C 
HETATM    8  C8  UNL     1     -32.889  18.573   5.142  1.00 20.00     0.056 C 
HETATM    9  C9  UNL     1     -34.603  16.561  -0.879  1.00 20.00     0.310 C 
HETATM   10  N10 UNL     1     -34.976  17.960  -0.678  1.00 20.00     0.088 N 
HETATM   11  S11 UNL     1     -31.975  18.893   2.557  1.00 20.00    -0.099 SA
ENDROOT
TORSDOF 0
ENDMDL
