MODEL 1
REMARK VINA RESULT:      -3.6      0.000      0.000
REMARK  2 active torsions:
REMARK  status: ('A' for Active; 'I' for Inactive)
REMARK    1  A    between atoms: C1_1  and  C4_4 
REMARK    2  A    between atoms: C1_1  and  C5_5 
ROOT
HETATM    1  C1  UNL     1     -34.947  13.974  -4.733  1.00 20.00     0.163 C 
HETATM    2  O6  UNL     1     -34.961  12.753  -4.555  1.00 20.00    -0.295 OA
ENDROOT
BRANCH   1   3
HETATM    3  C4  UNL     1     -35.882  14.644  -5.724  1.00 20.00     0.194 C 
HETATM    4 CL7  UNL     1     -35.375  14.298  -7.388  1.00 20.00    -0.122 Cl
ENDBRANCH   1   3
BRANCH   1   5
HETATM    5  C5  UNL     1     -33.963  14.870  -3.964  1.00 20.00     0.091 C 
HETATM    6  C2  UNL     1     -34.622  15.451  -2.709  1.00 20.00     0.041 C 
HETATM    7  C3  UNL     1     -33.410  16.005  -4.826  1.00 20.00     0.041 C 
HETATM    8 CL8  UNL     1     -32.619  13.799  -3.452  1.00 20.00    -0.112 Cl
ENDBRANCH   1   5
TORSDOF 2
ENDMDL
MODEL 2
REMARK VINA RESULT:      -3.6      1.173      1.616
REMARK  2 active torsions:
REMARK  status: ('A' for Active; 'I' for Inactive)
REMARK    1  A    between atoms: C1_1  and  C4_4 
REMARK    2  A    between atoms: C1_1  and  C5_5 
ROOT
HETATM    1  C1  UNL     1     -34.913  13.948  -4.738  1.00 20.00     0.163 C 
HETATM    2  O6  UNL     1     -34.916  12.723  -4.599  1.00 20.00    -0.295 OA
ENDROOT
BRANCH   1   3
HETATM    3  C4  UNL     1     -35.848  14.642  -5.713  1.00 20.00     0.194 C 
HETATM    4 CL7  UNL     1     -35.370  14.297  -7.385  1.00 20.00    -0.122 Cl
ENDBRANCH   1   3
BRANCH   1   5
HETATM    5  C5  UNL     1     -33.940  14.828  -3.936  1.00 20.00     0.091 C 
HETATM    6  C2  UNL     1     -32.723  14.018  -3.480  1.00 20.00     0.041 C 
HETATM    7  C3  UNL     1     -34.607  15.480  -2.724  1.00 20.00     0.041 C 
HETATM    8 CL8  UNL     1     -33.381  16.102  -5.067  1.00 20.00    -0.112 Cl
ENDBRANCH   1   5
TORSDOF 2
ENDMDL
MODEL 3
REMARK VINA RESULT:      -3.6      1.193      1.193
REMARK  2 active torsions:
REMARK  status: ('A' for Active; 'I' for Inactive)
REMARK    1  A    between atoms: C1_1  and  C4_4 
REMARK    2  A    between atoms: C1_1  and  C5_5 
ROOT
HETATM    1  C1  UNL     1     -35.266  13.860  -4.167  1.00 20.00     0.163 C 
HETATM    2  O6  UNL     1     -35.046  12.696  -4.511  1.00 20.00    -0.295 OA
ENDROOT
BRANCH   1   3
HETATM    3  C4  UNL     1     -36.679  14.407  -4.065  1.00 20.00     0.194 C 
HETATM    4 CL7  UNL     1     -37.181  15.124  -5.607  1.00 20.00    -0.122 Cl
ENDBRANCH   1   3
BRANCH   1   5
HETATM    5  C5  UNL     1     -34.107  14.816  -3.842  1.00 20.00     0.091 C 
HETATM    6  C2  UNL     1     -34.423  15.651  -2.597  1.00 20.00     0.041 C 
HETATM    7  C3  UNL     1     -33.770  15.743  -5.010  1.00 20.00     0.041 C 
HETATM    8 CL8  UNL     1     -32.694  13.773  -3.480  1.00 20.00    -0.112 Cl
ENDBRANCH   1   5
TORSDOF 2
ENDMDL
MODEL 4
REMARK VINA RESULT:      -3.5      1.445      1.797
REMARK  2 active torsions:
REMARK  status: ('A' for Active; 'I' for Inactive)
REMARK    1  A    between atoms: C1_1  and  C4_4 
REMARK    2  A    between atoms: C1_1  and  C5_5 
ROOT
HETATM    1  C1  UNL     1     -34.666  13.855  -4.987  1.00 20.00     0.163 C 
HETATM    2  O6  UNL     1     -34.878  12.722  -4.550  1.00 20.00    -0.295 OA
ENDROOT
BRANCH   1   3
HETATM    3  C4  UNL     1     -35.136  14.277  -6.367  1.00 20.00     0.194 C 
HETATM    4 CL7  UNL     1     -36.713  15.083  -6.268  1.00 20.00    -0.122 Cl
ENDBRANCH   1   3
BRANCH   1   5
HETATM    5  C5  UNL     1     -33.895  14.889  -4.150  1.00 20.00     0.091 C 
HETATM    6  C2  UNL     1     -33.522  16.108  -5.000  1.00 20.00     0.041 C 
HETATM    7  C3  UNL     1     -32.635  14.303  -3.514  1.00 20.00     0.041 C 
HETATM    8 CL8  UNL     1     -35.023  15.421  -2.862  1.00 20.00    -0.112 Cl
ENDBRANCH   1   5
TORSDOF 2
ENDMDL
MODEL 5
REMARK VINA RESULT:      -3.5      1.753      2.192
REMARK  2 active torsions:
REMARK  status: ('A' for Active; 'I' for Inactive)
REMARK    1  A    between atoms: C1_1  and  C4_4 
REMARK    2  A    between atoms: C1_1  and  C5_5 
ROOT
HETATM    1  C1  UNL     1     -33.929  15.844  -4.939  1.00 20.00     0.163 C 
HETATM    2  O6  UNL     1     -32.837  16.418  -4.917  1.00 20.00    -0.295 OA
ENDROOT
BRANCH   1   3
HETATM    3  C4  UNL     1     -34.886  15.999  -6.108  1.00 20.00     0.194 C 
HETATM    4 CL7  UNL     1     -34.462  14.875  -7.412  1.00 20.00    -0.122 Cl
ENDBRANCH   1   3
BRANCH   1   5
HETATM    5  C5  UNL     1     -34.376  14.957  -3.766  1.00 20.00     0.091 C 
HETATM    6  C2  UNL     1     -35.754  14.346  -4.039  1.00 20.00     0.041 C 
HETATM    7  C3  UNL     1     -34.404  15.714  -2.439  1.00 20.00     0.041 C 
HETATM    8 CL8  UNL     1     -33.176  13.628  -3.670  1.00 20.00    -0.112 Cl
ENDBRANCH   1   5
TORSDOF 2
ENDMDL
MODEL 6
REMARK VINA RESULT:      -3.5      2.065      2.497
REMARK  2 active torsions:
REMARK  status: ('A' for Active; 'I' for Inactive)
REMARK    1  A    between atoms: C1_1  and  C4_4 
REMARK    2  A    between atoms: C1_1  and  C5_5 
ROOT
HETATM    1  C1  UNL     1     -33.911  15.836  -4.956  1.00 20.00     0.163 C 
HETATM    2  O6  UNL     1     -32.837  16.439  -4.896  1.00 20.00    -0.295 OA
ENDROOT
BRANCH   1   3
HETATM    3  C4  UNL     1     -34.863  16.018  -6.125  1.00 20.00     0.194 C 
HETATM    4 CL7  UNL     1     -34.479  14.872  -7.423  1.00 20.00    -0.122 Cl
ENDBRANCH   1   3
BRANCH   1   5
HETATM    5  C5  UNL     1     -34.341  14.882  -3.830  1.00 20.00     0.091 C 
HETATM    6  C2  UNL     1     -33.365  13.707  -3.709  1.00 20.00     0.041 C 
HETATM    7  C3  UNL     1     -35.761  14.351  -4.023  1.00 20.00     0.041 C 
HETATM    8 CL8  UNL     1     -34.262  15.840  -2.316  1.00 20.00    -0.112 Cl
ENDBRANCH   1   5
TORSDOF 2
ENDMDL
MODEL 7
REMARK VINA RESULT:      -3.5      1.691      3.080
REMARK  2 active torsions:
REMARK  status: ('A' for Active; 'I' for Inactive)
REMARK    1  A    between atoms: C1_1  and  C4_4 
REMARK    2  A    between atoms: C1_1  and  C5_5 
ROOT
HETATM    1  C1  UNL     1     -34.487  13.866  -4.797  1.00 20.00     0.163 C 
HETATM    2  O6  UNL     1     -34.872  12.695  -4.771  1.00 20.00    -0.295 OA
ENDROOT
BRANCH   1   3
HETATM    3  C4  UNL     1     -33.477  14.395  -3.794  1.00 20.00     0.194 C 
HETATM    4 CL7  UNL     1     -34.282  15.391  -2.567  1.00 20.00    -0.122 Cl
ENDBRANCH   1   3
BRANCH   1   5
HETATM    5  C5  UNL     1     -35.034  14.850  -5.844  1.00 20.00     0.091 C 
HETATM    6  C2  UNL     1     -36.367  15.448  -5.386  1.00 20.00     0.041 C 
HETATM    7  C3  UNL     1     -35.205  14.205  -7.218  1.00 20.00     0.041 C 
HETATM    8 CL8  UNL     1     -33.828  16.174  -5.952  1.00 20.00    -0.112 Cl
ENDBRANCH   1   5
TORSDOF 2
ENDMDL
MODEL 8
REMARK VINA RESULT:      -3.4      2.334      3.565
REMARK  2 active torsions:
REMARK  status: ('A' for Active; 'I' for Inactive)
REMARK    1  A    between atoms: C1_1  and  C4_4 
REMARK    2  A    between atoms: C1_1  and  C5_5 
ROOT
HETATM    1  C1  UNL     1     -33.819  16.137  -4.285  1.00 20.00     0.163 C 
HETATM    2  O6  UNL     1     -32.820  16.471  -4.926  1.00 20.00    -0.295 OA
ENDROOT
BRANCH   1   3
HETATM    3  C4  UNL     1     -34.458  17.064  -3.266  1.00 20.00     0.194 C 
HETATM    4 CL7  UNL     1     -33.798  16.758  -1.648  1.00 20.00    -0.122 Cl
ENDBRANCH   1   3
BRANCH   1   5
HETATM    5  C5  UNL     1     -34.453  14.751  -4.482  1.00 20.00     0.091 C 
HETATM    6  C2  UNL     1     -34.620  14.435  -5.972  1.00 20.00     0.041 C 
HETATM    7  C3  UNL     1     -35.802  14.619  -3.775  1.00 20.00     0.041 C 
HETATM    8 CL8  UNL     1     -33.294  13.576  -3.781  1.00 20.00    -0.112 Cl
ENDBRANCH   1   5
TORSDOF 2
ENDMDL
MODEL 9
REMARK VINA RESULT:      -3.4      2.155      3.333
REMARK  2 active torsions:
REMARK  status: ('A' for Active; 'I' for Inactive)
REMARK    1  A    between atoms: C1_1  and  C4_4 
REMARK    2  A    between atoms: C1_1  and  C5_5 
ROOT
HETATM    1  C1  UNL     1     -35.557  15.161  -3.585  1.00 20.00     0.163 C 
HETATM    2  O6  UNL     1     -36.547  14.427  -3.534  1.00 20.00    -0.295 OA
ENDROOT
BRANCH   1   3
HETATM    3  C4  UNL     1     -35.501  16.477  -2.831  1.00 20.00     0.194 C 
HETATM    4 CL7  UNL     1     -34.663  16.272  -1.282  1.00 20.00    -0.122 Cl
ENDBRANCH   1   3
BRANCH   1   5
HETATM    5  C5  UNL     1     -34.336  14.776  -4.437  1.00 20.00     0.091 C 
HETATM    6  C2  UNL     1     -34.768  14.332  -5.838  1.00 20.00     0.041 C 
HETATM    7  C3  UNL     1     -33.492  13.680  -3.788  1.00 20.00     0.041 C 
HETATM    8 CL8  UNL     1     -33.356  16.270  -4.595  1.00 20.00    -0.112 Cl
ENDBRANCH   1   5
TORSDOF 2
ENDMDL
