MODEL 1
REMARK VINA RESULT:      -5.1      0.000      0.000
REMARK  1 active torsions:
REMARK  status: ('A' for Active; 'I' for Inactive)
REMARK    1  A    between atoms: C2_2  and  C9_9 
ROOT
HETATM    1  C1  UNL     1     -34.150  14.256  -3.343  1.00 20.00     0.057 A 
HETATM    2  C2  UNL     1     -34.239  15.586  -3.422  1.00 20.00    -0.069 A 
HETATM    3  C3  UNL     1     -34.709  13.739  -4.597  1.00 20.00     0.189 A 
HETATM    4  C4  UNL     1     -34.826  16.108  -4.701  1.00 20.00     0.086 A 
HETATM    5  C5  UNL     1     -35.206  14.851  -5.485  1.00 20.00     0.167 A 
HETATM    6  C6  UNL     1     -34.591  14.791  -6.870  1.00 20.00     0.061 C 
HETATM    7  O10 UNL     1     -34.785  12.546  -4.850  1.00 20.00    -0.290 OA
HETATM    8  F11 UNL     1     -36.559  14.792  -5.605  1.00 20.00    -0.234 F 
ENDROOT
BRANCH   2   9
HETATM    9  C9  UNL     1     -33.794  16.542  -2.370  1.00 20.00     0.006 C 
HETATM   10  C7  UNL     1     -33.792  17.972  -2.909  1.00 20.00     0.014 C 
HETATM   11  C8  UNL     1     -34.676  16.440  -1.125  1.00 20.00     0.014 C 
ENDBRANCH   2   9
TORSDOF 1
ENDMDL
MODEL 2
REMARK VINA RESULT:      -5.0     11.553     12.720
REMARK  1 active torsions:
REMARK  status: ('A' for Active; 'I' for Inactive)
REMARK    1  A    between atoms: C2_2  and  C9_9 
ROOT
HETATM    1  C1  UNL     1     -33.238   6.727   5.216  1.00 20.00     0.057 A 
HETATM    2  C2  UNL     1     -33.005   6.498   3.922  1.00 20.00    -0.069 A 
HETATM    3  C3  UNL     1     -34.377   5.874   5.577  1.00 20.00     0.189 A 
HETATM    4  C4  UNL     1     -33.909   5.484   3.282  1.00 20.00     0.086 A 
HETATM    5  C5  UNL     1     -34.888   5.098   4.391  1.00 20.00     0.167 A 
HETATM    6  C6  UNL     1     -34.937   3.607   4.665  1.00 20.00     0.061 C 
HETATM    7  O10 UNL     1     -34.856   5.844   6.701  1.00 20.00    -0.290 OA
HETATM    8  F11 UNL     1     -36.136   5.519   4.051  1.00 20.00    -0.234 F 
ENDROOT
BRANCH   2   9
HETATM    9  C9  UNL     1     -31.935   7.147   3.113  1.00 20.00     0.006 C 
HETATM   10  C7  UNL     1     -32.542   8.119   2.100  1.00 20.00     0.014 C 
HETATM   11  C8  UNL     1     -30.928   7.868   4.010  1.00 20.00     0.014 C 
ENDBRANCH   2   9
TORSDOF 1
ENDMDL
MODEL 3
REMARK VINA RESULT:      -4.9      1.910      4.037
REMARK  1 active torsions:
REMARK  status: ('A' for Active; 'I' for Inactive)
REMARK    1  A    between atoms: C2_2  and  C9_9 
ROOT
HETATM    1  C1  UNL     1     -34.736  13.820  -5.551  1.00 20.00     0.057 A 
HETATM    2  C2  UNL     1     -34.454  14.980  -6.148  1.00 20.00    -0.069 A 
HETATM    3  C3  UNL     1     -34.175  13.917  -4.198  1.00 20.00     0.189 A 
HETATM    4  C4  UNL     1     -33.716  15.972  -5.296  1.00 20.00     0.086 A 
HETATM    5  C5  UNL     1     -33.468  15.230  -3.982  1.00 20.00     0.167 A 
HETATM    6  C6  UNL     1     -33.993  15.964  -2.763  1.00 20.00     0.061 C 
HETATM    7  O10 UNL     1     -34.252  13.013  -3.379  1.00 20.00    -0.290 OA
HETATM    8  F11 UNL     1     -32.132  15.030  -3.828  1.00 20.00    -0.234 F 
ENDROOT
BRANCH   2   9
HETATM    9  C9  UNL     1     -34.828  15.342  -7.545  1.00 20.00     0.006 C 
HETATM   10  C7  UNL     1     -36.178  14.729  -7.916  1.00 20.00     0.014 C 
HETATM   11  C8  UNL     1     -34.858  16.860  -7.731  1.00 20.00     0.014 C 
ENDBRANCH   2   9
TORSDOF 1
ENDMDL
MODEL 4
REMARK VINA RESULT:      -4.8      1.670      1.984
REMARK  1 active torsions:
REMARK  status: ('A' for Active; 'I' for Inactive)
REMARK    1  A    between atoms: C2_2  and  C9_9 
ROOT
HETATM    1  C1  UNL     1     -35.639  15.890  -2.593  1.00 20.00     0.057 A 
HETATM    2  C2  UNL     1     -34.348  16.175  -2.402  1.00 20.00    -0.069 A 
HETATM    3  C3  UNL     1     -35.685  14.988  -3.750  1.00 20.00     0.189 A 
HETATM    4  C4  UNL     1     -33.401  15.507  -3.357  1.00 20.00     0.086 A 
HETATM    5  C5  UNL     1     -34.311  14.743  -4.319  1.00 20.00     0.167 A 
HETATM    6  C6  UNL     1     -33.989  13.263  -4.411  1.00 20.00     0.061 C 
HETATM    7  O10 UNL     1     -36.726  14.536  -4.201  1.00 20.00    -0.290 OA
HETATM    8  F11 UNL     1     -34.207  15.289  -5.560  1.00 20.00    -0.234 F 
ENDROOT
BRANCH   2   9
HETATM    9  C9  UNL     1     -33.813  17.064  -1.332  1.00 20.00     0.006 C 
HETATM   10  C7  UNL     1     -33.584  18.475  -1.872  1.00 20.00     0.014 C 
HETATM   11  C8  UNL     1     -34.751  17.097  -0.125  1.00 20.00     0.014 C 
ENDBRANCH   2   9
TORSDOF 1
ENDMDL
MODEL 5
REMARK VINA RESULT:      -4.6      1.873      2.274
REMARK  1 active torsions:
REMARK  status: ('A' for Active; 'I' for Inactive)
REMARK    1  A    between atoms: C2_2  and  C9_9 
ROOT
HETATM    1  C1  UNL     1     -33.547  16.871  -4.079  1.00 20.00     0.057 A 
HETATM    2  C2  UNL     1     -33.813  16.413  -2.853  1.00 20.00    -0.069 A 
HETATM    3  C3  UNL     1     -33.902  15.785  -5.001  1.00 20.00     0.189 A 
HETATM    4  C4  UNL     1     -34.379  15.023  -2.803  1.00 20.00     0.086 A 
HETATM    5  C5  UNL     1     -34.387  14.564  -4.262  1.00 20.00     0.167 A 
HETATM    6  C6  UNL     1     -35.749  14.109  -4.748  1.00 20.00     0.061 C 
HETATM    7  O10 UNL     1     -33.774  15.873  -6.213  1.00 20.00    -0.290 OA
HETATM    8  F11 UNL     1     -33.505  13.539  -4.412  1.00 20.00    -0.234 F 
ENDROOT
BRANCH   2   9
HETATM    9  C9  UNL     1     -33.607  17.171  -1.588  1.00 20.00     0.006 C 
HETATM   10  C7  UNL     1     -33.578  18.675  -1.861  1.00 20.00     0.014 C 
HETATM   11  C8  UNL     1     -34.690  16.833  -0.561  1.00 20.00     0.014 C 
ENDBRANCH   2   9
TORSDOF 1
ENDMDL
MODEL 6
REMARK VINA RESULT:      -4.5     11.977     13.535
REMARK  1 active torsions:
REMARK  status: ('A' for Active; 'I' for Inactive)
REMARK    1  A    between atoms: C2_2  and  C9_9 
ROOT
HETATM    1  C1  UNL     1     -41.170   4.061  -1.623  1.00 20.00     0.057 A 
HETATM    2  C2  UNL     1     -42.103   3.964  -2.573  1.00 20.00    -0.069 A 
HETATM    3  C3  UNL     1     -41.159   5.470  -1.211  1.00 20.00     0.189 A 
HETATM    4  C4  UNL     1     -42.823   5.243  -2.890  1.00 20.00     0.086 A 
HETATM    5  C5  UNL     1     -42.142   6.289  -2.007  1.00 20.00     0.167 A 
HETATM    6  C6  UNL     1     -43.105   7.048  -1.113  1.00 20.00     0.061 C 
HETATM    7  O10 UNL     1     -40.407   5.906  -0.352  1.00 20.00    -0.290 OA
HETATM    8  F11 UNL     1     -41.486   7.181  -2.797  1.00 20.00    -0.234 F 
ENDROOT
BRANCH   2   9
HETATM    9  C9  UNL     1     -42.469   2.713  -3.295  1.00 20.00     0.006 C 
HETATM   10  C7  UNL     1     -41.216   1.982  -3.774  1.00 20.00     0.014 C 
HETATM   11  C8  UNL     1     -43.320   1.798  -2.412  1.00 20.00     0.014 C 
ENDBRANCH   2   9
TORSDOF 1
ENDMDL
MODEL 7
REMARK VINA RESULT:      -4.5      2.133      2.973
REMARK  1 active torsions:
REMARK  status: ('A' for Active; 'I' for Inactive)
REMARK    1  A    between atoms: C2_2  and  C9_9 
ROOT
HETATM    1  C1  UNL     1     -33.684  17.490  -3.566  1.00 20.00     0.057 A 
HETATM    2  C2  UNL     1     -34.078  17.070  -2.361  1.00 20.00    -0.069 A 
HETATM    3  C3  UNL     1     -33.626  16.292  -4.412  1.00 20.00     0.189 A 
HETATM    4  C4  UNL     1     -34.345  15.596  -2.258  1.00 20.00     0.086 A 
HETATM    5  C5  UNL     1     -33.981  15.048  -3.639  1.00 20.00     0.167 A 
HETATM    6  C6  UNL     1     -35.103  14.269  -4.298  1.00 20.00     0.061 C 
HETATM    7  O10 UNL     1     -33.292  16.322  -5.587  1.00 20.00    -0.290 OA
HETATM    8  F11 UNL     1     -32.896  14.236  -3.524  1.00 20.00    -0.234 F 
ENDROOT
BRANCH   2   9
HETATM    9  C9  UNL     1     -34.276  17.941  -1.169  1.00 20.00     0.006 C 
HETATM   10  C7  UNL     1     -34.822  17.128   0.005  1.00 20.00     0.014 C 
HETATM   11  C8  UNL     1     -32.974  18.641  -0.777  1.00 20.00     0.014 C 
ENDBRANCH   2   9
TORSDOF 1
ENDMDL
MODEL 8
REMARK VINA RESULT:      -4.4      2.530      4.446
REMARK  1 active torsions:
REMARK  status: ('A' for Active; 'I' for Inactive)
REMARK    1  A    between atoms: C2_2  and  C9_9 
ROOT
HETATM    1  C1  UNL     1     -33.540  16.686  -4.038  1.00 20.00     0.057 A 
HETATM    2  C2  UNL     1     -34.236  15.553  -3.914  1.00 20.00    -0.069 A 
HETATM    3  C3  UNL     1     -33.944  17.533  -2.909  1.00 20.00     0.189 A 
HETATM    4  C4  UNL     1     -35.144  15.492  -2.719  1.00 20.00     0.086 A 
HETATM    5  C5  UNL     1     -34.995  16.864  -2.061  1.00 20.00     0.167 A 
HETATM    6  C6  UNL     1     -34.589  16.796  -0.601  1.00 20.00     0.061 C 
HETATM    7  O10 UNL     1     -33.495  18.654  -2.724  1.00 20.00    -0.290 OA
HETATM    8  F11 UNL     1     -36.175  17.534  -2.154  1.00 20.00    -0.234 F 
ENDROOT
BRANCH   2   9
HETATM    9  C9  UNL     1     -34.158  14.390  -4.841  1.00 20.00     0.006 C 
HETATM   10  C7  UNL     1     -35.058  13.254  -4.355  1.00 20.00     0.014 C 
HETATM   11  C8  UNL     1     -34.531  14.797  -6.267  1.00 20.00     0.014 C 
ENDBRANCH   2   9
TORSDOF 1
ENDMDL
MODEL 9
REMARK VINA RESULT:      -4.3      2.691      4.491
REMARK  1 active torsions:
REMARK  status: ('A' for Active; 'I' for Inactive)
REMARK    1  A    between atoms: C2_2  and  C9_9 
ROOT
HETATM    1  C1  UNL     1     -35.786  16.303  -3.768  1.00 20.00     0.057 A 
HETATM    2  C2  UNL     1     -34.648  15.607  -3.823  1.00 20.00    -0.069 A 
HETATM    3  C3  UNL     1     -35.730  17.069  -2.518  1.00 20.00     0.189 A 
HETATM    4  C4  UNL     1     -33.711  15.828  -2.671  1.00 20.00     0.086 A 
HETATM    5  C5  UNL     1     -34.469  16.780  -1.744  1.00 20.00     0.167 A 
HETATM    6  C6  UNL     1     -33.701  18.046  -1.415  1.00 20.00     0.061 C 
HETATM    7  O10 UNL     1     -36.626  17.815  -2.153  1.00 20.00    -0.290 OA
HETATM    8  F11 UNL     1     -34.763  16.134  -0.584  1.00 20.00    -0.234 F 
ENDROOT
BRANCH   2   9
HETATM    9  C9  UNL     1     -34.261  14.677  -4.920  1.00 20.00     0.006 C 
HETATM   10  C7  UNL     1     -34.848  13.287  -4.679  1.00 20.00     0.014 C 
HETATM   11  C8  UNL     1     -34.703  15.217  -6.281  1.00 20.00     0.014 C 
ENDBRANCH   2   9
TORSDOF 1
ENDMDL
