MODEL 1
REMARK VINA RESULT:      -4.8      0.000      0.000
REMARK  1 active torsions:
REMARK  status: ('A' for Active; 'I' for Inactive)
REMARK    1  A    between atoms: C3_3  and  C8_8 
ROOT
HETATM    1  C1  UNL     1     -34.730  13.582  -4.030  1.00 20.00     0.145 C 
HETATM    2  C4  UNL     1     -33.276  13.814  -3.680  1.00 20.00     0.080 C 
HETATM    3  C5  UNL     1     -32.928  15.284  -3.875  1.00 20.00     0.016 C 
HETATM    4  C6  UNL     1     -35.148  15.629  -2.627  1.00 20.00     0.036 C 
HETATM    5  C7  UNL     1     -35.718  14.674  -3.675  1.00 20.00     0.152 C 
HETATM    6  C8  UNL     1     -33.752  16.196  -2.951  1.00 20.00     0.009 C 
HETATM    7  O9  UNL     1     -35.094  12.538  -4.572  1.00 20.00    -0.296 OA
HETATM    8 CL10 UNL     1     -36.161  15.507  -5.181  1.00 20.00    -0.117 Cl
ENDROOT
BRANCH   6   9
HETATM    9  C3  UNL     1     -33.828  17.591  -3.499  1.00 20.00    -0.032 C 
HETATM   10  C2  UNL     1     -33.560  17.912  -4.770  1.00 20.00     0.007 C 
ENDBRANCH   6   9
TORSDOF 1
ENDMDL
MODEL 2
REMARK VINA RESULT:      -4.5      1.748      2.454
REMARK  1 active torsions:
REMARK  status: ('A' for Active; 'I' for Inactive)
REMARK    1  A    between atoms: C3_3  and  C8_8 
ROOT
HETATM    1  C1  UNL     1     -34.412  14.900  -5.882  1.00 20.00     0.145 C 
HETATM    2  C4  UNL     1     -33.662  16.188  -5.615  1.00 20.00     0.080 C 
HETATM    3  C5  UNL     1     -34.065  16.747  -4.257  1.00 20.00     0.016 C 
HETATM    4  C6  UNL     1     -33.743  14.303  -3.530  1.00 20.00     0.036 C 
HETATM    5  C7  UNL     1     -34.669  13.984  -4.703  1.00 20.00     0.152 C 
HETATM    6  C8  UNL     1     -33.706  15.786  -3.112  1.00 20.00     0.009 C 
HETATM    7  O9  UNL     1     -34.787  14.607  -7.017  1.00 20.00    -0.296 OA
HETATM    8 CL10 UNL     1     -36.386  14.136  -4.271  1.00 20.00    -0.117 Cl
ENDROOT
BRANCH   6   9
HETATM    9  C3  UNL     1     -34.555  16.047  -1.903  1.00 20.00    -0.032 C 
HETATM   10  C2  UNL     1     -34.263  16.956  -0.965  1.00 20.00     0.007 C 
ENDBRANCH   6   9
TORSDOF 1
ENDMDL
MODEL 3
REMARK VINA RESULT:      -4.4      1.584      2.084
REMARK  1 active torsions:
REMARK  status: ('A' for Active; 'I' for Inactive)
REMARK    1  A    between atoms: C3_3  and  C8_8 
ROOT
HETATM    1  C1  UNL     1     -34.568  13.774  -4.581  1.00 20.00     0.145 C 
HETATM    2  C4  UNL     1     -34.537  14.308  -5.997  1.00 20.00     0.080 C 
HETATM    3  C5  UNL     1     -34.582  15.830  -5.975  1.00 20.00     0.016 C 
HETATM    4  C6  UNL     1     -32.812  15.522  -4.137  1.00 20.00     0.036 C 
HETATM    5  C7  UNL     1     -33.830  14.564  -3.519  1.00 20.00     0.152 C 
HETATM    6  C8  UNL     1     -33.364  16.430  -5.253  1.00 20.00     0.009 C 
HETATM    7  O9  UNL     1     -35.162  12.731  -4.308  1.00 20.00    -0.296 OA
HETATM    8 CL10 UNL     1     -35.047  15.409  -2.537  1.00 20.00    -0.117 Cl
ENDROOT
BRANCH   6   9
HETATM    9  C3  UNL     1     -33.660  17.813  -4.754  1.00 20.00    -0.032 C 
HETATM   10  C2  UNL     1     -33.653  18.906  -5.526  1.00 20.00     0.007 C 
ENDBRANCH   6   9
TORSDOF 1
ENDMDL
MODEL 4
REMARK VINA RESULT:      -4.4      1.880      2.378
REMARK  1 active torsions:
REMARK  status: ('A' for Active; 'I' for Inactive)
REMARK    1  A    between atoms: C3_3  and  C8_8 
ROOT
HETATM    1  C1  UNL     1     -35.172  14.343  -5.919  1.00 20.00     0.145 C 
HETATM    2  C4  UNL     1     -34.794  13.294  -4.895  1.00 20.00     0.080 C 
HETATM    3  C5  UNL     1     -34.097  13.955  -3.713  1.00 20.00     0.016 C 
HETATM    4  C6  UNL     1     -36.037  15.626  -3.934  1.00 20.00     0.036 C 
HETATM    5  C7  UNL     1     -35.619  15.695  -5.402  1.00 20.00     0.152 C 
HETATM    6  C8  UNL     1     -35.014  14.958  -2.994  1.00 20.00     0.009 C 
HETATM    7  O9  UNL     1     -35.127  14.099  -7.124  1.00 20.00    -0.296 OA
HETATM    8 CL10 UNL     1     -34.288  16.840  -5.674  1.00 20.00    -0.117 Cl
ENDROOT
BRANCH   6   9
HETATM    9  C3  UNL     1     -34.212  15.971  -2.231  1.00 20.00    -0.032 C 
HETATM   10  C2  UNL     1     -34.623  16.552  -1.099  1.00 20.00     0.007 C 
ENDBRANCH   6   9
TORSDOF 1
ENDMDL
MODEL 5
REMARK VINA RESULT:      -4.3      1.723      2.501
REMARK  1 active torsions:
REMARK  status: ('A' for Active; 'I' for Inactive)
REMARK    1  A    between atoms: C3_3  and  C8_8 
ROOT
HETATM    1  C1  UNL     1     -34.956  13.769  -4.513  1.00 20.00     0.145 C 
HETATM    2  C4  UNL     1     -36.207  14.380  -3.920  1.00 20.00     0.080 C 
HETATM    3  C5  UNL     1     -35.828  15.474  -2.931  1.00 20.00     0.016 C 
HETATM    4  C6  UNL     1     -34.222  16.157  -4.819  1.00 20.00     0.036 C 
HETATM    5  C7  UNL     1     -33.785  14.694  -4.780  1.00 20.00     0.152 C 
HETATM    6  C8  UNL     1     -35.061  16.621  -3.611  1.00 20.00     0.009 C 
HETATM    7  O9  UNL     1     -34.899  12.569  -4.778  1.00 20.00    -0.296 OA
HETATM    8 CL10 UNL     1     -32.562  14.385  -3.529  1.00 20.00    -0.117 Cl
ENDROOT
BRANCH   6   9
HETATM    9  C3  UNL     1     -34.235  17.382  -2.616  1.00 20.00    -0.032 C 
HETATM   10  C2  UNL     1     -34.015  16.977  -1.361  1.00 20.00     0.007 C 
ENDBRANCH   6   9
TORSDOF 1
ENDMDL
MODEL 6
REMARK VINA RESULT:      -4.2      2.289      3.652
REMARK  1 active torsions:
REMARK  status: ('A' for Active; 'I' for Inactive)
REMARK    1  A    between atoms: C3_3  and  C8_8 
ROOT
HETATM    1  C1  UNL     1     -33.912  16.192  -2.623  1.00 20.00     0.145 C 
HETATM    2  C4  UNL     1     -35.247  15.529  -2.357  1.00 20.00     0.080 C 
HETATM    3  C5  UNL     1     -35.757  14.870  -3.631  1.00 20.00     0.016 C 
HETATM    4  C6  UNL     1     -33.333  14.025  -3.765  1.00 20.00     0.036 C 
HETATM    5  C7  UNL     1     -32.964  15.496  -3.578  1.00 20.00     0.152 C 
HETATM    6  C8  UNL     1     -34.809  13.763  -4.124  1.00 20.00     0.009 C 
HETATM    7  O9  UNL     1     -33.608  17.250  -2.073  1.00 20.00    -0.296 OA
HETATM    8 CL10 UNL     1     -32.984  16.400  -5.107  1.00 20.00    -0.117 Cl
ENDROOT
BRANCH   6   9
HETATM    9  C3  UNL     1     -34.992  13.510  -5.591  1.00 20.00    -0.032 C 
HETATM   10  C2  UNL     1     -35.565  14.376  -6.434  1.00 20.00     0.007 C 
ENDBRANCH   6   9
TORSDOF 1
ENDMDL
MODEL 7
REMARK VINA RESULT:      -4.2      2.384      3.838
REMARK  1 active torsions:
REMARK  status: ('A' for Active; 'I' for Inactive)
REMARK    1  A    between atoms: C3_3  and  C8_8 
ROOT
HETATM    1  C1  UNL     1     -33.789  17.876  -3.239  1.00 20.00     0.145 C 
HETATM    2  C4  UNL     1     -33.971  17.132  -1.933  1.00 20.00     0.080 C 
HETATM    3  C5  UNL     1     -34.738  15.840  -2.179  1.00 20.00     0.016 C 
HETATM    4  C6  UNL     1     -33.095  15.632  -4.144  1.00 20.00     0.036 C 
HETATM    5  C7  UNL     1     -33.551  17.049  -4.487  1.00 20.00     0.152 C 
HETATM    6  C8  UNL     1     -33.977  14.891  -3.120  1.00 20.00     0.009 C 
HETATM    7  O9  UNL     1     -33.822  19.105  -3.279  1.00 20.00    -0.296 OA
HETATM    8 CL10 UNL     1     -35.054  17.067  -5.435  1.00 20.00    -0.117 Cl
ENDROOT
BRANCH   6   9
HETATM    9  C3  UNL     1     -34.913  13.925  -3.784  1.00 20.00    -0.032 C 
HETATM   10  C2  UNL     1     -34.668  13.332  -4.958  1.00 20.00     0.007 C 
ENDBRANCH   6   9
TORSDOF 1
ENDMDL
MODEL 8
REMARK VINA RESULT:      -4.1      2.001      2.910
REMARK  1 active torsions:
REMARK  status: ('A' for Active; 'I' for Inactive)
REMARK    1  A    between atoms: C3_3  and  C8_8 
ROOT
HETATM    1  C1  UNL     1     -33.763  13.815  -3.994  1.00 20.00     0.145 C 
HETATM    2  C4  UNL     1     -35.107  13.288  -4.451  1.00 20.00     0.080 C 
HETATM    3  C5  UNL     1     -36.182  14.339  -4.212  1.00 20.00     0.016 C 
HETATM    4  C6  UNL     1     -34.419  15.894  -5.252  1.00 20.00     0.036 C 
HETATM    5  C7  UNL     1     -33.480  15.288  -4.210  1.00 20.00     0.152 C 
HETATM    6  C8  UNL     1     -35.918  15.623  -5.017  1.00 20.00     0.009 C 
HETATM    7  O9  UNL     1     -32.932  13.070  -3.477  1.00 20.00    -0.296 OA
HETATM    8 CL10 UNL     1     -33.606  16.095  -2.632  1.00 20.00    -0.117 Cl
ENDROOT
BRANCH   6   9
HETATM    9  C3  UNL     1     -36.608  16.801  -4.395  1.00 20.00    -0.032 C 
HETATM   10  C2  UNL     1     -37.158  16.789  -3.175  1.00 20.00     0.007 C 
ENDBRANCH   6   9
TORSDOF 1
ENDMDL
MODEL 9
REMARK VINA RESULT:      -4.1      1.608      1.956
REMARK  1 active torsions:
REMARK  status: ('A' for Active; 'I' for Inactive)
REMARK    1  A    between atoms: C3_3  and  C8_8 
ROOT
HETATM    1  C1  UNL     1     -36.683  14.458  -3.768  1.00 20.00     0.145 C 
HETATM    2  C4  UNL     1     -35.631  13.565  -4.391  1.00 20.00     0.080 C 
HETATM    3  C5  UNL     1     -34.520  14.418  -4.988  1.00 20.00     0.016 C 
HETATM    4  C6  UNL     1     -34.721  15.655  -2.743  1.00 20.00     0.036 C 
HETATM    5  C7  UNL     1     -36.210  15.721  -3.079  1.00 20.00     0.152 C 
HETATM    6  C8  UNL     1     -33.804  15.259  -3.917  1.00 20.00     0.009 C 
HETATM    7  O9  UNL     1     -37.877  14.159  -3.813  1.00 20.00    -0.296 OA
HETATM    8 CL10 UNL     1     -36.605  17.091  -4.140  1.00 20.00    -0.117 Cl
ENDROOT
BRANCH   6   9
HETATM    9  C3  UNL     1     -33.132  16.453  -4.529  1.00 20.00    -0.032 C 
HETATM   10  C2  UNL     1     -33.492  16.997  -5.697  1.00 20.00     0.007 C 
ENDBRANCH   6   9
TORSDOF 1
ENDMDL
