MODEL 1
REMARK VINA RESULT:      -5.3      0.000      0.000
REMARK  1 active torsions:
REMARK  status: ('A' for Active; 'I' for Inactive)
REMARK    1  A    between atoms: C8_8  and  C11_11 
ROOT
HETATM    1  C1  UNL     1     -34.852  14.087  -3.653  1.00 20.00     0.131 C 
HETATM    2  C2  UNL     1     -36.154  14.840  -3.674  1.00 20.00     0.079 C 
HETATM    3  C3  UNL     1     -35.864  15.985  -2.714  1.00 20.00     0.018 C 
HETATM    4  C4  UNL     1     -33.278  16.248  -5.075  1.00 20.00     0.002 C 
HETATM    5  C5  UNL     1     -32.651  15.184  -4.187  1.00 20.00     0.013 C 
HETATM    6  C6  UNL     1     -34.037  17.156  -4.110  1.00 20.00     0.011 C 
HETATM    7  C7  UNL     1     -33.705  14.928  -3.123  1.00 20.00     0.064 C 
HETATM    8  C8  UNL     1     -34.366  16.298  -2.865  1.00 20.00    -0.027 C 
HETATM    9  O12 UNL     1     -34.727  12.939  -4.064  1.00 20.00    -0.298 OA
ENDROOT
BRANCH   8  10
HETATM   10  C11 UNL     1     -33.829  16.969  -1.598  1.00 20.00    -0.013 C 
HETATM   11  C9  UNL     1     -33.547  18.445  -1.858  1.00 20.00     0.010 C 
HETATM   12  C10 UNL     1     -34.814  16.800  -0.447  1.00 20.00     0.010 C 
ENDBRANCH   8  10
TORSDOF 1
ENDMDL
MODEL 2
REMARK VINA RESULT:      -5.0      1.555      3.306
REMARK  1 active torsions:
REMARK  status: ('A' for Active; 'I' for Inactive)
REMARK    1  A    between atoms: C8_8  and  C11_11 
ROOT
HETATM    1  C1  UNL     1     -36.299  14.379  -4.071  1.00 20.00     0.131 C 
HETATM    2  C2  UNL     1     -35.250  13.310  -4.211  1.00 20.00     0.079 C 
HETATM    3  C3  UNL     1     -34.143  14.056  -4.941  1.00 20.00     0.018 C 
HETATM    4  C4  UNL     1     -34.710  16.045  -2.104  1.00 20.00     0.002 C 
HETATM    5  C5  UNL     1     -35.826  16.597  -2.979  1.00 20.00     0.013 C 
HETATM    6  C6  UNL     1     -33.572  15.745  -3.075  1.00 20.00     0.011 C 
HETATM    7  C7  UNL     1     -35.731  15.774  -4.254  1.00 20.00     0.064 C 
HETATM    8  C8  UNL     1     -34.224  15.514  -4.460  1.00 20.00    -0.027 C 
HETATM    9  O12 UNL     1     -37.470  14.147  -3.793  1.00 20.00    -0.298 OA
ENDROOT
BRANCH   8  10
HETATM   10  C11 UNL     1     -33.613  16.456  -5.500  1.00 20.00    -0.013 C 
HETATM   11  C9  UNL     1     -34.438  16.440  -6.782  1.00 20.00     0.010 C 
HETATM   12  C10 UNL     1     -33.508  17.871  -4.941  1.00 20.00     0.010 C 
ENDBRANCH   8  10
TORSDOF 1
ENDMDL
MODEL 3
REMARK VINA RESULT:      -5.0      1.659      2.271
REMARK  1 active torsions:
REMARK  status: ('A' for Active; 'I' for Inactive)
REMARK    1  A    between atoms: C8_8  and  C11_11 
ROOT
HETATM    1  C1  UNL     1     -37.206  14.903  -4.010  1.00 20.00     0.131 C 
HETATM    2  C2  UNL     1     -37.378  16.180  -4.787  1.00 20.00     0.079 C 
HETATM    3  C3  UNL     1     -36.159  16.977  -4.346  1.00 20.00     0.018 C 
HETATM    4  C4  UNL     1     -34.765  13.989  -5.552  1.00 20.00     0.002 C 
HETATM    5  C5  UNL     1     -35.111  13.513  -4.150  1.00 20.00     0.013 C 
HETATM    6  C6  UNL     1     -34.352  15.448  -5.372  1.00 20.00     0.011 C 
HETATM    7  C7  UNL     1     -35.785  14.717  -3.511  1.00 20.00     0.064 C 
HETATM    8  C8  UNL     1     -35.049  15.947  -4.083  1.00 20.00    -0.027 C 
HETATM    9  O12 UNL     1     -38.103  14.085  -3.844  1.00 20.00    -0.298 OA
ENDROOT
BRANCH   8  10
HETATM   10  C11 UNL     1     -34.017  16.510  -3.104  1.00 20.00    -0.013 C 
HETATM   11  C9  UNL     1     -33.763  17.986  -3.389  1.00 20.00     0.010 C 
HETATM   12  C10 UNL     1     -34.482  16.309  -1.665  1.00 20.00     0.010 C 
ENDBRANCH   8  10
TORSDOF 1
ENDMDL
MODEL 4
REMARK VINA RESULT:      -4.9      1.626      2.715
REMARK  1 active torsions:
REMARK  status: ('A' for Active; 'I' for Inactive)
REMARK    1  A    between atoms: C8_8  and  C11_11 
ROOT
HETATM    1  C1  UNL     1     -34.983  14.839  -6.148  1.00 20.00     0.131 C 
HETATM    2  C2  UNL     1     -34.028  15.987  -6.329  1.00 20.00     0.079 C 
HETATM    3  C3  UNL     1     -34.255  16.783  -5.052  1.00 20.00     0.018 C 
HETATM    4  C4  UNL     1     -33.444  13.581  -3.863  1.00 20.00     0.002 C 
HETATM    5  C5  UNL     1     -34.924  13.344  -4.123  1.00 20.00     0.013 C 
HETATM    6  C6  UNL     1     -33.364  15.028  -3.384  1.00 20.00     0.011 C 
HETATM    7  C7  UNL     1     -35.409  14.664  -4.702  1.00 20.00     0.064 C 
HETATM    8  C8  UNL     1     -34.602  15.753  -3.965  1.00 20.00    -0.027 C 
HETATM    9  O12 UNL     1     -35.336  14.101  -7.060  1.00 20.00    -0.298 OA
ENDROOT
BRANCH   8  10
HETATM   10  C11 UNL     1     -35.409  16.410  -2.843  1.00 20.00    -0.013 C 
HETATM   11  C9  UNL     1     -34.648  16.330  -1.524  1.00 20.00     0.010 C 
HETATM   12  C10 UNL     1     -35.731  17.858  -3.196  1.00 20.00     0.010 C 
ENDBRANCH   8  10
TORSDOF 1
ENDMDL
MODEL 5
REMARK VINA RESULT:      -4.9      2.076      3.879
REMARK  1 active torsions:
REMARK  status: ('A' for Active; 'I' for Inactive)
REMARK    1  A    between atoms: C8_8  and  C11_11 
ROOT
HETATM    1  C1  UNL     1     -35.133  15.832  -3.037  1.00 20.00     0.131 C 
HETATM    2  C2  UNL     1     -36.422  15.143  -3.393  1.00 20.00     0.079 C 
HETATM    3  C3  UNL     1     -36.283  14.986  -4.900  1.00 20.00     0.018 C 
HETATM    4  C4  UNL     1     -33.380  13.444  -3.667  1.00 20.00     0.002 C 
HETATM    5  C5  UNL     1     -32.884  14.882  -3.648  1.00 20.00     0.013 C 
HETATM    6  C6  UNL     1     -34.278  13.363  -4.899  1.00 20.00     0.011 C 
HETATM    7  C7  UNL     1     -34.082  15.689  -4.122  1.00 20.00     0.064 C 
HETATM    8  C8  UNL     1     -34.781  14.801  -5.172  1.00 20.00    -0.027 C 
HETATM    9  O12 UNL     1     -34.943  16.402  -1.969  1.00 20.00    -0.298 OA
ENDROOT
BRANCH   8  10
HETATM   10  C11 UNL     1     -34.440  15.222  -6.604  1.00 20.00    -0.013 C 
HETATM   11  C9  UNL     1     -35.386  14.553  -7.594  1.00 20.00     0.010 C 
HETATM   12  C10 UNL     1     -34.497  16.740  -6.741  1.00 20.00     0.010 C 
ENDBRANCH   8  10
TORSDOF 1
ENDMDL
MODEL 6
REMARK VINA RESULT:      -4.9      2.019      3.879
REMARK  1 active torsions:
REMARK  status: ('A' for Active; 'I' for Inactive)
REMARK    1  A    between atoms: C8_8  and  C11_11 
ROOT
HETATM    1  C1  UNL     1     -33.530  14.073  -4.009  1.00 20.00     0.131 C 
HETATM    2  C2  UNL     1     -32.821  15.376  -3.760  1.00 20.00     0.079 C 
HETATM    3  C3  UNL     1     -33.314  16.224  -4.923  1.00 20.00     0.018 C 
HETATM    4  C4  UNL     1     -36.290  15.158  -3.394  1.00 20.00     0.002 C 
HETATM    5  C5  UNL     1     -36.032  13.924  -4.245  1.00 20.00     0.013 C 
HETATM    6  C6  UNL     1     -35.803  16.325  -4.251  1.00 20.00     0.011 C 
HETATM    7  C7  UNL     1     -34.717  14.229  -4.943  1.00 20.00     0.064 C 
HETATM    8  C8  UNL     1     -34.745  15.746  -5.221  1.00 20.00    -0.027 C 
HETATM    9  O12 UNL     1     -33.212  13.016  -3.477  1.00 20.00    -0.298 OA
ENDROOT
BRANCH   8  10
HETATM   10  C11 UNL     1     -35.124  16.061  -6.671  1.00 20.00    -0.013 C 
HETATM   11  C9  UNL     1     -34.486  17.372  -7.114  1.00 20.00     0.010 C 
HETATM   12  C10 UNL     1     -34.707  14.917  -7.590  1.00 20.00     0.010 C 
ENDBRANCH   8  10
TORSDOF 1
ENDMDL
MODEL 7
REMARK VINA RESULT:      -4.7      1.640      2.648
REMARK  1 active torsions:
REMARK  status: ('A' for Active; 'I' for Inactive)
REMARK    1  A    between atoms: C8_8  and  C11_11 
ROOT
HETATM    1  C1  UNL     1     -34.726  14.418  -5.841  1.00 20.00     0.131 C 
HETATM    2  C2  UNL     1     -34.637  13.207  -4.952  1.00 20.00     0.079 C 
HETATM    3  C3  UNL     1     -34.180  13.821  -3.637  1.00 20.00     0.018 C 
HETATM    4  C4  UNL     1     -37.093  15.630  -4.392  1.00 20.00     0.002 C 
HETATM    5  C5  UNL     1     -36.118  16.429  -5.244  1.00 20.00     0.013 C 
HETATM    6  C6  UNL     1     -36.288  15.230  -3.158  1.00 20.00     0.011 C 
HETATM    7  C7  UNL     1     -34.791  15.712  -5.050  1.00 20.00     0.064 C 
HETATM    8  C8  UNL     1     -34.800  15.227  -3.585  1.00 20.00    -0.027 C 
HETATM    9  O12 UNL     1     -34.786  14.358  -7.063  1.00 20.00    -0.298 OA
ENDROOT
BRANCH   8  10
HETATM   10  C11 UNL     1     -33.982  16.140  -2.670  1.00 20.00    -0.013 C 
HETATM   11  C9  UNL     1     -33.693  17.467  -3.362  1.00 20.00     0.010 C 
HETATM   12  C10 UNL     1     -34.713  16.366  -1.351  1.00 20.00     0.010 C 
ENDBRANCH   8  10
TORSDOF 1
ENDMDL
MODEL 8
REMARK VINA RESULT:      -4.7      2.540      3.793
REMARK  1 active torsions:
REMARK  status: ('A' for Active; 'I' for Inactive)
REMARK    1  A    between atoms: C8_8  and  C11_11 
ROOT
HETATM    1  C1  UNL     1     -33.656  14.886  -4.154  1.00 20.00     0.131 C 
HETATM    2  C2  UNL     1     -34.148  13.469  -4.032  1.00 20.00     0.079 C 
HETATM    3  C3  UNL     1     -35.643  13.640  -4.260  1.00 20.00     0.018 C 
HETATM    4  C4  UNL     1     -34.227  15.104  -7.120  1.00 20.00     0.002 C 
HETATM    5  C5  UNL     1     -34.110  16.299  -6.187  1.00 20.00     0.013 C 
HETATM    6  C6  UNL     1     -35.534  14.426  -6.715  1.00 20.00     0.011 C 
HETATM    7  C7  UNL     1     -34.652  15.785  -4.863  1.00 20.00     0.064 C 
HETATM    8  C8  UNL     1     -35.793  14.816  -5.239  1.00 20.00    -0.027 C 
HETATM    9  O12 UNL     1     -32.555  15.256  -3.766  1.00 20.00    -0.298 OA
ENDROOT
BRANCH   8  10
HETATM   10  C11 UNL     1     -37.172  15.462  -5.093  1.00 20.00    -0.013 C 
HETATM   11  C9  UNL     1     -37.929  15.405  -6.415  1.00 20.00     0.010 C 
HETATM   12  C10 UNL     1     -37.966  14.779  -3.984  1.00 20.00     0.010 C 
ENDBRANCH   8  10
TORSDOF 1
ENDMDL
MODEL 9
REMARK VINA RESULT:      -4.6      1.578      2.718
REMARK  1 active torsions:
REMARK  status: ('A' for Active; 'I' for Inactive)
REMARK    1  A    between atoms: C8_8  and  C11_11 
ROOT
HETATM    1  C1  UNL     1     -34.009  13.818  -3.994  1.00 20.00     0.131 C 
HETATM    2  C2  UNL     1     -34.620  13.725  -5.366  1.00 20.00     0.079 C 
HETATM    3  C3  UNL     1     -35.945  14.445  -5.164  1.00 20.00     0.018 C 
HETATM    4  C4  UNL     1     -33.581  16.814  -4.105  1.00 20.00     0.002 C 
HETATM    5  C5  UNL     1     -33.679  16.017  -2.813  1.00 20.00     0.013 C 
HETATM    6  C6  UNL     1     -34.996  16.794  -4.678  1.00 20.00     0.011 C 
HETATM    7  C7  UNL     1     -34.654  14.900  -3.146  1.00 20.00     0.064 C 
HETATM    8  C8  UNL     1     -35.684  15.530  -4.107  1.00 20.00    -0.027 C 
HETATM    9  O12 UNL     1     -33.066  13.130  -3.625  1.00 20.00    -0.298 OA
ENDROOT
BRANCH   8  10
HETATM   10  C11 UNL     1     -36.984  15.908  -3.394  1.00 20.00    -0.013 C 
HETATM   11  C9  UNL     1     -37.344  17.362  -3.678  1.00 20.00     0.010 C 
HETATM   12  C10 UNL     1     -38.115  14.977  -3.819  1.00 20.00     0.010 C 
ENDBRANCH   8  10
TORSDOF 1
ENDMDL
