MODEL 1
REMARK VINA RESULT:      -4.0      0.000      0.000
REMARK  0 active torsions:
REMARK  status: ('A' for Active; 'I' for Inactive)
ROOT
HETATM    1  C1  UNL     1     -34.498  13.670  -4.528  1.00 20.00     0.161 C 
HETATM    2  C2  UNL     1     -33.219  13.873  -3.752  1.00 20.00     0.091 C 
HETATM    3  C3  UNL     1     -33.094  15.362  -3.496  1.00 20.00     0.084 C 
HETATM    4  C4  UNL     1     -34.933  14.864  -5.358  1.00 20.00     0.141 C 
HETATM    5  C5  UNL     1     -36.323  15.332  -4.960  1.00 20.00     0.053 C 
HETATM    6  O6  UNL     1     -35.102  12.600  -4.519  1.00 20.00    -0.295 OA
HETATM    7  S7  UNL     1     -33.688  16.143  -5.012  1.00 20.00    -0.135 SA
HETATM    8 CL8  UNL     1     -34.884  14.388  -7.068  1.00 20.00    -0.099 Cl
ENDROOT
TORSDOF 0
ENDMDL
MODEL 2
REMARK VINA RESULT:      -4.0      1.870      2.758
REMARK  0 active torsions:
REMARK  status: ('A' for Active; 'I' for Inactive)
ROOT
HETATM    1  C1  UNL     1     -34.707  13.835  -4.820  1.00 20.00     0.161 C 
HETATM    2  C2  UNL     1     -35.146  14.178  -6.223  1.00 20.00     0.091 C 
HETATM    3  C3  UNL     1     -34.213  15.264  -6.721  1.00 20.00     0.084 C 
HETATM    4  C4  UNL     1     -34.004  14.960  -4.083  1.00 20.00     0.141 C 
HETATM    5  C5  UNL     1     -32.611  14.541  -3.642  1.00 20.00     0.053 C 
HETATM    6  O6  UNL     1     -34.950  12.744  -4.310  1.00 20.00    -0.295 OA
HETATM    7  S7  UNL     1     -33.928  16.321  -5.286  1.00 20.00    -0.135 SA
HETATM    8 CL8  UNL     1     -35.007  15.411  -2.689  1.00 20.00    -0.099 Cl
ENDROOT
TORSDOF 0
ENDMDL
MODEL 3
REMARK VINA RESULT:      -3.7      2.764      3.377
REMARK  0 active torsions:
REMARK  status: ('A' for Active; 'I' for Inactive)
ROOT
HETATM    1  C1  UNL     1     -33.669  15.869  -5.175  1.00 20.00     0.161 C 
HETATM    2  C2  UNL     1     -34.194  15.396  -6.510  1.00 20.00     0.091 C 
HETATM    3  C3  UNL     1     -35.313  14.416  -6.217  1.00 20.00     0.084 C 
HETATM    4  C4  UNL     1     -33.861  14.886  -4.034  1.00 20.00     0.141 C 
HETATM    5  C5  UNL     1     -34.669  15.507  -2.906  1.00 20.00     0.053 C 
HETATM    6  O6  UNL     1     -33.090  16.945  -5.048  1.00 20.00    -0.295 OA
HETATM    7  S7  UNL     1     -34.746  13.484  -4.778  1.00 20.00    -0.135 SA
HETATM    8 CL8  UNL     1     -32.254  14.385  -3.469  1.00 20.00    -0.099 Cl
ENDROOT
TORSDOF 0
ENDMDL
MODEL 4
REMARK VINA RESULT:      -3.7      2.296      2.706
REMARK  0 active torsions:
REMARK  status: ('A' for Active; 'I' for Inactive)
ROOT
HETATM    1  C1  UNL     1     -35.758  14.731  -3.564  1.00 20.00     0.161 C 
HETATM    2  C2  UNL     1     -35.090  13.577  -4.273  1.00 20.00     0.091 C 
HETATM    3  C3  UNL     1     -33.623  13.620  -3.892  1.00 20.00     0.084 C 
HETATM    4  C4  UNL     1     -34.842  15.901  -3.254  1.00 20.00     0.141 C 
HETATM    5  C5  UNL     1     -34.811  16.193  -1.762  1.00 20.00     0.053 C 
HETATM    6  O6  UNL     1     -36.959  14.730  -3.309  1.00 20.00    -0.295 OA
HETATM    7  S7  UNL     1     -33.207  15.376  -3.851  1.00 20.00    -0.135 SA
HETATM    8 CL8  UNL     1     -35.422  17.307  -4.169  1.00 20.00    -0.099 Cl
ENDROOT
TORSDOF 0
ENDMDL
MODEL 5
REMARK VINA RESULT:      -3.6      2.873      3.275
REMARK  0 active torsions:
REMARK  status: ('A' for Active; 'I' for Inactive)
ROOT
HETATM    1  C1  UNL     1     -33.515  14.795  -3.574  1.00 20.00     0.161 C 
HETATM    2  C2  UNL     1     -34.399  13.582  -3.741  1.00 20.00     0.091 C 
HETATM    3  C3  UNL     1     -35.731  14.080  -4.266  1.00 20.00     0.084 C 
HETATM    4  C4  UNL     1     -34.261  16.094  -3.329  1.00 20.00     0.141 C 
HETATM    5  C5  UNL     1     -33.925  17.128  -4.391  1.00 20.00     0.053 C 
HETATM    6  O6  UNL     1     -32.290  14.713  -3.589  1.00 20.00    -0.295 OA
HETATM    7  S7  UNL     1     -36.018  15.635  -3.395  1.00 20.00    -0.135 SA
HETATM    8 CL8  UNL     1     -33.825  16.676  -1.709  1.00 20.00    -0.099 Cl
ENDROOT
TORSDOF 0
ENDMDL
MODEL 6
REMARK VINA RESULT:      -3.6      2.380      2.704
REMARK  0 active torsions:
REMARK  status: ('A' for Active; 'I' for Inactive)
ROOT
HETATM    1  C1  UNL     1     -33.538  15.880  -4.813  1.00 20.00     0.161 C 
HETATM    2  C2  UNL     1     -33.061  15.112  -3.603  1.00 20.00     0.091 C 
HETATM    3  C3  UNL     1     -33.462  13.666  -3.818  1.00 20.00     0.084 C 
HETATM    4  C4  UNL     1     -34.736  15.272  -5.519  1.00 20.00     0.141 C 
HETATM    5  C5  UNL     1     -34.419  14.967  -6.974  1.00 20.00     0.053 C 
HETATM    6  O6  UNL     1     -33.018  16.939  -5.157  1.00 20.00    -0.295 OA
HETATM    7  S7  UNL     1     -35.090  13.748  -4.593  1.00 20.00    -0.135 SA
HETATM    8 CL8  UNL     1     -36.087  16.415  -5.385  1.00 20.00    -0.099 Cl
ENDROOT
TORSDOF 0
ENDMDL
MODEL 7
REMARK VINA RESULT:      -3.6      2.026      2.464
REMARK  0 active torsions:
REMARK  status: ('A' for Active; 'I' for Inactive)
ROOT
HETATM    1  C1  UNL     1     -33.447  15.205  -3.515  1.00 20.00     0.161 C 
HETATM    2  C2  UNL     1     -33.742  16.287  -2.505  1.00 20.00     0.091 C 
HETATM    3  C3  UNL     1     -35.225  16.211  -2.202  1.00 20.00     0.084 C 
HETATM    4  C4  UNL     1     -34.624  14.818  -4.392  1.00 20.00     0.141 C 
HETATM    5  C5  UNL     1     -34.943  13.338  -4.259  1.00 20.00     0.053 C 
HETATM    6  O6  UNL     1     -32.325  14.721  -3.641  1.00 20.00    -0.295 OA
HETATM    7  S7  UNL     1     -36.002  15.840  -3.789  1.00 20.00    -0.135 SA
HETATM    8 CL8  UNL     1     -34.219  15.238  -6.068  1.00 20.00    -0.099 Cl
ENDROOT
TORSDOF 0
ENDMDL
MODEL 8
REMARK VINA RESULT:      -3.5      1.923      2.670
REMARK  0 active torsions:
REMARK  status: ('A' for Active; 'I' for Inactive)
ROOT
HETATM    1  C1  UNL     1     -35.506  13.990  -4.437  1.00 20.00     0.161 C 
HETATM    2  C2  UNL     1     -36.840  14.433  -3.886  1.00 20.00     0.091 C 
HETATM    3  C3  UNL     1     -37.236  15.683  -4.648  1.00 20.00     0.084 C 
HETATM    4  C4  UNL     1     -34.663  15.105  -5.029  1.00 20.00     0.141 C 
HETATM    5  C5  UNL     1     -34.327  14.824  -6.485  1.00 20.00     0.053 C 
HETATM    6  O6  UNL     1     -35.125  12.825  -4.360  1.00 20.00    -0.295 OA
HETATM    7  S7  UNL     1     -35.693  16.594  -4.871  1.00 20.00    -0.135 SA
HETATM    8 CL8  UNL     1     -33.190  15.255  -4.050  1.00 20.00    -0.099 Cl
ENDROOT
TORSDOF 0
ENDMDL
MODEL 9
REMARK VINA RESULT:      -3.4      2.141      3.055
REMARK  0 active torsions:
REMARK  status: ('A' for Active; 'I' for Inactive)
ROOT
HETATM    1  C1  UNL     1     -36.022  14.694  -4.385  1.00 20.00     0.161 C 
HETATM    2  C2  UNL     1     -36.352  15.457  -5.645  1.00 20.00     0.091 C 
HETATM    3  C3  UNL     1     -35.041  15.700  -6.366  1.00 20.00     0.084 C 
HETATM    4  C4  UNL     1     -34.620  14.925  -3.852  1.00 20.00     0.141 C 
HETATM    5  C5  UNL     1     -33.848  13.619  -3.755  1.00 20.00     0.053 C 
HETATM    6  O6  UNL     1     -36.849  13.984  -3.819  1.00 20.00    -0.295 OA
HETATM    7  S7  UNL     1     -33.851  16.052  -5.054  1.00 20.00    -0.135 SA
HETATM    8 CL8  UNL     1     -34.761  15.705  -2.264  1.00 20.00    -0.099 Cl
ENDROOT
TORSDOF 0
ENDMDL
