MODEL 1
REMARK VINA RESULT:      -4.7      0.000      0.000
REMARK  0 active torsions:
REMARK  status: ('A' for Active; 'I' for Inactive)
ROOT
HETATM    1  C1  UNL     1     -33.417  14.244  -4.032  1.00 20.00     0.050 C 
HETATM    2  C2  UNL     1     -33.030  15.521  -3.946  1.00 20.00    -0.014 C 
HETATM    3  C3  UNL     1     -34.856  13.885  -4.043  1.00 20.00     0.188 C 
HETATM    4  C4  UNL     1     -35.377  16.314  -4.397  1.00 20.00     0.064 C 
HETATM    5  C5  UNL     1     -33.963  16.712  -3.908  1.00 20.00    -0.026 C 
HETATM    6  C6  UNL     1     -35.877  14.991  -3.809  1.00 20.00     0.164 C 
HETATM    7  C7  UNL     1     -33.419  17.811  -4.840  1.00 20.00     0.019 C 
HETATM    8  C8  UNL     1     -34.001  17.267  -2.473  1.00 20.00     0.019 C 
HETATM    9  C9  UNL     1     -37.226  14.618  -4.417  1.00 20.00     0.060 C 
HETATM   10  O10 UNL     1     -35.174  12.704  -4.165  1.00 20.00    -0.290 OA
HETATM   11  F11 UNL     1     -36.077  15.153  -2.469  1.00 20.00    -0.235 F 
ENDROOT
TORSDOF 0
ENDMDL
MODEL 2
REMARK VINA RESULT:      -4.6      1.695      1.839
REMARK  0 active torsions:
REMARK  status: ('A' for Active; 'I' for Inactive)
ROOT
HETATM    1  C1  UNL     1     -34.335  14.122  -3.342  1.00 20.00     0.050 C 
HETATM    2  C2  UNL     1     -34.356  15.411  -2.986  1.00 20.00    -0.014 C 
HETATM    3  C3  UNL     1     -34.806  13.697  -4.682  1.00 20.00     0.188 C 
HETATM    4  C4  UNL     1     -34.797  16.112  -5.364  1.00 20.00     0.064 C 
HETATM    5  C5  UNL     1     -34.786  16.553  -3.880  1.00 20.00    -0.026 C 
HETATM    6  C6  UNL     1     -35.445  14.741  -5.588  1.00 20.00     0.164 C 
HETATM    7  C7  UNL     1     -33.789  17.718  -3.730  1.00 20.00     0.019 C 
HETATM    8  C8  UNL     1     -36.174  17.041  -3.428  1.00 20.00     0.019 C 
HETATM    9  C9  UNL     1     -35.325  14.332  -7.053  1.00 20.00     0.060 C 
HETATM   10  O10 UNL     1     -34.733  12.508  -4.989  1.00 20.00    -0.290 OA
HETATM   11  F11 UNL     1     -36.777  14.834  -5.310  1.00 20.00    -0.235 F 
ENDROOT
TORSDOF 0
ENDMDL
MODEL 3
REMARK VINA RESULT:      -4.6      2.139      3.129
REMARK  0 active torsions:
REMARK  status: ('A' for Active; 'I' for Inactive)
ROOT
HETATM    1  C1  UNL     1     -34.716  13.531  -5.481  1.00 20.00     0.050 C 
HETATM    2  C2  UNL     1     -35.321  14.344  -6.354  1.00 20.00    -0.014 C 
HETATM    3  C3  UNL     1     -34.037  14.074  -4.281  1.00 20.00     0.188 C 
HETATM    4  C4  UNL     1     -35.145  16.276  -4.749  1.00 20.00     0.064 C 
HETATM    5  C5  UNL     1     -35.434  15.846  -6.207  1.00 20.00    -0.026 C 
HETATM    6  C6  UNL     1     -33.920  15.586  -4.140  1.00 20.00     0.164 C 
HETATM    7  C7  UNL     1     -36.867  16.283  -6.566  1.00 20.00     0.019 C 
HETATM    8  C8  UNL     1     -34.461  16.515  -7.194  1.00 20.00     0.019 C 
HETATM    9  C9  UNL     1     -33.763  15.982  -2.675  1.00 20.00     0.060 C 
HETATM   10  O10 UNL     1     -33.528  13.292  -3.480  1.00 20.00    -0.290 OA
HETATM   11  F11 UNL     1     -32.802  16.021  -4.790  1.00 20.00    -0.235 F 
ENDROOT
TORSDOF 0
ENDMDL
MODEL 4
REMARK VINA RESULT:      -4.5      1.549      2.836
REMARK  0 active torsions:
REMARK  status: ('A' for Active; 'I' for Inactive)
ROOT
HETATM    1  C1  UNL     1     -36.578  14.413  -3.994  1.00 20.00     0.050 C 
HETATM    2  C2  UNL     1     -36.724  15.694  -3.641  1.00 20.00    -0.014 C 
HETATM    3  C3  UNL     1     -35.230  13.805  -4.105  1.00 20.00     0.188 C 
HETATM    4  C4  UNL     1     -34.309  15.831  -2.946  1.00 20.00     0.064 C 
HETATM    5  C5  UNL     1     -35.594  16.630  -3.272  1.00 20.00    -0.026 C 
HETATM    6  C6  UNL     1     -34.015  14.711  -3.949  1.00 20.00     0.164 C 
HETATM    7  C7  UNL     1     -35.992  17.437  -2.022  1.00 20.00     0.019 C 
HETATM    8  C8  UNL     1     -35.365  17.614  -4.433  1.00 20.00     0.019 C 
HETATM    9  C9  UNL     1     -32.796  13.907  -3.503  1.00 20.00     0.060 C 
HETATM   10  O10 UNL     1     -35.136  12.613  -4.392  1.00 20.00    -0.290 OA
HETATM   11  F11 UNL     1     -33.703  15.270  -5.154  1.00 20.00    -0.235 F 
ENDROOT
TORSDOF 0
ENDMDL
MODEL 5
REMARK VINA RESULT:      -4.5      2.440      3.900
REMARK  0 active torsions:
REMARK  status: ('A' for Active; 'I' for Inactive)
ROOT
HETATM    1  C1  UNL     1     -34.474  16.689  -2.065  1.00 20.00     0.050 C 
HETATM    2  C2  UNL     1     -35.042  15.515  -2.360  1.00 20.00    -0.014 C 
HETATM    3  C3  UNL     1     -33.832  17.509  -3.120  1.00 20.00     0.188 C 
HETATM    4  C4  UNL     1     -34.906  16.012  -4.824  1.00 20.00     0.064 C 
HETATM    5  C5  UNL     1     -35.149  14.925  -3.750  1.00 20.00    -0.026 C 
HETATM    6  C6  UNL     1     -33.708  16.917  -4.518  1.00 20.00     0.164 C 
HETATM    7  C7  UNL     1     -36.566  14.354  -3.950  1.00 20.00     0.019 C 
HETATM    8  C8  UNL     1     -34.138  13.772  -3.878  1.00 20.00     0.019 C 
HETATM    9  C9  UNL     1     -33.598  18.022  -5.565  1.00 20.00     0.060 C 
HETATM   10  O10 UNL     1     -33.357  18.602  -2.819  1.00 20.00    -0.290 OA
HETATM   11  F11 UNL     1     -32.566  16.176  -4.602  1.00 20.00    -0.235 F 
ENDROOT
TORSDOF 0
ENDMDL
MODEL 6
REMARK VINA RESULT:      -4.5      2.180      3.549
REMARK  0 active torsions:
REMARK  status: ('A' for Active; 'I' for Inactive)
ROOT
HETATM    1  C1  UNL     1     -33.703  16.883  -4.726  1.00 20.00     0.050 C 
HETATM    2  C2  UNL     1     -34.153  15.715  -5.195  1.00 20.00    -0.014 C 
HETATM    3  C3  UNL     1     -33.964  17.290  -3.324  1.00 20.00     0.188 C 
HETATM    4  C4  UNL     1     -34.716  14.941  -2.867  1.00 20.00     0.064 C 
HETATM    5  C5  UNL     1     -34.900  14.681  -4.381  1.00 20.00    -0.026 C 
HETATM    6  C6  UNL     1     -34.876  16.414  -2.477  1.00 20.00     0.164 C 
HETATM    7  C7  UNL     1     -34.340  13.282  -4.704  1.00 20.00     0.019 C 
HETATM    8  C8  UNL     1     -36.385  14.713  -4.782  1.00 20.00     0.019 C 
HETATM    9  C9  UNL     1     -34.580  16.603  -0.991  1.00 20.00     0.060 C 
HETATM   10  O10 UNL     1     -33.499  18.353  -2.917  1.00 20.00    -0.290 OA
HETATM   11  F11 UNL     1     -36.175  16.782  -2.672  1.00 20.00    -0.235 F 
ENDROOT
TORSDOF 0
ENDMDL
MODEL 7
REMARK VINA RESULT:      -4.4     11.666     13.350
REMARK  0 active torsions:
REMARK  status: ('A' for Active; 'I' for Inactive)
ROOT
HETATM    1  C1  UNL     1     -42.925   6.012  -3.032  1.00 20.00     0.050 C 
HETATM    2  C2  UNL     1     -42.987   4.685  -3.192  1.00 20.00    -0.014 C 
HETATM    3  C3  UNL     1     -42.196   6.605  -1.885  1.00 20.00     0.188 C 
HETATM    4  C4  UNL     1     -41.206   4.341  -1.447  1.00 20.00     0.064 C 
HETATM    5  C5  UNL     1     -42.308   3.669  -2.301  1.00 20.00    -0.026 C 
HETATM    6  C6  UNL     1     -41.644   5.668  -0.819  1.00 20.00     0.164 C 
HETATM    7  C7  UNL     1     -41.649   2.587  -3.177  1.00 20.00     0.019 C 
HETATM    8  C8  UNL     1     -43.372   2.995  -1.416  1.00 20.00     0.019 C 
HETATM    9  C9  UNL     1     -40.475   6.317  -0.082  1.00 20.00     0.060 C 
HETATM   10  O10 UNL     1     -42.125   7.829  -1.794  1.00 20.00    -0.290 OA
HETATM   11  F11 UNL     1     -42.609   5.416   0.113  1.00 20.00    -0.235 F 
ENDROOT
TORSDOF 0
ENDMDL
MODEL 8
REMARK VINA RESULT:      -4.4      2.455      3.046
REMARK  0 active torsions:
REMARK  status: ('A' for Active; 'I' for Inactive)
ROOT
HETATM    1  C1  UNL     1     -33.317  16.639  -5.474  1.00 20.00     0.050 C 
HETATM    2  C2  UNL     1     -33.293  16.207  -4.209  1.00 20.00    -0.014 C 
HETATM    3  C3  UNL     1     -34.407  16.236  -6.394  1.00 20.00     0.188 C 
HETATM    4  C4  UNL     1     -35.656  15.360  -4.402  1.00 20.00     0.064 C 
HETATM    5  C5  UNL     1     -34.354  15.340  -3.566  1.00 20.00    -0.026 C 
HETATM    6  C6  UNL     1     -35.418  15.206  -5.907  1.00 20.00     0.164 C 
HETATM    7  C7  UNL     1     -34.671  15.887  -2.161  1.00 20.00     0.019 C 
HETATM    8  C8  UNL     1     -33.802  13.911  -3.418  1.00 20.00     0.019 C 
HETATM    9  C9  UNL     1     -36.735  15.339  -6.668  1.00 20.00     0.060 C 
HETATM   10  O10 UNL     1     -34.418  16.686  -7.538  1.00 20.00    -0.290 OA
HETATM   11  F11 UNL     1     -34.945  13.950  -6.151  1.00 20.00    -0.235 F 
ENDROOT
TORSDOF 0
ENDMDL
MODEL 9
REMARK VINA RESULT:      -4.3      2.334      3.420
REMARK  0 active torsions:
REMARK  status: ('A' for Active; 'I' for Inactive)
ROOT
HETATM    1  C1  UNL     1     -37.242  15.550  -5.435  1.00 20.00     0.050 C 
HETATM    2  C2  UNL     1     -36.558  16.103  -6.443  1.00 20.00    -0.014 C 
HETATM    3  C3  UNL     1     -36.580  14.622  -4.487  1.00 20.00     0.188 C 
HETATM    4  C4  UNL     1     -34.376  15.346  -5.443  1.00 20.00     0.064 C 
HETATM    5  C5  UNL     1     -35.080  15.908  -6.701  1.00 20.00    -0.026 C 
HETATM    6  C6  UNL     1     -35.144  14.202  -4.773  1.00 20.00     0.164 C 
HETATM    7  C7  UNL     1     -34.443  17.268  -7.046  1.00 20.00     0.019 C 
HETATM    8  C8  UNL     1     -34.907  14.970  -7.909  1.00 20.00     0.019 C 
HETATM    9  C9  UNL     1     -34.441  13.774  -3.488  1.00 20.00     0.060 C 
HETATM   10  O10 UNL     1     -37.230  14.166  -3.549  1.00 20.00    -0.290 OA
HETATM   11  F11 UNL     1     -35.141  13.122  -5.606  1.00 20.00    -0.235 F 
ENDROOT
TORSDOF 0
ENDMDL
