MODEL 1
REMARK VINA RESULT:      -4.8      0.000      0.000
REMARK  1 active torsions:
REMARK  status: ('A' for Active; 'I' for Inactive)
REMARK    1  A    between atoms: C5_5  and  C7_7 
ROOT
HETATM    1  C1  UNL     1     -35.336   5.033   4.714  1.00 20.00     0.003 C 
HETATM    2  C2  UNL     1     -34.428   5.528   5.836  1.00 20.00     0.003 C 
HETATM    3  C3  UNL     1     -34.408   4.963   3.499  1.00 20.00     0.041 C 
HETATM    4  C4  UNL     1     -33.550   6.579   5.154  1.00 20.00     0.041 C 
HETATM    5  C5  UNL     1     -32.737   6.815   2.630  1.00 20.00     0.167 A 
HETATM    6  C6  UNL     1     -33.422   6.066   3.752  1.00 20.00     0.088 A 
HETATM    7  O8  UNL     1     -32.077   5.763   3.342  1.00 20.00    -0.368 OA
ENDROOT
BRANCH   5   8
HETATM    8  C7  UNL     1     -32.140   8.162   2.821  1.00 20.00     0.120 C 
HETATM    9 BR9  UNL     1     -32.126   9.151   1.137  1.00 20.00    -0.094 Br
ENDBRANCH   5   8
TORSDOF 1
ENDMDL
MODEL 2
REMARK VINA RESULT:      -3.9     11.097     12.021
REMARK  1 active torsions:
REMARK  status: ('A' for Active; 'I' for Inactive)
REMARK    1  A    between atoms: C5_5  and  C7_7 
ROOT
HETATM    1  C1  UNL     1     -34.934  14.422  -6.144  1.00 20.00     0.003 C 
HETATM    2  C2  UNL     1     -34.791  13.264  -5.161  1.00 20.00     0.003 C 
HETATM    3  C3  UNL     1     -34.049  15.519  -5.547  1.00 20.00     0.041 C 
HETATM    4  C4  UNL     1     -34.789  13.950  -3.793  1.00 20.00     0.041 C 
HETATM    5  C5  UNL     1     -34.005  16.383  -3.052  1.00 20.00     0.167 A 
HETATM    6  C6  UNL     1     -34.141  15.272  -4.070  1.00 20.00     0.088 A 
HETATM    7  O8  UNL     1     -32.916  15.505  -3.353  1.00 20.00    -0.368 OA
ENDROOT
BRANCH   5   8
HETATM    8  C7  UNL     1     -34.532  16.264  -1.668  1.00 20.00     0.120 C 
HETATM    9 BR9  UNL     1     -33.926  17.762  -0.572  1.00 20.00    -0.094 Br
ENDBRANCH   5   8
TORSDOF 1
ENDMDL
MODEL 3
REMARK VINA RESULT:      -3.9     11.757     13.527
REMARK  1 active torsions:
REMARK  status: ('A' for Active; 'I' for Inactive)
REMARK    1  A    between atoms: C5_5  and  C7_7 
ROOT
HETATM    1  C1  UNL     1     -35.166  16.276  -7.554  1.00 20.00     0.003 C 
HETATM    2  C2  UNL     1     -34.597  14.871  -7.378  1.00 20.00     0.003 C 
HETATM    3  C3  UNL     1     -34.354  17.124  -6.572  1.00 20.00     0.041 C 
HETATM    4  C4  UNL     1     -34.373  14.760  -5.868  1.00 20.00     0.041 C 
HETATM    5  C5  UNL     1     -33.842  16.614  -4.033  1.00 20.00     0.167 A 
HETATM    6  C6  UNL     1     -34.039  16.164  -5.464  1.00 20.00     0.088 A 
HETATM    7  O8  UNL     1     -32.731  16.331  -4.889  1.00 20.00    -0.368 OA
ENDROOT
BRANCH   5   8
HETATM    8  C7  UNL     1     -33.987  15.687  -2.880  1.00 20.00     0.120 C 
HETATM    9 BR9  UNL     1     -34.575  16.657  -1.290  1.00 20.00    -0.094 Br
ENDBRANCH   5   8
TORSDOF 1
ENDMDL
MODEL 4
REMARK VINA RESULT:      -3.9     10.051     10.879
REMARK  1 active torsions:
REMARK  status: ('A' for Active; 'I' for Inactive)
REMARK    1  A    between atoms: C5_5  and  C7_7 
ROOT
HETATM    1  C1  UNL     1     -41.177   7.060  -1.196  1.00 20.00     0.003 C 
HETATM    2  C2  UNL     1     -40.664   6.055  -0.168  1.00 20.00     0.003 C 
HETATM    3  C3  UNL     1     -42.329   6.322  -1.883  1.00 20.00     0.041 C 
HETATM    4  C4  UNL     1     -40.729   4.717  -0.908  1.00 20.00     0.041 C 
HETATM    5  C5  UNL     1     -42.324   3.871  -2.864  1.00 20.00     0.167 A 
HETATM    6  C6  UNL     1     -41.905   4.885  -1.823  1.00 20.00     0.088 A 
HETATM    7  O8  UNL     1     -42.981   3.959  -1.597  1.00 20.00    -0.368 OA
ENDROOT
BRANCH   5   8
HETATM    8  C7  UNL     1     -41.578   2.606  -3.089  1.00 20.00     0.120 C 
HETATM    9 BR9  UNL     1     -42.388   1.581  -4.541  1.00 20.00    -0.094 Br
ENDBRANCH   5   8
TORSDOF 1
ENDMDL
MODEL 5
REMARK VINA RESULT:      -3.8     11.817     12.676
REMARK  1 active torsions:
REMARK  status: ('A' for Active; 'I' for Inactive)
REMARK    1  A    between atoms: C5_5  and  C7_7 
ROOT
HETATM    1  C1  UNL     1     -33.541  17.755  -0.825  1.00 20.00     0.003 C 
HETATM    2  C2  UNL     1     -34.667  16.736  -0.666  1.00 20.00     0.003 C 
HETATM    3  C3  UNL     1     -33.657  18.200  -2.285  1.00 20.00     0.041 C 
HETATM    4  C4  UNL     1     -34.636  15.956  -1.982  1.00 20.00     0.041 C 
HETATM    5  C5  UNL     1     -33.874  16.675  -4.429  1.00 20.00     0.167 A 
HETATM    6  C6  UNL     1     -34.181  16.978  -2.980  1.00 20.00     0.088 A 
HETATM    7  O8  UNL     1     -35.121  17.253  -4.032  1.00 20.00    -0.368 OA
ENDROOT
BRANCH   5   8
HETATM    8  C7  UNL     1     -33.979  15.305  -4.996  1.00 20.00     0.120 C 
HETATM    9 BR9  UNL     1     -34.428  15.381  -6.895  1.00 20.00    -0.094 Br
ENDBRANCH   5   8
TORSDOF 1
ENDMDL
MODEL 6
REMARK VINA RESULT:      -3.7     11.299     12.606
REMARK  1 active torsions:
REMARK  status: ('A' for Active; 'I' for Inactive)
REMARK    1  A    between atoms: C5_5  and  C7_7 
ROOT
HETATM    1  C1  UNL     1     -34.611  13.491  -4.838  1.00 20.00     0.003 C 
HETATM    2  C2  UNL     1     -33.477  13.554  -3.818  1.00 20.00     0.003 C 
HETATM    3  C3  UNL     1     -34.425  14.762  -5.669  1.00 20.00     0.041 C 
HETATM    4  C4  UNL     1     -33.422  15.034  -3.432  1.00 20.00     0.041 C 
HETATM    5  C5  UNL     1     -34.062  17.227  -4.796  1.00 20.00     0.167 A 
HETATM    6  C6  UNL     1     -33.841  15.735  -4.688  1.00 20.00     0.088 A 
HETATM    7  O8  UNL     1     -32.850  16.616  -5.245  1.00 20.00    -0.368 OA
ENDROOT
BRANCH   5   8
HETATM    8  C7  UNL     1     -33.901  18.142  -3.637  1.00 20.00     0.120 C 
HETATM    9 BR9  UNL     1     -35.636  18.543  -2.833  1.00 20.00    -0.094 Br
ENDBRANCH   5   8
TORSDOF 1
ENDMDL
MODEL 7
REMARK VINA RESULT:      -3.7     11.918     13.028
REMARK  1 active torsions:
REMARK  status: ('A' for Active; 'I' for Inactive)
REMARK    1  A    between atoms: C5_5  and  C7_7 
ROOT
HETATM    1  C1  UNL     1     -34.706  16.222  -1.526  1.00 20.00     0.003 C 
HETATM    2  C2  UNL     1     -33.767  17.425  -1.499  1.00 20.00     0.003 C 
HETATM    3  C3  UNL     1     -34.312  15.481  -2.806  1.00 20.00     0.041 C 
HETATM    4  C4  UNL     1     -33.705  17.867  -2.963  1.00 20.00     0.041 C 
HETATM    5  C5  UNL     1     -33.984  16.491  -5.224  1.00 20.00     0.167 A 
HETATM    6  C6  UNL     1     -33.861  16.583  -3.719  1.00 20.00     0.088 A 
HETATM    7  O8  UNL     1     -32.744  16.238  -4.557  1.00 20.00    -0.368 OA
ENDROOT
BRANCH   5   8
HETATM    8  C7  UNL     1     -33.982  17.692  -6.098  1.00 20.00     0.120 C 
HETATM    9 BR9  UNL     1     -34.798  17.285  -7.825  1.00 20.00    -0.094 Br
ENDBRANCH   5   8
TORSDOF 1
ENDMDL
MODEL 8
REMARK VINA RESULT:      -3.6     11.328     11.816
REMARK  1 active torsions:
REMARK  status: ('A' for Active; 'I' for Inactive)
REMARK    1  A    between atoms: C5_5  and  C7_7 
ROOT
HETATM    1  C1  UNL     1     -35.257  13.611  -4.098  1.00 20.00     0.003 C 
HETATM    2  C2  UNL     1     -33.868  14.124  -4.463  1.00 20.00     0.003 C 
HETATM    3  C3  UNL     1     -36.002  14.868  -3.641  1.00 20.00     0.041 C 
HETATM    4  C4  UNL     1     -33.566  15.157  -3.374  1.00 20.00     0.041 C 
HETATM    5  C5  UNL     1     -35.181  16.702  -1.929  1.00 20.00     0.167 A 
HETATM    6  C6  UNL     1     -34.917  15.715  -3.044  1.00 20.00     0.088 A 
HETATM    7  O8  UNL     1     -35.063  17.124  -3.290  1.00 20.00    -0.368 OA
ENDROOT
BRANCH   5   8
HETATM    8  C7  UNL     1     -34.104  17.197  -1.032  1.00 20.00     0.120 C 
HETATM    9 BR9  UNL     1     -34.818  17.602   0.740  1.00 20.00    -0.094 Br
ENDBRANCH   5   8
TORSDOF 1
ENDMDL
MODEL 9
REMARK VINA RESULT:      -3.6     11.757     13.131
REMARK  1 active torsions:
REMARK  status: ('A' for Active; 'I' for Inactive)
REMARK    1  A    between atoms: C5_5  and  C7_7 
ROOT
HETATM    1  C1  UNL     1     -34.470  14.923  -7.437  1.00 20.00     0.003 C 
HETATM    2  C2  UNL     1     -34.655  16.430  -7.289  1.00 20.00     0.003 C 
HETATM    3  C3  UNL     1     -34.972  14.361  -6.104  1.00 20.00     0.041 C 
HETATM    4  C4  UNL     1     -34.244  16.704  -5.841  1.00 20.00     0.041 C 
HETATM    5  C5  UNL     1     -34.341  15.166  -3.670  1.00 20.00     0.167 A 
HETATM    6  C6  UNL     1     -34.643  15.449  -5.125  1.00 20.00     0.088 A 
HETATM    7  O8  UNL     1     -35.626  15.632  -4.092  1.00 20.00    -0.368 OA
ENDROOT
BRANCH   5   8
HETATM    8  C7  UNL     1     -33.588  16.118  -2.814  1.00 20.00     0.120 C 
HETATM    9 BR9  UNL     1     -34.625  16.582  -1.225  1.00 20.00    -0.094 Br
ENDBRANCH   5   8
TORSDOF 1
ENDMDL
