MODEL 1
REMARK VINA RESULT:      -4.3      0.000      0.000
REMARK  1 active torsions:
REMARK  status: ('A' for Active; 'I' for Inactive)
REMARK    1  A    between atoms: C7_7  and  N8_8 
ROOT
HETATM    1  C1  UNL     1     -42.364   5.255   0.483  1.00 20.00     0.005 C 
HETATM    2  C2  UNL     1     -43.035   4.744  -0.800  1.00 20.00     0.007 C 
HETATM    3  C3  UNL     1     -40.683   4.601  -1.071  1.00 20.00     0.011 C 
HETATM    4  C4  UNL     1     -41.077   6.945  -0.837  1.00 20.00     0.027 C 
HETATM    5  C5  UNL     1     -40.961   5.656   0.000  1.00 20.00    -0.013 C 
HETATM    6  C6  UNL     1     -41.943   4.948  -1.870  1.00 20.00     0.006 C 
HETATM    7  C7  UNL     1     -41.704   6.447  -2.151  1.00 20.00     0.097 C 
ENDROOT
BRANCH   7   8
HETATM    8  N8  UNL     1     -42.874   7.207  -2.559  1.00 20.00    -0.131 NA
HETATM    9 CL9  UNL     1     -43.417   8.320  -1.300  1.00 20.00    -0.005 Cl
HETATM   10 CL10 UNL     1     -42.604   8.087  -4.065  1.00 20.00    -0.005 Cl
ENDBRANCH   7   8
TORSDOF 1
ENDMDL
MODEL 2
REMARK VINA RESULT:      -4.2     11.488     12.463
REMARK  1 active torsions:
REMARK  status: ('A' for Active; 'I' for Inactive)
REMARK    1  A    between atoms: C7_7  and  N8_8 
ROOT
HETATM    1  C1  UNL     1     -34.359  15.452  -5.611  1.00 20.00     0.005 C 
HETATM    2  C2  UNL     1     -33.274  15.988  -4.665  1.00 20.00     0.007 C 
HETATM    3  C3  UNL     1     -33.687  13.716  -4.126  1.00 20.00     0.011 C 
HETATM    4  C4  UNL     1     -35.768  14.789  -3.652  1.00 20.00     0.027 C 
HETATM    5  C5  UNL     1     -34.931  14.256  -4.832  1.00 20.00    -0.013 C 
HETATM    6  C6  UNL     1     -33.382  15.053  -3.444  1.00 20.00     0.006 C 
HETATM    7  C7  UNL     1     -34.696  15.288  -2.668  1.00 20.00     0.097 C 
ENDROOT
BRANCH   7   8
HETATM    8  N8  UNL     1     -34.920  16.649  -2.208  1.00 20.00    -0.131 NA
HETATM    9 CL9  UNL     1     -36.511  17.256  -2.678  1.00 20.00    -0.005 Cl
HETATM   10 CL10 UNL     1     -34.708  16.805  -0.462  1.00 20.00    -0.005 Cl
ENDBRANCH   7   8
TORSDOF 1
ENDMDL
MODEL 3
REMARK VINA RESULT:      -4.2     11.959     12.997
REMARK  1 active torsions:
REMARK  status: ('A' for Active; 'I' for Inactive)
REMARK    1  A    between atoms: C7_7  and  N8_8 
ROOT
HETATM    1  C1  UNL     1     -33.867  13.821  -3.682  1.00 20.00     0.005 C 
HETATM    2  C2  UNL     1     -32.778  14.902  -3.634  1.00 20.00     0.007 C 
HETATM    3  C3  UNL     1     -34.661  15.677  -2.419  1.00 20.00     0.011 C 
HETATM    4  C4  UNL     1     -35.485  15.464  -4.651  1.00 20.00     0.027 C 
HETATM    5  C5  UNL     1     -35.152  14.617  -3.407  1.00 20.00    -0.013 C 
HETATM    6  C6  UNL     1     -33.578  16.193  -3.371  1.00 20.00     0.006 C 
HETATM    7  C7  UNL     1     -34.433  16.585  -4.596  1.00 20.00     0.097 C 
ENDROOT
BRANCH   7   8
HETATM    8  N8  UNL     1     -33.705  16.759  -5.842  1.00 20.00    -0.131 NA
HETATM    9 CL9  UNL     1     -34.149  15.545  -7.046  1.00 20.00    -0.005 Cl
HETATM   10 CL10 UNL     1     -33.913  18.378  -6.514  1.00 20.00    -0.005 Cl
ENDBRANCH   7   8
TORSDOF 1
ENDMDL
MODEL 4
REMARK VINA RESULT:      -4.1     11.264     12.296
REMARK  1 active torsions:
REMARK  status: ('A' for Active; 'I' for Inactive)
REMARK    1  A    between atoms: C7_7  and  N8_8 
ROOT
HETATM    1  C1  UNL     1     -34.945  15.439  -2.907  1.00 20.00     0.005 C 
HETATM    2  C2  UNL     1     -35.693  14.429  -3.789  1.00 20.00     0.007 C 
HETATM    3  C3  UNL     1     -33.398  13.834  -3.741  1.00 20.00     0.011 C 
HETATM    4  C4  UNL     1     -33.398  15.977  -4.797  1.00 20.00     0.027 C 
HETATM    5  C5  UNL     1     -33.496  15.323  -3.405  1.00 20.00    -0.013 C 
HETATM    6  C6  UNL     1     -34.584  13.881  -4.709  1.00 20.00     0.006 C 
HETATM    7  C7  UNL     1     -34.100  14.954  -5.708  1.00 20.00     0.097 C 
ENDROOT
BRANCH   7   8
HETATM    8  N8  UNL     1     -35.129  15.540  -6.551  1.00 20.00    -0.131 NA
HETATM    9 CL9  UNL     1     -34.616  17.076  -7.256  1.00 20.00    -0.005 Cl
HETATM   10 CL10 UNL     1     -35.652  14.437  -7.826  1.00 20.00    -0.005 Cl
ENDBRANCH   7   8
TORSDOF 1
ENDMDL
MODEL 5
REMARK VINA RESULT:      -4.0     11.538     12.503
REMARK  1 active torsions:
REMARK  status: ('A' for Active; 'I' for Inactive)
REMARK    1  A    between atoms: C7_7  and  N8_8 
ROOT
HETATM    1  C1  UNL     1     -35.588  13.692  -4.113  1.00 20.00     0.005 C 
HETATM    2  C2  UNL     1     -36.258  15.003  -4.549  1.00 20.00     0.007 C 
HETATM    3  C3  UNL     1     -34.349  14.645  -5.909  1.00 20.00     0.011 C 
HETATM    4  C4  UNL     1     -33.433  14.899  -3.718  1.00 20.00     0.027 C 
HETATM    5  C5  UNL     1     -34.144  13.863  -4.611  1.00 20.00    -0.013 C 
HETATM    6  C6  UNL     1     -35.104  15.781  -5.213  1.00 20.00     0.006 C 
HETATM    7  C7  UNL     1     -34.056  16.230  -4.173  1.00 20.00     0.097 C 
ENDROOT
BRANCH   7   8
HETATM    8  N8  UNL     1     -34.563  17.038  -3.075  1.00 20.00    -0.131 NA
HETATM    9 CL9  UNL     1     -34.552  16.160  -1.543  1.00 20.00    -0.005 Cl
HETATM   10 CL10 UNL     1     -33.681  18.558  -2.905  1.00 20.00    -0.005 Cl
ENDBRANCH   7   8
TORSDOF 1
ENDMDL
MODEL 6
REMARK VINA RESULT:      -4.0     12.055     13.170
REMARK  1 active torsions:
REMARK  status: ('A' for Active; 'I' for Inactive)
REMARK    1  A    between atoms: C7_7  and  N8_8 
ROOT
HETATM    1  C1  UNL     1     -34.467  14.850  -6.887  1.00 20.00     0.005 C 
HETATM    2  C2  UNL     1     -35.584  14.557  -5.875  1.00 20.00     0.007 C 
HETATM    3  C3  UNL     1     -35.680  16.854  -6.458  1.00 20.00     0.011 C 
HETATM    4  C4  UNL     1     -33.553  16.636  -5.393  1.00 20.00     0.027 C 
HETATM    5  C5  UNL     1     -34.258  16.366  -6.737  1.00 20.00    -0.013 C 
HETATM    6  C6  UNL     1     -35.854  15.938  -5.243  1.00 20.00     0.006 C 
HETATM    7  C7  UNL     1     -34.672  16.395  -4.364  1.00 20.00     0.097 C 
ENDROOT
BRANCH   7   8
HETATM    8  N8  UNL     1     -34.290  15.485  -3.297  1.00 20.00    -0.131 NA
HETATM    9 CL9  UNL     1     -32.705  14.758  -3.576  1.00 20.00    -0.005 Cl
HETATM   10 CL10 UNL     1     -34.324  16.264  -1.712  1.00 20.00    -0.005 Cl
ENDBRANCH   7   8
TORSDOF 1
ENDMDL
MODEL 7
REMARK VINA RESULT:      -3.9      2.461      2.857
REMARK  1 active torsions:
REMARK  status: ('A' for Active; 'I' for Inactive)
REMARK    1  A    between atoms: C7_7  and  N8_8 
ROOT
HETATM    1  C1  UNL     1     -42.892   7.157  -0.320  1.00 20.00     0.005 C 
HETATM    2  C2  UNL     1     -42.955   5.759   0.312  1.00 20.00     0.007 C 
HETATM    3  C3  UNL     1     -40.687   6.446   0.229  1.00 20.00     0.011 C 
HETATM    4  C4  UNL     1     -41.316   6.315  -2.071  1.00 20.00     0.027 C 
HETATM    5  C5  UNL     1     -41.447   7.233  -0.840  1.00 20.00    -0.013 C 
HETATM    6  C6  UNL     1     -41.547   5.191   0.047  1.00 20.00     0.006 C 
HETATM    7  C7  UNL     1     -41.328   4.906  -1.454  1.00 20.00     0.097 C 
ENDROOT
BRANCH   7   8
HETATM    8  N8  UNL     1     -42.292   4.011  -2.072  1.00 20.00    -0.131 NA
HETATM    9 CL9  UNL     1     -43.417   4.872  -3.127  1.00 20.00    -0.005 Cl
HETATM   10 CL10 UNL     1     -41.510   2.704  -2.965  1.00 20.00    -0.005 Cl
ENDBRANCH   7   8
TORSDOF 1
ENDMDL
MODEL 8
REMARK VINA RESULT:      -3.9     11.216     12.208
REMARK  1 active torsions:
REMARK  status: ('A' for Active; 'I' for Inactive)
REMARK    1  A    between atoms: C7_7  and  N8_8 
ROOT
HETATM    1  C1  UNL     1     -33.719  16.138  -2.765  1.00 20.00     0.005 C 
HETATM    2  C2  UNL     1     -35.030  15.352  -2.610  1.00 20.00     0.007 C 
HETATM    3  C3  UNL     1     -33.451  13.973  -3.719  1.00 20.00     0.011 C 
HETATM    4  C4  UNL     1     -33.776  15.785  -5.241  1.00 20.00     0.027 C 
HETATM    5  C5  UNL     1     -33.030  15.427  -3.941  1.00 20.00    -0.013 C 
HETATM    6  C6  UNL     1     -34.946  14.307  -3.741  1.00 20.00     0.006 C 
HETATM    7  C7  UNL     1     -35.075  14.968  -5.129  1.00 20.00     0.097 C 
ENDROOT
BRANCH   7   8
HETATM    8  N8  UNL     1     -36.277  15.758  -5.342  1.00 20.00    -0.131 NA
HETATM    9 CL9  UNL     1     -35.924  17.484  -5.472  1.00 20.00    -0.005 Cl
HETATM   10 CL10 UNL     1     -37.185  15.221  -6.758  1.00 20.00    -0.005 Cl
ENDBRANCH   7   8
TORSDOF 1
ENDMDL
MODEL 9
REMARK VINA RESULT:      -3.9     11.704     12.758
REMARK  1 active torsions:
REMARK  status: ('A' for Active; 'I' for Inactive)
REMARK    1  A    between atoms: C7_7  and  N8_8 
ROOT
HETATM    1  C1  UNL     1     -34.546  18.051  -3.031  1.00 20.00     0.005 C 
HETATM    2  C2  UNL     1     -35.866  17.281  -3.180  1.00 20.00     0.007 C 
HETATM    3  C3  UNL     1     -34.688  16.402  -1.319  1.00 20.00     0.011 C 
HETATM    4  C4  UNL     1     -33.258  15.910  -3.168  1.00 20.00     0.027 C 
HETATM    5  C5  UNL     1     -33.666  17.071  -2.239  1.00 20.00    -0.013 C 
HETATM    6  C6  UNL     1     -35.568  15.938  -2.483  1.00 20.00     0.006 C 
HETATM    7  C7  UNL     1     -34.558  15.096  -3.292  1.00 20.00     0.097 C 
ENDROOT
BRANCH   7   8
HETATM    8  N8  UNL     1     -34.934  14.811  -4.667  1.00 20.00    -0.131 NA
HETATM    9 CL9  UNL     1     -33.982  15.745  -5.825  1.00 20.00    -0.005 Cl
HETATM   10 CL10 UNL     1     -34.820  13.090  -5.045  1.00 20.00    -0.005 Cl
ENDBRANCH   7   8
TORSDOF 1
ENDMDL
