MODEL 1
REMARK VINA RESULT:      -4.6      0.000      0.000
REMARK  1 active torsions:
REMARK  status: ('A' for Active; 'I' for Inactive)
REMARK    1  A    between atoms: C4_4  and  C10_10 
ROOT
HETATM    1  C1  UNL     1     -34.671  13.925  -4.053  1.00 20.00     0.132 C 
HETATM    2  C2  UNL     1     -34.856  13.606  -5.513  1.00 20.00     0.087 C 
HETATM    3  C3  UNL     1     -36.051  15.641  -4.944  1.00 20.00     0.021 C 
HETATM    4  C4  UNL     1     -35.402  15.177  -3.634  1.00 20.00     0.059 C 
HETATM    5  C5  UNL     1     -35.286  14.959  -6.099  1.00 20.00    -0.041 C 
HETATM    6  C6  UNL     1     -34.060  15.780  -6.530  1.00 20.00     0.015 C 
HETATM    7  C7  UNL     1     -36.199  14.767  -7.315  1.00 20.00     0.015 C 
HETATM    8  O11 UNL     1     -34.016  13.228  -3.286  1.00 20.00    -0.298 OA
ENDROOT
BRANCH   4   9
HETATM    9  C10 UNL     1     -34.510  16.244  -3.019  1.00 20.00    -0.011 C 
HETATM   10  C8  UNL     1     -34.863  17.631  -3.562  1.00 20.00     0.010 C 
HETATM   11  C9  UNL     1     -34.616  16.232  -1.492  1.00 20.00     0.010 C 
ENDBRANCH   4   9
TORSDOF 1
ENDMDL
MODEL 2
REMARK VINA RESULT:      -4.5      2.031      2.992
REMARK  1 active torsions:
REMARK  status: ('A' for Active; 'I' for Inactive)
REMARK    1  A    between atoms: C4_4  and  C10_10 
ROOT
HETATM    1  C1  UNL     1     -33.705  16.745  -4.444  1.00 20.00     0.132 C 
HETATM    2  C2  UNL     1     -34.280  15.595  -5.227  1.00 20.00     0.087 C 
HETATM    3  C3  UNL     1     -34.032  14.977  -2.893  1.00 20.00     0.021 C 
HETATM    4  C4  UNL     1     -33.515  16.418  -2.983  1.00 20.00     0.059 C 
HETATM    5  C5  UNL     1     -34.922  14.733  -4.131  1.00 20.00    -0.041 C 
HETATM    6  C6  UNL     1     -36.376  15.167  -3.879  1.00 20.00     0.015 C 
HETATM    7  C7  UNL     1     -34.915  13.250  -4.521  1.00 20.00     0.015 C 
HETATM    8  O11 UNL     1     -33.402  17.821  -4.948  1.00 20.00    -0.298 OA
ENDROOT
BRANCH   4   9
HETATM    9  C10 UNL     1     -34.243  17.357  -2.034  1.00 20.00    -0.011 C 
HETATM   10  C8  UNL     1     -34.717  16.610  -0.785  1.00 20.00     0.010 C 
HETATM   11  C9  UNL     1     -33.351  18.535  -1.639  1.00 20.00     0.010 C 
ENDBRANCH   4   9
TORSDOF 1
ENDMDL
MODEL 3
REMARK VINA RESULT:      -4.2      1.281      3.777
REMARK  1 active torsions:
REMARK  status: ('A' for Active; 'I' for Inactive)
REMARK    1  A    between atoms: C4_4  and  C10_10 
ROOT
HETATM    1  C1  UNL     1     -34.860  14.526  -3.977  1.00 20.00     0.132 C 
HETATM    2  C2  UNL     1     -34.903  15.082  -2.578  1.00 20.00     0.087 C 
HETATM    3  C3  UNL     1     -33.505  16.477  -3.990  1.00 20.00     0.021 C 
HETATM    4  C4  UNL     1     -33.994  15.346  -4.903  1.00 20.00     0.059 C 
HETATM    5  C5  UNL     1     -34.469  16.540  -2.785  1.00 20.00    -0.041 C 
HETATM    6  C6  UNL     1     -35.686  17.434  -3.078  1.00 20.00     0.015 C 
HETATM    7  C7  UNL     1     -33.752  17.083  -1.544  1.00 20.00     0.015 C 
HETATM    8  O11 UNL     1     -35.446  13.504  -4.317  1.00 20.00    -0.298 OA
ENDROOT
BRANCH   4   9
HETATM    9  C10 UNL     1     -34.716  15.865  -6.135  1.00 20.00    -0.011 C 
HETATM   10  C8  UNL     1     -34.242  17.276  -6.493  1.00 20.00     0.010 C 
HETATM   11  C9  UNL     1     -34.516  14.923  -7.325  1.00 20.00     0.010 C 
ENDBRANCH   4   9
TORSDOF 1
ENDMDL
MODEL 4
REMARK VINA RESULT:      -4.2      1.334      2.060
REMARK  1 active torsions:
REMARK  status: ('A' for Active; 'I' for Inactive)
REMARK    1  A    between atoms: C4_4  and  C10_10 
ROOT
HETATM    1  C1  UNL     1     -34.342  13.982  -3.648  1.00 20.00     0.132 C 
HETATM    2  C2  UNL     1     -35.678  13.602  -4.230  1.00 20.00     0.087 C 
HETATM    3  C3  UNL     1     -35.875  15.659  -2.956  1.00 20.00     0.021 C 
HETATM    4  C4  UNL     1     -34.402  15.250  -2.832  1.00 20.00     0.059 C 
HETATM    5  C5  UNL     1     -36.448  14.929  -4.190  1.00 20.00    -0.041 C 
HETATM    6  C6  UNL     1     -36.218  15.732  -5.481  1.00 20.00     0.015 C 
HETATM    7  C7  UNL     1     -37.953  14.688  -4.027  1.00 20.00     0.015 C 
HETATM    8  O11 UNL     1     -33.324  13.316  -3.802  1.00 20.00    -0.298 OA
ENDROOT
BRANCH   4   9
HETATM    9  C10 UNL     1     -33.454  16.341  -3.304  1.00 20.00    -0.011 C 
HETATM   10  C8  UNL     1     -33.100  16.154  -4.782  1.00 20.00     0.010 C 
HETATM   11  C9  UNL     1     -34.060  17.728  -3.079  1.00 20.00     0.010 C 
ENDBRANCH   4   9
TORSDOF 1
ENDMDL
MODEL 5
REMARK VINA RESULT:      -4.1      1.944      4.268
REMARK  1 active torsions:
REMARK  status: ('A' for Active; 'I' for Inactive)
REMARK    1  A    between atoms: C4_4  and  C10_10 
ROOT
HETATM    1  C1  UNL     1     -34.273  16.957  -5.525  1.00 20.00     0.132 C 
HETATM    2  C2  UNL     1     -33.711  17.397  -4.199  1.00 20.00     0.087 C 
HETATM    3  C3  UNL     1     -35.141  15.457  -3.900  1.00 20.00     0.021 C 
HETATM    4  C4  UNL     1     -35.183  15.759  -5.403  1.00 20.00     0.059 C 
HETATM    5  C5  UNL     1     -33.876  16.139  -3.333  1.00 20.00    -0.041 C 
HETATM    6  C6  UNL     1     -32.641  15.231  -3.451  1.00 20.00     0.015 C 
HETATM    7  C7  UNL     1     -34.074  16.507  -1.858  1.00 20.00     0.015 C 
HETATM    8  O11 UNL     1     -34.035  17.529  -6.583  1.00 20.00    -0.298 OA
ENDROOT
BRANCH   4   9
HETATM    9  C10 UNL     1     -34.760  14.567  -6.246  1.00 20.00    -0.011 C 
HETATM   10  C8  UNL     1     -34.891  13.264  -5.454  1.00 20.00     0.010 C 
HETATM   11  C9  UNL     1     -35.584  14.487  -7.534  1.00 20.00     0.010 C 
ENDBRANCH   4   9
TORSDOF 1
ENDMDL
MODEL 6
REMARK VINA RESULT:      -4.1      1.638      2.290
REMARK  1 active torsions:
REMARK  status: ('A' for Active; 'I' for Inactive)
REMARK    1  A    between atoms: C4_4  and  C10_10 
ROOT
HETATM    1  C1  UNL     1     -36.197  15.927  -4.331  1.00 20.00     0.132 C 
HETATM    2  C2  UNL     1     -36.565  15.245  -5.622  1.00 20.00     0.087 C 
HETATM    3  C3  UNL     1     -34.190  15.743  -5.587  1.00 20.00     0.021 C 
HETATM    4  C4  UNL     1     -34.731  16.274  -4.254  1.00 20.00     0.059 C 
HETATM    5  C5  UNL     1     -35.212  14.714  -6.117  1.00 20.00    -0.041 C 
HETATM    6  C6  UNL     1     -34.943  13.307  -5.559  1.00 20.00     0.015 C 
HETATM    7  C7  UNL     1     -35.172  14.648  -7.648  1.00 20.00     0.015 C 
HETATM    8  O11 UNL     1     -37.009  16.192  -3.451  1.00 20.00    -0.298 OA
ENDROOT
BRANCH   4   9
HETATM    9  C10 UNL     1     -34.011  15.676  -3.056  1.00 20.00    -0.011 C 
HETATM   10  C8  UNL     1     -32.646  15.114  -3.463  1.00 20.00     0.010 C 
HETATM   11  C9  UNL     1     -33.843  16.714  -1.944  1.00 20.00     0.010 C 
ENDBRANCH   4   9
TORSDOF 1
ENDMDL
MODEL 7
REMARK VINA RESULT:      -4.1      2.581      5.013
REMARK  1 active torsions:
REMARK  status: ('A' for Active; 'I' for Inactive)
REMARK    1  A    between atoms: C4_4  and  C10_10 
ROOT
HETATM    1  C1  UNL     1     -35.280  18.010  -3.085  1.00 20.00     0.132 C 
HETATM    2  C2  UNL     1     -35.428  18.494  -1.666  1.00 20.00     0.087 C 
HETATM    3  C3  UNL     1     -34.657  16.192  -1.689  1.00 20.00     0.021 C 
HETATM    4  C4  UNL     1     -34.814  16.577  -3.165  1.00 20.00     0.059 C 
HETATM    5  C5  UNL     1     -34.551  17.505  -0.884  1.00 20.00    -0.041 C 
HETATM    6  C6  UNL     1     -33.100  18.007  -0.805  1.00 20.00     0.015 C 
HETATM    7  C7  UNL     1     -35.079  17.311   0.542  1.00 20.00     0.015 C 
HETATM    8  O11 UNL     1     -35.535  18.701  -4.065  1.00 20.00    -0.298 OA
ENDROOT
BRANCH   4   9
HETATM    9  C10 UNL     1     -33.530  16.383  -3.956  1.00 20.00    -0.011 C 
HETATM   10  C8  UNL     1     -32.815  15.098  -3.528  1.00 20.00     0.010 C 
HETATM   11  C9  UNL     1     -33.811  16.355  -5.460  1.00 20.00     0.010 C 
ENDBRANCH   4   9
TORSDOF 1
ENDMDL
MODEL 8
REMARK VINA RESULT:      -4.0      2.117      3.406
REMARK  1 active torsions:
REMARK  status: ('A' for Active; 'I' for Inactive)
REMARK    1  A    between atoms: C4_4  and  C10_10 
ROOT
HETATM    1  C1  UNL     1     -34.189  15.987  -6.271  1.00 20.00     0.132 C 
HETATM    2  C2  UNL     1     -34.435  14.568  -5.834  1.00 20.00     0.087 C 
HETATM    3  C3  UNL     1     -33.149  15.750  -4.149  1.00 20.00     0.021 C 
HETATM    4  C4  UNL     1     -33.380  16.773  -5.267  1.00 20.00     0.059 C 
HETATM    5  C5  UNL     1     -34.211  14.642  -4.317  1.00 20.00    -0.041 C 
HETATM    6  C6  UNL     1     -35.519  14.995  -3.590  1.00 20.00     0.015 C 
HETATM    7  C7  UNL     1     -33.694  13.306  -3.771  1.00 20.00     0.015 C 
HETATM    8  O11 UNL     1     -34.582  16.444  -7.339  1.00 20.00    -0.298 OA
ENDROOT
BRANCH   4   9
HETATM    9  C10 UNL     1     -34.065  18.035  -4.767  1.00 20.00    -0.011 C 
HETATM   10  C8  UNL     1     -33.814  18.235  -3.270  1.00 20.00     0.010 C 
HETATM   11  C9  UNL     1     -33.591  19.262  -5.550  1.00 20.00     0.010 C 
ENDBRANCH   4   9
TORSDOF 1
ENDMDL
MODEL 9
REMARK VINA RESULT:      -4.0      1.647      2.257
REMARK  1 active torsions:
REMARK  status: ('A' for Active; 'I' for Inactive)
REMARK    1  A    between atoms: C4_4  and  C10_10 
ROOT
HETATM    1  C1  UNL     1     -33.783  16.204  -5.335  1.00 20.00     0.132 C 
HETATM    2  C2  UNL     1     -34.128  16.001  -6.787  1.00 20.00     0.087 C 
HETATM    3  C3  UNL     1     -35.379  14.446  -5.404  1.00 20.00     0.021 C 
HETATM    4  C4  UNL     1     -34.521  15.255  -4.423  1.00 20.00     0.059 C 
HETATM    5  C5  UNL     1     -35.474  15.265  -6.710  1.00 20.00    -0.041 C 
HETATM    6  C6  UNL     1     -36.641  16.266  -6.668  1.00 20.00     0.015 C 
HETATM    7  C7  UNL     1     -35.666  14.341  -7.918  1.00 20.00     0.015 C 
HETATM    8  O11 UNL     1     -32.970  17.034  -4.943  1.00 20.00    -0.298 OA
ENDROOT
BRANCH   4   9
HETATM    9  C10 UNL     1     -35.355  15.941  -3.353  1.00 20.00    -0.011 C 
HETATM   10  C8  UNL     1     -36.715  15.256  -3.196  1.00 20.00     0.010 C 
HETATM   11  C9  UNL     1     -34.617  15.961  -2.013  1.00 20.00     0.010 C 
ENDBRANCH   4   9
TORSDOF 1
ENDMDL
