MODEL 1
REMARK VINA RESULT:      -4.0      0.000      0.000
REMARK  1 active torsions:
REMARK  status: ('A' for Active; 'I' for Inactive)
REMARK    1  A    between atoms: C2_2  and  C4_4 
ROOT
HETATM    1  C1  UNL     1     -33.166   6.186   3.448  1.00 20.00     0.171 A 
HETATM    2  C2  UNL     1     -34.136   5.993   4.593  1.00 20.00     0.175 A 
HETATM    3  C3  UNL     1     -31.941   7.027   3.534  1.00 20.00     0.044 C 
HETATM    4  O5  UNL     1     -34.391   6.924   3.527  1.00 20.00    -0.352 OA
HETATM    5 CL6  UNL     1     -33.756   6.650   6.183  1.00 20.00    -0.084 Cl
ENDROOT
BRANCH   2   6
HETATM    6  C4  UNL     1     -35.054   4.815   4.585  1.00 20.00     0.172 C 
HETATM    7 CL7  UNL     1     -35.192   4.095   6.212  1.00 20.00    -0.126 Cl
ENDBRANCH   2   6
TORSDOF 1
ENDMDL
MODEL 2
REMARK VINA RESULT:      -3.6      2.097      3.405
REMARK  1 active torsions:
REMARK  status: ('A' for Active; 'I' for Inactive)
REMARK    1  A    between atoms: C2_2  and  C4_4 
ROOT
HETATM    1  C1  UNL     1     -33.939   5.069   5.405  1.00 20.00     0.171 A 
HETATM    2  C2  UNL     1     -34.107   5.768   4.072  1.00 20.00     0.175 A 
HETATM    3  C3  UNL     1     -35.070   4.509   6.192  1.00 20.00     0.044 C 
HETATM    4  O5  UNL     1     -33.947   6.497   5.301  1.00 20.00    -0.352 OA
HETATM    5 CL6  UNL     1     -35.687   5.805   3.295  1.00 20.00    -0.084 Cl
ENDROOT
BRANCH   2   6
HETATM    6  C4  UNL     1     -32.934   5.886   3.154  1.00 20.00     0.172 C 
HETATM    7 CL7  UNL     1     -31.946   7.317   3.554  1.00 20.00    -0.126 Cl
ENDBRANCH   2   6
TORSDOF 1
ENDMDL
MODEL 3
REMARK VINA RESULT:      -3.4      1.997      2.184
REMARK  1 active torsions:
REMARK  status: ('A' for Active; 'I' for Inactive)
REMARK    1  A    between atoms: C2_2  and  C4_4 
ROOT
HETATM    1  C1  UNL     1     -32.415   7.286   3.389  1.00 20.00     0.171 A 
HETATM    2  C2  UNL     1     -33.358   6.145   3.705  1.00 20.00     0.175 A 
HETATM    3  C3  UNL     1     -32.181   7.808   2.016  1.00 20.00     0.044 C 
HETATM    4  O5  UNL     1     -31.937   5.953   3.599  1.00 20.00    -0.352 OA
HETATM    5 CL6  UNL     1     -34.375   5.470   2.436  1.00 20.00    -0.084 Cl
ENDROOT
BRANCH   2   6
HETATM    6  C4  UNL     1     -33.875   5.987   5.098  1.00 20.00     0.172 C 
HETATM    7 CL7  UNL     1     -35.094   4.687   5.188  1.00 20.00    -0.126 Cl
ENDBRANCH   2   6
TORSDOF 1
ENDMDL
MODEL 4
REMARK VINA RESULT:      -3.2     12.872     13.336
REMARK  1 active torsions:
REMARK  status: ('A' for Active; 'I' for Inactive)
REMARK    1  A    between atoms: C2_2  and  C4_4 
ROOT
HETATM    1  C1  UNL     1     -33.937  16.419  -5.291  1.00 20.00     0.171 A 
HETATM    2  C2  UNL     1     -33.798  15.978  -3.849  1.00 20.00     0.175 A 
HETATM    3  C3  UNL     1     -34.288  15.500  -6.406  1.00 20.00     0.044 C 
HETATM    4  O5  UNL     1     -32.656  16.166  -4.703  1.00 20.00    -0.352 OA
HETATM    5 CL6  UNL     1     -34.220  14.330  -3.393  1.00 20.00    -0.084 Cl
ENDROOT
BRANCH   2   6
HETATM    6  C4  UNL     1     -33.898  16.995  -2.759  1.00 20.00     0.172 C 
HETATM    7 CL7  UNL     1     -34.636  16.295  -1.293  1.00 20.00    -0.126 Cl
ENDBRANCH   2   6
TORSDOF 1
ENDMDL
MODEL 5
REMARK VINA RESULT:      -3.2      2.879      4.109
REMARK  1 active torsions:
REMARK  status: ('A' for Active; 'I' for Inactive)
REMARK    1  A    between atoms: C2_2  and  C4_4 
ROOT
HETATM    1  C1  UNL     1     -33.372   6.573   3.368  1.00 20.00     0.171 A 
HETATM    2  C2  UNL     1     -32.104   7.334   3.045  1.00 20.00     0.175 A 
HETATM    3  C3  UNL     1     -33.803   6.233   4.750  1.00 20.00     0.044 C 
HETATM    4  O5  UNL     1     -32.181   5.902   2.942  1.00 20.00    -0.352 OA
HETATM    5 CL6  UNL     1     -31.134   8.013   4.348  1.00 20.00    -0.084 Cl
ENDROOT
BRANCH   2   6
HETATM    6  C4  UNL     1     -31.977   8.018   1.722  1.00 20.00     0.172 C 
HETATM    7 CL7  UNL     1     -32.555   9.703   1.811  1.00 20.00    -0.126 Cl
ENDBRANCH   2   6
TORSDOF 1
ENDMDL
MODEL 6
REMARK VINA RESULT:      -3.2     11.922     12.247
REMARK  1 active torsions:
REMARK  status: ('A' for Active; 'I' for Inactive)
REMARK    1  A    between atoms: C2_2  and  C4_4 
ROOT
HETATM    1  C1  UNL     1     -34.095  14.238  -4.602  1.00 20.00     0.171 A 
HETATM    2  C2  UNL     1     -34.680  14.909  -3.378  1.00 20.00     0.175 A 
HETATM    3  C3  UNL     1     -34.916  13.605  -5.669  1.00 20.00     0.044 C 
HETATM    4  O5  UNL     1     -34.160  13.569  -3.337  1.00 20.00    -0.352 OA
HETATM    5 CL6  UNL     1     -36.424  15.117  -3.242  1.00 20.00    -0.084 Cl
ENDROOT
BRANCH   2   6
HETATM    6  C4  UNL     1     -33.852  15.891  -2.614  1.00 20.00     0.172 C 
HETATM    7 CL7  UNL     1     -34.658  16.368  -1.095  1.00 20.00    -0.126 Cl
ENDBRANCH   2   6
TORSDOF 1
ENDMDL
MODEL 7
REMARK VINA RESULT:      -3.1     12.019     12.648
REMARK  1 active torsions:
REMARK  status: ('A' for Active; 'I' for Inactive)
REMARK    1  A    between atoms: C2_2  and  C4_4 
ROOT
HETATM    1  C1  UNL     1     -37.021  15.019  -4.860  1.00 20.00     0.171 A 
HETATM    2  C2  UNL     1     -35.973  14.497  -3.901  1.00 20.00     0.175 A 
HETATM    3  C3  UNL     1     -37.632  16.372  -4.760  1.00 20.00     0.044 C 
HETATM    4  O5  UNL     1     -37.361  14.141  -3.781  1.00 20.00    -0.352 OA
HETATM    5 CL6  UNL     1     -35.291  15.568  -2.680  1.00 20.00    -0.084 Cl
ENDROOT
BRANCH   2   6
HETATM    6  C4  UNL     1     -35.101  13.357  -4.318  1.00 20.00     0.172 C 
HETATM    7 CL7  UNL     1     -33.410  13.625  -3.818  1.00 20.00    -0.126 Cl
ENDBRANCH   2   6
TORSDOF 1
ENDMDL
MODEL 8
REMARK VINA RESULT:      -3.1     12.904     13.302
REMARK  1 active torsions:
REMARK  status: ('A' for Active; 'I' for Inactive)
REMARK    1  A    between atoms: C2_2  and  C4_4 
ROOT
HETATM    1  C1  UNL     1     -34.627  14.981  -3.238  1.00 20.00     0.171 A 
HETATM    2  C2  UNL     1     -34.070  15.036  -4.645  1.00 20.00     0.175 A 
HETATM    3  C3  UNL     1     -34.363  16.018  -2.205  1.00 20.00     0.044 C 
HETATM    4  O5  UNL     1     -33.471  14.226  -3.620  1.00 20.00    -0.352 OA
HETATM    5 CL6  UNL     1     -33.189  16.462  -5.184  1.00 20.00    -0.084 Cl
ENDROOT
BRANCH   2   6
HETATM    6  C4  UNL     1     -34.728  14.238  -5.724  1.00 20.00     0.172 C 
HETATM    7 CL7  UNL     1     -34.376  14.920  -7.334  1.00 20.00    -0.126 Cl
ENDBRANCH   2   6
TORSDOF 1
ENDMDL
MODEL 9
REMARK VINA RESULT:      -3.1      1.539      2.626
REMARK  1 active torsions:
REMARK  status: ('A' for Active; 'I' for Inactive)
REMARK    1  A    between atoms: C2_2  and  C4_4 
ROOT
HETATM    1  C1  UNL     1     -34.321   6.111   3.952  1.00 20.00     0.171 A 
HETATM    2  C2  UNL     1     -34.312   5.391   5.284  1.00 20.00     0.175 A 
HETATM    3  C3  UNL     1     -34.578   5.437   2.651  1.00 20.00     0.044 C 
HETATM    4  O5  UNL     1     -33.098   5.718   4.585  1.00 20.00    -0.352 OA
HETATM    5 CL6  UNL     1     -34.780   3.696   5.367  1.00 20.00    -0.084 Cl
ENDROOT
BRANCH   2   6
HETATM    6  C4  UNL     1     -34.502   6.176   6.541  1.00 20.00     0.172 C 
HETATM    7 CL7  UNL     1     -33.160   7.324   6.793  1.00 20.00    -0.126 Cl
ENDBRANCH   2   6
TORSDOF 1
ENDMDL
