MODEL 1
REMARK VINA RESULT:      -5.5      0.000      0.000
REMARK  0 active torsions:
REMARK  status: ('A' for Active; 'I' for Inactive)
ROOT
HETATM    1  C1  UNL     1     -33.683  17.994  -1.517  1.00 20.00    -0.004 C 
HETATM    2  C2  UNL     1     -34.323  16.788  -1.058  1.00 20.00    -0.003 C 
HETATM    3  C3  UNL     1     -33.716  18.349  -2.807  1.00 20.00    -0.025 C 
HETATM    4  C4  UNL     1     -34.793  15.873  -1.918  1.00 20.00    -0.009 C 
HETATM    5  C5  UNL     1     -33.485  15.163  -3.816  1.00 20.00     0.140 C 
HETATM    6  C6  UNL     1     -34.411  17.514  -3.851  1.00 20.00     0.048 C 
HETATM    7  C7  UNL     1     -33.676  13.664  -3.906  1.00 20.00     0.079 C 
HETATM    8  C8  UNL     1     -34.898  13.319  -4.733  1.00 20.00     0.008 C 
HETATM    9  C9  UNL     1     -36.139  13.999  -4.178  1.00 20.00     0.006 C 
HETATM   10  C10 UNL     1     -35.984  15.531  -4.179  1.00 20.00     0.001 C 
HETATM   11  C11 UNL     1     -34.705  16.032  -3.428  1.00 20.00     0.044 C 
HETATM   12  C12 UNL     1     -37.289  16.150  -3.650  1.00 20.00     0.011 C 
HETATM   13  O13 UNL     1     -32.351  15.636  -3.934  1.00 20.00    -0.297 OA
ENDROOT
TORSDOF 0
ENDMDL
MODEL 2
REMARK VINA RESULT:      -5.5      1.058      3.947
REMARK  0 active torsions:
REMARK  status: ('A' for Active; 'I' for Inactive)
ROOT
HETATM    1  C1  UNL     1     -35.209  13.608  -4.178  1.00 20.00    -0.004 C 
HETATM    2  C2  UNL     1     -36.099  14.714  -3.944  1.00 20.00    -0.003 C 
HETATM    3  C3  UNL     1     -33.920  13.669  -3.825  1.00 20.00    -0.025 C 
HETATM    4  C4  UNL     1     -35.641  15.915  -3.561  1.00 20.00    -0.009 C 
HETATM    5  C5  UNL     1     -33.725  16.913  -4.635  1.00 20.00     0.140 C 
HETATM    6  C6  UNL     1     -33.322  14.890  -3.175  1.00 20.00     0.048 C 
HETATM    7  C7  UNL     1     -34.067  18.379  -4.800  1.00 20.00     0.079 C 
HETATM    8  C8  UNL     1     -33.678  19.172  -3.569  1.00 20.00     0.008 C 
HETATM    9  C9  UNL     1     -34.327  18.593  -2.323  1.00 20.00     0.006 C 
HETATM   10  C10 UNL     1     -33.900  17.131  -2.098  1.00 20.00     0.001 C 
HETATM   11  C11 UNL     1     -34.165  16.205  -3.331  1.00 20.00     0.044 C 
HETATM   12  C12 UNL     1     -34.557  16.629  -0.801  1.00 20.00     0.011 C 
HETATM   13  O13 UNL     1     -33.219  16.300  -5.578  1.00 20.00    -0.297 OA
ENDROOT
TORSDOF 0
ENDMDL
MODEL 3
REMARK VINA RESULT:      -5.1      2.600      4.051
REMARK  0 active torsions:
REMARK  status: ('A' for Active; 'I' for Inactive)
ROOT
HETATM    1  C1  UNL     1     -34.192  15.217  -3.023  1.00 20.00    -0.004 C 
HETATM    2  C2  UNL     1     -34.606  16.337  -3.828  1.00 20.00    -0.003 C 
HETATM    3  C3  UNL     1     -34.404  13.958  -3.426  1.00 20.00    -0.025 C 
HETATM    4  C4  UNL     1     -35.398  16.177  -4.898  1.00 20.00    -0.009 C 
HETATM    5  C5  UNL     1     -37.352  14.765  -4.798  1.00 20.00     0.140 C 
HETATM    6  C6  UNL     1     -35.091  13.637  -4.727  1.00 20.00     0.048 C 
HETATM    7  C7  UNL     1     -38.435  15.513  -5.547  1.00 20.00     0.079 C 
HETATM    8  C8  UNL     1     -38.392  15.196  -7.028  1.00 20.00     0.008 C 
HETATM    9  C9  UNL     1     -37.018  15.493  -7.607  1.00 20.00     0.006 C 
HETATM   10  C10 UNL     1     -35.927  14.657  -6.912  1.00 20.00     0.001 C 
HETATM   11  C11 UNL     1     -35.909  14.820  -5.356  1.00 20.00     0.044 C 
HETATM   12  C12 UNL     1     -34.577  14.975  -7.578  1.00 20.00     0.011 C 
HETATM   13  O13 UNL     1     -37.618  14.240  -3.714  1.00 20.00    -0.297 OA
ENDROOT
TORSDOF 0
ENDMDL
MODEL 4
REMARK VINA RESULT:      -5.1      1.898      3.741
REMARK  0 active torsions:
REMARK  status: ('A' for Active; 'I' for Inactive)
ROOT
HETATM    1  C1  UNL     1     -34.934  16.051  -7.676  1.00 20.00    -0.004 C 
HETATM    2  C2  UNL     1     -35.628  16.963  -6.805  1.00 20.00    -0.003 C 
HETATM    3  C3  UNL     1     -34.461  14.884  -7.223  1.00 20.00    -0.025 C 
HETATM    4  C4  UNL     1     -35.648  16.786  -5.476  1.00 20.00    -0.009 C 
HETATM    5  C5  UNL     1     -33.637  16.226  -4.267  1.00 20.00     0.140 C 
HETATM    6  C6  UNL     1     -34.615  14.459  -5.786  1.00 20.00     0.048 C 
HETATM    7  C7  UNL     1     -33.679  17.053  -2.999  1.00 20.00     0.079 C 
HETATM    8  C8  UNL     1     -34.433  16.329  -1.902  1.00 20.00     0.008 C 
HETATM    9  C9  UNL     1     -35.833  15.954  -2.361  1.00 20.00     0.006 C 
HETATM   10  C10 UNL     1     -35.788  15.031  -3.592  1.00 20.00     0.001 C 
HETATM   11  C11 UNL     1     -34.962  15.618  -4.785  1.00 20.00     0.044 C 
HETATM   12  C12 UNL     1     -37.232  14.658  -3.970  1.00 20.00     0.011 C 
HETATM   13  O13 UNL     1     -32.587  16.161  -4.911  1.00 20.00    -0.297 OA
ENDROOT
TORSDOF 0
ENDMDL
MODEL 5
REMARK VINA RESULT:      -5.1      1.989      2.824
REMARK  0 active torsions:
REMARK  status: ('A' for Active; 'I' for Inactive)
ROOT
HETATM    1  C1  UNL     1     -35.245  16.605  -1.767  1.00 20.00    -0.004 C 
HETATM    2  C2  UNL     1     -36.095  16.938  -2.881  1.00 20.00    -0.003 C 
HETATM    3  C3  UNL     1     -33.968  16.249  -1.952  1.00 20.00    -0.025 C 
HETATM    4  C4  UNL     1     -35.715  16.707  -4.146  1.00 20.00    -0.009 C 
HETATM    5  C5  UNL     1     -34.705  14.609  -4.778  1.00 20.00     0.140 C 
HETATM    6  C6  UNL     1     -33.348  16.166  -3.322  1.00 20.00     0.048 C 
HETATM    7  C7  UNL     1     -35.320  14.246  -6.113  1.00 20.00     0.079 C 
HETATM    8  C8  UNL     1     -34.542  14.862  -7.258  1.00 20.00     0.008 C 
HETATM    9  C9  UNL     1     -34.437  16.370  -7.093  1.00 20.00     0.006 C 
HETATM   10  C10 UNL     1     -33.721  16.740  -5.780  1.00 20.00     0.001 C 
HETATM   11  C11 UNL     1     -34.371  16.097  -4.511  1.00 20.00     0.044 C 
HETATM   12  C12 UNL     1     -33.612  18.272  -5.705  1.00 20.00     0.011 C 
HETATM   13  O13 UNL     1     -34.600  13.744  -3.905  1.00 20.00    -0.297 OA
ENDROOT
TORSDOF 0
ENDMDL
MODEL 6
REMARK VINA RESULT:      -5.0      2.459      4.494
REMARK  0 active torsions:
REMARK  status: ('A' for Active; 'I' for Inactive)
ROOT
HETATM    1  C1  UNL     1     -36.986  14.839  -7.798  1.00 20.00    -0.004 C 
HETATM    2  C2  UNL     1     -35.590  14.489  -7.781  1.00 20.00    -0.003 C 
HETATM    3  C3  UNL     1     -37.507  15.658  -6.877  1.00 20.00    -0.025 C 
HETATM    4  C4  UNL     1     -34.803  14.793  -6.738  1.00 20.00    -0.009 C 
HETATM    5  C5  UNL     1     -35.538  14.407  -4.473  1.00 20.00     0.140 C 
HETATM    6  C6  UNL     1     -36.676  16.253  -5.770  1.00 20.00     0.048 C 
HETATM    7  C7  UNL     1     -34.334  13.850  -3.743  1.00 20.00     0.079 C 
HETATM    8  C8  UNL     1     -33.476  14.964  -3.178  1.00 20.00     0.008 C 
HETATM    9  C9  UNL     1     -33.056  15.933  -4.272  1.00 20.00     0.006 C 
HETATM   10  C10 UNL     1     -34.281  16.575  -4.950  1.00 20.00     0.001 C 
HETATM   11  C11 UNL     1     -35.306  15.533  -5.508  1.00 20.00     0.044 C 
HETATM   12  C12 UNL     1     -33.780  17.572  -6.009  1.00 20.00     0.011 C 
HETATM   13  O13 UNL     1     -36.640  13.874  -4.317  1.00 20.00    -0.297 OA
ENDROOT
TORSDOF 0
ENDMDL
MODEL 7
REMARK VINA RESULT:      -5.0      1.117      1.196
REMARK  0 active torsions:
REMARK  status: ('A' for Active; 'I' for Inactive)
ROOT
HETATM    1  C1  UNL     1     -33.776  17.502  -1.427  1.00 20.00    -0.004 C 
HETATM    2  C2  UNL     1     -34.574  16.304  -1.458  1.00 20.00    -0.003 C 
HETATM    3  C3  UNL     1     -33.752  18.346  -2.466  1.00 20.00    -0.025 C 
HETATM    4  C4  UNL     1     -35.156  15.878  -2.589  1.00 20.00    -0.009 C 
HETATM    5  C5  UNL     1     -33.940  15.832  -4.671  1.00 20.00     0.140 C 
HETATM    6  C6  UNL     1     -34.544  18.095  -3.722  1.00 20.00     0.048 C 
HETATM    7  C7  UNL     1     -34.329  14.532  -5.343  1.00 20.00     0.079 C 
HETATM    8  C8  UNL     1     -35.579  14.704  -6.181  1.00 20.00     0.008 C 
HETATM    9  C9  UNL     1     -36.723  15.253  -5.343  1.00 20.00     0.006 C 
HETATM   10  C10 UNL     1     -36.365  16.624  -4.740  1.00 20.00     0.001 C 
HETATM   11  C11 UNL     1     -35.037  16.617  -3.912  1.00 20.00     0.044 C 
HETATM   12  C12 UNL     1     -37.580  17.136  -3.947  1.00 20.00     0.011 C 
HETATM   13  O13 UNL     1     -32.753  16.167  -4.643  1.00 20.00    -0.297 OA
ENDROOT
TORSDOF 0
ENDMDL
MODEL 8
REMARK VINA RESULT:      -4.9      1.654      1.985
REMARK  0 active torsions:
REMARK  status: ('A' for Active; 'I' for Inactive)
ROOT
HETATM    1  C1  UNL     1     -35.172  17.695  -0.774  1.00 20.00    -0.004 C 
HETATM    2  C2  UNL     1     -34.604  16.410  -1.089  1.00 20.00    -0.003 C 
HETATM    3  C3  UNL     1     -35.926  18.355  -1.661  1.00 20.00    -0.025 C 
HETATM    4  C4  UNL     1     -34.627  15.919  -2.337  1.00 20.00    -0.009 C 
HETATM    5  C5  UNL     1     -34.048  17.301  -4.227  1.00 20.00     0.140 C 
HETATM    6  C6  UNL     1     -36.218  17.806  -3.033  1.00 20.00     0.048 C 
HETATM    7  C7  UNL     1     -33.208  16.424  -5.131  1.00 20.00     0.079 C 
HETATM    8  C8  UNL     1     -34.079  15.636  -6.089  1.00 20.00     0.008 C 
HETATM    9  C9  UNL     1     -35.112  14.816  -5.333  1.00 20.00     0.006 C 
HETATM   10  C10 UNL     1     -36.032  15.718  -4.489  1.00 20.00     0.001 C 
HETATM   11  C11 UNL     1     -35.257  16.658  -3.507  1.00 20.00     0.044 C 
HETATM   12  C12 UNL     1     -37.075  14.827  -3.792  1.00 20.00     0.011 C 
HETATM   13  O13 UNL     1     -33.682  18.456  -3.995  1.00 20.00    -0.297 OA
ENDROOT
TORSDOF 0
ENDMDL
MODEL 9
REMARK VINA RESULT:      -4.9      2.120      3.119
REMARK  0 active torsions:
REMARK  status: ('A' for Active; 'I' for Inactive)
ROOT
HETATM    1  C1  UNL     1     -34.324  16.475  -1.831  1.00 20.00    -0.004 C 
HETATM    2  C2  UNL     1     -33.273  16.191  -2.773  1.00 20.00    -0.003 C 
HETATM    3  C3  UNL     1     -35.607  16.242  -2.132  1.00 20.00    -0.025 C 
HETATM    4  C4  UNL     1     -33.541  15.884  -4.051  1.00 20.00    -0.009 C 
HETATM    5  C5  UNL     1     -35.150  17.153  -5.323  1.00 20.00     0.140 C 
HETATM    6  C6  UNL     1     -36.029  15.682  -3.466  1.00 20.00     0.048 C 
HETATM    7  C7  UNL     1     -34.538  17.325  -6.698  1.00 20.00     0.079 C 
HETATM    8  C8  UNL     1     -34.883  16.157  -7.598  1.00 20.00     0.008 C 
HETATM    9  C9  UNL     1     -34.455  14.841  -6.967  1.00 20.00     0.006 C 
HETATM   10  C10 UNL     1     -35.153  14.617  -5.613  1.00 20.00     0.001 C 
HETATM   11  C11 UNL     1     -34.955  15.796  -4.604  1.00 20.00     0.044 C 
HETATM   12  C12 UNL     1     -34.709  13.253  -5.060  1.00 20.00     0.011 C 
HETATM   13  O13 UNL     1     -35.676  18.121  -4.769  1.00 20.00    -0.297 OA
ENDROOT
TORSDOF 0
ENDMDL
