MODEL 1
REMARK VINA RESULT:      -4.0      0.000      0.000
REMARK  1 active torsions:
REMARK  status: ('A' for Active; 'I' for Inactive)
REMARK    1  A    between atoms: C4_4  and  C7_7 
ROOT
HETATM    1  C1  UNL     1     -34.853  14.408  -6.136  1.00 20.00     0.075 C 
HETATM    2  C2  UNL     1     -34.824  14.006  -3.681  1.00 20.00     0.105 C 
HETATM    3  C3  UNL     1     -34.025  14.390  -4.919  1.00 20.00     0.164 C 
HETATM    4  C4  UNL     1     -34.511  16.676  -3.456  1.00 20.00     0.113 C 
HETATM    5  N8  UNL     1     -35.505  14.422  -7.096  1.00 20.00    -0.196 NA
HETATM    6  S9  UNL     1     -35.811  15.438  -3.175  1.00 20.00    -0.151 SA
HETATM    7  S10 UNL     1     -33.264  16.019  -4.616  1.00 20.00    -0.133 SA
ENDROOT
BRANCH   4   8
HETATM    8  C7  UNL     1     -33.840  17.035  -2.137  1.00 20.00     0.001 C 
HETATM    9  C5  UNL     1     -33.576  18.538  -2.055  1.00 20.00     0.011 C 
HETATM   10  C6  UNL     1     -34.694  16.578  -0.954  1.00 20.00     0.011 C 
ENDBRANCH   4   8
TORSDOF 1
ENDMDL
MODEL 2
REMARK VINA RESULT:      -3.8      1.442      2.278
REMARK  1 active torsions:
REMARK  status: ('A' for Active; 'I' for Inactive)
REMARK    1  A    between atoms: C4_4  and  C7_7 
ROOT
HETATM    1  C1  UNL     1     -35.064  13.702  -4.911  1.00 20.00     0.075 C 
HETATM    2  C2  UNL     1     -34.119  16.002  -4.836  1.00 20.00     0.105 C 
HETATM    3  C3  UNL     1     -35.365  15.133  -4.742  1.00 20.00     0.164 C 
HETATM    4  C4  UNL     1     -34.659  15.915  -2.194  1.00 20.00     0.113 C 
HETATM    5  N8  UNL     1     -34.826  12.574  -5.045  1.00 20.00    -0.196 NA
HETATM    6  S9  UNL     1     -33.203  15.853  -3.280  1.00 20.00    -0.151 SA
HETATM    7  S10 UNL     1     -36.156  15.454  -3.131  1.00 20.00    -0.133 SA
ENDROOT
BRANCH   4   8
HETATM    8  C7  UNL     1     -34.826  17.319  -1.627  1.00 20.00     0.001 C 
HETATM    9  C5  UNL     1     -34.918  17.279  -0.102  1.00 20.00     0.011 C 
HETATM   10  C6  UNL     1     -33.673  18.221  -2.069  1.00 20.00     0.011 C 
ENDBRANCH   4   8
TORSDOF 1
ENDMDL
MODEL 3
REMARK VINA RESULT:      -3.7      2.461      4.604
REMARK  1 active torsions:
REMARK  status: ('A' for Active; 'I' for Inactive)
REMARK    1  A    between atoms: C4_4  and  C7_7 
ROOT
HETATM    1  C1  UNL     1     -35.637  17.346  -1.931  1.00 20.00     0.075 C 
HETATM    2  C2  UNL     1     -33.622  16.159  -2.781  1.00 20.00     0.105 C 
HETATM    3  C3  UNL     1     -35.054  16.040  -2.278  1.00 20.00     0.164 C 
HETATM    4  C4  UNL     1     -35.069  15.738  -5.018  1.00 20.00     0.113 C 
HETATM    5  N8  UNL     1     -36.095  18.376  -1.656  1.00 20.00    -0.196 NA
HETATM    6  S9  UNL     1     -33.668  16.766  -4.488  1.00 20.00    -0.151 SA
HETATM    7  S10 UNL     1     -36.036  15.202  -3.566  1.00 20.00    -0.133 SA
ENDROOT
BRANCH   4   8
HETATM    8  C7  UNL     1     -34.562  14.515  -5.772  1.00 20.00     0.001 C 
HETATM    9  C5  UNL     1     -34.714  13.254  -4.923  1.00 20.00     0.011 C 
HETATM   10  C6  UNL     1     -35.299  14.356  -7.102  1.00 20.00     0.011 C 
ENDBRANCH   4   8
TORSDOF 1
ENDMDL
MODEL 4
REMARK VINA RESULT:      -3.7      2.199      2.835
REMARK  1 active torsions:
REMARK  status: ('A' for Active; 'I' for Inactive)
REMARK    1  A    between atoms: C4_4  and  C7_7 
ROOT
HETATM    1  C1  UNL     1     -35.072  13.700  -4.292  1.00 20.00     0.075 C 
HETATM    2  C2  UNL     1     -36.010  15.833  -5.165  1.00 20.00     0.105 C 
HETATM    3  C3  UNL     1     -35.409  15.097  -3.975  1.00 20.00     0.164 C 
HETATM    4  C4  UNL     1     -33.479  16.759  -5.031  1.00 20.00     0.113 C 
HETATM    5  N8  UNL     1     -34.807  12.599  -4.542  1.00 20.00    -0.196 NA
HETATM    6  S9  UNL     1     -34.668  16.254  -6.308  1.00 20.00    -0.151 SA
HETATM    7  S10 UNL     1     -33.937  16.022  -3.425  1.00 20.00    -0.133 SA
ENDROOT
BRANCH   4   8
HETATM    8  C7  UNL     1     -33.462  18.277  -4.907  1.00 20.00     0.001 C 
HETATM    9  C5  UNL     1     -34.072  18.929  -6.147  1.00 20.00     0.011 C 
HETATM   10  C6  UNL     1     -34.204  18.726  -3.648  1.00 20.00     0.011 C 
ENDBRANCH   4   8
TORSDOF 1
ENDMDL
MODEL 5
REMARK VINA RESULT:      -3.7      1.967      2.630
REMARK  1 active torsions:
REMARK  status: ('A' for Active; 'I' for Inactive)
REMARK    1  A    between atoms: C4_4  and  C7_7 
ROOT
HETATM    1  C1  UNL     1     -34.699  13.650  -4.016  1.00 20.00     0.075 C 
HETATM    2  C2  UNL     1     -35.827  15.646  -3.047  1.00 20.00     0.105 C 
HETATM    3  C3  UNL     1     -34.516  14.901  -3.262  1.00 20.00     0.164 C 
HETATM    4  C4  UNL     1     -34.598  17.033  -5.008  1.00 20.00     0.113 C 
HETATM    5  N8  UNL     1     -34.845  12.664  -4.609  1.00 20.00    -0.196 NA
HETATM    6  S9  UNL     1     -36.275  16.465  -4.600  1.00 20.00    -0.151 SA
HETATM    7  S10 UNL     1     -33.364  16.024  -4.120  1.00 20.00    -0.133 SA
ENDROOT
BRANCH   4   8
HETATM    8  C7  UNL     1     -34.435  18.497  -4.618  1.00 20.00     0.001 C 
HETATM    9  C5  UNL     1     -33.726  18.623  -3.271  1.00 20.00     0.011 C 
HETATM   10  C6  UNL     1     -33.670  19.262  -5.698  1.00 20.00     0.011 C 
ENDBRANCH   4   8
TORSDOF 1
ENDMDL
MODEL 6
REMARK VINA RESULT:      -3.6      1.469      1.936
REMARK  1 active torsions:
REMARK  status: ('A' for Active; 'I' for Inactive)
REMARK    1  A    between atoms: C4_4  and  C7_7 
ROOT
HETATM    1  C1  UNL     1     -35.507  15.957  -6.105  1.00 20.00     0.075 C 
HETATM    2  C2  UNL     1     -33.319  16.527  -5.066  1.00 20.00     0.105 C 
HETATM    3  C3  UNL     1     -34.751  16.964  -5.344  1.00 20.00     0.164 C 
HETATM    4  C4  UNL     1     -34.582  16.173  -2.708  1.00 20.00     0.113 C 
HETATM    5  N8  UNL     1     -36.102  15.163  -6.706  1.00 20.00    -0.196 NA
HETATM    6  S9  UNL     1     -33.348  15.309  -3.725  1.00 20.00    -0.151 SA
HETATM    7  S10 UNL     1     -35.552  17.320  -3.745  1.00 20.00    -0.133 SA
ENDROOT
BRANCH   4   8
HETATM    8  C7  UNL     1     -33.888  16.952  -1.598  1.00 20.00     0.001 C 
HETATM    9  C5  UNL     1     -33.626  18.394  -2.031  1.00 20.00     0.011 C 
HETATM   10  C6  UNL     1     -34.720  16.923  -0.316  1.00 20.00     0.011 C 
ENDBRANCH   4   8
TORSDOF 1
ENDMDL
MODEL 7
REMARK VINA RESULT:      -3.6      2.597      4.382
REMARK  1 active torsions:
REMARK  status: ('A' for Active; 'I' for Inactive)
REMARK    1  A    between atoms: C4_4  and  C7_7 
ROOT
HETATM    1  C1  UNL     1     -34.584  16.146  -1.654  1.00 20.00     0.075 C 
HETATM    2  C2  UNL     1     -33.276  15.699  -3.723  1.00 20.00     0.105 C 
HETATM    3  C3  UNL     1     -34.423  15.264  -2.821  1.00 20.00     0.164 C 
HETATM    4  C4  UNL     1     -35.488  16.496  -5.046  1.00 20.00     0.113 C 
HETATM    5  N8  UNL     1     -34.710  16.842  -0.734  1.00 20.00    -0.196 NA
HETATM    6  S9  UNL     1     -33.824  17.131  -4.688  1.00 20.00    -0.151 SA
HETATM    7  S10 UNL     1     -35.943  15.217  -3.826  1.00 20.00    -0.133 SA
ENDROOT
BRANCH   4   8
HETATM    8  C7  UNL     1     -35.528  15.900  -6.447  1.00 20.00     0.001 C 
HETATM    9  C5  UNL     1     -34.486  16.564  -7.347  1.00 20.00     0.011 C 
HETATM   10  C6  UNL     1     -35.306  14.388  -6.399  1.00 20.00     0.011 C 
ENDBRANCH   4   8
TORSDOF 1
ENDMDL
MODEL 8
REMARK VINA RESULT:      -3.6      2.489      4.459
REMARK  1 active torsions:
REMARK  status: ('A' for Active; 'I' for Inactive)
REMARK    1  A    between atoms: C4_4  and  C7_7 
ROOT
HETATM    1  C1  UNL     1     -34.885  16.754  -1.892  1.00 20.00     0.075 C 
HETATM    2  C2  UNL     1     -36.351  16.263  -3.841  1.00 20.00     0.105 C 
HETATM    3  C3  UNL     1     -35.216  17.109  -3.281  1.00 20.00     0.164 C 
HETATM    4  C4  UNL     1     -34.136  15.228  -4.982  1.00 20.00     0.113 C 
HETATM    5  N8  UNL     1     -34.624  16.474  -0.796  1.00 20.00    -0.196 NA
HETATM    6  S9  UNL     1     -35.688  14.627  -4.254  1.00 20.00    -0.151 SA
HETATM    7  S10 UNL     1     -33.771  16.910  -4.375  1.00 20.00    -0.133 SA
ENDROOT
BRANCH   4   8
HETATM    8  C7  UNL     1     -34.247  15.248  -6.502  1.00 20.00     0.001 C 
HETATM    9  C5  UNL     1     -35.383  14.342  -6.974  1.00 20.00     0.011 C 
HETATM   10  C6  UNL     1     -34.456  16.675  -7.009  1.00 20.00     0.011 C 
ENDBRANCH   4   8
TORSDOF 1
ENDMDL
MODEL 9
REMARK VINA RESULT:      -3.6      2.424      3.129
REMARK  1 active torsions:
REMARK  status: ('A' for Active; 'I' for Inactive)
REMARK    1  A    between atoms: C4_4  and  C7_7 
ROOT
HETATM    1  C1  UNL     1     -38.263  14.916  -4.505  1.00 20.00     0.075 C 
HETATM    2  C2  UNL     1     -35.983  14.818  -5.496  1.00 20.00     0.105 C 
HETATM    3  C3  UNL     1     -37.058  15.685  -4.855  1.00 20.00     0.164 C 
HETATM    4  C4  UNL     1     -35.097  15.208  -2.977  1.00 20.00     0.113 C 
HETATM    5  N8  UNL     1     -39.213  14.309  -4.229  1.00 20.00    -0.196 NA
HETATM    6  S9  UNL     1     -35.176  13.856  -4.189  1.00 20.00    -0.151 SA
HETATM    7  S10 UNL     1     -36.335  16.485  -3.385  1.00 20.00    -0.133 SA
ENDROOT
BRANCH   4   8
HETATM    8  C7  UNL     1     -33.706  15.828  -2.980  1.00 20.00     0.001 C 
HETATM    9  C5  UNL     1     -32.703  14.908  -3.676  1.00 20.00     0.011 C 
HETATM   10  C6  UNL     1     -33.727  17.201  -3.655  1.00 20.00     0.011 C 
ENDBRANCH   4   8
TORSDOF 1
ENDMDL
