MODEL 1
REMARK VINA RESULT:      -4.7      0.000      0.000
REMARK  1 active torsions:
REMARK  status: ('A' for Active; 'I' for Inactive)
REMARK    1  A    between atoms: C4_4  and  C9_9 
ROOT
HETATM    1  C1  UNL     1     -37.034  15.115  -3.707  1.00 20.00     0.007 A 
HETATM    2  C2  UNL     1     -36.575  14.024  -4.327  1.00 20.00     0.074 A 
HETATM    3  C3  UNL     1     -36.149  15.975  -2.973  1.00 20.00     0.026 A 
HETATM    4  C4  UNL     1     -34.835  15.704  -2.891  1.00 20.00     0.018 A 
HETATM    5  C5  UNL     1     -35.125  13.687  -4.261  1.00 20.00     0.247 A 
HETATM    6  C8  UNL     1     -32.879  14.297  -3.426  1.00 20.00     0.159 C 
HETATM    7  N10 UNL     1     -34.312  14.570  -3.528  1.00 20.00    -0.322 N 
HETATM    8  O11 UNL     1     -34.735  12.675  -4.843  1.00 20.00    -0.268 OA
ENDROOT
BRANCH   4   9
HETATM    9  C9  UNL     1     -33.918  16.612  -2.120  1.00 20.00     0.028 C 
HETATM   10  C6  UNL     1     -33.770  17.945  -2.843  1.00 20.00     0.016 C 
HETATM   11  C7  UNL     1     -34.433  16.813  -0.699  1.00 20.00     0.016 C 
ENDBRANCH   4   9
TORSDOF 1
ENDMDL
MODEL 2
REMARK VINA RESULT:      -4.6      1.041      2.623
REMARK  1 active torsions:
REMARK  status: ('A' for Active; 'I' for Inactive)
REMARK    1  A    between atoms: C4_4  and  C9_9 
ROOT
HETATM    1  C1  UNL     1     -32.782  14.763  -3.432  1.00 20.00     0.007 A 
HETATM    2  C2  UNL     1     -33.379  13.670  -3.914  1.00 20.00     0.074 A 
HETATM    3  C3  UNL     1     -33.552  15.897  -3.003  1.00 20.00     0.026 A 
HETATM    4  C4  UNL     1     -34.894  15.885  -3.074  1.00 20.00     0.018 A 
HETATM    5  C5  UNL     1     -34.865  13.616  -4.010  1.00 20.00     0.247 A 
HETATM    6  C8  UNL     1     -37.021  14.767  -3.638  1.00 20.00     0.159 C 
HETATM    7  N10 UNL     1     -35.560  14.757  -3.572  1.00 20.00    -0.322 N 
HETATM    8  O11 UNL     1     -35.383  12.593  -4.458  1.00 20.00    -0.268 OA
ENDROOT
BRANCH   4   9
HETATM    9  C9  UNL     1     -35.690  17.077  -2.621  1.00 20.00     0.028 C 
HETATM   10  C6  UNL     1     -35.300  17.457  -1.197  1.00 20.00     0.016 C 
HETATM   11  C7  UNL     1     -35.491  18.250  -3.574  1.00 20.00     0.016 C 
ENDBRANCH   4   9
TORSDOF 1
ENDMDL
MODEL 3
REMARK VINA RESULT:      -4.4      2.465      4.148
REMARK  1 active torsions:
REMARK  status: ('A' for Active; 'I' for Inactive)
REMARK    1  A    between atoms: C4_4  and  C9_9 
ROOT
HETATM    1  C1  UNL     1     -34.619  16.797  -1.046  1.00 20.00     0.007 A 
HETATM    2  C2  UNL     1     -34.135  17.976  -1.444  1.00 20.00     0.074 A 
HETATM    3  C3  UNL     1     -34.740  15.699  -1.963  1.00 20.00     0.026 A 
HETATM    4  C4  UNL     1     -34.366  15.830  -3.248  1.00 20.00     0.018 A 
HETATM    5  C5  UNL     1     -33.709  18.163  -2.860  1.00 20.00     0.247 A 
HETATM    6  C8  UNL     1     -33.450  17.168  -5.108  1.00 20.00     0.159 C 
HETATM    7  N10 UNL     1     -33.851  17.050  -3.707  1.00 20.00    -0.322 N 
HETATM    8  O11 UNL     1     -33.267  19.262  -3.194  1.00 20.00    -0.268 OA
ENDROOT
BRANCH   4   9
HETATM    9  C9  UNL     1     -34.497  14.673  -4.199  1.00 20.00     0.028 C 
HETATM   10  C6  UNL     1     -33.496  13.582  -3.838  1.00 20.00     0.016 C 
HETATM   11  C7  UNL     1     -35.922  14.133  -4.195  1.00 20.00     0.016 C 
ENDBRANCH   4   9
TORSDOF 1
ENDMDL
MODEL 4
REMARK VINA RESULT:      -4.4      2.166      3.319
REMARK  1 active torsions:
REMARK  status: ('A' for Active; 'I' for Inactive)
REMARK    1  A    between atoms: C4_4  and  C9_9 
ROOT
HETATM    1  C1  UNL     1     -32.773  15.040  -3.543  1.00 20.00     0.007 A 
HETATM    2  C2  UNL     1     -33.291  13.829  -3.766  1.00 20.00     0.074 A 
HETATM    3  C3  UNL     1     -33.315  16.205  -4.185  1.00 20.00     0.026 A 
HETATM    4  C4  UNL     1     -34.360  16.105  -5.025  1.00 20.00     0.018 A 
HETATM    5  C5  UNL     1     -34.448  13.675  -4.691  1.00 20.00     0.247 A 
HETATM    6  C8  UNL     1     -36.070  14.771  -6.202  1.00 20.00     0.159 C 
HETATM    7  N10 UNL     1     -34.934  14.854  -5.285  1.00 20.00    -0.322 N 
HETATM    8  O11 UNL     1     -34.902  12.545  -4.874  1.00 20.00    -0.268 OA
ENDROOT
BRANCH   4   9
HETATM    9  C9  UNL     1     -34.919  17.332  -5.690  1.00 20.00     0.028 C 
HETATM   10  C6  UNL     1     -35.763  18.126  -4.701  1.00 20.00     0.016 C 
HETATM   11  C7  UNL     1     -33.798  18.189  -6.267  1.00 20.00     0.016 C 
ENDBRANCH   4   9
TORSDOF 1
ENDMDL
MODEL 5
REMARK VINA RESULT:      -4.4      1.420      2.623
REMARK  1 active torsions:
REMARK  status: ('A' for Active; 'I' for Inactive)
REMARK    1  A    between atoms: C4_4  and  C9_9 
ROOT
HETATM    1  C1  UNL     1     -33.916  13.990  -3.779  1.00 20.00     0.007 A 
HETATM    2  C2  UNL     1     -35.157  13.568  -4.031  1.00 20.00     0.074 A 
HETATM    3  C3  UNL     1     -33.672  15.311  -3.271  1.00 20.00     0.026 A 
HETATM    4  C4  UNL     1     -34.691  16.156  -3.033  1.00 20.00     0.018 A 
HETATM    5  C5  UNL     1     -36.314  14.474  -3.783  1.00 20.00     0.247 A 
HETATM    6  C8  UNL     1     -37.100  16.689  -3.015  1.00 20.00     0.159 C 
HETATM    7  N10 UNL     1     -36.009  15.753  -3.283  1.00 20.00    -0.322 N 
HETATM    8  O11 UNL     1     -37.446  14.054  -4.025  1.00 20.00    -0.268 OA
ENDROOT
BRANCH   4   9
HETATM    9  C9  UNL     1     -34.424  17.536  -2.500  1.00 20.00     0.028 C 
HETATM   10  C6  UNL     1     -33.632  17.452  -1.200  1.00 20.00     0.016 C 
HETATM   11  C7  UNL     1     -33.689  18.379  -3.536  1.00 20.00     0.016 C 
ENDBRANCH   4   9
TORSDOF 1
ENDMDL
MODEL 6
REMARK VINA RESULT:      -4.2      4.573      6.633
REMARK  1 active torsions:
REMARK  status: ('A' for Active; 'I' for Inactive)
REMARK    1  A    between atoms: C4_4  and  C9_9 
ROOT
HETATM    1  C1  UNL     1     -31.807  19.074   0.421  1.00 20.00     0.007 A 
HETATM    2  C2  UNL     1     -31.857  19.222   1.747  1.00 20.00     0.074 A 
HETATM    3  C3  UNL     1     -32.899  18.481  -0.299  1.00 20.00     0.026 A 
HETATM    4  C4  UNL     1     -34.001  18.061   0.346  1.00 20.00     0.018 A 
HETATM    5  C5  UNL     1     -33.060  18.768   2.500  1.00 20.00     0.247 A 
HETATM    6  C8  UNL     1     -35.305  17.736   2.416  1.00 20.00     0.159 C 
HETATM    7  N10 UNL     1     -34.095  18.199   1.737  1.00 20.00    -0.322 N 
HETATM    8  O11 UNL     1     -33.074  18.919   3.722  1.00 20.00    -0.268 OA
ENDROOT
BRANCH   4   9
HETATM    9  C9  UNL     1     -35.138  17.443  -0.418  1.00 20.00     0.028 C 
HETATM   10  C6  UNL     1     -35.906  18.518  -1.178  1.00 20.00     0.016 C 
HETATM   11  C7  UNL     1     -34.626  16.363  -1.364  1.00 20.00     0.016 C 
ENDBRANCH   4   9
TORSDOF 1
ENDMDL
MODEL 7
REMARK VINA RESULT:      -4.1     11.134     13.104
REMARK  1 active torsions:
REMARK  status: ('A' for Active; 'I' for Inactive)
REMARK    1  A    between atoms: C4_4  and  C9_9 
ROOT
HETATM    1  C1  UNL     1     -40.476   5.446  -0.442  1.00 20.00     0.007 A 
HETATM    2  C2  UNL     1     -40.917   6.682  -0.690  1.00 20.00     0.074 A 
HETATM    3  C3  UNL     1     -40.983   4.319  -1.173  1.00 20.00     0.026 A 
HETATM    4  C4  UNL     1     -41.916   4.481  -2.128  1.00 20.00     0.018 A 
HETATM    5  C5  UNL     1     -41.951   6.904  -1.740  1.00 20.00     0.247 A 
HETATM    6  C8  UNL     1     -43.417   5.912  -3.465  1.00 20.00     0.159 C 
HETATM    7  N10 UNL     1     -42.405   5.761  -2.421  1.00 20.00    -0.322 N 
HETATM    8  O11 UNL     1     -42.336   8.056  -1.944  1.00 20.00    -0.268 OA
ENDROOT
BRANCH   4   9
HETATM    9  C9  UNL     1     -42.439   3.294  -2.888  1.00 20.00     0.028 C 
HETATM   10  C6  UNL     1     -41.282   2.420  -3.357  1.00 20.00     0.016 C 
HETATM   11  C7  UNL     1     -43.416   2.496  -2.032  1.00 20.00     0.016 C 
ENDBRANCH   4   9
TORSDOF 1
ENDMDL
MODEL 8
REMARK VINA RESULT:      -4.1      1.868      2.320
REMARK  1 active torsions:
REMARK  status: ('A' for Active; 'I' for Inactive)
REMARK    1  A    between atoms: C4_4  and  C9_9 
ROOT
HETATM    1  C1  UNL     1     -35.198  13.578  -4.179  1.00 20.00     0.007 A 
HETATM    2  C2  UNL     1     -34.875  13.650  -5.473  1.00 20.00     0.074 A 
HETATM    3  C3  UNL     1     -35.121  14.735  -3.332  1.00 20.00     0.026 A 
HETATM    4  C4  UNL     1     -34.724  15.922  -3.823  1.00 20.00     0.018 A 
HETATM    5  C5  UNL     1     -34.430  14.947  -6.056  1.00 20.00     0.247 A 
HETATM    6  C8  UNL     1     -33.952  17.344  -5.686  1.00 20.00     0.159 C 
HETATM    7  N10 UNL     1     -34.379  16.042  -5.175  1.00 20.00    -0.322 N 
HETATM    8  O11 UNL     1     -34.141  14.979  -7.252  1.00 20.00    -0.268 OA
ENDROOT
BRANCH   4   9
HETATM    9  C9  UNL     1     -34.649  17.127  -2.927  1.00 20.00     0.028 C 
HETATM   10  C6  UNL     1     -36.052  17.614  -2.584  1.00 20.00     0.016 C 
HETATM   11  C7  UNL     1     -33.855  16.810  -1.665  1.00 20.00     0.016 C 
ENDBRANCH   4   9
TORSDOF 1
ENDMDL
MODEL 9
REMARK VINA RESULT:      -4.1      2.694      3.762
REMARK  1 active torsions:
REMARK  status: ('A' for Active; 'I' for Inactive)
REMARK    1  A    between atoms: C4_4  and  C9_9 
ROOT
HETATM    1  C1  UNL     1     -34.333  13.728  -4.861  1.00 20.00     0.007 A 
HETATM    2  C2  UNL     1     -35.492  13.456  -4.255  1.00 20.00     0.074 A 
HETATM    3  C3  UNL     1     -34.118  14.989  -5.514  1.00 20.00     0.026 A 
HETATM    4  C4  UNL     1     -35.079  15.929  -5.529  1.00 20.00     0.018 A 
HETATM    5  C5  UNL     1     -36.583  14.471  -4.250  1.00 20.00     0.247 A 
HETATM    6  C8  UNL     1     -37.338  16.724  -4.933  1.00 20.00     0.159 C 
HETATM    7  N10 UNL     1     -36.309  15.685  -4.904  1.00 20.00    -0.322 N 
HETATM    8  O11 UNL     1     -37.639  14.189  -3.683  1.00 20.00    -0.268 OA
ENDROOT
BRANCH   4   9
HETATM    9  C9  UNL     1     -34.842  17.246  -6.215  1.00 20.00     0.028 C 
HETATM   10  C6  UNL     1     -33.625  17.939  -5.614  1.00 20.00     0.016 C 
HETATM   11  C7  UNL     1     -34.673  17.047  -7.717  1.00 20.00     0.016 C 
ENDBRANCH   4   9
TORSDOF 1
ENDMDL
