MODEL 1
REMARK VINA RESULT:      -4.8      0.000      0.000
REMARK  1 active torsions:
REMARK  status: ('A' for Active; 'I' for Inactive)
REMARK    1  A    between atoms: C5_5  and  N7_7 
ROOT
HETATM    1  C1  UNL     1     -32.472   6.896   2.966  1.00 20.00     0.332 C 
HETATM    2  N7  UNL     1     -33.229   6.016   3.121  1.00 20.00    -0.241 NA
HETATM    3  O8  UNL     1     -31.707   7.777   2.804  1.00 20.00    -0.260 OA
ENDROOT
BRANCH   2   4
HETATM    4  C5  UNL     1     -34.232   6.264   4.167  1.00 20.00     0.126 C 
HETATM    5  C3  UNL     1     -35.450   5.374   3.917  1.00 20.00     0.029 C 
HETATM    6  C2  UNL     1     -35.183   4.126   4.747  1.00 20.00     0.003 C 
HETATM    7  C4  UNL     1     -34.562   4.689   6.016  1.00 20.00     0.018 C 
HETATM    8  C6  UNL     1     -33.665   5.820   5.520  1.00 20.00     0.083 C 
HETATM    9 BR9  UNL     1     -33.668   7.291   6.795  1.00 20.00    -0.089 Br
ENDBRANCH   2   4
TORSDOF 1
ENDMDL
MODEL 2
REMARK VINA RESULT:      -4.3     11.688     12.697
REMARK  1 active torsions:
REMARK  status: ('A' for Active; 'I' for Inactive)
REMARK    1  A    between atoms: C5_5  and  N7_7 
ROOT
HETATM    1  C1  UNL     1     -35.147  13.540  -4.204  1.00 20.00     0.332 C 
HETATM    2  N7  UNL     1     -35.449  14.546  -3.683  1.00 20.00    -0.241 NA
HETATM    3  O8  UNL     1     -34.850  12.530  -4.730  1.00 20.00    -0.260 OA
ENDROOT
BRANCH   2   4
HETATM    4  C5  UNL     1     -34.344  15.214  -2.980  1.00 20.00     0.126 C 
HETATM    5  C3  UNL     1     -33.173  15.400  -3.945  1.00 20.00     0.029 C 
HETATM    6  C2  UNL     1     -33.381  16.792  -4.527  1.00 20.00     0.003 C 
HETATM    7  C4  UNL     1     -33.864  17.592  -3.327  1.00 20.00     0.018 C 
HETATM    8  C6  UNL     1     -34.784  16.627  -2.584  1.00 20.00     0.083 C 
HETATM    9 BR9  UNL     1     -34.630  16.893  -0.662  1.00 20.00    -0.089 Br
ENDBRANCH   2   4
TORSDOF 1
ENDMDL
MODEL 3
REMARK VINA RESULT:      -4.1     12.240     12.933
REMARK  1 active torsions:
REMARK  status: ('A' for Active; 'I' for Inactive)
REMARK    1  A    between atoms: C5_5  and  N7_7 
ROOT
HETATM    1  C1  UNL     1     -34.265  13.520  -4.349  1.00 20.00     0.332 C 
HETATM    2  N7  UNL     1     -33.657  14.469  -4.031  1.00 20.00    -0.241 NA
HETATM    3  O8  UNL     1     -34.870  12.562  -4.667  1.00 20.00    -0.260 OA
ENDROOT
BRANCH   2   4
HETATM    4  C5  UNL     1     -34.462  15.695  -3.938  1.00 20.00     0.126 C 
HETATM    5  C3  UNL     1     -35.366  15.612  -2.708  1.00 20.00     0.029 C 
HETATM    6  C2  UNL     1     -34.565  16.291  -1.604  1.00 20.00     0.003 C 
HETATM    7  C4  UNL     1     -33.916  17.461  -2.328  1.00 20.00     0.018 C 
HETATM    8  C6  UNL     1     -33.532  16.888  -3.690  1.00 20.00     0.083 C 
HETATM    9 BR9  UNL     1     -33.745  18.240  -5.074  1.00 20.00    -0.089 Br
ENDBRANCH   2   4
TORSDOF 1
ENDMDL
MODEL 4
REMARK VINA RESULT:      -3.9     11.993     12.612
REMARK  1 active torsions:
REMARK  status: ('A' for Active; 'I' for Inactive)
REMARK    1  A    between atoms: C5_5  and  N7_7 
ROOT
HETATM    1  C1  UNL     1     -37.631  14.872  -3.910  1.00 20.00     0.332 C 
HETATM    2  N7  UNL     1     -36.687  15.566  -3.925  1.00 20.00    -0.241 NA
HETATM    3  O8  UNL     1     -38.582  14.178  -3.901  1.00 20.00    -0.260 OA
ENDROOT
BRANCH   2   4
HETATM    4  C5  UNL     1     -35.628  15.161  -2.991  1.00 20.00     0.126 C 
HETATM    5  C3  UNL     1     -34.782  14.062  -3.635  1.00 20.00     0.029 C 
HETATM    6  C2  UNL     1     -33.635  14.810  -4.300  1.00 20.00     0.003 C 
HETATM    7  C4  UNL     1     -33.310  15.900  -3.291  1.00 20.00     0.018 C 
HETATM    8  C6  UNL     1     -34.675  16.341  -2.770  1.00 20.00     0.083 C 
HETATM    9 BR9  UNL     1     -34.559  16.801  -0.882  1.00 20.00    -0.089 Br
ENDBRANCH   2   4
TORSDOF 1
ENDMDL
MODEL 5
REMARK VINA RESULT:      -3.9     12.204     12.885
REMARK  1 active torsions:
REMARK  status: ('A' for Active; 'I' for Inactive)
REMARK    1  A    between atoms: C5_5  and  N7_7 
ROOT
HETATM    1  C1  UNL     1     -34.531  16.217  -1.605  1.00 20.00     0.332 C 
HETATM    2  N7  UNL     1     -34.842  15.456  -2.439  1.00 20.00    -0.241 NA
HETATM    3  O8  UNL     1     -34.224  16.980  -0.762  1.00 20.00    -0.260 OA
ENDROOT
BRANCH   2   4
HETATM    4  C5  UNL     1     -33.897  15.374  -3.561  1.00 20.00     0.126 C 
HETATM    5  C3  UNL     1     -33.477  13.916  -3.759  1.00 20.00     0.029 C 
HETATM    6  C2  UNL     1     -34.451  13.382  -4.801  1.00 20.00     0.003 C 
HETATM    7  C4  UNL     1     -34.596  14.552  -5.762  1.00 20.00     0.018 C 
HETATM    8  C6  UNL     1     -34.614  15.778  -4.853  1.00 20.00     0.083 C 
HETATM    9 BR9  UNL     1     -33.710  17.270  -5.716  1.00 20.00    -0.089 Br
ENDBRANCH   2   4
TORSDOF 1
ENDMDL
MODEL 6
REMARK VINA RESULT:      -3.8     12.187     13.579
REMARK  1 active torsions:
REMARK  status: ('A' for Active; 'I' for Inactive)
REMARK    1  A    between atoms: C5_5  and  N7_7 
ROOT
HETATM    1  C1  UNL     1     -34.683  13.606  -4.906  1.00 20.00     0.332 C 
HETATM    2  N7  UNL     1     -34.347  14.553  -5.510  1.00 20.00    -0.241 NA
HETATM    3  O8  UNL     1     -35.023  12.652  -4.306  1.00 20.00    -0.260 OA
ENDROOT
BRANCH   2   4
HETATM    4  C5  UNL     1     -33.893  15.671  -4.671  1.00 20.00     0.126 C 
HETATM    5  C3  UNL     1     -33.456  16.829  -5.569  1.00 20.00     0.029 C 
HETATM    6  C2  UNL     1     -34.702  17.694  -5.701  1.00 20.00     0.003 C 
HETATM    7  C4  UNL     1     -35.300  17.644  -4.303  1.00 20.00     0.018 C 
HETATM    8  C6  UNL     1     -35.078  16.201  -3.857  1.00 20.00     0.083 C 
HETATM    9 BR9  UNL     1     -34.701  16.136  -1.949  1.00 20.00    -0.089 Br
ENDBRANCH   2   4
TORSDOF 1
ENDMDL
MODEL 7
REMARK VINA RESULT:      -3.8     11.961     12.455
REMARK  1 active torsions:
REMARK  status: ('A' for Active; 'I' for Inactive)
REMARK    1  A    between atoms: C5_5  and  N7_7 
ROOT
HETATM    1  C1  UNL     1     -34.095  16.765  -1.422  1.00 20.00     0.332 C 
HETATM    2  N7  UNL     1     -34.770  15.906  -1.846  1.00 20.00    -0.241 NA
HETATM    3  O8  UNL     1     -33.420  17.627  -0.990  1.00 20.00    -0.260 OA
ENDROOT
BRANCH   2   4
HETATM    4  C5  UNL     1     -34.678  15.732  -3.302  1.00 20.00     0.126 C 
HETATM    5  C3  UNL     1     -33.269  15.260  -3.665  1.00 20.00     0.029 C 
HETATM    6  C2  UNL     1     -33.374  13.741  -3.690  1.00 20.00     0.003 C 
HETATM    7  C4  UNL     1     -34.735  13.506  -4.327  1.00 20.00     0.018 C 
HETATM    8  C6  UNL     1     -35.618  14.600  -3.732  1.00 20.00     0.083 C 
HETATM    9 BR9  UNL     1     -36.902  15.224  -5.055  1.00 20.00    -0.089 Br
ENDBRANCH   2   4
TORSDOF 1
ENDMDL
MODEL 8
REMARK VINA RESULT:      -3.8      2.490      3.064
REMARK  1 active torsions:
REMARK  status: ('A' for Active; 'I' for Inactive)
REMARK    1  A    between atoms: C5_5  and  N7_7 
ROOT
HETATM    1  C1  UNL     1     -33.572   7.172   6.916  1.00 20.00     0.332 C 
HETATM    2  N7  UNL     1     -34.347   6.387   6.522  1.00 20.00    -0.241 NA
HETATM    3  O8  UNL     1     -32.799   7.964   7.317  1.00 20.00    -0.260 OA
ENDROOT
BRANCH   2   4
HETATM    4  C5  UNL     1     -33.844   5.542   5.430  1.00 20.00     0.126 C 
HETATM    5  C3  UNL     1     -34.760   4.328   5.271  1.00 20.00     0.029 C 
HETATM    6  C2  UNL     1     -35.768   4.752   4.211  1.00 20.00     0.003 C 
HETATM    7  C4  UNL     1     -34.915   5.535   3.225  1.00 20.00     0.018 C 
HETATM    8  C6  UNL     1     -33.946   6.314   4.110  1.00 20.00     0.083 C 
HETATM    9 BR9  UNL     1     -32.207   6.454   3.247  1.00 20.00    -0.089 Br
ENDBRANCH   2   4
TORSDOF 1
ENDMDL
MODEL 9
REMARK VINA RESULT:      -3.8     11.831     12.866
REMARK  1 active torsions:
REMARK  status: ('A' for Active; 'I' for Inactive)
REMARK    1  A    between atoms: C5_5  and  N7_7 
ROOT
HETATM    1  C1  UNL     1     -34.290  13.511  -4.189  1.00 20.00     0.332 C 
HETATM    2  N7  UNL     1     -33.813  14.410  -3.608  1.00 20.00    -0.241 NA
HETATM    3  O8  UNL     1     -34.764  12.606  -4.774  1.00 20.00    -0.260 OA
ENDROOT
BRANCH   2   4
HETATM    4  C5  UNL     1     -34.787  15.263  -2.914  1.00 20.00     0.126 C 
HETATM    5  C3  UNL     1     -34.042  16.343  -2.130  1.00 20.00     0.029 C 
HETATM    6  C2  UNL     1     -33.982  17.529  -3.084  1.00 20.00     0.003 C 
HETATM    7  C4  UNL     1     -35.349  17.498  -3.749  1.00 20.00     0.018 C 
HETATM    8  C6  UNL     1     -35.629  16.012  -3.954  1.00 20.00     0.083 C 
HETATM    9 BR9  UNL     1     -37.525  15.643  -3.714  1.00 20.00    -0.089 Br
ENDBRANCH   2   4
TORSDOF 1
ENDMDL
