MODEL 1
REMARK VINA RESULT:      -4.8      0.000      0.000
REMARK  0 active torsions:
REMARK  status: ('A' for Active; 'I' for Inactive)
ROOT
HETATM    1  C1  UNL     1     -34.430  14.765  -6.755  1.00 20.00    -0.025 A 
HETATM    2  C2  UNL     1     -34.122  15.955  -6.209  1.00 20.00    -0.020 A 
HETATM    3  C3  UNL     1     -34.811  13.299  -4.635  1.00 20.00     0.014 C 
HETATM    4  C4  UNL     1     -33.746  14.016  -3.810  1.00 20.00     0.070 C 
HETATM    5  C5  UNL     1     -33.821  17.206  -2.352  1.00 20.00     0.197 C 
HETATM    6  C6  UNL     1     -34.716  16.270  -1.588  1.00 20.00     0.197 C 
HETATM    7  C7  UNL     1     -35.336  14.358  -5.608  1.00 20.00     0.021 A 
HETATM    8  C8  UNL     1     -34.994  15.737  -4.984  1.00 20.00     0.078 A 
HETATM    9  C9  UNL     1     -34.307  15.426  -3.651  1.00 20.00     0.171 C 
HETATM   10  O10 UNL     1     -33.271  16.373  -3.372  1.00 20.00    -0.352 OA
HETATM   11  O11 UNL     1     -35.292  15.450  -2.605  1.00 20.00    -0.352 OA
ENDROOT
TORSDOF 0
ENDMDL
MODEL 2
REMARK VINA RESULT:      -4.7      1.750      3.700
REMARK  0 active torsions:
REMARK  status: ('A' for Active; 'I' for Inactive)
ROOT
HETATM    1  C1  UNL     1     -34.163  15.901  -2.367  1.00 20.00    -0.025 A 
HETATM    2  C2  UNL     1     -35.131  16.388  -3.164  1.00 20.00    -0.020 A 
HETATM    3  C3  UNL     1     -33.375  13.815  -3.714  1.00 20.00     0.014 C 
HETATM    4  C4  UNL     1     -34.764  13.505  -4.263  1.00 20.00     0.070 C 
HETATM    5  C5  UNL     1     -36.607  15.159  -6.748  1.00 20.00     0.197 C 
HETATM    6  C6  UNL     1     -35.474  14.393  -7.373  1.00 20.00     0.197 C 
HETATM    7  C7  UNL     1     -33.357  15.334  -3.521  1.00 20.00     0.021 A 
HETATM    8  C8  UNL     1     -34.465  15.908  -4.443  1.00 20.00     0.078 A 
HETATM    9  C9  UNL     1     -35.068  14.698  -5.165  1.00 20.00     0.171 C 
HETATM   10  O10 UNL     1     -36.475  14.863  -5.359  1.00 20.00    -0.352 OA
HETATM   11  O11 UNL     1     -34.410  14.540  -6.432  1.00 20.00    -0.352 OA
ENDROOT
TORSDOF 0
ENDMDL
MODEL 3
REMARK VINA RESULT:      -4.6      1.374      3.546
REMARK  0 active torsions:
REMARK  status: ('A' for Active; 'I' for Inactive)
ROOT
HETATM    1  C1  UNL     1     -33.776  18.203  -2.857  1.00 20.00    -0.025 A 
HETATM    2  C2  UNL     1     -33.724  17.731  -4.115  1.00 20.00    -0.020 A 
HETATM    3  C3  UNL     1     -34.834  16.191  -1.585  1.00 20.00     0.014 C 
HETATM    4  C4  UNL     1     -35.713  15.767  -2.759  1.00 20.00     0.070 C 
HETATM    5  C5  UNL     1     -34.823  14.178  -5.758  1.00 20.00     0.197 C 
HETATM    6  C6  UNL     1     -34.745  13.202  -4.616  1.00 20.00     0.197 C 
HETATM    7  C7  UNL     1     -33.602  16.833  -2.227  1.00 20.00     0.021 A 
HETATM    8  C8  UNL     1     -33.527  16.289  -3.678  1.00 20.00     0.078 A 
HETATM    9  C9  UNL     1     -34.707  15.322  -3.817  1.00 20.00     0.171 C 
HETATM   10  O10 UNL     1     -35.269  15.379  -5.131  1.00 20.00    -0.352 OA
HETATM   11  O11 UNL     1     -34.249  13.990  -3.534  1.00 20.00    -0.352 OA
ENDROOT
TORSDOF 0
ENDMDL
MODEL 4
REMARK VINA RESULT:      -4.6      0.892      1.104
REMARK  0 active torsions:
REMARK  status: ('A' for Active; 'I' for Inactive)
ROOT
HETATM    1  C1  UNL     1     -34.798  14.308  -5.973  1.00 20.00    -0.025 A 
HETATM    2  C2  UNL     1     -34.994  15.620  -5.750  1.00 20.00    -0.020 A 
HETATM    3  C3  UNL     1     -33.548  13.588  -3.803  1.00 20.00     0.014 C 
HETATM    4  C4  UNL     1     -32.812  14.916  -3.653  1.00 20.00     0.070 C 
HETATM    5  C5  UNL     1     -34.029  18.044  -2.631  1.00 20.00     0.197 C 
HETATM    6  C6  UNL     1     -33.945  17.115  -1.452  1.00 20.00     0.197 C 
HETATM    7  C7  UNL     1     -34.864  13.944  -4.501  1.00 20.00     0.021 A 
HETATM    8  C8  UNL     1     -35.105  15.454  -4.243  1.00 20.00     0.078 A 
HETATM    9  C9  UNL     1     -33.931  15.916  -3.374  1.00 20.00     0.171 C 
HETATM   10  O10 UNL     1     -33.535  17.250  -3.709  1.00 20.00    -0.352 OA
HETATM   11  O11 UNL     1     -34.321  15.849  -1.994  1.00 20.00    -0.352 OA
ENDROOT
TORSDOF 0
ENDMDL
MODEL 5
REMARK VINA RESULT:      -4.5      1.424      3.797
REMARK  0 active torsions:
REMARK  status: ('A' for Active; 'I' for Inactive)
ROOT
HETATM    1  C1  UNL     1     -34.120  17.482  -1.686  1.00 20.00    -0.025 A 
HETATM    2  C2  UNL     1     -34.546  16.211  -1.577  1.00 20.00    -0.020 A 
HETATM    3  C3  UNL     1     -33.616  17.650  -4.237  1.00 20.00     0.014 C 
HETATM    4  C4  UNL     1     -33.151  16.201  -4.354  1.00 20.00     0.070 C 
HETATM    5  C5  UNL     1     -35.033  13.240  -4.310  1.00 20.00     0.197 C 
HETATM    6  C6  UNL     1     -35.244  13.964  -5.611  1.00 20.00     0.197 C 
HETATM    7  C7  UNL     1     -34.643  17.644  -3.101  1.00 20.00     0.021 A 
HETATM    8  C8  UNL     1     -35.148  16.183  -2.972  1.00 20.00     0.078 A 
HETATM    9  C9  UNL     1     -34.415  15.396  -4.063  1.00 20.00     0.171 C 
HETATM   10  O10 UNL     1     -34.101  14.072  -3.621  1.00 20.00    -0.352 OA
HETATM   11  O11 UNL     1     -35.247  15.341  -5.233  1.00 20.00    -0.352 OA
ENDROOT
TORSDOF 0
ENDMDL
MODEL 6
REMARK VINA RESULT:      -4.4      1.417      1.856
REMARK  0 active torsions:
REMARK  status: ('A' for Active; 'I' for Inactive)
ROOT
HETATM    1  C1  UNL     1     -34.803  13.478  -5.650  1.00 20.00    -0.025 A 
HETATM    2  C2  UNL     1     -34.668  14.659  -6.279  1.00 20.00    -0.020 A 
HETATM    3  C3  UNL     1     -34.070  14.088  -3.225  1.00 20.00     0.014 C 
HETATM    4  C4  UNL     1     -33.030  15.109  -3.676  1.00 20.00     0.070 C 
HETATM    5  C5  UNL     1     -33.484  18.330  -4.991  1.00 20.00     0.197 C 
HETATM    6  C6  UNL     1     -33.798  18.326  -3.520  1.00 20.00     0.197 C 
HETATM    7  C7  UNL     1     -35.146  14.113  -4.314  1.00 20.00     0.021 A 
HETATM    8  C8  UNL     1     -35.005  15.476  -5.042  1.00 20.00     0.078 A 
HETATM    9  C9  UNL     1     -33.867  16.209  -4.324  1.00 20.00     0.171 C 
HETATM   10  O10 UNL     1     -33.091  16.983  -5.245  1.00 20.00    -0.352 OA
HETATM   11  O11 UNL     1     -34.430  17.062  -3.315  1.00 20.00    -0.352 OA
ENDROOT
TORSDOF 0
ENDMDL
MODEL 7
REMARK VINA RESULT:      -4.4      1.908      3.493
REMARK  0 active torsions:
REMARK  status: ('A' for Active; 'I' for Inactive)
ROOT
HETATM    1  C1  UNL     1     -33.437  13.660  -3.751  1.00 20.00    -0.025 A 
HETATM    2  C2  UNL     1     -34.687  13.376  -4.159  1.00 20.00    -0.020 A 
HETATM    3  C3  UNL     1     -33.177  16.130  -4.537  1.00 20.00     0.014 C 
HETATM    4  C4  UNL     1     -34.031  15.940  -5.787  1.00 20.00     0.070 C 
HETATM    5  C5  UNL     1     -37.508  15.582  -6.085  1.00 20.00     0.197 C 
HETATM    6  C6  UNL     1     -37.166  17.005  -5.740  1.00 20.00     0.197 C 
HETATM    7  C7  UNL     1     -33.736  15.129  -3.522  1.00 20.00     0.021 A 
HETATM    8  C8  UNL     1     -35.182  14.801  -3.977  1.00 20.00     0.078 A 
HETATM    9  C9  UNL     1     -35.422  15.651  -5.229  1.00 20.00     0.171 C 
HETATM   10  O10 UNL     1     -36.231  14.952  -6.180  1.00 20.00    -0.352 OA
HETATM   11  O11 UNL     1     -36.063  16.877  -4.841  1.00 20.00    -0.352 OA
ENDROOT
TORSDOF 0
ENDMDL
MODEL 8
REMARK VINA RESULT:      -4.3     11.815     13.182
REMARK  0 active torsions:
REMARK  status: ('A' for Active; 'I' for Inactive)
ROOT
HETATM    1  C1  UNL     1     -34.973   5.449   6.778  1.00 20.00    -0.025 A 
HETATM    2  C2  UNL     1     -34.146   6.464   6.468  1.00 20.00    -0.020 A 
HETATM    3  C3  UNL     1     -35.229   4.260   4.474  1.00 20.00     0.014 C 
HETATM    4  C4  UNL     1     -35.147   5.555   3.670  1.00 20.00     0.070 C 
HETATM    5  C5  UNL     1     -32.370   7.588   2.988  1.00 20.00     0.197 C 
HETATM    6  C6  UNL     1     -32.286   6.318   2.187  1.00 20.00     0.197 C 
HETATM    7  C7  UNL     1     -34.391   4.520   5.728  1.00 20.00     0.021 A 
HETATM    8  C8  UNL     1     -33.427   5.684   5.380  1.00 20.00     0.078 A 
HETATM    9  C9  UNL     1     -33.721   6.039   3.919  1.00 20.00     0.171 C 
HETATM   10  O10 UNL     1     -33.601   7.447   3.696  1.00 20.00    -0.352 OA
HETATM   11  O11 UNL     1     -32.802   5.326   3.075  1.00 20.00    -0.352 OA
ENDROOT
TORSDOF 0
ENDMDL
MODEL 9
REMARK VINA RESULT:      -4.3      1.086      2.168
REMARK  0 active torsions:
REMARK  status: ('A' for Active; 'I' for Inactive)
ROOT
HETATM    1  C1  UNL     1     -34.467  13.265  -4.806  1.00 20.00    -0.025 A 
HETATM    2  C2  UNL     1     -33.817  13.623  -3.685  1.00 20.00    -0.020 A 
HETATM    3  C3  UNL     1     -35.901  15.387  -5.283  1.00 20.00     0.014 C 
HETATM    4  C4  UNL     1     -36.116  15.710  -3.806  1.00 20.00     0.070 C 
HETATM    5  C5  UNL     1     -33.868  17.023  -1.455  1.00 20.00     0.197 C 
HETATM    6  C6  UNL     1     -34.283  18.095  -2.424  1.00 20.00     0.197 C 
HETATM    7  C7  UNL     1     -34.542  14.684  -5.338  1.00 20.00     0.021 A 
HETATM    8  C8  UNL     1     -33.779  15.097  -4.052  1.00 20.00     0.078 A 
HETATM    9  C9  UNL     1     -34.715  16.054  -3.308  1.00 20.00     0.171 C 
HETATM   10  O10 UNL     1     -34.608  15.884  -1.892  1.00 20.00    -0.352 OA
HETATM   11  O11 UNL     1     -34.380  17.404  -3.669  1.00 20.00    -0.352 OA
ENDROOT
TORSDOF 0
ENDMDL
