MODEL 1
REMARK VINA RESULT:      -5.1      0.000      0.000
REMARK  1 active torsions:
REMARK  status: ('A' for Active; 'I' for Inactive)
REMARK    1  A    between atoms: C6_6  and  C11_11 
ROOT
HETATM    1  C1  UNL     1     -35.032  14.332  -4.837  1.00 20.00     0.136 A 
HETATM    2  C2  UNL     1     -36.075  14.715  -3.780  1.00 20.00     0.085 A 
HETATM    3  C3  UNL     1     -34.118  17.193  -4.135  1.00 20.00     0.006 C 
HETATM    4  C4  UNL     1     -33.138  16.062  -4.433  1.00 20.00     0.018 C 
HETATM    5  C5  UNL     1     -34.913  15.265  -2.904  1.00 20.00     0.012 A 
HETATM    6  C6  UNL     1     -34.777  16.792  -2.812  1.00 20.00    -0.006 C 
HETATM    7  C7  UNL     1     -33.851  14.796  -3.949  1.00 20.00     0.021 A 
HETATM    8  C8  UNL     1     -32.908  13.683  -3.531  1.00 20.00     0.024 C 
HETATM    9  O12 UNL     1     -35.111  13.853  -5.949  1.00 20.00    -0.297 OA
ENDROOT
BRANCH   6  10
HETATM   10  C11 UNL     1     -33.922  17.174  -1.605  1.00 20.00    -0.018 C 
HETATM   11  C9  UNL     1     -33.465  18.627  -1.710  1.00 20.00     0.010 C 
HETATM   12  C10 UNL     1     -34.695  16.947  -0.307  1.00 20.00     0.010 C 
ENDBRANCH   6  10
TORSDOF 1
ENDMDL
MODEL 2
REMARK VINA RESULT:      -5.0      1.283      2.531
REMARK  1 active torsions:
REMARK  status: ('A' for Active; 'I' for Inactive)
REMARK    1  A    between atoms: C6_6  and  C11_11 
ROOT
HETATM    1  C1  UNL     1     -34.194  13.927  -3.906  1.00 20.00     0.136 A 
HETATM    2  C2  UNL     1     -32.824  14.588  -3.715  1.00 20.00     0.085 A 
HETATM    3  C3  UNL     1     -34.880  16.085  -1.811  1.00 20.00     0.006 C 
HETATM    4  C4  UNL     1     -35.829  15.700  -2.942  1.00 20.00     0.018 C 
HETATM    5  C5  UNL     1     -33.530  15.970  -3.819  1.00 20.00     0.012 A 
HETATM    6  C6  UNL     1     -33.699  16.761  -2.514  1.00 20.00    -0.006 C 
HETATM    7  C7  UNL     1     -34.909  15.288  -4.095  1.00 20.00     0.021 A 
HETATM    8  C8  UNL     1     -35.521  15.488  -5.469  1.00 20.00     0.024 C 
HETATM    9  O12 UNL     1     -34.571  12.773  -3.902  1.00 20.00    -0.297 OA
ENDROOT
BRANCH   6  10
HETATM   10  C11 UNL     1     -33.978  18.232  -2.820  1.00 20.00    -0.018 C 
HETATM   11  C9  UNL     1     -33.271  19.133  -1.811  1.00 20.00     0.010 C 
HETATM   12  C10 UNL     1     -33.542  18.574  -4.244  1.00 20.00     0.010 C 
ENDBRANCH   6  10
TORSDOF 1
ENDMDL
MODEL 3
REMARK VINA RESULT:      -4.9      1.093      2.273
REMARK  1 active torsions:
REMARK  status: ('A' for Active; 'I' for Inactive)
REMARK    1  A    between atoms: C6_6  and  C11_11 
ROOT
HETATM    1  C1  UNL     1     -34.056  15.040  -4.855  1.00 20.00     0.136 A 
HETATM    2  C2  UNL     1     -33.345  14.581  -3.576  1.00 20.00     0.085 A 
HETATM    3  C3  UNL     1     -36.013  16.069  -2.704  1.00 20.00     0.006 C 
HETATM    4  C4  UNL     1     -35.706  16.847  -3.980  1.00 20.00     0.018 C 
HETATM    5  C5  UNL     1     -33.608  15.993  -2.980  1.00 20.00     0.012 A 
HETATM    6  C6  UNL     1     -34.703  16.101  -1.909  1.00 20.00    -0.006 C 
HETATM    7  C7  UNL     1     -34.257  16.479  -4.316  1.00 20.00     0.021 A 
HETATM    8  C8  UNL     1     -33.519  17.549  -5.099  1.00 20.00     0.024 C 
HETATM    9  O12 UNL     1     -34.353  14.482  -5.890  1.00 20.00    -0.297 OA
ENDROOT
BRANCH   6  10
HETATM   10  C11 UNL     1     -34.542  17.397  -1.117  1.00 20.00    -0.018 C 
HETATM   11  C9  UNL     1     -35.077  17.228   0.303  1.00 20.00     0.010 C 
HETATM   12  C10 UNL     1     -33.078  17.831  -1.092  1.00 20.00     0.010 C 
ENDBRANCH   6  10
TORSDOF 1
ENDMDL
MODEL 4
REMARK VINA RESULT:      -4.8      2.286      4.264
REMARK  1 active torsions:
REMARK  status: ('A' for Active; 'I' for Inactive)
REMARK    1  A    between atoms: C6_6  and  C11_11 
ROOT
HETATM    1  C1  UNL     1     -33.893  17.890  -1.468  1.00 20.00     0.136 A 
HETATM    2  C2  UNL     1     -34.541  16.654  -0.831  1.00 20.00     0.085 A 
HETATM    3  C3  UNL     1     -33.216  15.735  -3.568  1.00 20.00     0.006 C 
HETATM    4  C4  UNL     1     -33.584  17.167  -3.943  1.00 20.00     0.018 C 
HETATM    5  C5  UNL     1     -35.145  16.312  -2.223  1.00 20.00     0.012 A 
HETATM    6  C6  UNL     1     -34.505  15.145  -2.989  1.00 20.00    -0.006 C 
HETATM    7  C7  UNL     1     -34.550  17.617  -2.844  1.00 20.00     0.021 A 
HETATM    8  C8  UNL     1     -35.532  18.685  -3.291  1.00 20.00     0.024 C 
HETATM    9  O12 UNL     1     -33.145  18.748  -1.048  1.00 20.00    -0.297 OA
ENDROOT
BRANCH   6  10
HETATM   10  C11 UNL     1     -35.451  14.648  -4.080  1.00 20.00    -0.018 C 
HETATM   11  C9  UNL     1     -35.158  13.189  -4.420  1.00 20.00     0.010 C 
HETATM   12  C10 UNL     1     -36.906  14.817  -3.646  1.00 20.00     0.010 C 
ENDBRANCH   6  10
TORSDOF 1
ENDMDL
MODEL 5
REMARK VINA RESULT:      -4.8      1.838      2.825
REMARK  1 active torsions:
REMARK  status: ('A' for Active; 'I' for Inactive)
REMARK    1  A    between atoms: C6_6  and  C11_11 
ROOT
HETATM    1  C1  UNL     1     -34.903  13.649  -5.022  1.00 20.00     0.136 A 
HETATM    2  C2  UNL     1     -34.630  14.533  -6.245  1.00 20.00     0.085 A 
HETATM    3  C3  UNL     1     -33.267  15.926  -3.736  1.00 20.00     0.006 C 
HETATM    4  C4  UNL     1     -34.446  15.257  -3.034  1.00 20.00     0.018 C 
HETATM    5  C5  UNL     1     -35.033  15.764  -5.385  1.00 20.00     0.012 A 
HETATM    6  C6  UNL     1     -33.896  16.681  -4.911  1.00 20.00    -0.006 C 
HETATM    7  C7  UNL     1     -35.388  14.849  -4.170  1.00 20.00     0.021 A 
HETATM    8  C8  UNL     1     -36.847  14.774  -3.759  1.00 20.00     0.024 C 
HETATM    9  O12 UNL     1     -34.778  12.461  -4.807  1.00 20.00    -0.297 OA
ENDROOT
BRANCH   6  10
HETATM   10  C11 UNL     1     -34.453  18.039  -4.489  1.00 20.00    -0.018 C 
HETATM   11  C9  UNL     1     -33.431  19.143  -4.750  1.00 20.00     0.010 C 
HETATM   12  C10 UNL     1     -35.760  18.333  -5.223  1.00 20.00     0.010 C 
ENDBRANCH   6  10
TORSDOF 1
ENDMDL
MODEL 6
REMARK VINA RESULT:      -4.7      1.385      2.698
REMARK  1 active torsions:
REMARK  status: ('A' for Active; 'I' for Inactive)
REMARK    1  A    between atoms: C6_6  and  C11_11 
ROOT
HETATM    1  C1  UNL     1     -34.423  15.392  -6.325  1.00 20.00     0.136 A 
HETATM    2  C2  UNL     1     -33.744  16.593  -5.656  1.00 20.00     0.085 A 
HETATM    3  C3  UNL     1     -34.213  14.391  -3.416  1.00 20.00     0.006 C 
HETATM    4  C4  UNL     1     -35.415  14.092  -4.308  1.00 20.00     0.018 C 
HETATM    5  C5  UNL     1     -34.783  16.477  -4.504  1.00 20.00     0.012 A 
HETATM    6  C6  UNL     1     -34.281  15.901  -3.173  1.00 20.00    -0.006 C 
HETATM    7  C7  UNL     1     -35.519  15.307  -5.234  1.00 20.00     0.021 A 
HETATM    8  C8  UNL     1     -36.925  15.576  -5.737  1.00 20.00     0.024 C 
HETATM    9  O12 UNL     1     -34.183  14.751  -7.327  1.00 20.00    -0.297 OA
ENDROOT
BRANCH   6  10
HETATM   10  C11 UNL     1     -35.246  16.260  -2.044  1.00 20.00    -0.018 C 
HETATM   11  C9  UNL     1     -34.476  16.683  -0.795  1.00 20.00     0.010 C 
HETATM   12  C10 UNL     1     -36.200  17.367  -2.487  1.00 20.00     0.010 C 
ENDBRANCH   6  10
TORSDOF 1
ENDMDL
MODEL 7
REMARK VINA RESULT:      -4.7      2.138      3.399
REMARK  1 active torsions:
REMARK  status: ('A' for Active; 'I' for Inactive)
REMARK    1  A    between atoms: C6_6  and  C11_11 
ROOT
HETATM    1  C1  UNL     1     -33.888  13.784  -3.831  1.00 20.00     0.136 A 
HETATM    2  C2  UNL     1     -35.282  13.440  -4.371  1.00 20.00     0.085 A 
HETATM    3  C3  UNL     1     -34.106  15.775  -6.177  1.00 20.00     0.006 C 
HETATM    4  C4  UNL     1     -33.436  16.129  -4.852  1.00 20.00     0.018 C 
HETATM    5  C5  UNL     1     -35.580  14.965  -4.435  1.00 20.00     0.012 A 
HETATM    6  C6  UNL     1     -35.588  15.613  -5.827  1.00 20.00    -0.006 C 
HETATM    7  C7  UNL     1     -34.191  15.303  -3.806  1.00 20.00     0.021 A 
HETATM    8  C8  UNL     1     -34.186  15.920  -2.419  1.00 20.00     0.024 C 
HETATM    9  O12 UNL     1     -32.919  13.115  -3.541  1.00 20.00    -0.297 OA
ENDROOT
BRANCH   6  10
HETATM   10  C11 UNL     1     -36.318  16.954  -5.782  1.00 20.00    -0.018 C 
HETATM   11  C9  UNL     1     -36.869  17.312  -7.161  1.00 20.00     0.010 C 
HETATM   12  C10 UNL     1     -37.442  16.917  -4.748  1.00 20.00     0.010 C 
ENDBRANCH   6  10
TORSDOF 1
ENDMDL
MODEL 8
REMARK VINA RESULT:      -4.7      2.198      4.293
REMARK  1 active torsions:
REMARK  status: ('A' for Active; 'I' for Inactive)
REMARK    1  A    between atoms: C6_6  and  C11_11 
ROOT
HETATM    1  C1  UNL     1     -34.610  16.140  -2.462  1.00 20.00     0.136 A 
HETATM    2  C2  UNL     1     -35.200  17.128  -3.475  1.00 20.00     0.085 A 
HETATM    3  C3  UNL     1     -36.238  14.229  -4.255  1.00 20.00     0.006 C 
HETATM    4  C4  UNL     1     -34.883  13.853  -3.663  1.00 20.00     0.018 C 
HETATM    5  C5  UNL     1     -34.793  16.140  -4.605  1.00 20.00     0.012 A 
HETATM    6  C6  UNL     1     -35.923  15.337  -5.264  1.00 20.00    -0.006 C 
HETATM    7  C7  UNL     1     -34.120  15.178  -3.574  1.00 20.00     0.021 A 
HETATM    8  C8  UNL     1     -32.612  15.024  -3.647  1.00 20.00     0.024 C 
HETATM    9  O12 UNL     1     -34.557  16.121  -1.251  1.00 20.00    -0.297 OA
ENDROOT
BRANCH   6  10
HETATM   10  C11 UNL     1     -35.459  14.776  -6.607  1.00 20.00    -0.018 C 
HETATM   11  C9  UNL     1     -36.582  14.853  -7.638  1.00 20.00     0.010 C 
HETATM   12  C10 UNL     1     -34.223  15.525  -7.102  1.00 20.00     0.010 C 
ENDBRANCH   6  10
TORSDOF 1
ENDMDL
MODEL 9
REMARK VINA RESULT:      -4.6      1.964      3.831
REMARK  1 active torsions:
REMARK  status: ('A' for Active; 'I' for Inactive)
REMARK    1  A    between atoms: C6_6  and  C11_11 
ROOT
HETATM    1  C1  UNL     1     -33.151  15.193  -3.639  1.00 20.00     0.136 A 
HETATM    2  C2  UNL     1     -34.141  15.768  -2.619  1.00 20.00     0.085 A 
HETATM    3  C3  UNL     1     -35.670  13.530  -4.276  1.00 20.00     0.006 C 
HETATM    4  C4  UNL     1     -34.708  14.019  -5.355  1.00 20.00     0.018 C 
HETATM    5  C5  UNL     1     -35.196  15.848  -3.760  1.00 20.00     0.012 A 
HETATM    6  C6  UNL     1     -36.323  14.805  -3.736  1.00 20.00    -0.006 C 
HETATM    7  C7  UNL     1     -34.156  15.339  -4.809  1.00 20.00     0.021 A 
HETATM    8  C8  UNL     1     -33.722  16.315  -5.887  1.00 20.00     0.024 C 
HETATM    9  O12 UNL     1     -32.015  14.776  -3.553  1.00 20.00    -0.297 OA
ENDROOT
BRANCH   6  10
HETATM   10  C11 UNL     1     -37.489  15.268  -4.607  1.00 20.00    -0.018 C 
HETATM   11  C9  UNL     1     -38.806  14.694  -4.091  1.00 20.00     0.010 C 
HETATM   12  C10 UNL     1     -37.550  16.793  -4.655  1.00 20.00     0.010 C 
ENDBRANCH   6  10
TORSDOF 1
ENDMDL
