MODEL 1
REMARK VINA RESULT:      -5.1      0.000      0.000
REMARK  1 active torsions:
REMARK  status: ('A' for Active; 'I' for Inactive)
REMARK    1  A    between atoms: C7_7  and  C10_10 
ROOT
HETATM    1  C1  UNL     1     -32.797  14.761  -3.633  1.00 20.00    -0.018 C 
HETATM    2  C2  UNL     1     -33.081  15.912  -4.266  1.00 20.00    -0.024 C 
HETATM    3  C3  UNL     1     -34.703  13.709  -4.599  1.00 20.00     0.139 C 
HETATM    4  C4  UNL     1     -34.940  15.372  -2.998  1.00 20.00     0.025 C 
HETATM    5  C5  UNL     1     -34.101  14.116  -3.258  1.00 20.00     0.078 C 
HETATM    6  C6  UNL     1     -34.593  16.027  -4.346  1.00 20.00     0.020 C 
HETATM    7  C7  UNL     1     -35.164  14.972  -5.339  1.00 20.00     0.067 C 
HETATM    8  O11 UNL     1     -34.759  12.569  -5.032  1.00 20.00    -0.297 OA
ENDROOT
BRANCH   7   9
HETATM    9  C10 UNL     1     -34.635  15.066  -6.757  1.00 20.00    -0.011 C 
HETATM   10  C8  UNL     1     -35.558  14.337  -7.736  1.00 20.00     0.010 C 
HETATM   11  C9  UNL     1     -34.461  16.526  -7.182  1.00 20.00     0.010 C 
ENDBRANCH   7   9
TORSDOF 1
ENDMDL
MODEL 2
REMARK VINA RESULT:      -4.7      1.669      2.514
REMARK  1 active torsions:
REMARK  status: ('A' for Active; 'I' for Inactive)
REMARK    1  A    between atoms: C7_7  and  C10_10 
ROOT
HETATM    1  C1  UNL     1     -34.827  15.428  -2.879  1.00 20.00    -0.018 C 
HETATM    2  C2  UNL     1     -35.624  14.665  -3.647  1.00 20.00    -0.024 C 
HETATM    3  C3  UNL     1     -33.448  15.948  -4.749  1.00 20.00     0.139 C 
HETATM    4  C4  UNL     1     -33.484  13.809  -3.850  1.00 20.00     0.025 C 
HETATM    5  C5  UNL     1     -33.421  15.268  -3.385  1.00 20.00     0.078 C 
HETATM    6  C6  UNL     1     -34.749  14.011  -4.701  1.00 20.00     0.020 C 
HETATM    7  C7  UNL     1     -34.248  15.072  -5.725  1.00 20.00     0.067 C 
HETATM    8  O11 UNL     1     -32.958  17.036  -5.008  1.00 20.00    -0.297 OA
ENDROOT
BRANCH   7   9
HETATM    9  C10 UNL     1     -35.338  15.829  -6.457  1.00 20.00    -0.011 C 
HETATM   10  C8  UNL     1     -34.751  16.684  -7.582  1.00 20.00     0.010 C 
HETATM   11  C9  UNL     1     -36.390  14.869  -7.018  1.00 20.00     0.010 C 
ENDBRANCH   7   9
TORSDOF 1
ENDMDL
MODEL 3
REMARK VINA RESULT:      -4.6      2.009      3.896
REMARK  1 active torsions:
REMARK  status: ('A' for Active; 'I' for Inactive)
REMARK    1  A    between atoms: C7_7  and  C10_10 
ROOT
HETATM    1  C1  UNL     1     -33.874  13.848  -4.456  1.00 20.00    -0.018 C 
HETATM    2  C2  UNL     1     -34.593  13.971  -3.327  1.00 20.00    -0.024 C 
HETATM    3  C3  UNL     1     -33.919  16.205  -4.793  1.00 20.00     0.139 C 
HETATM    4  C4  UNL     1     -35.844  14.929  -5.020  1.00 20.00     0.025 C 
HETATM    5  C5  UNL     1     -34.365  14.890  -5.422  1.00 20.00     0.078 C 
HETATM    6  C6  UNL     1     -35.555  15.128  -3.523  1.00 20.00     0.020 C 
HETATM    7  C7  UNL     1     -34.780  16.479  -3.551  1.00 20.00     0.067 C 
HETATM    8  O11 UNL     1     -32.993  16.898  -5.185  1.00 20.00    -0.297 OA
ENDROOT
BRANCH   7   9
HETATM    9  C10 UNL     1     -33.965  16.782  -2.310  1.00 20.00    -0.011 C 
HETATM   10  C8  UNL     1     -33.534  18.251  -2.282  1.00 20.00     0.010 C 
HETATM   11  C9  UNL     1     -34.750  16.439  -1.041  1.00 20.00     0.010 C 
ENDBRANCH   7   9
TORSDOF 1
ENDMDL
MODEL 4
REMARK VINA RESULT:      -4.4      1.822      3.054
REMARK  1 active torsions:
REMARK  status: ('A' for Active; 'I' for Inactive)
REMARK    1  A    between atoms: C7_7  and  C10_10 
ROOT
HETATM    1  C1  UNL     1     -34.879  14.108  -5.791  1.00 20.00    -0.018 C 
HETATM    2  C2  UNL     1     -34.209  15.226  -5.465  1.00 20.00    -0.024 C 
HETATM    3  C3  UNL     1     -36.262  14.324  -3.864  1.00 20.00     0.139 C 
HETATM    4  C4  UNL     1     -34.014  13.785  -3.666  1.00 20.00     0.025 C 
HETATM    5  C5  UNL     1     -35.234  13.403  -4.512  1.00 20.00     0.078 C 
HETATM    6  C6  UNL     1     -34.140  15.291  -3.950  1.00 20.00     0.020 C 
HETATM    7  C7  UNL     1     -35.548  15.585  -3.356  1.00 20.00     0.067 C 
HETATM    8  O11 UNL     1     -37.464  14.114  -3.808  1.00 20.00    -0.297 OA
ENDROOT
BRANCH   7   9
HETATM    9  C10 UNL     1     -36.194  16.873  -3.828  1.00 20.00    -0.011 C 
HETATM   10  C8  UNL     1     -37.433  17.204  -2.993  1.00 20.00     0.010 C 
HETATM   11  C9  UNL     1     -35.199  18.035  -3.779  1.00 20.00     0.010 C 
ENDBRANCH   7   9
TORSDOF 1
ENDMDL
MODEL 5
REMARK VINA RESULT:      -4.4      1.817      2.650
REMARK  1 active torsions:
REMARK  status: ('A' for Active; 'I' for Inactive)
REMARK    1  A    between atoms: C7_7  and  C10_10 
ROOT
HETATM    1  C1  UNL     1     -33.684  16.206  -2.965  1.00 20.00    -0.018 C 
HETATM    2  C2  UNL     1     -34.729  15.452  -2.583  1.00 20.00    -0.024 C 
HETATM    3  C3  UNL     1     -34.028  15.607  -5.244  1.00 20.00     0.139 C 
HETATM    4  C4  UNL     1     -33.268  14.049  -3.701  1.00 20.00     0.025 C 
HETATM    5  C5  UNL     1     -33.013  15.503  -4.111  1.00 20.00     0.078 C 
HETATM    6  C6  UNL     1     -34.780  14.246  -3.504  1.00 20.00     0.020 C 
HETATM    7  C7  UNL     1     -35.210  14.676  -4.937  1.00 20.00     0.067 C 
HETATM    8  O11 UNL     1     -33.937  16.349  -6.210  1.00 20.00    -0.297 OA
ENDROOT
BRANCH   7   9
HETATM    9  C10 UNL     1     -36.557  15.365  -5.029  1.00 20.00    -0.011 C 
HETATM   10  C8  UNL     1     -37.085  15.346  -6.466  1.00 20.00     0.010 C 
HETATM   11  C9  UNL     1     -37.571  14.713  -4.086  1.00 20.00     0.010 C 
ENDBRANCH   7   9
TORSDOF 1
ENDMDL
MODEL 6
REMARK VINA RESULT:      -4.4      1.300      1.838
REMARK  1 active torsions:
REMARK  status: ('A' for Active; 'I' for Inactive)
REMARK    1  A    between atoms: C7_7  and  C10_10 
ROOT
HETATM    1  C1  UNL     1     -33.746  13.672  -4.110  1.00 20.00    -0.018 C 
HETATM    2  C2  UNL     1     -33.557  14.930  -3.677  1.00 20.00    -0.024 C 
HETATM    3  C3  UNL     1     -35.221  14.435  -5.818  1.00 20.00     0.139 C 
HETATM    4  C4  UNL     1     -35.834  14.527  -3.582  1.00 20.00     0.025 C 
HETATM    5  C5  UNL     1     -35.173  13.560  -4.570  1.00 20.00     0.078 C 
HETATM    6  C6  UNL     1     -34.861  15.681  -3.877  1.00 20.00     0.020 C 
HETATM    7  C7  UNL     1     -35.128  15.908  -5.394  1.00 20.00     0.067 C 
HETATM    8  O11 UNL     1     -35.271  14.026  -6.967  1.00 20.00    -0.297 OA
ENDROOT
BRANCH   7   9
HETATM    9  C10 UNL     1     -34.051  16.679  -6.132  1.00 20.00    -0.011 C 
HETATM   10  C8  UNL     1     -34.561  17.171  -7.489  1.00 20.00     0.010 C 
HETATM   11  C9  UNL     1     -33.553  17.860  -5.297  1.00 20.00     0.010 C 
ENDBRANCH   7   9
TORSDOF 1
ENDMDL
MODEL 7
REMARK VINA RESULT:      -4.3      2.194      3.242
REMARK  1 active torsions:
REMARK  status: ('A' for Active; 'I' for Inactive)
REMARK    1  A    between atoms: C7_7  and  C10_10 
ROOT
HETATM    1  C1  UNL     1     -34.874  18.076  -3.227  1.00 20.00    -0.018 C 
HETATM    2  C2  UNL     1     -35.912  17.288  -2.899  1.00 20.00    -0.024 C 
HETATM    3  C3  UNL     1     -33.483  16.174  -3.573  1.00 20.00     0.139 C 
HETATM    4  C4  UNL     1     -34.192  16.762  -1.444  1.00 20.00     0.025 C 
HETATM    5  C5  UNL     1     -33.626  17.420  -2.707  1.00 20.00     0.078 C 
HETATM    6  C6  UNL     1     -35.353  16.073  -2.180  1.00 20.00     0.020 C 
HETATM    7  C7  UNL     1     -34.572  15.166  -3.175  1.00 20.00     0.067 C 
HETATM    8  O11 UNL     1     -32.670  16.025  -4.472  1.00 20.00    -0.297 OA
ENDROOT
BRANCH   7   9
HETATM    9  C10 UNL     1     -35.377  14.655  -4.354  1.00 20.00    -0.011 C 
HETATM   10  C8  UNL     1     -34.787  13.351  -4.896  1.00 20.00     0.010 C 
HETATM   11  C9  UNL     1     -36.844  14.449  -3.967  1.00 20.00     0.010 C 
ENDBRANCH   7   9
TORSDOF 1
ENDMDL
MODEL 8
REMARK VINA RESULT:      -4.3      1.721      3.717
REMARK  1 active torsions:
REMARK  status: ('A' for Active; 'I' for Inactive)
REMARK    1  A    between atoms: C7_7  and  C10_10 
ROOT
HETATM    1  C1  UNL     1     -35.327  13.354  -4.304  1.00 20.00    -0.018 C 
HETATM    2  C2  UNL     1     -36.270  14.282  -4.064  1.00 20.00    -0.024 C 
HETATM    3  C3  UNL     1     -33.604  14.980  -4.060  1.00 20.00     0.139 C 
HETATM    4  C4  UNL     1     -35.045  15.031  -5.878  1.00 20.00     0.025 C 
HETATM    5  C5  UNL     1     -34.221  14.022  -5.072  1.00 20.00     0.078 C 
HETATM    6  C6  UNL     1     -35.778  15.593  -4.648  1.00 20.00     0.020 C 
HETATM    7  C7  UNL     1     -34.579  16.141  -3.818  1.00 20.00     0.067 C 
HETATM    8  O11 UNL     1     -32.532  14.821  -3.497  1.00 20.00    -0.297 OA
ENDROOT
BRANCH   7   9
HETATM    9  C10 UNL     1     -34.868  16.387  -2.350  1.00 20.00    -0.011 C 
HETATM   10  C8  UNL     1     -33.668  17.036  -1.657  1.00 20.00     0.010 C 
HETATM   11  C9  UNL     1     -36.113  17.259  -2.176  1.00 20.00     0.010 C 
ENDBRANCH   7   9
TORSDOF 1
ENDMDL
MODEL 9
REMARK VINA RESULT:      -4.1      1.895      3.868
REMARK  1 active torsions:
REMARK  status: ('A' for Active; 'I' for Inactive)
REMARK    1  A    between atoms: C7_7  and  C10_10 
ROOT
HETATM    1  C1  UNL     1     -34.539  14.836  -7.135  1.00 20.00    -0.018 C 
HETATM    2  C2  UNL     1     -35.777  14.763  -6.617  1.00 20.00    -0.024 C 
HETATM    3  C3  UNL     1     -33.857  16.323  -5.404  1.00 20.00     0.139 C 
HETATM    4  C4  UNL     1     -35.361  17.000  -7.035  1.00 20.00     0.025 C 
HETATM    5  C5  UNL     1     -34.038  16.236  -6.915  1.00 20.00     0.078 C 
HETATM    6  C6  UNL     1     -36.100  16.118  -6.015  1.00 20.00     0.020 C 
HETATM    7  C7  UNL     1     -35.241  16.363  -4.740  1.00 20.00     0.067 C 
HETATM    8  O11 UNL     1     -32.786  16.310  -4.817  1.00 20.00    -0.297 OA
ENDROOT
BRANCH   7   9
HETATM    9  C10 UNL     1     -35.410  15.334  -3.639  1.00 20.00    -0.011 C 
HETATM   10  C8  UNL     1     -34.873  15.864  -2.307  1.00 20.00     0.010 C 
HETATM   11  C9  UNL     1     -36.877  14.925  -3.492  1.00 20.00     0.010 C 
ENDBRANCH   7   9
TORSDOF 1
ENDMDL
