MODEL 1
REMARK VINA RESULT:      -4.8      0.000      0.000
REMARK  0 active torsions:
REMARK  status: ('A' for Active; 'I' for Inactive)
ROOT
HETATM    1  C1  UNL     1     -33.943   5.981   6.066  1.00 20.00    -0.021 C 
HETATM    2  C2  UNL     1     -34.661   5.066   5.392  1.00 20.00    -0.087 C 
HETATM    3  C3  UNL     1     -33.099   7.024   5.391  1.00 20.00     0.068 C 
HETATM    4  C4  UNL     1     -34.697   5.035   3.881  1.00 20.00     0.036 C 
HETATM    5  C5  UNL     1     -34.244   6.345   3.225  1.00 20.00     0.045 C 
HETATM    6  C6  UNL     1     -31.978   7.701   3.146  1.00 20.00     0.153 A 
HETATM    7  C7  UNL     1     -33.014   6.883   3.894  1.00 20.00     0.090 A 
HETATM    8  C8  UNL     1     -35.456   4.005   6.095  1.00 20.00     0.043 C 
HETATM    9  C9  UNL     1     -32.086   8.039   1.703  1.00 20.00     0.042 C 
HETATM   10  O10 UNL     1     -31.784   6.307   3.422  1.00 20.00    -0.369 OA
ENDROOT
TORSDOF 0
ENDMDL
MODEL 2
REMARK VINA RESULT:      -4.5     11.780     12.843
REMARK  0 active torsions:
REMARK  status: ('A' for Active; 'I' for Inactive)
ROOT
HETATM    1  C1  UNL     1     -33.440  16.215  -3.015  1.00 20.00    -0.021 C 
HETATM    2  C2  UNL     1     -34.606  16.184  -2.346  1.00 20.00    -0.087 C 
HETATM    3  C3  UNL     1     -33.314  15.846  -4.466  1.00 20.00     0.068 C 
HETATM    4  C4  UNL     1     -35.903  15.800  -3.020  1.00 20.00     0.036 C 
HETATM    5  C5  UNL     1     -35.855  15.893  -4.550  1.00 20.00     0.045 C 
HETATM    6  C6  UNL     1     -34.498  14.654  -6.449  1.00 20.00     0.153 A 
HETATM    7  C7  UNL     1     -34.580  15.312  -5.084  1.00 20.00     0.090 A 
HETATM    8  C8  UNL     1     -34.691  16.510  -0.884  1.00 20.00     0.043 C 
HETATM    9  C9  UNL     1     -35.659  14.528  -7.369  1.00 20.00     0.042 C 
HETATM   10  O10 UNL     1     -34.602  13.883  -5.244  1.00 20.00    -0.369 OA
ENDROOT
TORSDOF 0
ENDMDL
MODEL 3
REMARK VINA RESULT:      -4.3     11.492     12.789
REMARK  0 active torsions:
REMARK  status: ('A' for Active; 'I' for Inactive)
ROOT
HETATM    1  C1  UNL     1     -33.643  18.368  -2.712  1.00 20.00    -0.021 C 
HETATM    2  C2  UNL     1     -33.888  18.054  -1.428  1.00 20.00    -0.087 C 
HETATM    3  C3  UNL     1     -33.759  17.381  -3.838  1.00 20.00     0.068 C 
HETATM    4  C4  UNL     1     -34.334  16.670  -1.017  1.00 20.00     0.036 C 
HETATM    5  C5  UNL     1     -34.899  15.834  -2.172  1.00 20.00     0.045 C 
HETATM    6  C6  UNL     1     -33.908  14.851  -4.416  1.00 20.00     0.153 A 
HETATM    7  C7  UNL     1     -34.046  15.969  -3.399  1.00 20.00     0.090 A 
HETATM    8  C8  UNL     1     -33.715  19.050  -0.320  1.00 20.00     0.043 C 
HETATM    9  C9  UNL     1     -34.596  13.539  -4.292  1.00 20.00     0.042 C 
HETATM   10  O10 UNL     1     -32.903  15.097  -3.424  1.00 20.00    -0.369 OA
ENDROOT
TORSDOF 0
ENDMDL
MODEL 4
REMARK VINA RESULT:      -4.3     11.997     13.294
REMARK  0 active torsions:
REMARK  status: ('A' for Active; 'I' for Inactive)
ROOT
HETATM    1  C1  UNL     1     -33.677  18.542  -2.295  1.00 20.00    -0.021 C 
HETATM    2  C2  UNL     1     -33.989  17.604  -1.383  1.00 20.00    -0.087 C 
HETATM    3  C3  UNL     1     -33.673  18.283  -3.774  1.00 20.00     0.068 C 
HETATM    4  C4  UNL     1     -34.394  16.205  -1.785  1.00 20.00     0.036 C 
HETATM    5  C5  UNL     1     -34.843  16.087  -3.247  1.00 20.00     0.045 C 
HETATM    6  C6  UNL     1     -33.665  16.421  -5.588  1.00 20.00     0.153 A 
HETATM    7  C7  UNL     1     -33.920  16.846  -4.154  1.00 20.00     0.090 A 
HETATM    8  C8  UNL     1     -33.936  17.881   0.090  1.00 20.00     0.043 C 
HETATM    9  C9  UNL     1     -34.296  15.231  -6.216  1.00 20.00     0.042 C 
HETATM   10  O10 UNL     1     -32.738  16.123  -4.535  1.00 20.00    -0.369 OA
ENDROOT
TORSDOF 0
ENDMDL
MODEL 5
REMARK VINA RESULT:      -4.3     11.934     13.300
REMARK  0 active torsions:
REMARK  status: ('A' for Active; 'I' for Inactive)
ROOT
HETATM    1  C1  UNL     1     -33.778  15.983  -5.886  1.00 20.00    -0.021 C 
HETATM    2  C2  UNL     1     -34.779  15.090  -5.984  1.00 20.00    -0.087 C 
HETATM    3  C3  UNL     1     -33.380  16.634  -4.593  1.00 20.00     0.068 C 
HETATM    4  C4  UNL     1     -35.571  14.646  -4.777  1.00 20.00     0.036 C 
HETATM    5  C5  UNL     1     -34.875  14.931  -3.440  1.00 20.00     0.045 C 
HETATM    6  C6  UNL     1     -34.138  17.118  -2.154  1.00 20.00     0.153 A 
HETATM    7  C7  UNL     1     -34.278  16.307  -3.429  1.00 20.00     0.090 A 
HETATM    8  C8  UNL     1     -35.186  14.494  -7.299  1.00 20.00     0.043 C 
HETATM    9  C9  UNL     1     -34.574  16.631  -0.820  1.00 20.00     0.042 C 
HETATM   10  O10 UNL     1     -35.205  17.351  -3.085  1.00 20.00    -0.369 OA
ENDROOT
TORSDOF 0
ENDMDL
MODEL 6
REMARK VINA RESULT:      -4.2      9.845     10.945
REMARK  0 active torsions:
REMARK  status: ('A' for Active; 'I' for Inactive)
ROOT
HETATM    1  C1  UNL     1     -40.868   3.956  -1.766  1.00 20.00    -0.021 C 
HETATM    2  C2  UNL     1     -41.802   3.522  -2.631  1.00 20.00    -0.087 C 
HETATM    3  C3  UNL     1     -40.964   5.268  -1.042  1.00 20.00     0.068 C 
HETATM    4  C4  UNL     1     -43.052   4.319  -2.920  1.00 20.00     0.036 C 
HETATM    5  C5  UNL     1     -43.369   5.380  -1.859  1.00 20.00     0.045 C 
HETATM    6  C6  UNL     1     -42.168   7.572  -1.002  1.00 20.00     0.153 A 
HETATM    7  C7  UNL     1     -42.130   6.125  -1.459  1.00 20.00     0.090 A 
HETATM    8  C8  UNL     1     -41.654   2.229  -3.376  1.00 20.00     0.043 C 
HETATM    9  C9  UNL     1     -43.417   8.371  -0.910  1.00 20.00     0.042 C 
HETATM   10  O10 UNL     1     -41.783   7.211  -2.335  1.00 20.00    -0.369 OA
ENDROOT
TORSDOF 0
ENDMDL
MODEL 7
REMARK VINA RESULT:      -4.1     11.510     13.020
REMARK  0 active torsions:
REMARK  status: ('A' for Active; 'I' for Inactive)
ROOT
HETATM    1  C1  UNL     1     -34.397  14.112  -4.923  1.00 20.00    -0.021 C 
HETATM    2  C2  UNL     1     -34.660  15.072  -5.828  1.00 20.00    -0.087 C 
HETATM    3  C3  UNL     1     -34.457  14.340  -3.440  1.00 20.00     0.068 C 
HETATM    4  C4  UNL     1     -35.072  16.466  -5.414  1.00 20.00     0.036 C 
HETATM    5  C5  UNL     1     -35.585  16.557  -3.971  1.00 20.00     0.045 C 
HETATM    6  C6  UNL     1     -34.515  16.163  -1.588  1.00 20.00     0.153 A 
HETATM    7  C7  UNL     1     -34.710  15.770  -3.041  1.00 20.00     0.090 A 
HETATM    8  C8  UNL     1     -34.543  14.827  -7.303  1.00 20.00     0.043 C 
HETATM    9  C9  UNL     1     -35.164  17.345  -0.963  1.00 20.00     0.042 C 
HETATM   10  O10 UNL     1     -33.540  16.475  -2.592  1.00 20.00    -0.369 OA
ENDROOT
TORSDOF 0
ENDMDL
MODEL 8
REMARK VINA RESULT:      -4.1     11.590     12.286
REMARK  0 active torsions:
REMARK  status: ('A' for Active; 'I' for Inactive)
ROOT
HETATM    1  C1  UNL     1     -35.983  14.981  -3.662  1.00 20.00    -0.021 C 
HETATM    2  C2  UNL     1     -34.823  14.365  -3.950  1.00 20.00    -0.087 C 
HETATM    3  C3  UNL     1     -36.070  16.208  -2.800  1.00 20.00     0.068 C 
HETATM    4  C4  UNL     1     -33.497  14.885  -3.447  1.00 20.00     0.036 C 
HETATM    5  C5  UNL     1     -33.539  16.350  -2.994  1.00 20.00     0.045 C 
HETATM    6  C6  UNL     1     -34.787  17.670  -1.075  1.00 20.00     0.153 A 
HETATM    7  C7  UNL     1     -34.765  16.623  -2.174  1.00 20.00     0.090 A 
HETATM    8  C8  UNL     1     -34.773  13.111  -4.773  1.00 20.00     0.043 C 
HETATM    9  C9  UNL     1     -33.614  18.508  -0.717  1.00 20.00     0.042 C 
HETATM   10  O10 UNL     1     -34.638  16.273  -0.785  1.00 20.00    -0.369 OA
ENDROOT
TORSDOF 0
ENDMDL
MODEL 9
REMARK VINA RESULT:      -4.0     11.024     13.179
REMARK  0 active torsions:
REMARK  status: ('A' for Active; 'I' for Inactive)
ROOT
HETATM    1  C1  UNL     1     -37.567  15.125  -5.403  1.00 20.00    -0.021 C 
HETATM    2  C2  UNL     1     -37.168  14.999  -6.681  1.00 20.00    -0.087 C 
HETATM    3  C3  UNL     1     -36.663  14.873  -4.231  1.00 20.00     0.068 C 
HETATM    4  C4  UNL     1     -35.751  14.619  -7.041  1.00 20.00     0.036 C 
HETATM    5  C5  UNL     1     -34.746  14.829  -5.901  1.00 20.00     0.045 C 
HETATM    6  C6  UNL     1     -34.417  13.790  -3.494  1.00 20.00     0.153 A 
HETATM    7  C7  UNL     1     -35.303  14.339  -4.598  1.00 20.00     0.090 A 
HETATM    8  C8  UNL     1     -38.109  15.210  -7.831  1.00 20.00     0.043 C 
HETATM    9  C9  UNL     1     -32.939  13.690  -3.602  1.00 20.00     0.042 C 
HETATM   10  O10 UNL     1     -35.143  12.927  -4.379  1.00 20.00    -0.369 OA
ENDROOT
TORSDOF 0
ENDMDL
