MODEL 1
REMARK VINA RESULT:      -3.7      0.000      0.000
REMARK  1 active torsions:
REMARK  status: ('A' for Active; 'I' for Inactive)
REMARK    1  A    between atoms: C3_3  and  C7_7 
ROOT
HETATM    1  C1  UNL     1     -34.126  13.922  -3.557  1.00 20.00     0.089 C 
HETATM    2  C2  UNL     1     -35.528  14.370  -3.946  1.00 20.00     0.053 C 
HETATM    3  C3  UNL     1     -34.128  16.596  -3.141  1.00 20.00     0.112 C 
HETATM    4  C4  UNL     1     -35.735  14.502  -5.454  1.00 20.00     0.022 C 
HETATM    5  S8  UNL     1     -32.990  15.319  -3.759  1.00 20.00    -0.152 SA
HETATM    6  S9  UNL     1     -35.840  15.966  -3.124  1.00 20.00    -0.148 SA
ENDROOT
BRANCH   3   7
HETATM    7  C7  UNL     1     -33.725  17.013  -1.733  1.00 20.00     0.001 C 
HETATM    8  C5  UNL     1     -33.480  18.521  -1.666  1.00 20.00     0.011 C 
HETATM    9  C6  UNL     1     -34.791  16.600  -0.720  1.00 20.00     0.011 C 
ENDBRANCH   3   7
TORSDOF 1
ENDMDL
MODEL 2
REMARK VINA RESULT:      -3.7      1.352      2.078
REMARK  1 active torsions:
REMARK  status: ('A' for Active; 'I' for Inactive)
REMARK    1  A    between atoms: C3_3  and  C7_7 
ROOT
HETATM    1  C1  UNL     1     -35.994  16.083  -4.896  1.00 20.00     0.089 C 
HETATM    2  C2  UNL     1     -34.817  16.093  -5.861  1.00 20.00     0.053 C 
HETATM    3  C3  UNL     1     -33.823  15.709  -3.325  1.00 20.00     0.112 C 
HETATM    4  C4  UNL     1     -34.626  14.776  -6.611  1.00 20.00     0.022 C 
HETATM    5  S8  UNL     1     -35.540  15.121  -3.430  1.00 20.00    -0.152 SA
HETATM    6  S9  UNL     1     -33.323  16.491  -4.896  1.00 20.00    -0.148 SA
ENDROOT
BRANCH   3   7
HETATM    7  C7  UNL     1     -33.687  16.716  -2.190  1.00 20.00     0.001 C 
HETATM    8  C5  UNL     1     -33.795  18.146  -2.720  1.00 20.00     0.011 C 
HETATM    9  C6  UNL     1     -34.743  16.464  -1.114  1.00 20.00     0.011 C 
ENDBRANCH   3   7
TORSDOF 1
ENDMDL
MODEL 3
REMARK VINA RESULT:      -3.7      1.877      4.372
REMARK  1 active torsions:
REMARK  status: ('A' for Active; 'I' for Inactive)
REMARK    1  A    between atoms: C3_3  and  C7_7 
ROOT
HETATM    1  C1  UNL     1     -32.962  15.020  -3.589  1.00 20.00     0.089 C 
HETATM    2  C2  UNL     1     -33.728  16.265  -3.164  1.00 20.00     0.053 C 
HETATM    3  C3  UNL     1     -35.016  15.187  -5.342  1.00 20.00     0.112 C 
HETATM    4  C4  UNL     1     -34.642  16.043  -1.959  1.00 20.00     0.022 C 
HETATM    5  S8  UNL     1     -34.098  13.899  -4.445  1.00 20.00    -0.152 SA
HETATM    6  S9  UNL     1     -34.702  16.824  -4.599  1.00 20.00    -0.148 SA
ENDROOT
BRANCH   3   7
HETATM    7  C7  UNL     1     -34.594  15.203  -6.805  1.00 20.00     0.001 C 
HETATM    8  C5  UNL     1     -35.575  14.399  -7.659  1.00 20.00     0.011 C 
HETATM    9  C6  UNL     1     -34.487  16.637  -7.323  1.00 20.00     0.011 C 
ENDBRANCH   3   7
TORSDOF 1
ENDMDL
MODEL 4
REMARK VINA RESULT:      -3.6      1.174      2.267
REMARK  1 active torsions:
REMARK  status: ('A' for Active; 'I' for Inactive)
REMARK    1  A    between atoms: C3_3  and  C7_7 
ROOT
HETATM    1  C1  UNL     1     -35.674  15.516  -5.030  1.00 20.00     0.089 C 
HETATM    2  C2  UNL     1     -34.352  14.764  -4.959  1.00 20.00     0.053 C 
HETATM    3  C3  UNL     1     -34.967  15.624  -2.421  1.00 20.00     0.112 C 
HETATM    4  C4  UNL     1     -34.509  13.244  -4.958  1.00 20.00     0.022 C 
HETATM    5  S8  UNL     1     -36.480  15.433  -3.410  1.00 20.00    -0.152 SA
HETATM    6  S9  UNL     1     -33.492  15.311  -3.448  1.00 20.00    -0.148 SA
ENDROOT
BRANCH   3   7
HETATM    7  C7  UNL     1     -34.896  17.033  -1.846  1.00 20.00     0.001 C 
HETATM    8  C5  UNL     1     -34.666  16.990  -0.336  1.00 20.00     0.011 C 
HETATM    9  C6  UNL     1     -33.796  17.843  -2.531  1.00 20.00     0.011 C 
ENDBRANCH   3   7
TORSDOF 1
ENDMDL
MODEL 5
REMARK VINA RESULT:      -3.5      1.870      3.134
REMARK  1 active torsions:
REMARK  status: ('A' for Active; 'I' for Inactive)
REMARK    1  A    between atoms: C3_3  and  C7_7 
ROOT
HETATM    1  C1  UNL     1     -34.289  16.162  -6.488  1.00 20.00     0.089 C 
HETATM    2  C2  UNL     1     -34.787  14.810  -6.980  1.00 20.00     0.053 C 
HETATM    3  C3  UNL     1     -35.273  14.953  -4.276  1.00 20.00     0.112 C 
HETATM    4  C4  UNL     1     -36.146  14.872  -7.674  1.00 20.00     0.022 C 
HETATM    5  S8  UNL     1     -35.216  16.620  -5.000  1.00 20.00    -0.152 SA
HETATM    6  S9  UNL     1     -34.865  13.699  -5.537  1.00 20.00    -0.148 SA
ENDROOT
BRANCH   3   7
HETATM    7  C7  UNL     1     -34.285  14.854  -3.121  1.00 20.00     0.001 C 
HETATM    8  C5  UNL     1     -33.009  14.136  -3.563  1.00 20.00     0.011 C 
HETATM    9  C6  UNL     1     -33.955  16.240  -2.571  1.00 20.00     0.011 C 
ENDBRANCH   3   7
TORSDOF 1
ENDMDL
MODEL 6
REMARK VINA RESULT:      -3.5      1.343      4.205
REMARK  1 active torsions:
REMARK  status: ('A' for Active; 'I' for Inactive)
REMARK    1  A    between atoms: C3_3  and  C7_7 
ROOT
HETATM    1  C1  UNL     1     -34.570  17.332  -3.865  1.00 20.00     0.089 C 
HETATM    2  C2  UNL     1     -35.394  16.639  -2.789  1.00 20.00     0.053 C 
HETATM    3  C3  UNL     1     -34.687  14.748  -4.657  1.00 20.00     0.112 C 
HETATM    4  C4  UNL     1     -34.604  16.320  -1.521  1.00 20.00     0.022 C 
HETATM    5  S8  UNL     1     -33.485  16.112  -4.648  1.00 20.00    -0.152 SA
HETATM    6  S9  UNL     1     -36.065  15.108  -3.516  1.00 20.00    -0.148 SA
ENDROOT
BRANCH   3   7
HETATM    7  C7  UNL     1     -35.232  14.545  -6.065  1.00 20.00     0.001 C 
HETATM    8  C5  UNL     1     -36.631  15.149  -6.194  1.00 20.00     0.011 C 
HETATM    9  C6  UNL     1     -34.290  15.153  -7.103  1.00 20.00     0.011 C 
ENDBRANCH   3   7
TORSDOF 1
ENDMDL
MODEL 7
REMARK VINA RESULT:      -3.5      0.961      1.526
REMARK  1 active torsions:
REMARK  status: ('A' for Active; 'I' for Inactive)
REMARK    1  A    between atoms: C3_3  and  C7_7 
ROOT
HETATM    1  C1  UNL     1     -33.343  14.457  -3.785  1.00 20.00     0.089 C 
HETATM    2  C2  UNL     1     -34.742  13.914  -4.044  1.00 20.00     0.053 C 
HETATM    3  C3  UNL     1     -34.953  16.629  -3.661  1.00 20.00     0.112 C 
HETATM    4  C4  UNL     1     -35.037  13.654  -5.520  1.00 20.00     0.022 C 
HETATM    5  S8  UNL     1     -33.295  16.201  -4.274  1.00 20.00    -0.152 SA
HETATM    6  S9  UNL     1     -35.930  15.118  -3.365  1.00 20.00    -0.148 SA
ENDROOT
BRANCH   3   7
HETATM    7  C7  UNL     1     -34.839  17.423  -2.367  1.00 20.00     0.001 C 
HETATM    8  C5  UNL     1     -34.674  16.485  -1.171  1.00 20.00     0.011 C 
HETATM    9  C6  UNL     1     -33.674  18.409  -2.437  1.00 20.00     0.011 C 
ENDBRANCH   3   7
TORSDOF 1
ENDMDL
MODEL 8
REMARK VINA RESULT:      -3.4      1.952      4.175
REMARK  1 active torsions:
REMARK  status: ('A' for Active; 'I' for Inactive)
REMARK    1  A    between atoms: C3_3  and  C7_7 
ROOT
HETATM    1  C1  UNL     1     -36.090  16.504  -3.489  1.00 20.00     0.089 C 
HETATM    2  C2  UNL     1     -35.166  15.642  -2.639  1.00 20.00     0.053 C 
HETATM    3  C3  UNL     1     -33.777  16.400  -4.889  1.00 20.00     0.112 C 
HETATM    4  C4  UNL     1     -34.539  16.389  -1.464  1.00 20.00     0.022 C 
HETATM    5  S8  UNL     1     -35.083  17.608  -4.512  1.00 20.00    -0.152 SA
HETATM    6  S9  UNL     1     -33.867  14.988  -3.737  1.00 20.00    -0.148 SA
ENDROOT
BRANCH   3   7
HETATM    7  C7  UNL     1     -33.930  15.900  -6.320  1.00 20.00     0.001 C 
HETATM    8  C5  UNL     1     -34.723  14.593  -6.353  1.00 20.00     0.011 C 
HETATM    9  C6  UNL     1     -34.605  16.956  -7.193  1.00 20.00     0.011 C 
ENDBRANCH   3   7
TORSDOF 1
ENDMDL
MODEL 9
REMARK VINA RESULT:      -3.4      2.453      3.306
REMARK  1 active torsions:
REMARK  status: ('A' for Active; 'I' for Inactive)
REMARK    1  A    between atoms: C3_3  and  C7_7 
ROOT
HETATM    1  C1  UNL     1     -35.711  16.409  -5.979  1.00 20.00     0.089 C 
HETATM    2  C2  UNL     1     -35.038  17.774  -5.954  1.00 20.00     0.053 C 
HETATM    3  C3  UNL     1     -33.293  15.957  -4.852  1.00 20.00     0.112 C 
HETATM    4  C4  UNL     1     -34.446  18.192  -7.299  1.00 20.00     0.022 C 
HETATM    5  S8  UNL     1     -34.431  15.128  -6.002  1.00 20.00    -0.152 SA
HETATM    6  S9  UNL     1     -33.735  17.719  -4.681  1.00 20.00    -0.148 SA
ENDROOT
BRANCH   3   7
HETATM    7  C7  UNL     1     -33.351  15.284  -3.487  1.00 20.00     0.001 C 
HETATM    8  C5  UNL     1     -34.016  16.201  -2.460  1.00 20.00     0.011 C 
HETATM    9  C6  UNL     1     -34.093  13.951  -3.572  1.00 20.00     0.011 C 
ENDBRANCH   3   7
TORSDOF 1
ENDMDL
