MODEL 1
REMARK VINA RESULT:      -4.5      0.000      0.000
REMARK  1 active torsions:
REMARK  status: ('A' for Active; 'I' for Inactive)
REMARK    1  A    between atoms: C3_3  and  C9_9 
ROOT
HETATM    1  C1  UNL     1     -33.286  15.894  -5.005  1.00 20.00     0.178 C 
HETATM    2  C2  UNL     1     -35.801  15.607  -4.747  1.00 20.00     0.087 C 
HETATM    3  C3  UNL     1     -34.114  16.886  -3.008  1.00 20.00     0.185 C 
HETATM    4  C4  UNL     1     -34.499  14.985  -5.302  1.00 20.00    -0.018 C 
HETATM    5  C5  UNL     1     -34.641  14.837  -6.829  1.00 20.00     0.018 C 
HETATM    6  C6  UNL     1     -34.266  13.584  -4.701  1.00 20.00     0.018 C 
HETATM    7  O10 UNL     1     -33.086  16.095  -3.607  1.00 20.00    -0.374 OA
HETATM    8  S11 UNL     1     -35.721  16.036  -2.982  1.00 20.00    -0.136 SA
ENDROOT
BRANCH   3   9
HETATM    9  C9  UNL     1     -33.689  17.181  -1.576  1.00 20.00     0.017 C 
HETATM   10  C7  UNL     1     -33.408  18.672  -1.391  1.00 20.00     0.013 C 
HETATM   11  C8  UNL     1     -34.756  16.713  -0.588  1.00 20.00     0.013 C 
ENDBRANCH   3   9
TORSDOF 1
ENDMDL
MODEL 2
REMARK VINA RESULT:      -4.2      1.302      1.777
REMARK  1 active torsions:
REMARK  status: ('A' for Active; 'I' for Inactive)
REMARK    1  A    between atoms: C3_3  and  C9_9 
ROOT
HETATM    1  C1  UNL     1     -34.753  14.480  -3.425  1.00 20.00     0.178 C 
HETATM    2  C2  UNL     1     -33.993  16.075  -5.256  1.00 20.00     0.087 C 
HETATM    3  C3  UNL     1     -33.658  16.404  -2.557  1.00 20.00     0.185 C 
HETATM    4  C4  UNL     1     -35.054  15.034  -4.836  1.00 20.00    -0.018 C 
HETATM    5  C5  UNL     1     -35.017  13.867  -5.840  1.00 20.00     0.018 C 
HETATM    6  C6  UNL     1     -36.466  15.653  -4.867  1.00 20.00     0.018 C 
HETATM    7  O10 UNL     1     -34.757  15.501  -2.429  1.00 20.00    -0.374 OA
HETATM    8  S11 UNL     1     -33.765  17.424  -4.059  1.00 20.00    -0.136 SA
ENDROOT
BRANCH   3   9
HETATM    9  C9  UNL     1     -33.671  17.318  -1.339  1.00 20.00     0.017 C 
HETATM   10  C7  UNL     1     -33.849  18.778  -1.759  1.00 20.00     0.013 C 
HETATM   11  C8  UNL     1     -34.773  16.905  -0.365  1.00 20.00     0.013 C 
ENDBRANCH   3   9
TORSDOF 1
ENDMDL
MODEL 3
REMARK VINA RESULT:      -4.2      1.413      1.898
REMARK  1 active torsions:
REMARK  status: ('A' for Active; 'I' for Inactive)
REMARK    1  A    between atoms: C3_3  and  C9_9 
ROOT
HETATM    1  C1  UNL     1     -35.905  16.285  -5.114  1.00 20.00     0.178 C 
HETATM    2  C2  UNL     1     -34.629  14.085  -5.169  1.00 20.00     0.087 C 
HETATM    3  C3  UNL     1     -34.667  15.903  -3.120  1.00 20.00     0.185 C 
HETATM    4  C4  UNL     1     -35.174  15.261  -6.009  1.00 20.00    -0.018 C 
HETATM    5  C5  UNL     1     -36.176  14.702  -7.037  1.00 20.00     0.018 C 
HETATM    6  C6  UNL     1     -34.032  15.956  -6.778  1.00 20.00     0.018 C 
HETATM    7  O10 UNL     1     -35.050  16.847  -4.121  1.00 20.00    -0.374 OA
HETATM    8  S11 UNL     1     -33.583  14.597  -3.772  1.00 20.00    -0.136 SA
ENDROOT
BRANCH   3   9
HETATM    9  C9  UNL     1     -33.921  16.665  -2.033  1.00 20.00     0.017 C 
HETATM   10  C7  UNL     1     -33.694  18.119  -2.449  1.00 20.00     0.013 C 
HETATM   11  C8  UNL     1     -34.681  16.602  -0.709  1.00 20.00     0.013 C 
ENDBRANCH   3   9
TORSDOF 1
ENDMDL
MODEL 4
REMARK VINA RESULT:      -4.2      1.772      4.612
REMARK  1 active torsions:
REMARK  status: ('A' for Active; 'I' for Inactive)
REMARK    1  A    between atoms: C3_3  and  C9_9 
ROOT
HETATM    1  C1  UNL     1     -34.234  16.924  -3.976  1.00 20.00     0.178 C 
HETATM    2  C2  UNL     1     -34.505  14.480  -3.321  1.00 20.00     0.087 C 
HETATM    3  C3  UNL     1     -34.097  15.461  -5.846  1.00 20.00     0.185 C 
HETATM    4  C4  UNL     1     -34.900  15.937  -2.992  1.00 20.00    -0.018 C 
HETATM    5  C5  UNL     1     -34.417  16.263  -1.566  1.00 20.00     0.018 C 
HETATM    6  C6  UNL     1     -36.432  16.108  -3.034  1.00 20.00     0.018 C 
HETATM    7  O10 UNL     1     -34.619  16.686  -5.329  1.00 20.00    -0.374 OA
HETATM    8  S11 UNL     1     -34.823  13.999  -5.045  1.00 20.00    -0.136 SA
ENDROOT
BRANCH   3   9
HETATM    9  C9  UNL     1     -34.418  15.418  -7.334  1.00 20.00     0.017 C 
HETATM   10  C7  UNL     1     -35.510  14.388  -7.623  1.00 20.00     0.013 C 
HETATM   11  C8  UNL     1     -34.840  16.798  -7.836  1.00 20.00     0.013 C 
ENDBRANCH   3   9
TORSDOF 1
ENDMDL
MODEL 5
REMARK VINA RESULT:      -4.1      1.664      4.613
REMARK  1 active torsions:
REMARK  status: ('A' for Active; 'I' for Inactive)
REMARK    1  A    between atoms: C3_3  and  C9_9 
ROOT
HETATM    1  C1  UNL     1     -36.322  16.439  -3.140  1.00 20.00     0.178 C 
HETATM    2  C2  UNL     1     -34.215  17.849  -3.356  1.00 20.00     0.087 C 
HETATM    3  C3  UNL     1     -34.942  15.742  -4.948  1.00 20.00     0.185 C 
HETATM    4  C4  UNL     1     -35.262  17.267  -2.380  1.00 20.00    -0.018 C 
HETATM    5  C5  UNL     1     -35.968  18.435  -1.668  1.00 20.00     0.018 C 
HETATM    6  C6  UNL     1     -34.579  16.391  -1.310  1.00 20.00     0.018 C 
HETATM    7  O10 UNL     1     -35.750  15.336  -3.841  1.00 20.00    -0.374 OA
HETATM    8  S11 UNL     1     -33.431  16.607  -4.427  1.00 20.00    -0.136 SA
ENDROOT
BRANCH   3   9
HETATM    9  C9  UNL     1     -34.552  14.485  -5.715  1.00 20.00     0.017 C 
HETATM   10  C7  UNL     1     -34.738  13.241  -4.846  1.00 20.00     0.013 C 
HETATM   11  C8  UNL     1     -35.365  14.362  -7.003  1.00 20.00     0.013 C 
ENDBRANCH   3   9
TORSDOF 1
ENDMDL
MODEL 6
REMARK VINA RESULT:      -4.1      1.356      4.505
REMARK  1 active torsions:
REMARK  status: ('A' for Active; 'I' for Inactive)
REMARK    1  A    between atoms: C3_3  and  C9_9 
ROOT
HETATM    1  C1  UNL     1     -33.544  15.839  -2.953  1.00 20.00     0.178 C 
HETATM    2  C2  UNL     1     -35.831  16.952  -2.984  1.00 20.00     0.087 C 
HETATM    3  C3  UNL     1     -34.513  15.864  -5.125  1.00 20.00     0.185 C 
HETATM    4  C4  UNL     1     -34.438  16.925  -2.316  1.00 20.00    -0.018 C 
HETATM    5  C5  UNL     1     -34.620  16.598  -0.822  1.00 20.00     0.018 C 
HETATM    6  C6  UNL     1     -33.753  18.302  -2.429  1.00 20.00     0.018 C 
HETATM    7  O10 UNL     1     -33.331  16.058  -4.347  1.00 20.00    -0.374 OA
HETATM    8  S11 UNL     1     -35.781  17.125  -4.793  1.00 20.00    -0.136 SA
ENDROOT
BRANCH   3   9
HETATM    9  C9  UNL     1     -34.113  15.942  -6.592  1.00 20.00     0.017 C 
HETATM   10  C7  UNL     1     -34.715  14.777  -7.380  1.00 20.00     0.013 C 
HETATM   11  C8  UNL     1     -34.544  17.276  -7.201  1.00 20.00     0.013 C 
ENDBRANCH   3   9
TORSDOF 1
ENDMDL
MODEL 7
REMARK VINA RESULT:      -4.0      2.142      4.735
REMARK  1 active torsions:
REMARK  status: ('A' for Active; 'I' for Inactive)
REMARK    1  A    between atoms: C3_3  and  C9_9 
ROOT
HETATM    1  C1  UNL     1     -36.079  15.623  -3.638  1.00 20.00     0.178 C 
HETATM    2  C2  UNL     1     -33.787  16.591  -4.171  1.00 20.00     0.087 C 
HETATM    3  C3  UNL     1     -35.820  16.127  -5.947  1.00 20.00     0.185 C 
HETATM    4  C4  UNL     1     -34.582  15.632  -3.256  1.00 20.00    -0.018 C 
HETATM    5  C5  UNL     1     -34.448  16.122  -1.802  1.00 20.00     0.018 C 
HETATM    6  C6  UNL     1     -34.010  14.202  -3.339  1.00 20.00     0.018 C 
HETATM    7  O10 UNL     1     -36.296  15.190  -4.979  1.00 20.00    -0.374 OA
HETATM    8  S11 UNL     1     -34.008  16.271  -5.947  1.00 20.00    -0.136 SA
ENDROOT
BRANCH   3   9
HETATM    9  C9  UNL     1     -36.276  15.641  -7.317  1.00 20.00     0.017 C 
HETATM   10  C7  UNL     1     -35.426  14.458  -7.782  1.00 20.00     0.013 C 
HETATM   11  C8  UNL     1     -37.755  15.257  -7.291  1.00 20.00     0.013 C 
ENDBRANCH   3   9
TORSDOF 1
ENDMDL
MODEL 8
REMARK VINA RESULT:      -3.9      1.876      4.821
REMARK  1 active torsions:
REMARK  status: ('A' for Active; 'I' for Inactive)
REMARK    1  A    between atoms: C3_3  and  C9_9 
ROOT
HETATM    1  C1  UNL     1     -34.630  16.758  -0.604  1.00 20.00     0.178 C 
HETATM    2  C2  UNL     1     -34.814  19.113  -1.550  1.00 20.00     0.087 C 
HETATM    3  C3  UNL     1     -34.583  16.789  -2.982  1.00 20.00     0.185 C 
HETATM    4  C4  UNL     1     -34.306  18.251  -0.373  1.00 20.00    -0.018 C 
HETATM    5  C5  UNL     1     -35.016  18.714   0.914  1.00 20.00     0.018 C 
HETATM    6  C6  UNL     1     -32.787  18.435  -0.179  1.00 20.00     0.018 C 
HETATM    7  O10 UNL     1     -34.019  16.246  -1.787  1.00 20.00    -0.374 OA
HETATM    8  S11 UNL     1     -34.226  18.561  -3.179  1.00 20.00    -0.136 SA
ENDROOT
BRANCH   3   9
HETATM    9  C9  UNL     1     -33.981  16.032  -4.158  1.00 20.00     0.017 C 
HETATM   10  C7  UNL     1     -33.385  17.001  -5.179  1.00 20.00     0.013 C 
HETATM   11  C8  UNL     1     -32.920  15.042  -3.679  1.00 20.00     0.013 C 
ENDBRANCH   3   9
TORSDOF 1
ENDMDL
MODEL 9
REMARK VINA RESULT:      -3.9      1.694      4.748
REMARK  1 active torsions:
REMARK  status: ('A' for Active; 'I' for Inactive)
REMARK    1  A    between atoms: C3_3  and  C9_9 
ROOT
HETATM    1  C1  UNL     1     -34.349  16.342  -1.502  1.00 20.00     0.178 C 
HETATM    2  C2  UNL     1     -35.169  18.747  -1.638  1.00 20.00     0.087 C 
HETATM    3  C3  UNL     1     -34.317  17.189  -3.725  1.00 20.00     0.185 C 
HETATM    4  C4  UNL     1     -34.443  17.698  -0.767  1.00 20.00    -0.018 C 
HETATM    5  C5  UNL     1     -35.249  17.499   0.530  1.00 20.00     0.018 C 
HETATM    6  C6  UNL     1     -33.031  18.189  -0.388  1.00 20.00     0.018 C 
HETATM    7  O10 UNL     1     -33.624  16.437  -2.727  1.00 20.00    -0.374 OA
HETATM    8  S11 UNL     1     -34.456  18.951  -3.298  1.00 20.00    -0.136 SA
ENDROOT
BRANCH   3   9
HETATM    9  C9  UNL     1     -33.535  17.056  -5.024  1.00 20.00     0.017 C 
HETATM   10  C7  UNL     1     -34.047  15.873  -5.846  1.00 20.00     0.013 C 
HETATM   11  C8  UNL     1     -33.617  18.346  -5.839  1.00 20.00     0.013 C 
ENDBRANCH   3   9
TORSDOF 1
ENDMDL
