MODEL 1
REMARK VINA RESULT:      -4.9      0.000      0.000
REMARK  1 active torsions:
REMARK  status: ('A' for Active; 'I' for Inactive)
REMARK    1  A    between atoms: C7_7  and  C10_10 
ROOT
HETATM    1  C1  UNL     1     -35.971  16.438  -2.845  1.00 20.00    -0.023 C 
HETATM    2  C2  UNL     1     -36.682  15.359  -3.319  1.00 20.00    -0.012 C 
HETATM    3  C3  UNL     1     -34.686  13.621  -4.172  1.00 20.00     0.140 C 
HETATM    4  C4  UNL     1     -33.243  13.980  -3.765  1.00 20.00     0.080 C 
HETATM    5  C5  UNL     1     -33.347  15.494  -3.350  1.00 20.00     0.017 C 
HETATM    6  C6  UNL     1     -34.753  15.561  -2.808  1.00 20.00     0.028 C 
HETATM    7  C7  UNL     1     -35.453  14.970  -4.132  1.00 20.00     0.048 C 
HETATM    8  O11 UNL     1     -35.066  12.499  -4.471  1.00 20.00    -0.297 OA
ENDROOT
BRANCH   7   9
HETATM    9  C10 UNL     1     -35.460  15.617  -5.532  1.00 20.00    -0.002 C 
HETATM   10  C8  UNL     1     -34.357  15.015  -6.391  1.00 20.00     0.011 C 
HETATM   11  C9  UNL     1     -36.824  15.439  -6.183  1.00 20.00     0.011 C 
ENDBRANCH   7   9
TORSDOF 1
ENDMDL
MODEL 2
REMARK VINA RESULT:      -4.8      1.180      3.063
REMARK  1 active torsions:
REMARK  status: ('A' for Active; 'I' for Inactive)
REMARK    1  A    between atoms: C7_7  and  C10_10 
ROOT
HETATM    1  C1  UNL     1     -33.298  16.903  -5.066  1.00 20.00    -0.023 C 
HETATM    2  C2  UNL     1     -33.026  15.827  -4.252  1.00 20.00    -0.012 C 
HETATM    3  C3  UNL     1     -34.713  13.852  -5.243  1.00 20.00     0.140 C 
HETATM    4  C4  UNL     1     -35.409  14.153  -6.585  1.00 20.00     0.080 C 
HETATM    5  C5  UNL     1     -35.255  15.712  -6.734  1.00 20.00     0.017 C 
HETATM    6  C6  UNL     1     -33.941  15.951  -6.032  1.00 20.00     0.028 C 
HETATM    7  C7  UNL     1     -34.378  15.246  -4.652  1.00 20.00     0.048 C 
HETATM    8  O11 UNL     1     -34.522  12.731  -4.795  1.00 20.00    -0.297 OA
ENDROOT
BRANCH   7   9
HETATM    9  C10 UNL     1     -35.504  15.705  -3.705  1.00 20.00    -0.002 C 
HETATM   10  C8  UNL     1     -36.692  14.759  -3.808  1.00 20.00     0.011 C 
HETATM   11  C9  UNL     1     -34.986  15.784  -2.275  1.00 20.00     0.011 C 
ENDBRANCH   7   9
TORSDOF 1
ENDMDL
MODEL 3
REMARK VINA RESULT:      -4.7      1.384      1.910
REMARK  1 active torsions:
REMARK  status: ('A' for Active; 'I' for Inactive)
REMARK    1  A    between atoms: C7_7  and  C10_10 
ROOT
HETATM    1  C1  UNL     1     -33.859  16.243  -2.425  1.00 20.00    -0.023 C 
HETATM    2  C2  UNL     1     -35.223  16.385  -2.306  1.00 20.00    -0.012 C 
HETATM    3  C3  UNL     1     -36.206  14.334  -3.905  1.00 20.00     0.140 C 
HETATM    4  C4  UNL     1     -35.180  13.294  -4.395  1.00 20.00     0.080 C 
HETATM    5  C5  UNL     1     -33.797  14.009  -4.168  1.00 20.00     0.017 C 
HETATM    6  C6  UNL     1     -34.096  14.860  -2.958  1.00 20.00     0.028 C 
HETATM    7  C7  UNL     1     -35.367  15.605  -3.608  1.00 20.00     0.048 C 
HETATM    8  O11 UNL     1     -37.409  14.137  -3.817  1.00 20.00    -0.297 OA
ENDROOT
BRANCH   7   9
HETATM    9  C10 UNL     1     -35.355  16.532  -4.840  1.00 20.00    -0.002 C 
HETATM   10  C8  UNL     1     -35.562  15.717  -6.108  1.00 20.00     0.011 C 
HETATM   11  C9  UNL     1     -36.424  17.606  -4.695  1.00 20.00     0.011 C 
ENDBRANCH   7   9
TORSDOF 1
ENDMDL
MODEL 4
REMARK VINA RESULT:      -4.7      1.544      2.284
REMARK  1 active torsions:
REMARK  status: ('A' for Active; 'I' for Inactive)
REMARK    1  A    between atoms: C7_7  and  C10_10 
ROOT
HETATM    1  C1  UNL     1     -36.538  14.404  -4.070  1.00 20.00    -0.023 C 
HETATM    2  C2  UNL     1     -35.425  13.715  -4.495  1.00 20.00    -0.012 C 
HETATM    3  C3  UNL     1     -33.326  15.232  -3.483  1.00 20.00     0.140 C 
HETATM    4  C4  UNL     1     -33.701  16.334  -2.472  1.00 20.00     0.080 C 
HETATM    5  C5  UNL     1     -35.249  16.514  -2.686  1.00 20.00     0.017 C 
HETATM    6  C6  UNL     1     -35.662  15.118  -3.082  1.00 20.00     0.028 C 
HETATM    7  C7  UNL     1     -34.620  14.995  -4.305  1.00 20.00     0.048 C 
HETATM    8  O11 UNL     1     -32.221  14.718  -3.574  1.00 20.00    -0.297 OA
ENDROOT
BRANCH   7   9
HETATM    9  C10 UNL     1     -34.601  15.858  -5.582  1.00 20.00    -0.002 C 
HETATM   10  C8  UNL     1     -33.536  16.939  -5.467  1.00 20.00     0.011 C 
HETATM   11  C9  UNL     1     -34.364  14.980  -6.803  1.00 20.00     0.011 C 
ENDBRANCH   7   9
TORSDOF 1
ENDMDL
MODEL 5
REMARK VINA RESULT:      -4.5      1.564      3.142
REMARK  1 active torsions:
REMARK  status: ('A' for Active; 'I' for Inactive)
REMARK    1  A    between atoms: C7_7  and  C10_10 
ROOT
HETATM    1  C1  UNL     1     -34.779  16.213  -1.610  1.00 20.00    -0.023 C 
HETATM    2  C2  UNL     1     -33.741  16.356  -2.503  1.00 20.00    -0.012 C 
HETATM    3  C3  UNL     1     -34.974  15.961  -4.964  1.00 20.00     0.140 C 
HETATM    4  C4  UNL     1     -36.515  15.927  -4.962  1.00 20.00     0.080 C 
HETATM    5  C5  UNL     1     -36.873  15.693  -3.448  1.00 20.00     0.017 C 
HETATM    6  C6  UNL     1     -35.730  16.395  -2.757  1.00 20.00     0.028 C 
HETATM    7  C7  UNL     1     -34.570  15.575  -3.516  1.00 20.00     0.048 C 
HETATM    8  O11 UNL     1     -34.285  16.222  -5.938  1.00 20.00    -0.297 OA
ENDROOT
BRANCH   7   9
HETATM    9  C10 UNL     1     -34.311  14.058  -3.425  1.00 20.00    -0.002 C 
HETATM   10  C8  UNL     1     -35.091  13.329  -4.509  1.00 20.00     0.011 C 
HETATM   11  C9  UNL     1     -32.819  13.775  -3.537  1.00 20.00     0.011 C 
ENDBRANCH   7   9
TORSDOF 1
ENDMDL
MODEL 6
REMARK VINA RESULT:      -4.5      1.944      3.503
REMARK  1 active torsions:
REMARK  status: ('A' for Active; 'I' for Inactive)
REMARK    1  A    between atoms: C7_7  and  C10_10 
ROOT
HETATM    1  C1  UNL     1     -34.410  13.219  -4.766  1.00 20.00    -0.023 C 
HETATM    2  C2  UNL     1     -35.212  13.953  -3.923  1.00 20.00    -0.012 C 
HETATM    3  C3  UNL     1     -35.820  16.203  -5.440  1.00 20.00     0.140 C 
HETATM    4  C4  UNL     1     -35.437  16.148  -6.932  1.00 20.00     0.080 C 
HETATM    5  C5  UNL     1     -34.406  14.962  -7.001  1.00 20.00     0.017 C 
HETATM    6  C6  UNL     1     -34.914  14.060  -5.903  1.00 20.00     0.028 C 
HETATM    7  C7  UNL     1     -34.871  15.186  -4.753  1.00 20.00     0.048 C 
HETATM    8  O11 UNL     1     -36.681  16.930  -4.969  1.00 20.00    -0.297 OA
ENDROOT
BRANCH   7   9
HETATM    9  C10 UNL     1     -33.616  15.907  -4.223  1.00 20.00    -0.002 C 
HETATM   10  C8  UNL     1     -33.419  17.223  -4.962  1.00 20.00     0.011 C 
HETATM   11  C9  UNL     1     -33.737  16.132  -2.722  1.00 20.00     0.011 C 
ENDBRANCH   7   9
TORSDOF 1
ENDMDL
MODEL 7
REMARK VINA RESULT:      -4.5      1.569      2.194
REMARK  1 active torsions:
REMARK  status: ('A' for Active; 'I' for Inactive)
REMARK    1  A    between atoms: C7_7  and  C10_10 
ROOT
HETATM    1  C1  UNL     1     -33.704  16.307  -2.653  1.00 20.00    -0.023 C 
HETATM    2  C2  UNL     1     -34.782  16.879  -3.289  1.00 20.00    -0.012 C 
HETATM    3  C3  UNL     1     -35.751  14.804  -4.866  1.00 20.00     0.140 C 
HETATM    4  C4  UNL     1     -35.162  13.405  -4.597  1.00 20.00     0.080 C 
HETATM    5  C5  UNL     1     -33.854  13.710  -3.778  1.00 20.00     0.017 C 
HETATM    6  C6  UNL     1     -34.250  14.963  -3.035  1.00 20.00     0.028 C 
HETATM    7  C7  UNL     1     -34.670  15.791  -4.351  1.00 20.00     0.048 C 
HETATM    8  O11 UNL     1     -36.831  15.014  -5.396  1.00 20.00    -0.297 OA
ENDROOT
BRANCH   7   9
HETATM    9  C10 UNL     1     -33.739  16.208  -5.507  1.00 20.00    -0.002 C 
HETATM   10  C8  UNL     1     -34.112  15.456  -6.776  1.00 20.00     0.011 C 
HETATM   11  C9  UNL     1     -33.811  17.714  -5.719  1.00 20.00     0.011 C 
ENDBRANCH   7   9
TORSDOF 1
ENDMDL
MODEL 8
REMARK VINA RESULT:      -4.4      1.905      2.731
REMARK  1 active torsions:
REMARK  status: ('A' for Active; 'I' for Inactive)
REMARK    1  A    between atoms: C7_7  and  C10_10 
ROOT
HETATM    1  C1  UNL     1     -35.153  13.310  -4.181  1.00 20.00    -0.023 C 
HETATM    2  C2  UNL     1     -34.509  13.801  -5.294  1.00 20.00    -0.012 C 
HETATM    3  C3  UNL     1     -33.677  16.323  -4.474  1.00 20.00     0.140 C 
HETATM    4  C4  UNL     1     -33.806  16.633  -2.969  1.00 20.00     0.080 C 
HETATM    5  C5  UNL     1     -34.800  15.528  -2.453  1.00 20.00     0.017 C 
HETATM    6  C6  UNL     1     -34.475  14.378  -3.374  1.00 20.00     0.028 C 
HETATM    7  C7  UNL     1     -34.718  15.203  -4.736  1.00 20.00     0.048 C 
HETATM    8  O11 UNL     1     -32.913  16.893  -5.238  1.00 20.00    -0.297 OA
ENDROOT
BRANCH   7   9
HETATM    9  C10 UNL     1     -36.051  15.818  -5.208  1.00 20.00    -0.002 C 
HETATM   10  C8  UNL     1     -36.136  17.275  -4.775  1.00 20.00     0.011 C 
HETATM   11  C9  UNL     1     -36.181  15.685  -6.719  1.00 20.00     0.011 C 
ENDBRANCH   7   9
TORSDOF 1
ENDMDL
MODEL 9
REMARK VINA RESULT:      -4.4      1.290      3.433
REMARK  1 active torsions:
REMARK  status: ('A' for Active; 'I' for Inactive)
REMARK    1  A    between atoms: C7_7  and  C10_10 
ROOT
HETATM    1  C1  UNL     1     -34.402  15.594  -6.722  1.00 20.00    -0.023 C 
HETATM    2  C2  UNL     1     -34.825  14.365  -6.270  1.00 20.00    -0.012 C 
HETATM    3  C3  UNL     1     -36.612  15.025  -4.245  1.00 20.00     0.140 C 
HETATM    4  C4  UNL     1     -37.020  16.509  -4.146  1.00 20.00     0.080 C 
HETATM    5  C5  UNL     1     -35.916  17.248  -4.989  1.00 20.00     0.017 C 
HETATM    6  C6  UNL     1     -35.584  16.205  -6.028  1.00 20.00     0.028 C 
HETATM    7  C7  UNL     1     -35.240  15.042  -4.969  1.00 20.00     0.048 C 
HETATM    8  O11 UNL     1     -37.268  14.093  -3.805  1.00 20.00    -0.297 OA
ENDROOT
BRANCH   7   9
HETATM    9  C10 UNL     1     -34.096  15.053  -3.935  1.00 20.00    -0.002 C 
HETATM   10  C8  UNL     1     -34.604  15.574  -2.598  1.00 20.00     0.011 C 
HETATM   11  C9  UNL     1     -33.506  13.657  -3.793  1.00 20.00     0.011 C 
ENDBRANCH   7   9
TORSDOF 1
ENDMDL
