MODEL 1
REMARK VINA RESULT:      -4.7      0.000      0.000
REMARK  4 active torsions:
REMARK  status: ('A' for Active; 'I' for Inactive)
REMARK    1  A    between atoms: C1_1  and  C3_3 
REMARK    2  A    between atoms: C2_2  and  C7_7 
REMARK    3  A    between atoms: C2_2  and  C8_8 
REMARK    4  A    between atoms: C3_3  and  C9_9 
ROOT
HETATM    1  C1  UNL     1     -34.000  14.697  -3.799  1.00 20.00     0.164 C 
HETATM    2  C2  UNL     1     -34.600  15.591  -2.993  1.00 20.00    -0.038 C 
HETATM    3  F11 UNL     1     -32.652  14.580  -3.778  1.00 20.00    -0.202 F 
ENDROOT
BRANCH   1   4
HETATM    4  C3  UNL     1     -34.653  13.753  -4.754  1.00 20.00     0.187 C 
HETATM    5  O10 UNL     1     -34.962  12.610  -4.431  1.00 20.00    -0.290 OA
BRANCH   4   6
HETATM    6  C9  UNL     1     -34.939  14.309  -6.139  1.00 20.00     0.082 C 
HETATM    7  C6  UNL     1     -34.099  15.534  -6.459  1.00 20.00     0.013 C 
ENDBRANCH   4   6
ENDBRANCH   1   4
BRANCH   2   8
HETATM    8  C7  UNL     1     -33.882  16.525  -2.042  1.00 20.00     0.033 C 
HETATM    9  C4  UNL     1     -34.627  16.688  -0.724  1.00 20.00     0.010 C 
ENDBRANCH   2   8
BRANCH   2  10
HETATM   10  C8  UNL     1     -36.112  15.718  -3.006  1.00 20.00     0.033 C 
HETATM   11  C5  UNL     1     -36.593  16.852  -3.901  1.00 20.00     0.010 C 
ENDBRANCH   2  10
TORSDOF 4
ENDMDL
MODEL 2
REMARK VINA RESULT:      -4.4      1.728      2.100
REMARK  4 active torsions:
REMARK  status: ('A' for Active; 'I' for Inactive)
REMARK    1  A    between atoms: C1_1  and  C3_3 
REMARK    2  A    between atoms: C2_2  and  C7_7 
REMARK    3  A    between atoms: C2_2  and  C8_8 
REMARK    4  A    between atoms: C3_3  and  C9_9 
ROOT
HETATM    1  C1  UNL     1     -35.623  14.664  -3.832  1.00 20.00     0.164 C 
HETATM    2  C2  UNL     1     -34.903  15.652  -3.269  1.00 20.00    -0.038 C 
HETATM    3  F11 UNL     1     -36.914  14.489  -3.468  1.00 20.00    -0.202 F 
ENDROOT
BRANCH   1   4
HETATM    4  C3  UNL     1     -35.173  13.692  -4.872  1.00 20.00     0.187 C 
HETATM    5  O10 UNL     1     -34.836  12.547  -4.590  1.00 20.00    -0.290 OA
BRANCH   4   6
HETATM    6  C9  UNL     1     -35.189  14.203  -6.303  1.00 20.00     0.082 C 
HETATM    7  C6  UNL     1     -36.399  15.074  -6.596  1.00 20.00     0.013 C 
ENDBRANCH   4   6
ENDBRANCH   1   4
BRANCH   2   8
HETATM    8  C7  UNL     1     -35.416  16.610  -2.215  1.00 20.00     0.033 C 
HETATM    9  C4  UNL     1     -34.565  16.587  -0.953  1.00 20.00     0.010 C 
ENDBRANCH   2   8
BRANCH   2  10
HETATM   10  C8  UNL     1     -33.458  15.859  -3.683  1.00 20.00     0.033 C 
HETATM   11  C5  UNL     1     -33.310  16.918  -4.767  1.00 20.00     0.010 C 
ENDBRANCH   2  10
TORSDOF 4
ENDMDL
MODEL 3
REMARK VINA RESULT:      -4.3     11.218     11.962
REMARK  4 active torsions:
REMARK  status: ('A' for Active; 'I' for Inactive)
REMARK    1  A    between atoms: C1_1  and  C3_3 
REMARK    2  A    between atoms: C2_2  and  C7_7 
REMARK    3  A    between atoms: C2_2  and  C8_8 
REMARK    4  A    between atoms: C3_3  and  C9_9 
ROOT
HETATM    1  C1  UNL     1     -33.181   6.156   3.263  1.00 20.00     0.164 C 
HETATM    2  C2  UNL     1     -34.150   6.079   4.193  1.00 20.00    -0.038 C 
HETATM    3  F11 UNL     1     -33.093   5.196   2.313  1.00 20.00    -0.202 F 
ENDROOT
BRANCH   1   4
HETATM    4  C3  UNL     1     -32.145   7.220   3.116  1.00 20.00     0.187 C 
HETATM    5  O10 UNL     1     -31.355   7.487   4.016  1.00 20.00    -0.290 OA
BRANCH   4   6
HETATM    6  C9  UNL     1     -32.110   7.925   1.771  1.00 20.00     0.082 C 
HETATM    7  C6  UNL     1     -32.478   9.396   1.876  1.00 20.00     0.013 C 
ENDBRANCH   4   6
ENDBRANCH   1   4
BRANCH   2   8
HETATM    8  C7  UNL     1     -35.177   4.972   4.292  1.00 20.00     0.033 C 
HETATM    9  C4  UNL     1     -34.834   3.964   5.381  1.00 20.00     0.010 C 
ENDBRANCH   2   8
BRANCH   2  10
HETATM   10  C8  UNL     1     -34.259   7.159   5.254  1.00 20.00     0.033 C 
HETATM   11  C5  UNL     1     -33.622   6.744   6.574  1.00 20.00     0.010 C 
ENDBRANCH   2  10
TORSDOF 4
ENDMDL
MODEL 4
REMARK VINA RESULT:      -4.3      1.515      2.218
REMARK  4 active torsions:
REMARK  status: ('A' for Active; 'I' for Inactive)
REMARK    1  A    between atoms: C1_1  and  C3_3 
REMARK    2  A    between atoms: C2_2  and  C7_7 
REMARK    3  A    between atoms: C2_2  and  C8_8 
REMARK    4  A    between atoms: C3_3  and  C9_9 
ROOT
HETATM    1  C1  UNL     1     -33.506  15.546  -3.974  1.00 20.00     0.164 C 
HETATM    2  C2  UNL     1     -33.974  16.417  -3.061  1.00 20.00    -0.038 C 
HETATM    3  F11 UNL     1     -32.746  15.997  -4.998  1.00 20.00    -0.202 F 
ENDROOT
BRANCH   1   4
HETATM    4  C3  UNL     1     -33.705  14.067  -4.003  1.00 20.00     0.187 C 
HETATM    5  O10 UNL     1     -32.886  13.290  -3.522  1.00 20.00    -0.290 OA
BRANCH   4   6
HETATM    6  C9  UNL     1     -35.001  13.589  -4.637  1.00 20.00     0.082 C 
HETATM    7  C6  UNL     1     -35.317  14.316  -5.933  1.00 20.00     0.013 C 
ENDBRANCH   4   6
ENDBRANCH   1   4
BRANCH   2   8
HETATM    8  C7  UNL     1     -33.737  17.912  -3.084  1.00 20.00     0.033 C 
HETATM    9  C4  UNL     1     -34.645  18.624  -4.077  1.00 20.00     0.010 C 
ENDBRANCH   2   8
BRANCH   2  10
HETATM   10  C8  UNL     1     -34.817  15.913  -1.905  1.00 20.00     0.033 C 
HETATM   11  C5  UNL     1     -34.638  16.752  -0.647  1.00 20.00     0.010 C 
ENDBRANCH   2  10
TORSDOF 4
ENDMDL
MODEL 5
REMARK VINA RESULT:      -4.1      1.862      2.535
REMARK  4 active torsions:
REMARK  status: ('A' for Active; 'I' for Inactive)
REMARK    1  A    between atoms: C1_1  and  C3_3 
REMARK    2  A    between atoms: C2_2  and  C7_7 
REMARK    3  A    between atoms: C2_2  and  C8_8 
REMARK    4  A    between atoms: C3_3  and  C9_9 
ROOT
HETATM    1  C1  UNL     1     -34.077  15.363  -3.155  1.00 20.00     0.164 C 
HETATM    2  C2  UNL     1     -33.737  16.495  -3.799  1.00 20.00    -0.038 C 
HETATM    3  F11 UNL     1     -34.529  15.432  -1.881  1.00 20.00    -0.202 F 
ENDROOT
BRANCH   1   4
HETATM    4  C3  UNL     1     -34.038  13.969  -3.686  1.00 20.00     0.187 C 
HETATM    5  O10 UNL     1     -33.049  13.254  -3.564  1.00 20.00    -0.290 OA
BRANCH   4   6
HETATM    6  C9  UNL     1     -35.312  13.483  -4.357  1.00 20.00     0.082 C 
HETATM    7  C6  UNL     1     -36.504  14.377  -4.058  1.00 20.00     0.013 C 
ENDBRANCH   4   6
ENDBRANCH   1   4
BRANCH   2   8
HETATM    8  C7  UNL     1     -33.798  17.886  -3.205  1.00 20.00     0.033 C 
HETATM    9  C4  UNL     1     -35.224  18.409  -3.109  1.00 20.00     0.010 C 
ENDBRANCH   2   8
BRANCH   2  10
HETATM   10  C8  UNL     1     -33.240  16.423  -5.231  1.00 20.00     0.033 C 
HETATM   11  C5  UNL     1     -34.356  16.638  -6.245  1.00 20.00     0.010 C 
ENDBRANCH   2  10
TORSDOF 4
ENDMDL
MODEL 6
REMARK VINA RESULT:      -4.1      1.524      1.729
REMARK  4 active torsions:
REMARK  status: ('A' for Active; 'I' for Inactive)
REMARK    1  A    between atoms: C1_1  and  C3_3 
REMARK    2  A    between atoms: C2_2  and  C7_7 
REMARK    3  A    between atoms: C2_2  and  C8_8 
REMARK    4  A    between atoms: C3_3  and  C9_9 
ROOT
HETATM    1  C1  UNL     1     -35.393  15.094  -3.173  1.00 20.00     0.164 C 
HETATM    2  C2  UNL     1     -35.320  16.245  -2.480  1.00 20.00    -0.038 C 
HETATM    3  F11 UNL     1     -34.435  14.153  -3.005  1.00 20.00    -0.202 F 
ENDROOT
BRANCH   1   4
HETATM    4  C3  UNL     1     -36.451  14.682  -4.142  1.00 20.00     0.187 C 
HETATM    5  O10 UNL     1     -37.472  14.104  -3.783  1.00 20.00    -0.290 OA
BRANCH   4   6
HETATM    6  C9  UNL     1     -36.197  15.054  -5.594  1.00 20.00     0.082 C 
HETATM    7  C6  UNL     1     -35.136  14.180  -6.240  1.00 20.00     0.013 C 
ENDBRANCH   4   6
ENDBRANCH   1   4
BRANCH   2   8
HETATM    8  C7  UNL     1     -34.218  16.608  -1.508  1.00 20.00     0.033 C 
HETATM    9  C4  UNL     1     -34.764  17.058  -0.161  1.00 20.00     0.010 C 
ENDBRANCH   2   8
BRANCH   2  10
HETATM   10  C8  UNL     1     -36.398  17.298  -2.658  1.00 20.00     0.033 C 
HETATM   11  C5  UNL     1     -35.982  18.398  -3.627  1.00 20.00     0.010 C 
ENDBRANCH   2  10
TORSDOF 4
ENDMDL
MODEL 7
REMARK VINA RESULT:      -4.1     11.307     11.956
REMARK  4 active torsions:
REMARK  status: ('A' for Active; 'I' for Inactive)
REMARK    1  A    between atoms: C1_1  and  C3_3 
REMARK    2  A    between atoms: C2_2  and  C7_7 
REMARK    3  A    between atoms: C2_2  and  C8_8 
REMARK    4  A    between atoms: C3_3  and  C9_9 
ROOT
HETATM    1  C1  UNL     1     -32.929   6.745   4.400  1.00 20.00     0.164 C 
HETATM    2  C2  UNL     1     -33.970   5.982   4.783  1.00 20.00    -0.038 C 
HETATM    3  F11 UNL     1     -32.228   7.432   5.332  1.00 20.00    -0.202 F 
ENDROOT
BRANCH   1   4
HETATM    4  C3  UNL     1     -32.401   6.934   3.016  1.00 20.00     0.187 C 
HETATM    5  O10 UNL     1     -32.047   5.988   2.320  1.00 20.00    -0.290 OA
BRANCH   4   6
HETATM    6  C9  UNL     1     -32.362   8.368   2.516  1.00 20.00     0.082 C 
HETATM    7  C6  UNL     1     -31.803   8.477   1.107  1.00 20.00     0.013 C 
ENDBRANCH   4   6
ENDBRANCH   1   4
BRANCH   2   8
HETATM    8  C7  UNL     1     -34.459   5.829   6.206  1.00 20.00     0.033 C 
HETATM    9  C4  UNL     1     -35.051   4.451   6.467  1.00 20.00     0.010 C 
ENDBRANCH   2   8
BRANCH   2  10
HETATM   10  C8  UNL     1     -34.751   5.201   3.742  1.00 20.00     0.033 C 
HETATM   11  C5  UNL     1     -36.026   5.917   3.315  1.00 20.00     0.010 C 
ENDBRANCH   2  10
TORSDOF 4
ENDMDL
MODEL 8
REMARK VINA RESULT:      -4.0      1.762      4.025
REMARK  4 active torsions:
REMARK  status: ('A' for Active; 'I' for Inactive)
REMARK    1  A    between atoms: C1_1  and  C3_3 
REMARK    2  A    between atoms: C2_2  and  C7_7 
REMARK    3  A    between atoms: C2_2  and  C8_8 
REMARK    4  A    between atoms: C3_3  and  C9_9 
ROOT
HETATM    1  C1  UNL     1     -34.301  14.344  -5.183  1.00 20.00     0.164 C 
HETATM    2  C2  UNL     1     -34.375  15.160  -6.251  1.00 20.00    -0.038 C 
HETATM    3  F11 UNL     1     -34.762  13.076  -5.280  1.00 20.00    -0.202 F 
ENDROOT
BRANCH   1   4
HETATM    4  C3  UNL     1     -33.733  14.658  -3.839  1.00 20.00     0.187 C 
HETATM    5  O10 UNL     1     -32.542  14.506  -3.584  1.00 20.00    -0.290 OA
BRANCH   4   6
HETATM    6  C9  UNL     1     -34.717  15.207  -2.819  1.00 20.00     0.082 C 
HETATM    7  C6  UNL     1     -34.151  16.383  -2.040  1.00 20.00     0.013 C 
ENDBRANCH   4   6
ENDBRANCH   1   4
BRANCH   2   8
HETATM    8  C7  UNL     1     -34.964  14.784  -7.594  1.00 20.00     0.033 C 
HETATM    9  C4  UNL     1     -36.485  14.842  -7.592  1.00 20.00     0.010 C 
ENDBRANCH   2   8
BRANCH   2  10
HETATM   10  C8  UNL     1     -33.849  16.579  -6.150  1.00 20.00     0.033 C 
HETATM   11  C5  UNL     1     -34.931  17.573  -5.748  1.00 20.00     0.010 C 
ENDBRANCH   2  10
TORSDOF 4
ENDMDL
MODEL 9
REMARK VINA RESULT:      -3.9      2.164      3.332
REMARK  4 active torsions:
REMARK  status: ('A' for Active; 'I' for Inactive)
REMARK    1  A    between atoms: C1_1  and  C3_3 
REMARK    2  A    between atoms: C2_2  and  C7_7 
REMARK    3  A    between atoms: C2_2  and  C8_8 
REMARK    4  A    between atoms: C3_3  and  C9_9 
ROOT
HETATM    1  C1  UNL     1     -35.791  14.748  -3.544  1.00 20.00     0.164 C 
HETATM    2  C2  UNL     1     -34.818  14.138  -4.244  1.00 20.00    -0.038 C 
HETATM    3  F11 UNL     1     -35.524  15.222  -2.305  1.00 20.00    -0.202 F 
ENDROOT
BRANCH   1   4
HETATM    4  C3  UNL     1     -37.198  15.003  -3.975  1.00 20.00     0.187 C 
HETATM    5  O10 UNL     1     -38.103  14.207  -3.746  1.00 20.00    -0.290 OA
BRANCH   4   6
HETATM    6  C9  UNL     1     -37.441  16.324  -4.685  1.00 20.00     0.082 C 
HETATM    7  C6  UNL     1     -38.054  16.139  -6.063  1.00 20.00     0.013 C 
ENDBRANCH   4   6
ENDBRANCH   1   4
BRANCH   2   8
HETATM    8  C7  UNL     1     -33.405  13.907  -3.753  1.00 20.00     0.033 C 
HETATM    9  C4  UNL     1     -32.599  15.197  -3.692  1.00 20.00     0.010 C 
ENDBRANCH   2   8
BRANCH   2  10
HETATM   10  C8  UNL     1     -35.111  13.614  -5.638  1.00 20.00     0.033 C 
HETATM   11  C5  UNL     1     -34.700  14.597  -6.726  1.00 20.00     0.010 C 
ENDBRANCH   2  10
TORSDOF 4
ENDMDL
