MODEL 1
REMARK VINA RESULT:      -4.7      0.000      0.000
REMARK  2 active torsions:
REMARK  status: ('A' for Active; 'I' for Inactive)
REMARK    1  A    between atoms: C1_1  and  C3_3 
REMARK    2  A    between atoms: C3_3  and  C5_5 
ROOT
HETATM    1  C1  UNL     1     -34.796   4.576   5.003  1.00 20.00     0.212 C 
HETATM    2  C2  UNL     1     -34.362   5.091   6.155  1.00 20.00     0.228 C 
HETATM    3  F7  UNL     1     -35.065   3.259   4.883  1.00 20.00    -0.198 F 
HETATM    4  F8  UNL     1     -34.181   4.301   7.237  1.00 20.00    -0.189 F 
HETATM    5 CL9  UNL     1     -34.019   6.776   6.306  1.00 20.00    -0.048 Cl
ENDROOT
BRANCH   1   6
HETATM    6  C3  UNL     1     -35.019   5.378   3.769  1.00 20.00     0.191 C 
HETATM    7  O6  UNL     1     -36.085   5.952   3.563  1.00 20.00    -0.290 OA
BRANCH   6   8
HETATM    8  C5  UNL     1     -33.857   5.435   2.793  1.00 20.00     0.082 C 
HETATM    9  C4  UNL     1     -32.868   6.538   3.130  1.00 20.00     0.013 C 
ENDBRANCH   6   8
ENDBRANCH   1   6
TORSDOF 2
ENDMDL
MODEL 2
REMARK VINA RESULT:      -4.6      2.020      2.332
REMARK  2 active torsions:
REMARK  status: ('A' for Active; 'I' for Inactive)
REMARK    1  A    between atoms: C1_1  and  C3_3 
REMARK    2  A    between atoms: C3_3  and  C5_5 
ROOT
HETATM    1  C1  UNL     1     -34.014   6.108   5.044  1.00 20.00     0.212 C 
HETATM    2  C2  UNL     1     -34.683   5.187   5.741  1.00 20.00     0.228 C 
HETATM    3  F7  UNL     1     -33.676   7.293   5.595  1.00 20.00    -0.198 F 
HETATM    4  F8  UNL     1     -35.041   5.421   7.023  1.00 20.00    -0.189 F 
HETATM    5 CL9  UNL     1     -35.113   3.672   5.035  1.00 20.00    -0.048 Cl
ENDROOT
BRANCH   1   6
HETATM    6  C3  UNL     1     -33.585   5.927   3.631  1.00 20.00     0.191 C 
HETATM    7  O6  UNL     1     -34.334   5.434   2.792  1.00 20.00    -0.290 OA
BRANCH   6   8
HETATM    8  C5  UNL     1     -32.175   6.384   3.300  1.00 20.00     0.082 C 
HETATM    9  C4  UNL     1     -32.153   7.704   2.548  1.00 20.00     0.013 C 
ENDBRANCH   6   8
ENDBRANCH   1   6
TORSDOF 2
ENDMDL
MODEL 3
REMARK VINA RESULT:      -4.4      2.239      2.822
REMARK  2 active torsions:
REMARK  status: ('A' for Active; 'I' for Inactive)
REMARK    1  A    between atoms: C1_1  and  C3_3 
REMARK    2  A    between atoms: C3_3  and  C5_5 
ROOT
HETATM    1  C1  UNL     1     -33.959   5.725   3.308  1.00 20.00     0.212 C 
HETATM    2  C2  UNL     1     -34.637   5.627   4.453  1.00 20.00     0.228 C 
HETATM    3  F7  UNL     1     -34.437   5.193   2.163  1.00 20.00    -0.198 F 
HETATM    4  F8  UNL     1     -35.827   4.988   4.494  1.00 20.00    -0.189 F 
HETATM    5 CL9  UNL     1     -34.024   6.308   5.914  1.00 20.00    -0.048 Cl
ENDROOT
BRANCH   1   6
HETATM    6  C3  UNL     1     -32.644   6.411   3.180  1.00 20.00     0.191 C 
HETATM    7  O6  UNL     1     -31.588   5.801   3.318  1.00 20.00    -0.290 OA
BRANCH   6   8
HETATM    8  C5  UNL     1     -32.696   7.897   2.874  1.00 20.00     0.082 C 
HETATM    9  C4  UNL     1     -31.928   8.260   1.615  1.00 20.00     0.013 C 
ENDBRANCH   6   8
ENDBRANCH   1   6
TORSDOF 2
ENDMDL
MODEL 4
REMARK VINA RESULT:      -4.3      2.556      3.397
REMARK  2 active torsions:
REMARK  status: ('A' for Active; 'I' for Inactive)
REMARK    1  A    between atoms: C1_1  and  C3_3 
REMARK    2  A    between atoms: C3_3  and  C5_5 
ROOT
HETATM    1  C1  UNL     1     -33.792   6.332   4.608  1.00 20.00     0.212 C 
HETATM    2  C2  UNL     1     -32.707   6.547   3.862  1.00 20.00     0.228 C 
HETATM    3  F7  UNL     1     -33.981   6.986   5.774  1.00 20.00    -0.198 F 
HETATM    4  F8  UNL     1     -31.764   7.430   4.259  1.00 20.00    -0.189 F 
HETATM    5 CL9  UNL     1     -32.469   5.709   2.373  1.00 20.00    -0.048 Cl
ENDROOT
BRANCH   1   6
HETATM    6  C3  UNL     1     -34.874   5.377   4.242  1.00 20.00     0.191 C 
HETATM    7  O6  UNL     1     -35.703   5.649   3.378  1.00 20.00    -0.290 OA
BRANCH   6   8
HETATM    8  C5  UNL     1     -34.884   4.062   5.001  1.00 20.00     0.082 C 
HETATM    9  C4  UNL     1     -35.167   4.247   6.482  1.00 20.00     0.013 C 
ENDBRANCH   6   8
ENDBRANCH   1   6
TORSDOF 2
ENDMDL
MODEL 5
REMARK VINA RESULT:      -4.3      2.219      3.014
REMARK  2 active torsions:
REMARK  status: ('A' for Active; 'I' for Inactive)
REMARK    1  A    between atoms: C1_1  and  C3_3 
REMARK    2  A    between atoms: C3_3  and  C5_5 
ROOT
HETATM    1  C1  UNL     1     -33.754   5.744   3.474  1.00 20.00     0.212 C 
HETATM    2  C2  UNL     1     -32.934   6.515   4.191  1.00 20.00     0.228 C 
HETATM    3  F7  UNL     1     -33.451   5.387   2.208  1.00 20.00    -0.198 F 
HETATM    4  F8  UNL     1     -31.773   6.960   3.663  1.00 20.00    -0.189 F 
HETATM    5 CL9  UNL     1     -33.325   6.968   5.809  1.00 20.00    -0.048 Cl
ENDROOT
BRANCH   1   6
HETATM    6  C3  UNL     1     -35.050   5.215   3.982  1.00 20.00     0.191 C 
HETATM    7  O6  UNL     1     -36.115   5.762   3.713  1.00 20.00    -0.290 OA
BRANCH   6   8
HETATM    8  C5  UNL     1     -34.966   3.969   4.846  1.00 20.00     0.082 C 
HETATM    9  C4  UNL     1     -35.167   4.269   6.322  1.00 20.00     0.013 C 
ENDBRANCH   6   8
ENDBRANCH   1   6
TORSDOF 2
ENDMDL
MODEL 6
REMARK VINA RESULT:      -4.3     12.648     13.103
REMARK  2 active torsions:
REMARK  status: ('A' for Active; 'I' for Inactive)
REMARK    1  A    between atoms: C1_1  and  C3_3 
REMARK    2  A    between atoms: C3_3  and  C5_5 
ROOT
HETATM    1  C1  UNL     1     -35.291  14.567  -3.675  1.00 20.00     0.212 C 
HETATM    2  C2  UNL     1     -34.262  15.113  -3.023  1.00 20.00     0.228 C 
HETATM    3  F7  UNL     1     -36.560  14.729  -3.243  1.00 20.00    -0.198 F 
HETATM    4  F8  UNL     1     -34.468  15.846  -1.907  1.00 20.00    -0.189 F 
HETATM    5 CL9  UNL     1     -32.642  14.904  -3.579  1.00 20.00    -0.048 Cl
ENDROOT
BRANCH   1   6
HETATM    6  C3  UNL     1     -35.148  13.746  -4.909  1.00 20.00     0.191 C 
HETATM    7  O6  UNL     1     -34.771  12.579  -4.862  1.00 20.00    -0.290 OA
BRANCH   6   8
HETATM    8  C5  UNL     1     -35.495  14.442  -6.214  1.00 20.00     0.082 C 
HETATM    9  C4  UNL     1     -34.312  15.187  -6.809  1.00 20.00     0.013 C 
ENDBRANCH   6   8
ENDBRANCH   1   6
TORSDOF 2
ENDMDL
MODEL 7
REMARK VINA RESULT:      -4.2      2.463      3.601
REMARK  2 active torsions:
REMARK  status: ('A' for Active; 'I' for Inactive)
REMARK    1  A    between atoms: C1_1  and  C3_3 
REMARK    2  A    between atoms: C3_3  and  C5_5 
ROOT
HETATM    1  C1  UNL     1     -34.627   5.734   3.920  1.00 20.00     0.212 C 
HETATM    2  C2  UNL     1     -33.784   5.611   2.893  1.00 20.00     0.228 C 
HETATM    3  F7  UNL     1     -35.954   5.539   3.764  1.00 20.00    -0.198 F 
HETATM    4  F8  UNL     1     -34.241   5.287   1.663  1.00 20.00    -0.189 F 
HETATM    5 CL9  UNL     1     -32.089   5.861   3.096  1.00 20.00    -0.048 Cl
ENDROOT
BRANCH   1   6
HETATM    6  C3  UNL     1     -34.203   6.088   5.302  1.00 20.00     0.191 C 
HETATM    7  O6  UNL     1     -33.493   7.065   5.524  1.00 20.00    -0.290 OA
BRANCH   6   8
HETATM    8  C5  UNL     1     -34.699   5.171   6.406  1.00 20.00     0.082 C 
HETATM    9  C4  UNL     1     -34.777   3.719   5.965  1.00 20.00     0.013 C 
ENDBRANCH   6   8
ENDBRANCH   1   6
TORSDOF 2
ENDMDL
MODEL 8
REMARK VINA RESULT:      -4.2     12.673     13.103
REMARK  2 active torsions:
REMARK  status: ('A' for Active; 'I' for Inactive)
REMARK    1  A    between atoms: C1_1  and  C3_3 
REMARK    2  A    between atoms: C3_3  and  C5_5 
ROOT
HETATM    1  C1  UNL     1     -33.872  14.509  -3.742  1.00 20.00     0.212 C 
HETATM    2  C2  UNL     1     -34.476  15.364  -2.913  1.00 20.00     0.228 C 
HETATM    3  F7  UNL     1     -32.536  14.320  -3.701  1.00 20.00    -0.198 F 
HETATM    4  F8  UNL     1     -33.759  16.065  -2.007  1.00 20.00    -0.189 F 
HETATM    5 CL9  UNL     1     -36.183  15.603  -2.969  1.00 20.00    -0.048 Cl
ENDROOT
BRANCH   1   6
HETATM    6  C3  UNL     1     -34.588  13.702  -4.767  1.00 20.00     0.191 C 
HETATM    7  O6  UNL     1     -34.869  12.523  -4.572  1.00 20.00    -0.290 OA
BRANCH   6   8
HETATM    8  C5  UNL     1     -34.943  14.426  -6.054  1.00 20.00     0.082 C 
HETATM    9  C4  UNL     1     -33.972  15.549  -6.377  1.00 20.00     0.013 C 
ENDBRANCH   6   8
ENDBRANCH   1   6
TORSDOF 2
ENDMDL
MODEL 9
REMARK VINA RESULT:      -4.1      2.850      3.771
REMARK  2 active torsions:
REMARK  status: ('A' for Active; 'I' for Inactive)
REMARK    1  A    between atoms: C1_1  and  C3_3 
REMARK    2  A    between atoms: C3_3  and  C5_5 
ROOT
HETATM    1  C1  UNL     1     -33.377   6.137   3.333  1.00 20.00     0.212 C 
HETATM    2  C2  UNL     1     -32.323   6.917   3.084  1.00 20.00     0.228 C 
HETATM    3  F7  UNL     1     -33.980   5.439   2.347  1.00 20.00    -0.198 F 
HETATM    4  F8  UNL     1     -31.831   7.028   1.830  1.00 20.00    -0.189 F 
HETATM    5 CL9  UNL     1     -31.554   7.807   4.346  1.00 20.00    -0.048 Cl
ENDROOT
BRANCH   1   6
HETATM    6  C3  UNL     1     -33.977   5.962   4.684  1.00 20.00     0.191 C 
HETATM    7  O6  UNL     1     -33.586   6.613   5.648  1.00 20.00    -0.290 OA
BRANCH   6   8
HETATM    8  C5  UNL     1     -35.091   4.935   4.788  1.00 20.00     0.082 C 
HETATM    9  C4  UNL     1     -35.061   4.176   6.104  1.00 20.00     0.013 C 
ENDBRANCH   6   8
ENDBRANCH   1   6
TORSDOF 2
ENDMDL
