MODEL 1
REMARK VINA RESULT:      -5.5      0.000      0.000
REMARK  1 active torsions:
REMARK  status: ('A' for Active; 'I' for Inactive)
REMARK    1  A    between atoms: C4_4  and  C10_10 
ROOT
HETATM    1  C1  UNL     1     -34.032   6.182   6.317  1.00 20.00    -0.003 C 
HETATM    2  C2  UNL     1     -33.198   6.757   5.287  1.00 20.00     0.011 C 
HETATM    3  C3  UNL     1     -34.940   5.200   6.237  1.00 20.00    -0.026 C 
HETATM    4  C4  UNL     1     -33.116   6.509   3.969  1.00 20.00    -0.009 C 
HETATM    5  C5  UNL     1     -34.010   5.559   3.239  1.00 20.00     0.156 C 
HETATM    6  C6  UNL     1     -35.417   4.480   5.017  1.00 20.00     0.035 C 
HETATM    7  C7  UNL     1     -35.407   5.325   3.756  1.00 20.00     0.087 C 
HETATM    8  O11 UNL     1     -33.625   5.019   2.201  1.00 20.00    -0.293 OA
ENDROOT
BRANCH   4   9
HETATM    9  C10 UNL     1     -32.074   7.180   3.116  1.00 20.00     0.014 C 
HETATM   10  C8  UNL     1     -32.723   8.234   2.228  1.00 20.00     0.015 C 
HETATM   11  C9  UNL     1     -30.981   7.791   3.986  1.00 20.00     0.015 C 
ENDBRANCH   4   9
TORSDOF 1
ENDMDL
MODEL 2
REMARK VINA RESULT:      -4.7      8.997     10.909
REMARK  1 active torsions:
REMARK  status: ('A' for Active; 'I' for Inactive)
REMARK    1  A    between atoms: C4_4  and  C10_10 
ROOT
HETATM    1  C1  UNL     1     -40.609   5.256  -0.207  1.00 20.00    -0.003 C 
HETATM    2  C2  UNL     1     -41.104   4.298  -1.169  1.00 20.00     0.011 C 
HETATM    3  C3  UNL     1     -40.835   6.572  -0.113  1.00 20.00    -0.026 C 
HETATM    4  C4  UNL     1     -41.888   4.449  -2.249  1.00 20.00    -0.009 C 
HETATM    5  C5  UNL     1     -42.376   5.769  -2.752  1.00 20.00     0.156 C 
HETATM    6  C6  UNL     1     -41.601   7.448  -1.053  1.00 20.00     0.035 C 
HETATM    7  C7  UNL     1     -41.542   7.000  -2.502  1.00 20.00     0.087 C 
HETATM    8  O11 UNL     1     -43.417   5.836  -3.407  1.00 20.00    -0.293 OA
ENDROOT
BRANCH   4   9
HETATM    9  C10 UNL     1     -42.355   3.258  -3.042  1.00 20.00     0.014 C 
HETATM   10  C8  UNL     1     -41.168   2.381  -3.420  1.00 20.00     0.015 C 
HETATM   11  C9  UNL     1     -43.395   2.466  -2.258  1.00 20.00     0.015 C 
ENDBRANCH   4   9
TORSDOF 1
ENDMDL
MODEL 3
REMARK VINA RESULT:      -4.7     11.755     12.288
REMARK  1 active torsions:
REMARK  status: ('A' for Active; 'I' for Inactive)
REMARK    1  A    between atoms: C4_4  and  C10_10 
ROOT
HETATM    1  C1  UNL     1     -36.692  14.936  -3.560  1.00 20.00    -0.003 C 
HETATM    2  C2  UNL     1     -35.822  15.800  -2.796  1.00 20.00     0.011 C 
HETATM    3  C3  UNL     1     -36.389  14.011  -4.480  1.00 20.00    -0.026 C 
HETATM    4  C4  UNL     1     -34.487  15.954  -2.809  1.00 20.00    -0.009 C 
HETATM    5  C5  UNL     1     -33.573  15.252  -3.761  1.00 20.00     0.156 C 
HETATM    6  C6  UNL     1     -35.047  13.679  -5.049  1.00 20.00     0.035 C 
HETATM    7  C7  UNL     1     -34.095  14.859  -5.120  1.00 20.00     0.087 C 
HETATM    8  O11 UNL     1     -32.398  15.048  -3.455  1.00 20.00    -0.293 OA
ENDROOT
BRANCH   4   9
HETATM    9  C10 UNL     1     -33.800  16.860  -1.824  1.00 20.00     0.014 C 
HETATM   10  C8  UNL     1     -33.676  18.264  -2.402  1.00 20.00     0.015 C 
HETATM   11  C9  UNL     1     -34.550  16.877  -0.497  1.00 20.00     0.015 C 
ENDBRANCH   4   9
TORSDOF 1
ENDMDL
MODEL 4
REMARK VINA RESULT:      -4.5     11.777     13.157
REMARK  1 active torsions:
REMARK  status: ('A' for Active; 'I' for Inactive)
REMARK    1  A    between atoms: C4_4  and  C10_10 
ROOT
HETATM    1  C1  UNL     1     -33.979  16.358  -5.993  1.00 20.00    -0.003 C 
HETATM    2  C2  UNL     1     -34.446  16.517  -4.635  1.00 20.00     0.011 C 
HETATM    3  C3  UNL     1     -34.264  15.407  -6.892  1.00 20.00    -0.026 C 
HETATM    4  C4  UNL     1     -35.255  15.757  -3.879  1.00 20.00    -0.009 C 
HETATM    5  C5  UNL     1     -35.811  14.439  -4.313  1.00 20.00     0.156 C 
HETATM    6  C6  UNL     1     -35.085  14.172  -6.701  1.00 20.00     0.035 C 
HETATM    7  C7  UNL     1     -35.031  13.603  -5.295  1.00 20.00     0.087 C 
HETATM    8  O11 UNL     1     -36.866  14.023  -3.831  1.00 20.00    -0.293 OA
ENDROOT
BRANCH   4   9
HETATM    9  C10 UNL     1     -35.680  16.202  -2.506  1.00 20.00     0.014 C 
HETATM   10  C8  UNL     1     -34.470  16.295  -1.586  1.00 20.00     0.015 C 
HETATM   11  C9  UNL     1     -36.418  17.535  -2.580  1.00 20.00     0.015 C 
ENDBRANCH   4   9
TORSDOF 1
ENDMDL
MODEL 5
REMARK VINA RESULT:      -4.5     11.713     12.389
REMARK  1 active torsions:
REMARK  status: ('A' for Active; 'I' for Inactive)
REMARK    1  A    between atoms: C4_4  and  C10_10 
ROOT
HETATM    1  C1  UNL     1     -33.325  14.357  -3.777  1.00 20.00    -0.003 C 
HETATM    2  C2  UNL     1     -33.623  15.464  -2.897  1.00 20.00     0.011 C 
HETATM    3  C3  UNL     1     -34.101  13.750  -4.685  1.00 20.00    -0.026 C 
HETATM    4  C4  UNL     1     -34.750  16.171  -2.709  1.00 20.00    -0.009 C 
HETATM    5  C5  UNL     1     -36.051  15.865  -3.378  1.00 20.00     0.156 C 
HETATM    6  C6  UNL     1     -35.547  13.996  -4.976  1.00 20.00     0.035 C 
HETATM    7  C7  UNL     1     -36.355  14.441  -3.771  1.00 20.00     0.087 C 
HETATM    8  O11 UNL     1     -36.882  16.757  -3.554  1.00 20.00    -0.293 OA
ENDROOT
BRANCH   4   9
HETATM    9  C10 UNL     1     -34.774  17.365  -1.795  1.00 20.00     0.014 C 
HETATM   10  C8  UNL     1     -34.731  16.914  -0.341  1.00 20.00     0.015 C 
HETATM   11  C9  UNL     1     -33.617  18.307  -2.112  1.00 20.00     0.015 C 
ENDBRANCH   4   9
TORSDOF 1
ENDMDL
MODEL 6
REMARK VINA RESULT:      -4.4     11.877     13.147
REMARK  1 active torsions:
REMARK  status: ('A' for Active; 'I' for Inactive)
REMARK    1  A    between atoms: C4_4  and  C10_10 
ROOT
HETATM    1  C1  UNL     1     -35.464  13.938  -4.140  1.00 20.00    -0.003 C 
HETATM    2  C2  UNL     1     -35.206  15.063  -3.271  1.00 20.00     0.011 C 
HETATM    3  C3  UNL     1     -35.098  13.735  -5.412  1.00 20.00    -0.026 C 
HETATM    4  C4  UNL     1     -34.570  16.226  -3.489  1.00 20.00    -0.009 C 
HETATM    5  C5  UNL     1     -34.030  16.649  -4.816  1.00 20.00     0.156 C 
HETATM    6  C6  UNL     1     -34.389  14.678  -6.331  1.00 20.00     0.035 C 
HETATM    7  C7  UNL     1     -34.695  16.142  -6.072  1.00 20.00     0.087 C 
HETATM    8  O11 UNL     1     -33.089  17.441  -4.879  1.00 20.00    -0.293 OA
ENDROOT
BRANCH   4   9
HETATM    9  C10 UNL     1     -34.340  17.206  -2.371  1.00 20.00     0.014 C 
HETATM   10  C8  UNL     1     -35.265  18.406  -2.525  1.00 20.00     0.015 C 
HETATM   11  C9  UNL     1     -34.535  16.531  -1.017  1.00 20.00     0.015 C 
ENDBRANCH   4   9
TORSDOF 1
ENDMDL
MODEL 7
REMARK VINA RESULT:      -4.4     11.599     13.332
REMARK  1 active torsions:
REMARK  status: ('A' for Active; 'I' for Inactive)
REMARK    1  A    between atoms: C4_4  and  C10_10 
ROOT
HETATM    1  C1  UNL     1     -36.123  16.935  -5.972  1.00 20.00    -0.003 C 
HETATM    2  C2  UNL     1     -35.341  16.421  -4.872  1.00 20.00     0.011 C 
HETATM    3  C3  UNL     1     -36.625  16.300  -7.039  1.00 20.00    -0.026 C 
HETATM    4  C4  UNL     1     -34.866  15.190  -4.619  1.00 20.00    -0.009 C 
HETATM    5  C5  UNL     1     -35.001  14.032  -5.554  1.00 20.00     0.156 C 
HETATM    6  C6  UNL     1     -36.429  14.873  -7.441  1.00 20.00     0.035 C 
HETATM    7  C7  UNL     1     -35.085  14.295  -7.037  1.00 20.00     0.087 C 
HETATM    8  O11 UNL     1     -34.990  12.880  -5.120  1.00 20.00    -0.293 OA
ENDROOT
BRANCH   4   9
HETATM    9  C10 UNL     1     -34.156  14.882  -3.329  1.00 20.00     0.014 C 
HETATM   10  C8  UNL     1     -32.648  14.910  -3.540  1.00 20.00     0.015 C 
HETATM   11  C9  UNL     1     -34.576  15.861  -2.238  1.00 20.00     0.015 C 
ENDBRANCH   4   9
TORSDOF 1
ENDMDL
MODEL 8
REMARK VINA RESULT:      -4.3     11.718     13.192
REMARK  1 active torsions:
REMARK  status: ('A' for Active; 'I' for Inactive)
REMARK    1  A    between atoms: C4_4  and  C10_10 
ROOT
HETATM    1  C1  UNL     1     -33.444  16.554  -4.103  1.00 20.00    -0.003 C 
HETATM    2  C2  UNL     1     -34.222  15.994  -5.184  1.00 20.00     0.011 C 
HETATM    3  C3  UNL     1     -33.640  16.486  -2.780  1.00 20.00    -0.026 C 
HETATM    4  C4  UNL     1     -35.365  15.288  -5.183  1.00 20.00    -0.009 C 
HETATM    5  C5  UNL     1     -36.164  14.991  -3.955  1.00 20.00     0.156 C 
HETATM    6  C6  UNL     1     -34.795  15.880  -2.047  1.00 20.00     0.035 C 
HETATM    7  C7  UNL     1     -36.112  15.955  -2.797  1.00 20.00     0.087 C 
HETATM    8  O11 UNL     1     -36.893  13.999  -3.915  1.00 20.00    -0.293 OA
ENDROOT
BRANCH   4   9
HETATM    9  C10 UNL     1     -35.928  14.720  -6.457  1.00 20.00     0.014 C 
HETATM   10  C8  UNL     1     -37.135  15.532  -6.906  1.00 20.00     0.015 C 
HETATM   11  C9  UNL     1     -34.859  14.677  -7.543  1.00 20.00     0.015 C 
ENDBRANCH   4   9
TORSDOF 1
ENDMDL
MODEL 9
REMARK VINA RESULT:      -4.3     10.984     12.322
REMARK  1 active torsions:
REMARK  status: ('A' for Active; 'I' for Inactive)
REMARK    1  A    between atoms: C4_4  and  C10_10 
ROOT
HETATM    1  C1  UNL     1     -33.843  17.015  -1.894  1.00 20.00    -0.003 C 
HETATM    2  C2  UNL     1     -33.868  15.835  -2.728  1.00 20.00     0.011 C 
HETATM    3  C3  UNL     1     -34.855  17.757  -1.426  1.00 20.00    -0.026 C 
HETATM    4  C4  UNL     1     -34.888  15.171  -3.296  1.00 20.00    -0.009 C 
HETATM    5  C5  UNL     1     -36.314  15.614  -3.234  1.00 20.00     0.156 C 
HETATM    6  C6  UNL     1     -36.315  17.619  -1.722  1.00 20.00     0.035 C 
HETATM    7  C7  UNL     1     -36.618  17.086  -3.110  1.00 20.00     0.087 C 
HETATM    8  O11 UNL     1     -37.224  14.791  -3.336  1.00 20.00    -0.293 OA
ENDROOT
BRANCH   4   9
HETATM    9  C10 UNL     1     -34.657  13.887  -4.045  1.00 20.00     0.014 C 
HETATM   10  C8  UNL     1     -34.834  14.112  -5.541  1.00 20.00     0.015 C 
HETATM   11  C9  UNL     1     -33.273  13.326  -3.733  1.00 20.00     0.015 C 
ENDBRANCH   4   9
TORSDOF 1
ENDMDL
