MODEL 1
REMARK VINA RESULT:      -3.9      0.000      0.000
REMARK  2 active torsions:
REMARK  status: ('A' for Active; 'I' for Inactive)
REMARK    1  A    between atoms: C3_3  and  C9_9 
REMARK    2  A    between atoms: C3_3  and  S10_10 
ROOT
HETATM    1  C1  UNL     1     -35.369  14.524  -3.745  1.00 20.00     0.010 A 
HETATM    2  C2  UNL     1     -34.275  15.476  -3.284  1.00 20.00    -0.025 A 
HETATM    3  C3  UNL     1     -35.186  15.849  -4.478  1.00 20.00     0.019 A 
HETATM    4  C4  UNL     1     -35.088  13.197  -4.365  1.00 20.00     0.012 C 
HETATM    5  C5  UNL     1     -34.478  16.130  -1.930  1.00 20.00     0.017 C 
HETATM    6  C6  UNL     1     -32.818  15.152  -3.528  1.00 20.00     0.017 C 
ENDROOT
BRANCH   3   7
HETATM    7  C9  UNL     1     -34.639  15.873  -5.887  1.00 20.00    -0.003 C 
HETATM    8  C7  UNL     1     -35.701  15.432  -6.900  1.00 20.00     0.011 C 
HETATM    9  C8  UNL     1     -34.113  17.266  -6.252  1.00 20.00     0.011 C 
ENDBRANCH   3   7
BRANCH   3  10
HETATM   10  S10 UNL     1     -36.455  17.075  -4.266  1.00 20.00    -0.171 SA
HETATM   11  H28 UNL     1     -37.077  16.895  -5.445  1.00 20.00     0.102 HD
ENDBRANCH   3  10
TORSDOF 2
ENDMDL
MODEL 2
REMARK VINA RESULT:      -3.9      1.445      3.435
REMARK  2 active torsions:
REMARK  status: ('A' for Active; 'I' for Inactive)
REMARK    1  A    between atoms: C3_3  and  C9_9 
REMARK    2  A    between atoms: C3_3  and  S10_10 
ROOT
HETATM    1  C1  UNL     1     -34.712  16.263  -4.668  1.00 20.00     0.010 A 
HETATM    2  C2  UNL     1     -35.116  15.056  -3.835  1.00 20.00    -0.025 A 
HETATM    3  C3  UNL     1     -35.118  16.473  -3.213  1.00 20.00     0.019 A 
HETATM    4  C4  UNL     1     -33.326  16.480  -5.173  1.00 20.00     0.012 C 
HETATM    5  C5  UNL     1     -36.421  14.382  -4.214  1.00 20.00     0.017 C 
HETATM    6  C6  UNL     1     -34.082  14.046  -3.390  1.00 20.00     0.017 C 
ENDROOT
BRANCH   3   7
HETATM    7  C9  UNL     1     -34.085  16.863  -2.180  1.00 20.00    -0.003 C 
HETATM    8  C7  UNL     1     -33.667  18.329  -2.342  1.00 20.00     0.011 C 
HETATM    9  C8  UNL     1     -34.605  16.620  -0.759  1.00 20.00     0.011 C 
ENDBRANCH   3   7
BRANCH   3  10
HETATM   10  S10 UNL     1     -36.662  17.299  -2.912  1.00 20.00    -0.171 SA
HETATM   11  H28 UNL     1     -37.000  16.645  -1.787  1.00 20.00     0.102 HD
ENDBRANCH   3  10
TORSDOF 2
ENDMDL
MODEL 3
REMARK VINA RESULT:      -3.8      1.214      3.364
REMARK  2 active torsions:
REMARK  status: ('A' for Active; 'I' for Inactive)
REMARK    1  A    between atoms: C3_3  and  C9_9 
REMARK    2  A    between atoms: C3_3  and  S10_10 
ROOT
HETATM    1  C1  UNL     1     -33.322  15.475  -4.590  1.00 20.00     0.010 A 
HETATM    2  C2  UNL     1     -34.385  14.780  -5.427  1.00 20.00    -0.025 A 
HETATM    3  C3  UNL     1     -34.786  15.847  -4.380  1.00 20.00     0.019 A 
HETATM    4  C4  UNL     1     -32.499  14.769  -3.566  1.00 20.00     0.012 C 
HETATM    5  C5  UNL     1     -34.402  15.113  -6.907  1.00 20.00     0.017 C 
HETATM    6  C6  UNL     1     -34.730  13.327  -5.184  1.00 20.00     0.017 C 
ENDROOT
BRANCH   3   7
HETATM    7  C9  UNL     1     -35.500  15.448  -3.108  1.00 20.00    -0.003 C 
HETATM    8  C7  UNL     1     -35.058  16.322  -1.929  1.00 20.00     0.011 C 
HETATM    9  C8  UNL     1     -37.021  15.531  -3.279  1.00 20.00     0.011 C 
ENDBRANCH   3   7
BRANCH   3  10
HETATM   10  S10 UNL     1     -35.299  17.460  -4.920  1.00 20.00    -0.171 SA
HETATM   11  H28 UNL     1     -34.746  18.169  -3.920  1.00 20.00     0.102 HD
ENDBRANCH   3  10
TORSDOF 2
ENDMDL
MODEL 4
REMARK VINA RESULT:      -3.8      1.863      2.790
REMARK  2 active torsions:
REMARK  status: ('A' for Active; 'I' for Inactive)
REMARK    1  A    between atoms: C3_3  and  C9_9 
REMARK    2  A    between atoms: C3_3  and  S10_10 
ROOT
HETATM    1  C1  UNL     1     -35.941  16.266  -3.884  1.00 20.00     0.010 A 
HETATM    2  C2  UNL     1     -34.800  16.706  -2.979  1.00 20.00    -0.025 A 
HETATM    3  C3  UNL     1     -34.555  15.666  -4.098  1.00 20.00     0.019 A 
HETATM    4  C4  UNL     1     -37.110  15.477  -3.398  1.00 20.00     0.012 C 
HETATM    5  C5  UNL     1     -34.323  18.137  -3.142  1.00 20.00     0.017 C 
HETATM    6  C6  UNL     1     -34.752  16.270  -1.531  1.00 20.00     0.017 C 
ENDROOT
BRANCH   3   7
HETATM    7  C9  UNL     1     -34.289  14.217  -3.760  1.00 20.00    -0.003 C 
HETATM    8  C7  UNL     1     -34.799  13.288  -4.867  1.00 20.00     0.011 C 
HETATM    9  C8  UNL     1     -32.795  13.971  -3.516  1.00 20.00     0.011 C 
ENDBRANCH   3   7
BRANCH   3  10
HETATM   10  S10 UNL     1     -33.682  16.147  -5.570  1.00 20.00    -0.171 SA
HETATM   11  H28 UNL     1     -34.122  17.415  -5.634  1.00 20.00     0.102 HD
ENDBRANCH   3  10
TORSDOF 2
ENDMDL
MODEL 5
REMARK VINA RESULT:      -3.8      1.562      3.192
REMARK  2 active torsions:
REMARK  status: ('A' for Active; 'I' for Inactive)
REMARK    1  A    between atoms: C3_3  and  C9_9 
REMARK    2  A    between atoms: C3_3  and  S10_10 
ROOT
HETATM    1  C1  UNL     1     -34.946  14.550  -5.524  1.00 20.00     0.010 A 
HETATM    2  C2  UNL     1     -35.976  15.418  -4.817  1.00 20.00    -0.025 A 
HETATM    3  C3  UNL     1     -34.463  15.651  -4.585  1.00 20.00     0.019 A 
HETATM    4  C4  UNL     1     -34.773  13.096  -5.241  1.00 20.00     0.012 C 
HETATM    5  C5  UNL     1     -36.773  16.367  -5.693  1.00 20.00     0.017 C 
HETATM    6  C6  UNL     1     -36.825  14.853  -3.700  1.00 20.00     0.017 C 
ENDROOT
BRANCH   3   7
HETATM    7  C9  UNL     1     -33.824  15.300  -3.261  1.00 20.00    -0.003 C 
HETATM    8  C7  UNL     1     -32.395  14.781  -3.458  1.00 20.00     0.011 C 
HETATM    9  C8  UNL     1     -33.817  16.505  -2.314  1.00 20.00     0.011 C 
ENDBRANCH   3   7
BRANCH   3  10
HETATM   10  S10 UNL     1     -33.666  17.056  -5.325  1.00 20.00    -0.171 SA
HETATM   11  H28 UNL     1     -33.252  17.646  -4.191  1.00 20.00     0.102 HD
ENDBRANCH   3  10
TORSDOF 2
ENDMDL
MODEL 6
REMARK VINA RESULT:      -3.7      1.463      2.099
REMARK  2 active torsions:
REMARK  status: ('A' for Active; 'I' for Inactive)
REMARK    1  A    between atoms: C3_3  and  C9_9 
REMARK    2  A    between atoms: C3_3  and  S10_10 
ROOT
HETATM    1  C1  UNL     1     -35.242  15.531  -3.767  1.00 20.00     0.010 A 
HETATM    2  C2  UNL     1     -34.121  14.619  -4.243  1.00 20.00    -0.025 A 
HETATM    3  C3  UNL     1     -34.703  15.701  -5.183  1.00 20.00     0.019 A 
HETATM    4  C4  UNL     1     -36.618  15.044  -3.465  1.00 20.00     0.012 C 
HETATM    5  C5  UNL     1     -32.766  14.817  -3.590  1.00 20.00     0.017 C 
HETATM    6  C6  UNL     1     -34.386  13.158  -4.531  1.00 20.00     0.017 C 
ENDROOT
BRANCH   3   7
HETATM    7  C9  UNL     1     -35.550  15.313  -6.374  1.00 20.00    -0.003 C 
HETATM    8  C7  UNL     1     -36.558  16.416  -6.718  1.00 20.00     0.011 C 
HETATM    9  C8  UNL     1     -34.677  15.003  -7.596  1.00 20.00     0.011 C 
ENDBRANCH   3   7
BRANCH   3  10
HETATM   10  S10 UNL     1     -33.761  17.170  -5.523  1.00 20.00    -0.171 SA
HETATM   11  H28 UNL     1     -34.777  17.939  -5.953  1.00 20.00     0.102 HD
ENDBRANCH   3  10
TORSDOF 2
ENDMDL
MODEL 7
REMARK VINA RESULT:      -3.7      1.779      2.974
REMARK  2 active torsions:
REMARK  status: ('A' for Active; 'I' for Inactive)
REMARK    1  A    between atoms: C3_3  and  C9_9 
REMARK    2  A    between atoms: C3_3  and  S10_10 
ROOT
HETATM    1  C1  UNL     1     -33.499  16.436  -4.998  1.00 20.00     0.010 A 
HETATM    2  C2  UNL     1     -33.548  15.656  -3.693  1.00 20.00    -0.025 A 
HETATM    3  C3  UNL     1     -34.701  15.541  -4.718  1.00 20.00     0.019 A 
HETATM    4  C4  UNL     1     -33.581  17.923  -5.063  1.00 20.00     0.012 C 
HETATM    5  C5  UNL     1     -32.540  14.532  -3.541  1.00 20.00     0.017 C 
HETATM    6  C6  UNL     1     -33.784  16.366  -2.378  1.00 20.00     0.017 C 
ENDROOT
BRANCH   3   7
HETATM    7  C9  UNL     1     -36.055  16.148  -4.426  1.00 20.00    -0.003 C 
HETATM    8  C7  UNL     1     -36.739  16.617  -5.715  1.00 20.00     0.011 C 
HETATM    9  C8  UNL     1     -36.958  15.156  -3.685  1.00 20.00     0.011 C 
ENDBRANCH   3   7
BRANCH   3  10
HETATM   10  S10 UNL     1     -34.862  14.068  -5.699  1.00 20.00    -0.171 SA
HETATM   11  H28 UNL     1     -33.670  13.522  -5.401  1.00 20.00     0.102 HD
ENDBRANCH   3  10
TORSDOF 2
ENDMDL
MODEL 8
REMARK VINA RESULT:      -3.7      1.596      3.667
REMARK  2 active torsions:
REMARK  status: ('A' for Active; 'I' for Inactive)
REMARK    1  A    between atoms: C3_3  and  C9_9 
REMARK    2  A    between atoms: C3_3  and  S10_10 
ROOT
HETATM    1  C1  UNL     1     -36.261  15.675  -5.234  1.00 20.00     0.010 A 
HETATM    2  C2  UNL     1     -35.080  15.563  -6.186  1.00 20.00    -0.025 A 
HETATM    3  C3  UNL     1     -34.963  15.054  -4.729  1.00 20.00     0.019 A 
HETATM    4  C4  UNL     1     -36.793  16.978  -4.743  1.00 20.00     0.012 C 
HETATM    5  C5  UNL     1     -35.228  14.581  -7.333  1.00 20.00     0.017 C 
HETATM    6  C6  UNL     1     -34.313  16.796  -6.611  1.00 20.00     0.017 C 
ENDROOT
BRANCH   3   7
HETATM    7  C9  UNL     1     -34.106  15.788  -3.723  1.00 20.00    -0.003 C 
HETATM    8  C7  UNL     1     -34.755  15.778  -2.334  1.00 20.00     0.011 C 
HETATM    9  C8  UNL     1     -32.700  15.182  -3.648  1.00 20.00     0.011 C 
ENDBRANCH   3   7
BRANCH   3  10
HETATM   10  S10 UNL     1     -34.971  13.307  -4.405  1.00 20.00    -0.171 SA
HETATM   11  H28 UNL     1     -35.766  12.938  -5.425  1.00 20.00     0.102 HD
ENDBRANCH   3  10
TORSDOF 2
ENDMDL
MODEL 9
REMARK VINA RESULT:      -3.7      1.152      3.698
REMARK  2 active torsions:
REMARK  status: ('A' for Active; 'I' for Inactive)
REMARK    1  A    between atoms: C3_3  and  C9_9 
REMARK    2  A    between atoms: C3_3  and  S10_10 
ROOT
HETATM    1  C1  UNL     1     -35.301  16.875  -5.567  1.00 20.00     0.010 A 
HETATM    2  C2  UNL     1     -35.484  15.526  -6.246  1.00 20.00    -0.025 A 
HETATM    3  C3  UNL     1     -35.277  15.611  -4.714  1.00 20.00     0.019 A 
HETATM    4  C4  UNL     1     -34.107  17.742  -5.783  1.00 20.00     0.012 C 
HETATM    5  C5  UNL     1     -36.859  15.242  -6.820  1.00 20.00     0.017 C 
HETATM    6  C6  UNL     1     -34.392  14.947  -7.117  1.00 20.00     0.017 C 
ENDROOT
BRANCH   3   7
HETATM    7  C9  UNL     1     -33.986  15.139  -4.084  1.00 20.00    -0.003 C 
HETATM    8  C7  UNL     1     -33.657  15.951  -2.826  1.00 20.00     0.011 C 
HETATM    9  C8  UNL     1     -34.052  13.646  -3.741  1.00 20.00     0.011 C 
ENDBRANCH   3   7
BRANCH   3  10
HETATM   10  S10 UNL     1     -36.655  15.341  -3.624  1.00 20.00    -0.171 SA
HETATM   11  H28 UNL     1     -36.711  14.002  -3.734  1.00 20.00     0.102 HD
ENDBRANCH   3  10
TORSDOF 2
ENDMDL
