MODEL 1
REMARK VINA RESULT:      -5.6      0.000      0.000
REMARK  1 active torsions:
REMARK  status: ('A' for Active; 'I' for Inactive)
REMARK    1  A    between atoms: C7_7  and  C10_10 
ROOT
HETATM    1  C1  UNL     1     -34.041  16.155  -5.599  1.00 20.00     0.011 C 
HETATM    2  C2  UNL     1     -33.656  16.572  -4.385  1.00 20.00    -0.020 C 
HETATM    3  C3  UNL     1     -34.449  14.791  -5.849  1.00 20.00     0.000 C 
HETATM    4  C4  UNL     1     -34.303  13.782  -4.751  1.00 20.00     0.159 C 
HETATM    5  C5  UNL     1     -34.929  14.386  -7.033  1.00 20.00     0.027 C 
HETATM    6  C6  UNL     1     -33.438  14.187  -3.572  1.00 20.00     0.092 C 
HETATM    7  C7  UNL     1     -33.587  15.665  -3.184  1.00 20.00     0.019 C 
HETATM    8  O11 UNL     1     -34.798  12.659  -4.822  1.00 20.00    -0.292 OA
ENDROOT
BRANCH   7   9
HETATM    9  C10 UNL     1     -34.811  15.888  -2.293  1.00 20.00    -0.015 C 
HETATM   10  C8  UNL     1     -34.418  16.638  -1.024  1.00 20.00     0.010 C 
HETATM   11  C9  UNL     1     -35.893  16.647  -3.056  1.00 20.00     0.010 C 
ENDBRANCH   7   9
TORSDOF 1
ENDMDL
MODEL 2
REMARK VINA RESULT:      -5.0      1.325      1.415
REMARK  1 active torsions:
REMARK  status: ('A' for Active; 'I' for Inactive)
REMARK    1  A    between atoms: C7_7  and  C10_10 
ROOT
HETATM    1  C1  UNL     1     -34.051  15.947  -5.545  1.00 20.00     0.011 C 
HETATM    2  C2  UNL     1     -33.356  16.284  -4.449  1.00 20.00    -0.020 C 
HETATM    3  C3  UNL     1     -35.233  15.118  -5.479  1.00 20.00     0.000 C 
HETATM    4  C4  UNL     1     -35.611  14.504  -4.166  1.00 20.00     0.159 C 
HETATM    5  C5  UNL     1     -35.991  14.854  -6.552  1.00 20.00     0.027 C 
HETATM    6  C6  UNL     1     -34.552  14.527  -3.080  1.00 20.00     0.092 C 
HETATM    7  C7  UNL     1     -33.720  15.818  -3.064  1.00 20.00     0.019 C 
HETATM    8  O11 UNL     1     -36.693  13.949  -3.988  1.00 20.00    -0.292 OA
ENDROOT
BRANCH   7   9
HETATM    9  C10 UNL     1     -34.441  16.938  -2.311  1.00 20.00    -0.015 C 
HETATM   10  C8  UNL     1     -34.619  16.564  -0.843  1.00 20.00     0.010 C 
HETATM   11  C9  UNL     1     -33.673  18.250  -2.445  1.00 20.00     0.010 C 
ENDBRANCH   7   9
TORSDOF 1
ENDMDL
MODEL 3
REMARK VINA RESULT:      -4.8      1.990      4.220
REMARK  1 active torsions:
REMARK  status: ('A' for Active; 'I' for Inactive)
REMARK    1  A    between atoms: C7_7  and  C10_10 
ROOT
HETATM    1  C1  UNL     1     -34.559  14.584  -3.250  1.00 20.00     0.011 C 
HETATM    2  C2  UNL     1     -34.383  14.248  -4.535  1.00 20.00    -0.020 C 
HETATM    3  C3  UNL     1     -34.357  15.934  -2.775  1.00 20.00     0.000 C 
HETATM    4  C4  UNL     1     -33.801  16.955  -3.720  1.00 20.00     0.159 C 
HETATM    5  C5  UNL     1     -34.623  16.305  -1.514  1.00 20.00     0.027 C 
HETATM    6  C6  UNL     1     -33.185  16.425  -5.001  1.00 20.00     0.092 C 
HETATM    7  C7  UNL     1     -33.940  15.225  -5.591  1.00 20.00     0.019 C 
HETATM    8  O11 UNL     1     -33.780  18.155  -3.451  1.00 20.00    -0.292 OA
ENDROOT
BRANCH   7   9
HETATM    9  C10 UNL     1     -35.145  15.676  -6.420  1.00 20.00    -0.015 C 
HETATM   10  C8  UNL     1     -34.781  16.888  -7.273  1.00 20.00     0.010 C 
HETATM   11  C9  UNL     1     -35.648  14.532  -7.295  1.00 20.00     0.010 C 
ENDBRANCH   7   9
TORSDOF 1
ENDMDL
MODEL 4
REMARK VINA RESULT:      -4.8      1.884      2.756
REMARK  1 active torsions:
REMARK  status: ('A' for Active; 'I' for Inactive)
REMARK    1  A    between atoms: C7_7  and  C10_10 
ROOT
HETATM    1  C1  UNL     1     -35.935  15.415  -3.056  1.00 20.00     0.011 C 
HETATM    2  C2  UNL     1     -35.851  16.625  -2.489  1.00 20.00    -0.020 C 
HETATM    3  C3  UNL     1     -34.766  14.699  -3.517  1.00 20.00     0.000 C 
HETATM    4  C4  UNL     1     -33.438  15.393  -3.485  1.00 20.00     0.159 C 
HETATM    5  C5  UNL     1     -34.825  13.449  -3.996  1.00 20.00     0.027 C 
HETATM    6  C6  UNL     1     -33.465  16.896  -3.283  1.00 20.00     0.092 C 
HETATM    7  C7  UNL     1     -34.550  17.361  -2.300  1.00 20.00     0.019 C 
HETATM    8  O11 UNL     1     -32.381  14.795  -3.678  1.00 20.00    -0.292 OA
ENDROOT
BRANCH   7   9
HETATM    9  C10 UNL     1     -34.083  17.228  -0.849  1.00 20.00    -0.015 C 
HETATM   10  C8  UNL     1     -32.987  18.245  -0.547  1.00 20.00     0.010 C 
HETATM   11  C9  UNL     1     -35.260  17.402   0.107  1.00 20.00     0.010 C 
ENDBRANCH   7   9
TORSDOF 1
ENDMDL
MODEL 5
REMARK VINA RESULT:      -4.8      1.647      3.995
REMARK  1 active torsions:
REMARK  status: ('A' for Active; 'I' for Inactive)
REMARK    1  A    between atoms: C7_7  and  C10_10 
ROOT
HETATM    1  C1  UNL     1     -36.247  15.410  -3.043  1.00 20.00     0.011 C 
HETATM    2  C2  UNL     1     -36.674  14.799  -4.156  1.00 20.00    -0.020 C 
HETATM    3  C3  UNL     1     -34.842  15.570  -2.745  1.00 20.00     0.000 C 
HETATM    4  C4  UNL     1     -33.836  14.911  -3.639  1.00 20.00     0.159 C 
HETATM    5  C5  UNL     1     -34.401  16.263  -1.686  1.00 20.00     0.027 C 
HETATM    6  C6  UNL     1     -34.368  13.858  -4.593  1.00 20.00     0.092 C 
HETATM    7  C7  UNL     1     -35.743  14.205  -5.181  1.00 20.00     0.019 C 
HETATM    8  O11 UNL     1     -32.633  15.154  -3.564  1.00 20.00    -0.292 OA
ENDROOT
BRANCH   7   9
HETATM    9  C10 UNL     1     -35.617  15.150  -6.378  1.00 20.00    -0.015 C 
HETATM   10  C8  UNL     1     -34.418  14.763  -7.238  1.00 20.00     0.010 C 
HETATM   11  C9  UNL     1     -36.900  15.139  -7.204  1.00 20.00     0.010 C 
ENDBRANCH   7   9
TORSDOF 1
ENDMDL
MODEL 6
REMARK VINA RESULT:      -4.8     11.982     13.423
REMARK  1 active torsions:
REMARK  status: ('A' for Active; 'I' for Inactive)
REMARK    1  A    between atoms: C7_7  and  C10_10 
ROOT
HETATM    1  C1  UNL     1     -34.239   6.295   6.405  1.00 20.00     0.011 C 
HETATM    2  C2  UNL     1     -33.763   7.109   5.454  1.00 20.00    -0.020 C 
HETATM    3  C3  UNL     1     -34.800   4.999   6.097  1.00 20.00     0.000 C 
HETATM    4  C4  UNL     1     -34.981   4.615   4.660  1.00 20.00     0.159 C 
HETATM    5  C5  UNL     1     -35.189   4.134   7.045  1.00 20.00     0.027 C 
HETATM    6  C6  UNL     1     -34.871   5.736   3.643  1.00 20.00     0.092 C 
HETATM    7  C7  UNL     1     -33.789   6.770   3.987  1.00 20.00     0.019 C 
HETATM    8  O11 UNL     1     -35.271   3.471   4.318  1.00 20.00    -0.292 OA
ENDROOT
BRANCH   7   9
HETATM    9  C10 UNL     1     -32.404   6.298   3.538  1.00 20.00    -0.015 C 
HETATM   10  C8  UNL     1     -32.509   5.489   2.249  1.00 20.00     0.010 C 
HETATM   11  C9  UNL     1     -31.470   7.491   3.352  1.00 20.00     0.010 C 
ENDBRANCH   7   9
TORSDOF 1
ENDMDL
MODEL 7
REMARK VINA RESULT:      -4.7      1.849      2.622
REMARK  1 active torsions:
REMARK  status: ('A' for Active; 'I' for Inactive)
REMARK    1  A    between atoms: C7_7  and  C10_10 
ROOT
HETATM    1  C1  UNL     1     -34.821  13.597  -5.454  1.00 20.00     0.011 C 
HETATM    2  C2  UNL     1     -34.802  13.735  -4.121  1.00 20.00    -0.020 C 
HETATM    3  C3  UNL     1     -35.527  14.522  -6.311  1.00 20.00     0.000 C 
HETATM    4  C4  UNL     1     -36.376  15.585  -5.681  1.00 20.00     0.159 C 
HETATM    5  C5  UNL     1     -35.474  14.453  -7.649  1.00 20.00     0.027 C 
HETATM    6  C6  UNL     1     -36.694  15.410  -4.209  1.00 20.00     0.092 C 
HETATM    7  C7  UNL     1     -35.525  14.838  -3.394  1.00 20.00     0.019 C 
HETATM    8  O11 UNL     1     -36.849  16.515  -6.330  1.00 20.00    -0.292 OA
ENDROOT
BRANCH   7   9
HETATM    9  C10 UNL     1     -34.534  15.934  -2.995  1.00 20.00    -0.015 C 
HETATM   10  C8  UNL     1     -34.668  16.259  -1.510  1.00 20.00     0.010 C 
HETATM   11  C9  UNL     1     -33.107  15.509  -3.328  1.00 20.00     0.010 C 
ENDBRANCH   7   9
TORSDOF 1
ENDMDL
MODEL 8
REMARK VINA RESULT:      -4.7      2.271      4.448
REMARK  1 active torsions:
REMARK  status: ('A' for Active; 'I' for Inactive)
REMARK    1  A    between atoms: C7_7  and  C10_10 
ROOT
HETATM    1  C1  UNL     1     -33.404  15.573  -3.027  1.00 20.00     0.011 C 
HETATM    2  C2  UNL     1     -33.052  15.632  -4.319  1.00 20.00    -0.020 C 
HETATM    3  C3  UNL     1     -34.160  16.627  -2.389  1.00 20.00     0.000 C 
HETATM    4  C4  UNL     1     -34.437  17.883  -3.157  1.00 20.00     0.159 C 
HETATM    5  C5  UNL     1     -34.602  16.537  -1.126  1.00 20.00     0.027 C 
HETATM    6  C6  UNL     1     -33.629  18.092  -4.424  1.00 20.00     0.092 C 
HETATM    7  C7  UNL     1     -33.384  16.797  -5.213  1.00 20.00     0.019 C 
HETATM    8  O11 UNL     1     -35.225  18.736  -2.757  1.00 20.00    -0.292 OA
ENDROOT
BRANCH   7   9
HETATM    9  C10 UNL     1     -34.582  16.448  -6.099  1.00 20.00    -0.015 C 
HETATM   10  C8  UNL     1     -34.731  17.470  -7.221  1.00 20.00     0.010 C 
HETATM   11  C9  UNL     1     -34.432  15.040  -6.667  1.00 20.00     0.010 C 
ENDBRANCH   7   9
TORSDOF 1
ENDMDL
MODEL 9
REMARK VINA RESULT:      -4.6      2.054      2.946
REMARK  1 active torsions:
REMARK  status: ('A' for Active; 'I' for Inactive)
REMARK    1  A    between atoms: C7_7  and  C10_10 
ROOT
HETATM    1  C1  UNL     1     -35.958  15.223  -6.699  1.00 20.00     0.011 C 
HETATM    2  C2  UNL     1     -34.704  14.844  -6.417  1.00 20.00    -0.020 C 
HETATM    3  C3  UNL     1     -37.034  15.089  -5.743  1.00 20.00     0.000 C 
HETATM    4  C4  UNL     1     -36.767  14.377  -4.452  1.00 20.00     0.159 C 
HETATM    5  C5  UNL     1     -38.270  15.553  -5.976  1.00 20.00     0.027 C 
HETATM    6  C6  UNL     1     -35.487  13.566  -4.380  1.00 20.00     0.092 C 
HETATM    7  C7  UNL     1     -34.304  14.226  -5.103  1.00 20.00     0.019 C 
HETATM    8  O11 UNL     1     -37.567  14.389  -3.519  1.00 20.00    -0.292 OA
ENDROOT
BRANCH   7   9
HETATM    9  C10 UNL     1     -33.625  15.276  -4.221  1.00 20.00    -0.015 C 
HETATM   10  C8  UNL     1     -32.422  14.671  -3.504  1.00 20.00     0.010 C 
HETATM   11  C9  UNL     1     -33.206  16.483  -5.055  1.00 20.00     0.010 C 
ENDBRANCH   7   9
TORSDOF 1
ENDMDL
