MODEL 1
REMARK VINA RESULT:      -4.2      0.000      0.000
REMARK  1 active torsions:
REMARK  status: ('A' for Active; 'I' for Inactive)
REMARK    1  A    between atoms: C9_9  and  N10_10 
ROOT
HETATM    1  C1  UNL     1     -35.033  16.120  -7.918  1.00 20.00     0.004 A 
HETATM    2  C2  UNL     1     -34.605  17.051  -7.059  1.00 20.00     0.042 A 
HETATM    3  C3  UNL     1     -35.196  14.756  -7.508  1.00 20.00     0.017 A 
HETATM    4  C4  UNL     1     -34.926  14.405  -6.247  1.00 20.00     0.093 A 
HETATM    5  C5  UNL     1     -34.284  16.682  -5.636  1.00 20.00     0.103 A 
HETATM    6  N10 UNL     1     -34.484  15.317  -5.285  1.00 20.00    -0.339 N 
HETATM    7  S11 UNL     1     -33.713  17.867  -4.570  1.00 20.00    -0.060 SA
ENDROOT
BRANCH   6   8
HETATM    8  C9  UNL     1     -34.223  14.806  -3.952  1.00 20.00     0.027 C 
HETATM    9  C6  UNL     1     -34.588  13.317  -3.900  1.00 20.00     0.038 C 
HETATM   10  C7  UNL     1     -32.737  14.987  -3.628  1.00 20.00     0.038 C 
HETATM   11  C8  UNL     1     -35.075  15.579  -2.937  1.00 20.00     0.038 C 
ENDBRANCH   6   8
TORSDOF 1
ENDMDL
MODEL 2
REMARK VINA RESULT:      -4.1      1.103      3.477
REMARK  1 active torsions:
REMARK  status: ('A' for Active; 'I' for Inactive)
REMARK    1  A    between atoms: C9_9  and  N10_10 
ROOT
HETATM    1  C1  UNL     1     -33.400  13.843  -3.757  1.00 20.00     0.004 A 
HETATM    2  C2  UNL     1     -33.179  15.159  -3.830  1.00 20.00     0.042 A 
HETATM    3  C3  UNL     1     -34.334  13.201  -4.635  1.00 20.00     0.017 A 
HETATM    4  C4  UNL     1     -34.991  13.923  -5.548  1.00 20.00     0.093 A 
HETATM    5  C5  UNL     1     -33.913  15.999  -4.841  1.00 20.00     0.103 A 
HETATM    6  N10 UNL     1     -34.811  15.301  -5.697  1.00 20.00    -0.339 N 
HETATM    7  S11 UNL     1     -33.644  17.669  -4.899  1.00 20.00    -0.060 SA
ENDROOT
BRANCH   6   8
HETATM    8  C9  UNL     1     -35.589  15.968  -6.725  1.00 20.00     0.027 C 
HETATM    9  C6  UNL     1     -36.337  14.917  -7.554  1.00 20.00     0.038 C 
HETATM   10  C7  UNL     1     -36.593  16.914  -6.059  1.00 20.00     0.038 C 
HETATM   11  C8  UNL     1     -34.647  16.765  -7.635  1.00 20.00     0.038 C 
ENDBRANCH   6   8
TORSDOF 1
ENDMDL
MODEL 3
REMARK VINA RESULT:      -4.0      1.742      2.567
REMARK  1 active torsions:
REMARK  status: ('A' for Active; 'I' for Inactive)
REMARK    1  A    between atoms: C9_9  and  N10_10 
ROOT
HETATM    1  C1  UNL     1     -33.921  18.209  -6.548  1.00 20.00     0.004 A 
HETATM    2  C2  UNL     1     -34.384  17.037  -6.995  1.00 20.00     0.042 A 
HETATM    3  C3  UNL     1     -33.678  18.423  -5.152  1.00 20.00     0.017 A 
HETATM    4  C4  UNL     1     -33.908  17.437  -4.279  1.00 20.00     0.093 A 
HETATM    5  C5  UNL     1     -34.662  15.913  -6.034  1.00 20.00     0.103 A 
HETATM    6  N10 UNL     1     -34.382  16.180  -4.664  1.00 20.00    -0.339 N 
HETATM    7  S11 UNL     1     -35.278  14.446  -6.613  1.00 20.00    -0.060 SA
ENDROOT
BRANCH   6   8
HETATM    8  C9  UNL     1     -34.594  15.198  -3.617  1.00 20.00     0.027 C 
HETATM    9  C6  UNL     1     -33.638  14.017  -3.829  1.00 20.00     0.038 C 
HETATM   10  C7  UNL     1     -34.320  15.848  -2.257  1.00 20.00     0.038 C 
HETATM   11  C8  UNL     1     -36.043  14.701  -3.673  1.00 20.00     0.038 C 
ENDBRANCH   6   8
TORSDOF 1
ENDMDL
MODEL 4
REMARK VINA RESULT:      -4.0      1.805      3.914
REMARK  1 active torsions:
REMARK  status: ('A' for Active; 'I' for Inactive)
REMARK    1  A    between atoms: C9_9  and  N10_10 
ROOT
HETATM    1  C1  UNL     1     -33.509  13.672  -3.900  1.00 20.00     0.004 A 
HETATM    2  C2  UNL     1     -34.448  13.596  -4.848  1.00 20.00     0.042 A 
HETATM    3  C3  UNL     1     -32.890  14.922  -3.573  1.00 20.00     0.017 A 
HETATM    4  C4  UNL     1     -33.260  16.034  -4.215  1.00 20.00     0.093 A 
HETATM    5  C5  UNL     1     -34.876  14.830  -5.595  1.00 20.00     0.103 A 
HETATM    6  N10 UNL     1     -34.240  16.043  -5.211  1.00 20.00    -0.339 N 
HETATM    7  S11 UNL     1     -36.045  14.710  -6.813  1.00 20.00    -0.060 SA
ENDROOT
BRANCH   6   8
HETATM    8  C9  UNL     1     -34.546  17.318  -5.833  1.00 20.00     0.027 C 
HETATM    9  C6  UNL     1     -33.567  18.381  -5.319  1.00 20.00     0.038 C 
HETATM   10  C7  UNL     1     -34.409  17.179  -7.352  1.00 20.00     0.038 C 
HETATM   11  C8  UNL     1     -35.980  17.726  -5.475  1.00 20.00     0.038 C 
ENDBRANCH   6   8
TORSDOF 1
ENDMDL
MODEL 5
REMARK VINA RESULT:      -4.0      1.743      2.970
REMARK  1 active torsions:
REMARK  status: ('A' for Active; 'I' for Inactive)
REMARK    1  A    between atoms: C9_9  and  N10_10 
ROOT
HETATM    1  C1  UNL     1     -34.797  13.572  -5.330  1.00 20.00     0.004 A 
HETATM    2  C2  UNL     1     -35.309  14.694  -5.846  1.00 20.00     0.042 A 
HETATM    3  C3  UNL     1     -34.344  13.524  -3.971  1.00 20.00     0.017 A 
HETATM    4  C4  UNL     1     -34.441  14.611  -3.200  1.00 20.00     0.093 A 
HETATM    5  C5  UNL     1     -35.421  15.936  -5.004  1.00 20.00     0.103 A 
HETATM    6  N10 UNL     1     -34.973  15.820  -3.658  1.00 20.00    -0.339 N 
HETATM    7  S11 UNL     1     -36.043  17.356  -5.683  1.00 20.00    -0.060 SA
ENDROOT
BRANCH   6   8
HETATM    8  C9  UNL     1     -35.018  16.927  -2.721  1.00 20.00     0.027 C 
HETATM    9  C6  UNL     1     -34.595  16.431  -1.332  1.00 20.00     0.038 C 
HETATM   10  C7  UNL     1     -34.059  18.023  -3.195  1.00 20.00     0.038 C 
HETATM   11  C8  UNL     1     -36.447  17.477  -2.655  1.00 20.00     0.038 C 
ENDBRANCH   6   8
TORSDOF 1
ENDMDL
MODEL 6
REMARK VINA RESULT:      -4.0      2.026      4.019
REMARK  1 active torsions:
REMARK  status: ('A' for Active; 'I' for Inactive)
REMARK    1  A    between atoms: C9_9  and  N10_10 
ROOT
HETATM    1  C1  UNL     1     -33.864  17.711  -1.189  1.00 20.00     0.004 A 
HETATM    2  C2  UNL     1     -33.603  18.268  -2.377  1.00 20.00     0.042 A 
HETATM    3  C3  UNL     1     -34.597  16.483  -1.095  1.00 20.00     0.017 A 
HETATM    4  C4  UNL     1     -35.019  15.875  -2.208  1.00 20.00     0.093 A 
HETATM    5  C5  UNL     1     -34.076  17.611  -3.645  1.00 20.00     0.103 A 
HETATM    6  N10 UNL     1     -34.780  16.384  -3.487  1.00 20.00    -0.339 N 
HETATM    7  S11 UNL     1     -33.764  18.346  -5.137  1.00 20.00    -0.060 SA
ENDROOT
BRANCH   6   8
HETATM    8  C9  UNL     1     -35.297  15.629  -4.613  1.00 20.00     0.027 C 
HETATM    9  C6  UNL     1     -35.910  14.318  -4.104  1.00 20.00     0.038 C 
HETATM   10  C7  UNL     1     -36.369  16.461  -5.324  1.00 20.00     0.038 C 
HETATM   11  C8  UNL     1     -34.152  15.317  -5.583  1.00 20.00     0.038 C 
ENDBRANCH   6   8
TORSDOF 1
ENDMDL
MODEL 7
REMARK VINA RESULT:      -3.9      1.715      2.826
REMARK  1 active torsions:
REMARK  status: ('A' for Active; 'I' for Inactive)
REMARK    1  A    between atoms: C9_9  and  N10_10 
ROOT
HETATM    1  C1  UNL     1     -33.634  18.713  -4.929  1.00 20.00     0.004 A 
HETATM    2  C2  UNL     1     -33.875  18.279  -3.688  1.00 20.00     0.042 A 
HETATM    3  C3  UNL     1     -33.778  17.841  -6.057  1.00 20.00     0.017 A 
HETATM    4  C4  UNL     1     -34.166  16.576  -5.873  1.00 20.00     0.093 A 
HETATM    5  C5  UNL     1     -34.303  16.856  -3.450  1.00 20.00     0.103 A 
HETATM    6  N10 UNL     1     -34.447  16.046  -4.610  1.00 20.00    -0.339 N 
HETATM    7  S11 UNL     1     -34.573  16.315  -1.869  1.00 20.00    -0.060 SA
ENDROOT
BRANCH   6   8
HETATM    8  C9  UNL     1     -34.856  14.655  -4.547  1.00 20.00     0.027 C 
HETATM    9  C6  UNL     1     -36.209  14.557  -3.833  1.00 20.00     0.038 C 
HETATM   10  C7  UNL     1     -34.980  14.104  -5.971  1.00 20.00     0.038 C 
HETATM   11  C8  UNL     1     -33.806  13.853  -3.769  1.00 20.00     0.038 C 
ENDBRANCH   6   8
TORSDOF 1
ENDMDL
MODEL 8
REMARK VINA RESULT:      -3.9      1.706      2.707
REMARK  1 active torsions:
REMARK  status: ('A' for Active; 'I' for Inactive)
REMARK    1  A    between atoms: C9_9  and  N10_10 
ROOT
HETATM    1  C1  UNL     1     -35.217  15.474  -7.918  1.00 20.00     0.004 A 
HETATM    2  C2  UNL     1     -35.203  14.395  -7.128  1.00 20.00     0.042 A 
HETATM    3  C3  UNL     1     -34.846  16.763  -7.413  1.00 20.00     0.017 A 
HETATM    4  C4  UNL     1     -34.471  16.894  -6.137  1.00 20.00     0.093 A 
HETATM    5  C5  UNL     1     -34.796  14.515  -5.684  1.00 20.00     0.103 A 
HETATM    6  N10 UNL     1     -34.420  15.817  -5.248  1.00 20.00    -0.339 N 
HETATM    7  S11 UNL     1     -34.814  13.144  -4.691  1.00 20.00    -0.060 SA
ENDROOT
BRANCH   6   8
HETATM    8  C9  UNL     1     -33.999  16.094  -3.888  1.00 20.00     0.027 C 
HETATM    9  C6  UNL     1     -33.695  17.591  -3.747  1.00 20.00     0.038 C 
HETATM   10  C7  UNL     1     -35.124  15.701  -2.925  1.00 20.00     0.038 C 
HETATM   11  C8  UNL     1     -32.737  15.283  -3.572  1.00 20.00     0.038 C 
ENDBRANCH   6   8
TORSDOF 1
ENDMDL
MODEL 9
REMARK VINA RESULT:      -3.9      2.663      4.993
REMARK  1 active torsions:
REMARK  status: ('A' for Active; 'I' for Inactive)
REMARK    1  A    between atoms: C9_9  and  N10_10 
ROOT
HETATM    1  C1  UNL     1     -34.131  17.424  -0.450  1.00 20.00     0.004 A 
HETATM    2  C2  UNL     1     -34.693  16.405  -1.107  1.00 20.00     0.042 A 
HETATM    3  C3  UNL     1     -33.565  18.536  -1.156  1.00 20.00     0.017 A 
HETATM    4  C4  UNL     1     -33.606  18.563  -2.492  1.00 20.00     0.093 A 
HETATM    5  C5  UNL     1     -34.743  16.404  -2.611  1.00 20.00     0.103 A 
HETATM    6  N10 UNL     1     -34.183  17.544  -3.254  1.00 20.00    -0.339 N 
HETATM    7  S11 UNL     1     -35.431  15.090  -3.427  1.00 20.00    -0.060 SA
ENDROOT
BRANCH   6   8
HETATM    8  C9  UNL     1     -34.158  17.694  -4.697  1.00 20.00     0.027 C 
HETATM    9  C6  UNL     1     -35.595  17.681  -5.233  1.00 20.00     0.038 C 
HETATM   10  C7  UNL     1     -33.484  19.023  -5.051  1.00 20.00     0.038 C 
HETATM   11  C8  UNL     1     -33.371  16.531  -5.314  1.00 20.00     0.038 C 
ENDBRANCH   6   8
TORSDOF 1
ENDMDL
