MODEL 1
REMARK VINA RESULT:      -4.7      0.000      0.000
REMARK  0 active torsions:
REMARK  status: ('A' for Active; 'I' for Inactive)
ROOT
HETATM    1  C1  UNL     1     -33.082   6.377   3.420  1.00 20.00     0.218 C 
HETATM    2  C2  UNL     1     -34.206   5.642   2.720  1.00 20.00     0.105 C 
HETATM    3  C3  UNL     1     -35.169   5.224   3.840  1.00 20.00     0.040 C 
HETATM    4  C4  UNL     1     -35.012   5.367   6.435  1.00 20.00     0.033 A 
HETATM    5  C5  UNL     1     -34.251   4.140   6.027  1.00 20.00     0.033 A 
HETATM    6  C6  UNL     1     -34.339   5.316   5.089  1.00 20.00     0.033 A 
HETATM    7  N7  UNL     1     -33.199   6.111   4.776  1.00 20.00    -0.352 N 
HETATM    8  O8  UNL     1     -32.221   7.041   2.866  1.00 20.00    -0.274 OA
HETATM    9  H17 UNL     1     -32.542   6.446   5.471  1.00 20.00     0.163 HD
ENDROOT
TORSDOF 0
ENDMDL
MODEL 2
REMARK VINA RESULT:      -4.5      1.922      3.268
REMARK  0 active torsions:
REMARK  status: ('A' for Active; 'I' for Inactive)
ROOT
HETATM    1  C1  UNL     1     -34.617   5.596   5.524  1.00 20.00     0.218 C 
HETATM    2  C2  UNL     1     -35.366   5.163   4.281  1.00 20.00     0.105 C 
HETATM    3  C3  UNL     1     -34.346   5.277   3.139  1.00 20.00     0.040 C 
HETATM    4  C4  UNL     1     -31.924   6.228   3.038  1.00 20.00     0.033 A 
HETATM    5  C5  UNL     1     -32.851   7.403   2.920  1.00 20.00     0.033 A 
HETATM    6  C6  UNL     1     -33.279   6.181   3.691  1.00 20.00     0.033 A 
HETATM    7  N7  UNL     1     -33.446   6.209   5.106  1.00 20.00    -0.352 N 
HETATM    8  O8  UNL     1     -35.012   5.455   6.670  1.00 20.00    -0.274 OA
HETATM    9  H17 UNL     1     -32.778   6.634   5.740  1.00 20.00     0.163 HD
ENDROOT
TORSDOF 0
ENDMDL
MODEL 3
REMARK VINA RESULT:      -4.4      1.783      3.022
REMARK  0 active torsions:
REMARK  status: ('A' for Active; 'I' for Inactive)
ROOT
HETATM    1  C1  UNL     1     -33.823   6.513   6.220  1.00 20.00     0.218 C 
HETATM    2  C2  UNL     1     -34.661   5.307   6.588  1.00 20.00     0.105 C 
HETATM    3  C3  UNL     1     -34.850   4.536   5.274  1.00 20.00     0.040 C 
HETATM    4  C4  UNL     1     -34.225   5.090   2.808  1.00 20.00     0.033 A 
HETATM    5  C5  UNL     1     -35.517   5.800   3.092  1.00 20.00     0.033 A 
HETATM    6  C6  UNL     1     -34.536   5.548   4.208  1.00 20.00     0.033 A 
HETATM    7  N7  UNL     1     -33.828   6.612   4.838  1.00 20.00    -0.352 N 
HETATM    8  O8  UNL     1     -33.284   7.267   7.016  1.00 20.00    -0.274 OA
HETATM    9  H17 UNL     1     -33.377   7.363   4.328  1.00 20.00     0.163 HD
ENDROOT
TORSDOF 0
ENDMDL
MODEL 4
REMARK VINA RESULT:      -4.3      2.229      3.476
REMARK  0 active torsions:
REMARK  status: ('A' for Active; 'I' for Inactive)
ROOT
HETATM    1  C1  UNL     1     -34.848   4.579   5.063  1.00 20.00     0.218 C 
HETATM    2  C2  UNL     1     -34.337   5.449   6.193  1.00 20.00     0.105 C 
HETATM    3  C3  UNL     1     -33.723   6.677   5.505  1.00 20.00     0.040 C 
HETATM    4  C4  UNL     1     -33.280   7.250   3.004  1.00 20.00     0.033 A 
HETATM    5  C5  UNL     1     -32.142   6.381   3.453  1.00 20.00     0.033 A 
HETATM    6  C6  UNL     1     -33.500   6.229   4.088  1.00 20.00     0.033 A 
HETATM    7  N7  UNL     1     -34.294   5.062   3.888  1.00 20.00    -0.352 N 
HETATM    8  O8  UNL     1     -35.581   3.612   5.195  1.00 20.00    -0.274 OA
HETATM    9  H17 UNL     1     -34.437   4.631   2.982  1.00 20.00     0.163 HD
ENDROOT
TORSDOF 0
ENDMDL
MODEL 5
REMARK VINA RESULT:      -4.2     11.787     12.409
REMARK  0 active torsions:
REMARK  status: ('A' for Active; 'I' for Inactive)
ROOT
HETATM    1  C1  UNL     1     -35.165  13.747  -3.965  1.00 20.00     0.218 C 
HETATM    2  C2  UNL     1     -36.465  14.523  -4.013  1.00 20.00     0.105 C 
HETATM    3  C3  UNL     1     -36.104  15.937  -3.538  1.00 20.00     0.040 C 
HETATM    4  C4  UNL     1     -33.917  16.955  -2.556  1.00 20.00     0.033 A 
HETATM    5  C5  UNL     1     -34.622  16.274  -1.419  1.00 20.00     0.033 A 
HETATM    6  C6  UNL     1     -34.793  15.760  -2.825  1.00 20.00     0.033 A 
HETATM    7  N7  UNL     1     -34.262  14.502  -3.232  1.00 20.00    -0.352 N 
HETATM    8  O8  UNL     1     -34.983  12.644  -4.455  1.00 20.00    -0.274 OA
HETATM    9  H17 UNL     1     -33.324  14.191  -3.008  1.00 20.00     0.163 HD
ENDROOT
TORSDOF 0
ENDMDL
MODEL 6
REMARK VINA RESULT:      -4.1     12.220     12.649
REMARK  0 active torsions:
REMARK  status: ('A' for Active; 'I' for Inactive)
ROOT
HETATM    1  C1  UNL     1     -36.775  14.627  -3.600  1.00 20.00     0.218 C 
HETATM    2  C2  UNL     1     -35.467  14.078  -4.129  1.00 20.00     0.105 C 
HETATM    3  C3  UNL     1     -34.384  14.684  -3.224  1.00 20.00     0.040 C 
HETATM    4  C4  UNL     1     -34.475  16.476  -1.337  1.00 20.00     0.033 A 
HETATM    5  C5  UNL     1     -34.432  17.224  -2.637  1.00 20.00     0.033 A 
HETATM    6  C6  UNL     1     -35.064  15.858  -2.577  1.00 20.00     0.033 A 
HETATM    7  N7  UNL     1     -36.467  15.673  -2.745  1.00 20.00    -0.352 N 
HETATM    8  O8  UNL     1     -37.886  14.230  -3.916  1.00 20.00    -0.274 OA
HETATM    9  H17 UNL     1     -37.166  16.248  -2.287  1.00 20.00     0.163 HD
ENDROOT
TORSDOF 0
ENDMDL
MODEL 7
REMARK VINA RESULT:      -3.9     12.019     13.351
REMARK  0 active torsions:
REMARK  status: ('A' for Active; 'I' for Inactive)
ROOT
HETATM    1  C1  UNL     1     -34.404  13.590  -4.594  1.00 20.00     0.218 C 
HETATM    2  C2  UNL     1     -33.228  13.843  -3.675  1.00 20.00     0.105 C 
HETATM    3  C3  UNL     1     -33.210  15.362  -3.457  1.00 20.00     0.040 C 
HETATM    4  C4  UNL     1     -34.583  17.304  -4.519  1.00 20.00     0.033 A 
HETATM    5  C5  UNL     1     -33.478  16.983  -5.482  1.00 20.00     0.033 A 
HETATM    6  C6  UNL     1     -34.035  15.903  -4.591  1.00 20.00     0.033 A 
HETATM    7  N7  UNL     1     -34.790  14.815  -5.115  1.00 20.00    -0.352 N 
HETATM    8  O8  UNL     1     -34.881  12.494  -4.844  1.00 20.00    -0.274 OA
HETATM    9  H17 UNL     1     -35.531  14.925  -5.799  1.00 20.00     0.163 HD
ENDROOT
TORSDOF 0
ENDMDL
MODEL 8
REMARK VINA RESULT:      -3.9      9.409     10.206
REMARK  0 active torsions:
REMARK  status: ('A' for Active; 'I' for Inactive)
ROOT
HETATM    1  C1  UNL     1     -41.664   3.298  -2.678  1.00 20.00     0.218 C 
HETATM    2  C2  UNL     1     -42.790   4.250  -3.020  1.00 20.00     0.105 C 
HETATM    3  C3  UNL     1     -42.484   5.531  -2.231  1.00 20.00     0.040 C 
HETATM    4  C4  UNL     1     -40.681   6.100  -0.440  1.00 20.00     0.033 A 
HETATM    5  C5  UNL     1     -41.793   5.394   0.280  1.00 20.00     0.033 A 
HETATM    6  C6  UNL     1     -41.519   5.084  -1.169  1.00 20.00     0.033 A 
HETATM    7  N7  UNL     1     -41.001   3.822  -1.580  1.00 20.00    -0.352 N 
HETATM    8  O8  UNL     1     -41.429   2.247  -3.255  1.00 20.00    -0.274 OA
HETATM    9  H17 UNL     1     -40.229   3.356  -1.116  1.00 20.00     0.163 HD
ENDROOT
TORSDOF 0
ENDMDL
MODEL 9
REMARK VINA RESULT:      -3.9     12.112     13.331
REMARK  0 active torsions:
REMARK  status: ('A' for Active; 'I' for Inactive)
ROOT
HETATM    1  C1  UNL     1     -36.314  14.362  -4.085  1.00 20.00     0.218 C 
HETATM    2  C2  UNL     1     -35.230  13.317  -4.249  1.00 20.00     0.105 C 
HETATM    3  C3  UNL     1     -33.917  14.111  -4.312  1.00 20.00     0.040 C 
HETATM    4  C4  UNL     1     -33.411  16.663  -4.417  1.00 20.00     0.033 A 
HETATM    5  C5  UNL     1     -33.732  16.231  -5.818  1.00 20.00     0.033 A 
HETATM    6  C6  UNL     1     -34.351  15.510  -4.649  1.00 20.00     0.033 A 
HETATM    7  N7  UNL     1     -35.745  15.594  -4.369  1.00 20.00    -0.352 N 
HETATM    8  O8  UNL     1     -37.477  14.131  -3.794  1.00 20.00    -0.274 OA
HETATM    9  H17 UNL     1     -36.267  16.463  -4.378  1.00 20.00     0.163 HD
ENDROOT
TORSDOF 0
ENDMDL
