MODEL 1
REMARK VINA RESULT:      -4.7      0.000      0.000
REMARK  1 active torsions:
REMARK  status: ('A' for Active; 'I' for Inactive)
REMARK    1  A    between atoms: C6_6  and  C8_8 
ROOT
HETATM    1  C1  UNL     1     -35.763  14.692  -5.770  1.00 20.00     0.061 C 
HETATM    2  C2  UNL     1     -33.453  14.574  -3.542  1.00 20.00     0.066 C 
HETATM    3  C3  UNL     1     -35.487  15.942  -4.948  1.00 20.00     0.170 C 
HETATM    4  C4  UNL     1     -34.896  13.508  -5.475  1.00 20.00     0.153 A 
HETATM    5  C5  UNL     1     -33.857  13.411  -4.383  1.00 20.00     0.153 A 
HETATM    6  C6  UNL     1     -34.585  15.291  -2.794  1.00 20.00     0.123 C 
HETATM    7  O9  UNL     1     -35.720  15.677  -3.573  1.00 20.00    -0.386 OA
HETATM    8  O10 UNL     1     -35.175  12.897  -4.198  1.00 20.00    -0.375 OA
ENDROOT
BRANCH   6   9
HETATM    9  C8  UNL     1     -34.056  16.539  -2.090  1.00 20.00     0.027 C 
HETATM   10  C7  UNL     1     -34.631  16.686  -0.720  1.00 20.00     0.007 C 
ENDBRANCH   6   9
TORSDOF 1
ENDMDL
MODEL 2
REMARK VINA RESULT:      -4.3      1.326      1.339
REMARK  1 active torsions:
REMARK  status: ('A' for Active; 'I' for Inactive)
REMARK    1  A    between atoms: C6_6  and  C8_8 
ROOT
HETATM    1  C1  UNL     1     -34.200  15.548  -6.395  1.00 20.00     0.061 C 
HETATM    2  C2  UNL     1     -34.270  14.402  -3.395  1.00 20.00     0.066 C 
HETATM    3  C3  UNL     1     -33.551  16.371  -5.291  1.00 20.00     0.170 C 
HETATM    4  C4  UNL     1     -34.798  14.242  -5.975  1.00 20.00     0.153 A 
HETATM    5  C5  UNL     1     -34.906  13.722  -4.560  1.00 20.00     0.153 A 
HETATM    6  C6  UNL     1     -34.646  15.876  -3.186  1.00 20.00     0.123 C 
HETATM    7  O9  UNL     1     -34.525  16.732  -4.324  1.00 20.00    -0.386 OA
HETATM    8  O10 UNL     1     -35.999  14.389  -5.189  1.00 20.00    -0.375 OA
ENDROOT
BRANCH   6   9
HETATM    9  C8  UNL     1     -33.822  16.483  -2.053  1.00 20.00     0.027 C 
HETATM   10  C7  UNL     1     -34.645  16.702  -0.827  1.00 20.00     0.007 C 
ENDBRANCH   6   9
TORSDOF 1
ENDMDL
MODEL 3
REMARK VINA RESULT:      -4.3     11.832     12.793
REMARK  1 active torsions:
REMARK  status: ('A' for Active; 'I' for Inactive)
REMARK    1  A    between atoms: C6_6  and  C8_8 
ROOT
HETATM    1  C1  UNL     1     -34.490   5.768   6.723  1.00 20.00     0.061 C 
HETATM    2  C2  UNL     1     -34.830   5.516   3.539  1.00 20.00     0.066 C 
HETATM    3  C3  UNL     1     -33.885   6.853   5.843  1.00 20.00     0.170 C 
HETATM    4  C4  UNL     1     -35.224   4.677   6.009  1.00 20.00     0.153 A 
HETATM    5  C5  UNL     1     -35.331   4.502   4.511  1.00 20.00     0.153 A 
HETATM    6  C6  UNL     1     -33.352   5.909   3.675  1.00 20.00     0.123 C 
HETATM    7  O9  UNL     1     -32.911   6.287   4.981  1.00 20.00    -0.386 OA
HETATM    8  O10 UNL     1     -34.357   3.790   5.273  1.00 20.00    -0.375 OA
ENDROOT
BRANCH   6   9
HETATM    9  C8  UNL     1     -33.011   7.048   2.718  1.00 20.00     0.027 C 
HETATM   10  C7  UNL     1     -31.670   7.635   3.012  1.00 20.00     0.007 C 
ENDBRANCH   6   9
TORSDOF 1
ENDMDL
MODEL 4
REMARK VINA RESULT:      -4.1      2.076      3.832
REMARK  1 active torsions:
REMARK  status: ('A' for Active; 'I' for Inactive)
REMARK    1  A    between atoms: C6_6  and  C8_8 
ROOT
HETATM    1  C1  UNL     1     -33.630  18.096  -4.878  1.00 20.00     0.061 C 
HETATM    2  C2  UNL     1     -34.737  15.760  -2.973  1.00 20.00     0.066 C 
HETATM    3  C3  UNL     1     -33.473  16.654  -5.338  1.00 20.00     0.170 C 
HETATM    4  C4  UNL     1     -34.323  18.297  -3.568  1.00 20.00     0.153 A 
HETATM    5  C5  UNL     1     -34.783  17.210  -2.624  1.00 20.00     0.153 A 
HETATM    6  C6  UNL     1     -33.367  15.211  -3.393  1.00 20.00     0.123 C 
HETATM    7  O9  UNL     1     -32.673  15.937  -4.410  1.00 20.00    -0.386 OA
HETATM    8  O10 UNL     1     -33.537  17.876  -2.434  1.00 20.00    -0.375 OA
ENDROOT
BRANCH   6   9
HETATM    9  C8  UNL     1     -33.490  13.761  -3.854  1.00 20.00     0.027 C 
HETATM   10  C7  UNL     1     -34.901  13.405  -4.189  1.00 20.00     0.007 C 
ENDBRANCH   6   9
TORSDOF 1
ENDMDL
MODEL 5
REMARK VINA RESULT:      -4.1      1.116      1.183
REMARK  1 active torsions:
REMARK  status: ('A' for Active; 'I' for Inactive)
REMARK    1  A    between atoms: C6_6  and  C8_8 
ROOT
HETATM    1  C1  UNL     1     -36.339  15.859  -5.446  1.00 20.00     0.061 C 
HETATM    2  C2  UNL     1     -34.400  14.676  -3.175  1.00 20.00     0.066 C 
HETATM    3  C3  UNL     1     -35.578  16.838  -4.563  1.00 20.00     0.170 C 
HETATM    4  C4  UNL     1     -36.087  14.407  -5.186  1.00 20.00     0.153 A 
HETATM    5  C5  UNL     1     -35.238  13.832  -4.076  1.00 20.00     0.153 A 
HETATM    6  C6  UNL     1     -35.136  15.793  -2.422  1.00 20.00     0.123 C 
HETATM    7  O9  UNL     1     -35.957  16.659  -3.208  1.00 20.00    -0.386 OA
HETATM    8  O10 UNL     1     -36.654  13.942  -3.944  1.00 20.00    -0.375 OA
ENDROOT
BRANCH   6   9
HETATM    9  C8  UNL     1     -34.144  16.662  -1.651  1.00 20.00     0.027 C 
HETATM   10  C7  UNL     1     -34.661  17.025  -0.298  1.00 20.00     0.007 C 
ENDBRANCH   6   9
TORSDOF 1
ENDMDL
MODEL 6
REMARK VINA RESULT:      -4.0      1.847      3.922
REMARK  1 active torsions:
REMARK  status: ('A' for Active; 'I' for Inactive)
REMARK    1  A    between atoms: C6_6  and  C8_8 
ROOT
HETATM    1  C1  UNL     1     -33.461  13.647  -3.720  1.00 20.00     0.061 C 
HETATM    2  C2  UNL     1     -34.240  15.912  -5.860  1.00 20.00     0.066 C 
HETATM    3  C3  UNL     1     -34.479  13.304  -4.799  1.00 20.00     0.170 C 
HETATM    4  C4  UNL     1     -32.887  15.028  -3.775  1.00 20.00     0.153 A 
HETATM    5  C5  UNL     1     -33.295  16.129  -4.727  1.00 20.00     0.153 A 
HETATM    6  C6  UNL     1     -35.612  15.331  -5.493  1.00 20.00     0.123 C 
HETATM    7  O9  UNL     1     -35.609  14.153  -4.683  1.00 20.00    -0.386 OA
HETATM    8  O10 UNL     1     -33.831  16.055  -3.406  1.00 20.00    -0.375 OA
ENDROOT
BRANCH   6   9
HETATM    9  C8  UNL     1     -36.421  15.030  -6.753  1.00 20.00     0.027 C 
HETATM   10  C7  UNL     1     -35.537  14.728  -7.918  1.00 20.00     0.007 C 
ENDBRANCH   6   9
TORSDOF 1
ENDMDL
MODEL 7
REMARK VINA RESULT:      -4.0     10.826     11.957
REMARK  1 active torsions:
REMARK  status: ('A' for Active; 'I' for Inactive)
REMARK    1  A    between atoms: C6_6  and  C8_8 
ROOT
HETATM    1  C1  UNL     1     -40.707   6.101  -0.150  1.00 20.00     0.061 C 
HETATM    2  C2  UNL     1     -43.213   5.402  -2.032  1.00 20.00     0.066 C 
HETATM    3  C3  UNL     1     -41.355   7.229  -0.940  1.00 20.00     0.170 C 
HETATM    4  C4  UNL     1     -41.327   4.748  -0.307  1.00 20.00     0.153 A 
HETATM    5  C5  UNL     1     -42.457   4.387  -1.243  1.00 20.00     0.153 A 
HETATM    6  C6  UNL     1     -42.374   6.313  -2.939  1.00 20.00     0.123 C 
HETATM    7  O9  UNL     1     -41.256   6.963  -2.330  1.00 20.00    -0.386 OA
HETATM    8  O10 UNL     1     -41.096   4.160  -1.604  1.00 20.00    -0.375 OA
ENDROOT
BRANCH   6   9
HETATM    9  C8  UNL     1     -43.251   7.388  -3.576  1.00 20.00     0.027 C 
HETATM   10  C7  UNL     1     -42.443   8.361  -4.371  1.00 20.00     0.007 C 
ENDBRANCH   6   9
TORSDOF 1
ENDMDL
MODEL 8
REMARK VINA RESULT:      -3.9      1.534      1.674
REMARK  1 active torsions:
REMARK  status: ('A' for Active; 'I' for Inactive)
REMARK    1  A    between atoms: C6_6  and  C8_8 
ROOT
HETATM    1  C1  UNL     1     -36.074  15.790  -5.233  1.00 20.00     0.061 C 
HETATM    2  C2  UNL     1     -33.587  16.505  -3.331  1.00 20.00     0.066 C 
HETATM    3  C3  UNL     1     -36.362  16.327  -3.838  1.00 20.00     0.170 C 
HETATM    4  C4  UNL     1     -34.630  15.667  -5.605  1.00 20.00     0.153 A 
HETATM    5  C5  UNL     1     -33.448  15.928  -4.699  1.00 20.00     0.153 A 
HETATM    6  C6  UNL     1     -34.519  15.751  -2.372  1.00 20.00     0.123 C 
HETATM    7  O9  UNL     1     -35.827  15.446  -2.863  1.00 20.00    -0.386 OA
HETATM    8  O10 UNL     1     -33.946  14.607  -4.905  1.00 20.00    -0.375 OA
ENDROOT
BRANCH   6   9
HETATM    9  C8  UNL     1     -34.678  16.521  -1.063  1.00 20.00     0.027 C 
HETATM   10  C7  UNL     1     -33.632  17.576  -0.912  1.00 20.00     0.007 C 
ENDBRANCH   6   9
TORSDOF 1
ENDMDL
MODEL 9
REMARK VINA RESULT:      -3.9      2.051      3.629
REMARK  1 active torsions:
REMARK  status: ('A' for Active; 'I' for Inactive)
REMARK    1  A    between atoms: C6_6  and  C8_8 
ROOT
HETATM    1  C1  UNL     1     -33.108  14.696  -3.786  1.00 20.00     0.061 C 
HETATM    2  C2  UNL     1     -36.063  14.694  -5.042  1.00 20.00     0.066 C 
HETATM    3  C3  UNL     1     -33.527  15.877  -4.649  1.00 20.00     0.170 C 
HETATM    4  C4  UNL     1     -34.142  13.635  -3.577  1.00 20.00     0.153 A 
HETATM    5  C5  UNL     1     -35.509  13.581  -4.219  1.00 20.00     0.153 A 
HETATM    6  C6  UNL     1     -35.207  15.142  -6.234  1.00 20.00     0.123 C 
HETATM    7  O9  UNL     1     -33.834  15.431  -5.961  1.00 20.00    -0.386 OA
HETATM    8  O10 UNL     1     -34.407  12.854  -4.761  1.00 20.00    -0.375 OA
ENDROOT
BRANCH   6   9
HETATM    9  C8  UNL     1     -35.820  16.373  -6.901  1.00 20.00     0.027 C 
HETATM   10  C7  UNL     1     -34.901  16.965  -7.918  1.00 20.00     0.007 C 
ENDBRANCH   6   9
TORSDOF 1
ENDMDL
