MODEL 1
REMARK VINA RESULT:      -4.0      0.000      0.000
REMARK  0 active torsions:
REMARK  status: ('A' for Active; 'I' for Inactive)
ROOT
HETATM    1  C1  UNL     1     -32.940  15.474  -3.684  1.00 20.00     0.013 C 
HETATM    2  C2  UNL     1     -33.142  13.942  -3.620  1.00 20.00     0.035 C 
HETATM    3  C3  UNL     1     -33.430  16.178  -4.971  1.00 20.00     0.074 C 
HETATM    4  C4  UNL     1     -35.896  14.765  -5.639  1.00 20.00     0.108 C 
HETATM    5  C5  UNL     1     -34.567  13.649  -3.872  1.00 20.00     0.152 A 
HETATM    6  C6  UNL     1     -34.871  13.754  -5.342  1.00 20.00     0.160 A 
HETATM    7  O7  UNL     1     -35.080  12.549  -4.613  1.00 20.00    -0.375 OA
HETATM    8  S8  UNL     1     -35.263  16.432  -5.136  1.00 20.00    -0.166 SA
ENDROOT
TORSDOF 0
ENDMDL
MODEL 2
REMARK VINA RESULT:      -3.8      1.338      2.290
REMARK  0 active torsions:
REMARK  status: ('A' for Active; 'I' for Inactive)
ROOT
HETATM    1  C1  UNL     1     -34.465  15.534  -6.658  1.00 20.00     0.013 C 
HETATM    2  C2  UNL     1     -35.037  14.111  -6.465  1.00 20.00     0.035 C 
HETATM    3  C3  UNL     1     -34.658  16.518  -5.480  1.00 20.00     0.074 C 
HETATM    4  C4  UNL     1     -34.282  14.847  -3.116  1.00 20.00     0.108 C 
HETATM    5  C5  UNL     1     -34.483  13.552  -5.217  1.00 20.00     0.152 A 
HETATM    6  C6  UNL     1     -35.192  14.134  -4.023  1.00 20.00     0.160 A 
HETATM    7  O7  UNL     1     -35.177  12.734  -4.283  1.00 20.00    -0.375 OA
HETATM    8  S8  UNL     1     -33.542  16.289  -4.013  1.00 20.00    -0.166 SA
ENDROOT
TORSDOF 0
ENDMDL
MODEL 3
REMARK VINA RESULT:      -3.7      1.698      2.643
REMARK  0 active torsions:
REMARK  status: ('A' for Active; 'I' for Inactive)
ROOT
HETATM    1  C1  UNL     1     -36.550  15.850  -3.552  1.00 20.00     0.013 C 
HETATM    2  C2  UNL     1     -36.723  14.390  -4.030  1.00 20.00     0.035 C 
HETATM    3  C3  UNL     1     -35.324  16.139  -2.653  1.00 20.00     0.074 C 
HETATM    4  C4  UNL     1     -33.220  14.471  -3.798  1.00 20.00     0.108 C 
HETATM    5  C5  UNL     1     -35.473  13.966  -4.692  1.00 20.00     0.152 A 
HETATM    6  C6  UNL     1     -34.423  13.638  -3.664  1.00 20.00     0.160 A 
HETATM    7  O7  UNL     1     -34.878  12.677  -4.612  1.00 20.00    -0.375 OA
HETATM    8  S8  UNL     1     -33.675  16.241  -3.502  1.00 20.00    -0.166 SA
ENDROOT
TORSDOF 0
ENDMDL
MODEL 4
REMARK VINA RESULT:      -3.5      2.371      2.930
REMARK  0 active torsions:
REMARK  status: ('A' for Active; 'I' for Inactive)
ROOT
HETATM    1  C1  UNL     1     -34.953  15.862  -2.223  1.00 20.00     0.013 C 
HETATM    2  C2  UNL     1     -33.831  16.716  -2.858  1.00 20.00     0.035 C 
HETATM    3  C3  UNL     1     -36.031  15.316  -3.189  1.00 20.00     0.074 C 
HETATM    4  C4  UNL     1     -34.522  14.618  -5.588  1.00 20.00     0.108 C 
HETATM    5  C5  UNL     1     -33.215  15.937  -3.951  1.00 20.00     0.152 A 
HETATM    6  C6  UNL     1     -34.096  15.961  -5.171  1.00 20.00     0.160 A 
HETATM    7  O7  UNL     1     -32.760  16.453  -5.195  1.00 20.00    -0.375 OA
HETATM    8  S8  UNL     1     -35.548  13.864  -4.242  1.00 20.00    -0.166 SA
ENDROOT
TORSDOF 0
ENDMDL
MODEL 5
REMARK VINA RESULT:      -3.5      1.537      2.088
REMARK  0 active torsions:
REMARK  status: ('A' for Active; 'I' for Inactive)
ROOT
HETATM    1  C1  UNL     1     -34.022  13.963  -3.554  1.00 20.00     0.013 C 
HETATM    2  C2  UNL     1     -34.695  13.246  -4.747  1.00 20.00     0.035 C 
HETATM    3  C3  UNL     1     -33.003  15.072  -3.905  1.00 20.00     0.074 C 
HETATM    4  C4  UNL     1     -34.187  16.392  -6.223  1.00 20.00     0.108 C 
HETATM    5  C5  UNL     1     -35.309  14.269  -5.618  1.00 20.00     0.152 A 
HETATM    6  C6  UNL     1     -34.254  14.942  -6.455  1.00 20.00     0.160 A 
HETATM    7  O7  UNL     1     -35.350  14.244  -7.039  1.00 20.00    -0.375 OA
HETATM    8  S8  UNL     1     -33.702  16.700  -4.462  1.00 20.00    -0.166 SA
ENDROOT
TORSDOF 0
ENDMDL
MODEL 6
REMARK VINA RESULT:      -3.4      1.205      1.382
REMARK  0 active torsions:
REMARK  status: ('A' for Active; 'I' for Inactive)
ROOT
HETATM    1  C1  UNL     1     -33.592  16.613  -4.272  1.00 20.00     0.013 C 
HETATM    2  C2  UNL     1     -32.976  15.237  -3.929  1.00 20.00     0.035 C 
HETATM    3  C3  UNL     1     -34.869  16.595  -5.145  1.00 20.00     0.074 C 
HETATM    4  C4  UNL     1     -36.345  14.275  -4.165  1.00 20.00     0.108 C 
HETATM    5  C5  UNL     1     -34.023  14.398  -3.313  1.00 20.00     0.152 A 
HETATM    6  C6  UNL     1     -34.950  13.860  -4.370  1.00 20.00     0.160 A 
HETATM    7  O7  UNL     1     -34.205  13.002  -3.513  1.00 20.00    -0.375 OA
HETATM    8  S8  UNL     1     -36.452  16.119  -4.296  1.00 20.00    -0.166 SA
ENDROOT
TORSDOF 0
ENDMDL
MODEL 7
REMARK VINA RESULT:      -3.4      2.184      2.862
REMARK  0 active torsions:
REMARK  status: ('A' for Active; 'I' for Inactive)
ROOT
HETATM    1  C1  UNL     1     -33.670  13.765  -3.962  1.00 20.00     0.013 C 
HETATM    2  C2  UNL     1     -33.106  15.135  -3.517  1.00 20.00     0.035 C 
HETATM    3  C3  UNL     1     -35.078  13.778  -4.604  1.00 20.00     0.074 C 
HETATM    4  C4  UNL     1     -35.085  16.216  -6.208  1.00 20.00     0.108 C 
HETATM    5  C5  UNL     1     -33.151  16.055  -4.671  1.00 20.00     0.152 A 
HETATM    6  C6  UNL     1     -34.554  16.559  -4.882  1.00 20.00     0.160 A 
HETATM    7  O7  UNL     1     -33.465  17.441  -4.627  1.00 20.00    -0.375 OA
HETATM    8  S8  UNL     1     -35.187  14.373  -6.360  1.00 20.00    -0.166 SA
ENDROOT
TORSDOF 0
ENDMDL
MODEL 8
REMARK VINA RESULT:      -3.4      1.302      2.510
REMARK  0 active torsions:
REMARK  status: ('A' for Active; 'I' for Inactive)
ROOT
HETATM    1  C1  UNL     1     -36.376  14.815  -4.894  1.00 20.00     0.013 C 
HETATM    2  C2  UNL     1     -35.675  13.563  -4.319  1.00 20.00     0.035 C 
HETATM    3  C3  UNL     1     -35.828  16.185  -4.428  1.00 20.00     0.074 C 
HETATM    4  C4  UNL     1     -32.942  15.768  -4.298  1.00 20.00     0.108 C 
HETATM    5  C5  UNL     1     -34.228  13.672  -4.591  1.00 20.00     0.152 A 
HETATM    6  C6  UNL     1     -33.586  14.631  -3.625  1.00 20.00     0.160 A 
HETATM    7  O7  UNL     1     -33.178  13.270  -3.721  1.00 20.00    -0.375 OA
HETATM    8  S8  UNL     1     -34.233  16.749  -5.194  1.00 20.00    -0.166 SA
ENDROOT
TORSDOF 0
ENDMDL
MODEL 9
REMARK VINA RESULT:      -3.4      1.898      2.614
REMARK  0 active torsions:
REMARK  status: ('A' for Active; 'I' for Inactive)
ROOT
HETATM    1  C1  UNL     1     -33.320  16.530  -5.181  1.00 20.00     0.013 C 
HETATM    2  C2  UNL     1     -34.170  16.347  -6.459  1.00 20.00     0.035 C 
HETATM    3  C3  UNL     1     -33.827  15.809  -3.910  1.00 20.00     0.074 C 
HETATM    4  C4  UNL     1     -34.848  13.267  -4.917  1.00 20.00     0.108 C 
HETATM    5  C5  UNL     1     -34.338  14.901  -6.705  1.00 20.00     0.152 A 
HETATM    6  C6  UNL     1     -35.379  14.331  -5.780  1.00 20.00     0.160 A 
HETATM    7  O7  UNL     1     -35.511  14.264  -7.195  1.00 20.00    -0.375 OA
HETATM    8  S8  UNL     1     -33.536  13.976  -3.819  1.00 20.00    -0.166 SA
ENDROOT
TORSDOF 0
ENDMDL
