MODEL 1
REMARK VINA RESULT:      -3.6      0.000      0.000
REMARK  3 active torsions:
REMARK  status: ('A' for Active; 'I' for Inactive)
REMARK    1  A    between atoms: C1_1  and  C7_7 
REMARK    2  A    between atoms: C1_1  and  N9_9 
REMARK    3  A    between atoms: C7_7  and  C8_8 
ROOT
HETATM    1  C1  UNL     1     -34.230  15.647  -4.110  1.00 20.00     0.075 C 
HETATM    2  S10 UNL     1     -33.661  16.705  -5.312  1.00 20.00    -0.066 SA
ENDROOT
BRANCH   1   3
HETATM    3  C7  UNL     1     -33.797  15.949  -2.659  1.00 20.00     0.077 C 
BRANCH   3   4
HETATM    4  C8  UNL     1     -34.467  17.173  -1.967  1.00 20.00    -0.045 C 
HETATM    5  C2  UNL     1     -34.690  16.806  -0.483  1.00 20.00     0.015 C 
HETATM    6  C3  UNL     1     -35.831  17.530  -2.576  1.00 20.00     0.015 C 
HETATM    7  C4  UNL     1     -33.564  18.416  -2.017  1.00 20.00     0.015 C 
ENDBRANCH   3   4
ENDBRANCH   1   3
BRANCH   1   8
HETATM    8  N9  UNL     1     -35.038  14.530  -4.362  1.00 20.00    -0.384 N 
HETATM    9  C5  UNL     1     -36.471  14.467  -4.076  1.00 20.00     0.149 C 
HETATM   10  C6  UNL     1     -34.483  13.249  -4.810  1.00 20.00     0.149 C 
ENDBRANCH   1   8
TORSDOF 3
ENDMDL
MODEL 2
REMARK VINA RESULT:      -3.6      2.077      2.395
REMARK  3 active torsions:
REMARK  status: ('A' for Active; 'I' for Inactive)
REMARK    1  A    between atoms: C1_1  and  C7_7 
REMARK    2  A    between atoms: C1_1  and  N9_9 
REMARK    3  A    between atoms: C7_7  and  C8_8 
ROOT
HETATM    1  C1  UNL     1     -34.923  16.138  -2.824  1.00 20.00     0.075 C 
HETATM    2  S10 UNL     1     -36.499  15.874  -3.402  1.00 20.00    -0.066 SA
ENDROOT
BRANCH   1   3
HETATM    3  C7  UNL     1     -34.752  16.222  -1.292  1.00 20.00     0.077 C 
BRANCH   3   4
HETATM    4  C8  UNL     1     -34.615  17.647  -0.678  1.00 20.00    -0.045 C 
HETATM    5  C2  UNL     1     -35.140  17.583   0.773  1.00 20.00     0.015 C 
HETATM    6  C3  UNL     1     -35.437  18.702  -1.432  1.00 20.00     0.015 C 
HETATM    7  C4  UNL     1     -33.148  18.105  -0.631  1.00 20.00     0.015 C 
ENDBRANCH   3   4
ENDBRANCH   1   3
BRANCH   1   8
HETATM    8  N9  UNL     1     -33.799  16.297  -3.645  1.00 20.00    -0.384 N 
HETATM    9  C5  UNL     1     -33.588  17.433  -4.542  1.00 20.00     0.149 C 
HETATM   10  C6  UNL     1     -32.783  15.250  -3.791  1.00 20.00     0.149 C 
ENDBRANCH   1   8
TORSDOF 3
ENDMDL
MODEL 3
REMARK VINA RESULT:      -3.6      1.904      4.093
REMARK  3 active torsions:
REMARK  status: ('A' for Active; 'I' for Inactive)
REMARK    1  A    between atoms: C1_1  and  C7_7 
REMARK    2  A    between atoms: C1_1  and  N9_9 
REMARK    3  A    between atoms: C7_7  and  C8_8 
ROOT
HETATM    1  C1  UNL     1     -35.692  16.418  -3.011  1.00 20.00     0.075 C 
HETATM    2  S10 UNL     1     -37.092  17.115  -3.676  1.00 20.00    -0.066 SA
ENDROOT
BRANCH   1   3
HETATM    3  C7  UNL     1     -35.439  14.929  -3.333  1.00 20.00     0.077 C 
BRANCH   3   4
HETATM    4  C8  UNL     1     -34.259  14.610  -4.299  1.00 20.00    -0.045 C 
HETATM    5  C2  UNL     1     -34.516  13.212  -4.904  1.00 20.00     0.015 C 
HETATM    6  C3  UNL     1     -32.899  14.576  -3.588  1.00 20.00     0.015 C 
HETATM    7  C4  UNL     1     -34.187  15.621  -5.456  1.00 20.00     0.015 C 
ENDBRANCH   3   4
ENDBRANCH   1   3
BRANCH   1   8
HETATM    8  N9  UNL     1     -34.785  17.102  -2.191  1.00 20.00    -0.384 N 
HETATM    9  C5  UNL     1     -33.885  18.156  -2.656  1.00 20.00     0.149 C 
HETATM   10  C6  UNL     1     -34.549  16.716  -0.796  1.00 20.00     0.149 C 
ENDBRANCH   1   8
TORSDOF 3
ENDMDL
MODEL 4
REMARK VINA RESULT:      -3.5      2.038      3.077
REMARK  3 active torsions:
REMARK  status: ('A' for Active; 'I' for Inactive)
REMARK    1  A    between atoms: C1_1  and  C7_7 
REMARK    2  A    between atoms: C1_1  and  N9_9 
REMARK    3  A    between atoms: C7_7  and  C8_8 
ROOT
HETATM    1  C1  UNL     1     -35.725  14.752  -5.631  1.00 20.00     0.075 C 
HETATM    2  S10 UNL     1     -35.418  14.564  -7.292  1.00 20.00    -0.066 SA
ENDROOT
BRANCH   1   3
HETATM    3  C7  UNL     1     -34.667  14.181  -4.662  1.00 20.00     0.077 C 
BRANCH   3   4
HETATM    4  C8  UNL     1     -33.780  15.214  -3.904  1.00 20.00    -0.045 C 
HETATM    5  C2  UNL     1     -32.453  14.511  -3.540  1.00 20.00     0.015 C 
HETATM    6  C3  UNL     1     -34.424  15.713  -2.603  1.00 20.00     0.015 C 
HETATM    7  C4  UNL     1     -33.446  16.428  -4.787  1.00 20.00     0.015 C 
ENDBRANCH   3   4
ENDBRANCH   1   3
BRANCH   1   8
HETATM    8  N9  UNL     1     -36.869  15.367  -5.106  1.00 20.00    -0.384 N 
HETATM    9  C5  UNL     1     -37.278  16.739  -5.404  1.00 20.00     0.149 C 
HETATM   10  C6  UNL     1     -37.699  14.728  -4.079  1.00 20.00     0.149 C 
ENDBRANCH   1   8
TORSDOF 3
ENDMDL
MODEL 5
REMARK VINA RESULT:      -3.5      1.644      4.047
REMARK  3 active torsions:
REMARK  status: ('A' for Active; 'I' for Inactive)
REMARK    1  A    between atoms: C1_1  and  C7_7 
REMARK    2  A    between atoms: C1_1  and  N9_9 
REMARK    3  A    between atoms: C7_7  and  C8_8 
ROOT
HETATM    1  C1  UNL     1     -33.686  16.933  -3.926  1.00 20.00     0.075 C 
HETATM    2  S10 UNL     1     -33.671  18.104  -5.158  1.00 20.00    -0.066 SA
ENDROOT
BRANCH   1   3
HETATM    3  C7  UNL     1     -33.465  15.468  -4.360  1.00 20.00     0.077 C 
BRANCH   3   4
HETATM    4  C8  UNL     1     -34.622  14.789  -5.152  1.00 20.00    -0.045 C 
HETATM    5  C2  UNL     1     -34.628  13.290  -4.777  1.00 20.00     0.015 C 
HETATM    6  C3  UNL     1     -34.445  14.895  -6.674  1.00 20.00     0.015 C 
HETATM    7  C4  UNL     1     -35.990  15.378  -4.772  1.00 20.00     0.015 C 
ENDBRANCH   3   4
ENDBRANCH   1   3
BRANCH   1   8
HETATM    8  N9  UNL     1     -33.901  17.218  -2.571  1.00 20.00    -0.384 N 
HETATM    9  C5  UNL     1     -34.508  16.288  -1.619  1.00 20.00     0.149 C 
HETATM   10  C6  UNL     1     -33.667  18.550  -2.006  1.00 20.00     0.149 C 
ENDBRANCH   1   8
TORSDOF 3
ENDMDL
MODEL 6
REMARK VINA RESULT:      -3.5      2.190      4.001
REMARK  3 active torsions:
REMARK  status: ('A' for Active; 'I' for Inactive)
REMARK    1  A    between atoms: C1_1  and  C7_7 
REMARK    2  A    between atoms: C1_1  and  N9_9 
REMARK    3  A    between atoms: C7_7  and  C8_8 
ROOT
HETATM    1  C1  UNL     1     -34.275  17.032  -2.405  1.00 20.00     0.075 C 
HETATM    2  S10 UNL     1     -34.597  16.891  -0.742  1.00 20.00    -0.066 SA
ENDROOT
BRANCH   1   3
HETATM    3  C7  UNL     1     -33.484  15.879  -3.058  1.00 20.00     0.077 C 
BRANCH   3   4
HETATM    4  C8  UNL     1     -34.277  14.932  -4.007  1.00 20.00    -0.045 C 
HETATM    5  C2  UNL     1     -33.629  13.533  -3.920  1.00 20.00     0.015 C 
HETATM    6  C3  UNL     1     -34.233  15.383  -5.474  1.00 20.00     0.015 C 
HETATM    7  C4  UNL     1     -35.748  14.801  -3.575  1.00 20.00     0.015 C 
ENDBRANCH   3   4
ENDBRANCH   1   3
BRANCH   1   8
HETATM    8  N9  UNL     1     -34.666  18.123  -3.193  1.00 20.00    -0.384 N 
HETATM    9  C5  UNL     1     -36.053  18.536  -3.401  1.00 20.00     0.149 C 
HETATM   10  C6  UNL     1     -33.711  18.877  -4.012  1.00 20.00     0.149 C 
ENDBRANCH   1   8
TORSDOF 3
ENDMDL
MODEL 7
REMARK VINA RESULT:      -3.5      1.610      4.077
REMARK  3 active torsions:
REMARK  status: ('A' for Active; 'I' for Inactive)
REMARK    1  A    between atoms: C1_1  and  C7_7 
REMARK    2  A    between atoms: C1_1  and  N9_9 
REMARK    3  A    between atoms: C7_7  and  C8_8 
ROOT
HETATM    1  C1  UNL     1     -33.686  16.941  -3.867  1.00 20.00     0.075 C 
HETATM    2  S10 UNL     1     -33.634  18.055  -5.150  1.00 20.00    -0.066 SA
ENDROOT
BRANCH   1   3
HETATM    3  C7  UNL     1     -33.548  15.449  -4.240  1.00 20.00     0.077 C 
BRANCH   3   4
HETATM    4  C8  UNL     1     -34.802  14.760  -4.856  1.00 20.00    -0.045 C 
HETATM    5  C2  UNL     1     -34.573  14.650  -6.380  1.00 20.00     0.015 C 
HETATM    6  C3  UNL     1     -36.094  15.557  -4.627  1.00 20.00     0.015 C 
HETATM    7  C4  UNL     1     -34.995  13.338  -4.303  1.00 20.00     0.015 C 
ENDBRANCH   3   4
ENDBRANCH   1   3
BRANCH   1   8
HETATM    8  N9  UNL     1     -33.862  17.294  -2.523  1.00 20.00    -0.384 N 
HETATM    9  C5  UNL     1     -34.446  16.417  -1.510  1.00 20.00     0.149 C 
HETATM   10  C6  UNL     1     -33.606  18.652  -2.032  1.00 20.00     0.149 C 
ENDBRANCH   1   8
TORSDOF 3
ENDMDL
MODEL 8
REMARK VINA RESULT:      -3.5      0.799      1.707
REMARK  3 active torsions:
REMARK  status: ('A' for Active; 'I' for Inactive)
REMARK    1  A    between atoms: C1_1  and  C7_7 
REMARK    2  A    between atoms: C1_1  and  N9_9 
REMARK    3  A    between atoms: C7_7  and  C8_8 
ROOT
HETATM    1  C1  UNL     1     -33.919  15.849  -4.447  1.00 20.00     0.075 C 
HETATM    2  S10 UNL     1     -33.541  17.136  -5.491  1.00 20.00    -0.066 SA
ENDROOT
BRANCH   1   3
HETATM    3  C7  UNL     1     -33.593  16.051  -2.952  1.00 20.00     0.077 C 
BRANCH   3   4
HETATM    4  C8  UNL     1     -34.529  17.008  -2.153  1.00 20.00    -0.045 C 
HETATM    5  C2  UNL     1     -33.908  18.421  -2.207  1.00 20.00     0.015 C 
HETATM    6  C3  UNL     1     -34.669  16.609  -0.677  1.00 20.00     0.015 C 
HETATM    7  C4  UNL     1     -35.931  17.081  -2.780  1.00 20.00     0.015 C 
ENDBRANCH   3   4
ENDBRANCH   1   3
BRANCH   1   8
HETATM    8  N9  UNL     1     -34.481  14.635  -4.864  1.00 20.00    -0.384 N 
HETATM    9  C5  UNL     1     -34.946  14.366  -6.225  1.00 20.00     0.149 C 
HETATM   10  C6  UNL     1     -34.793  13.554  -3.924  1.00 20.00     0.149 C 
ENDBRANCH   1   8
TORSDOF 3
ENDMDL
MODEL 9
REMARK VINA RESULT:      -3.5      1.879      4.081
REMARK  3 active torsions:
REMARK  status: ('A' for Active; 'I' for Inactive)
REMARK    1  A    between atoms: C1_1  and  C7_7 
REMARK    2  A    between atoms: C1_1  and  N9_9 
REMARK    3  A    between atoms: C7_7  and  C8_8 
ROOT
HETATM    1  C1  UNL     1     -35.630  16.453  -3.071  1.00 20.00     0.075 C 
HETATM    2  S10 UNL     1     -36.959  17.191  -3.831  1.00 20.00    -0.066 SA
ENDROOT
BRANCH   1   3
HETATM    3  C7  UNL     1     -35.440  14.942  -3.324  1.00 20.00     0.077 C 
BRANCH   3   4
HETATM    4  C8  UNL     1     -34.341  14.535  -4.351  1.00 20.00    -0.045 C 
HETATM    5  C2  UNL     1     -33.004  14.425  -3.585  1.00 20.00     0.015 C 
HETATM    6  C3  UNL     1     -34.161  15.568  -5.472  1.00 20.00     0.015 C 
HETATM    7  C4  UNL     1     -34.639  13.165  -4.984  1.00 20.00     0.015 C 
ENDBRANCH   3   4
ENDBRANCH   1   3
BRANCH   1   8
HETATM    8  N9  UNL     1     -34.730  17.123  -2.232  1.00 20.00    -0.384 N 
HETATM    9  C5  UNL     1     -33.807  18.165  -2.679  1.00 20.00     0.149 C 
HETATM   10  C6  UNL     1     -34.527  16.733  -0.834  1.00 20.00     0.149 C 
ENDBRANCH   1   8
TORSDOF 3
ENDMDL
