MODEL 1
REMARK VINA RESULT:      -4.2      0.000      0.000
REMARK  0 active torsions:
REMARK  status: ('A' for Active; 'I' for Inactive)
ROOT
HETATM    1  C1  UNL     1     -33.927   5.894   5.161  1.00 20.00     0.076 A 
HETATM    2  C2  UNL     1     -34.442   5.016   4.249  1.00 20.00     0.123 A 
HETATM    3  C3  UNL     1     -33.015   6.720   3.404  1.00 20.00     0.073 A 
HETATM    4  C4  UNL     1     -35.263   4.314   6.025  1.00 20.00     0.097 A 
HETATM    5  C5  UNL     1     -34.421   5.529   6.490  1.00 20.00     0.109 A 
HETATM    6  C6  UNL     1     -32.214   7.586   2.511  1.00 20.00     0.079 C 
HETATM    7  N7  UNL     1     -33.110   6.879   4.715  1.00 20.00    -0.248 NA
HETATM    8  N8  UNL     1     -35.254   4.049   4.742  1.00 20.00    -0.255 NA
HETATM    9  S9  UNL     1     -33.903   5.396   2.703  1.00 20.00    -0.053 SA
ENDROOT
TORSDOF 0
ENDMDL
MODEL 2
REMARK VINA RESULT:      -3.8     10.083     10.878
REMARK  0 active torsions:
REMARK  status: ('A' for Active; 'I' for Inactive)
ROOT
HETATM    1  C1  UNL     1     -41.609   3.725  -2.364  1.00 20.00     0.076 A 
HETATM    2  C2  UNL     1     -42.647   4.474  -2.840  1.00 20.00     0.123 A 
HETATM    3  C3  UNL     1     -41.286   5.478  -1.170  1.00 20.00     0.073 A 
HETATM    4  C4  UNL     1     -42.851   2.718  -3.935  1.00 20.00     0.097 A 
HETATM    5  C5  UNL     1     -41.614   2.431  -3.048  1.00 20.00     0.109 A 
HETATM    6  C6  UNL     1     -40.709   6.424  -0.190  1.00 20.00     0.079 C 
HETATM    7  N7  UNL     1     -40.811   4.266  -1.410  1.00 20.00    -0.248 NA
HETATM    8  N8  UNL     1     -43.417   3.891  -3.792  1.00 20.00    -0.255 NA
HETATM    9  S9  UNL     1     -42.684   5.973  -2.082  1.00 20.00    -0.053 SA
ENDROOT
TORSDOF 0
ENDMDL
MODEL 3
REMARK VINA RESULT:      -3.7     12.067     12.911
REMARK  0 active torsions:
REMARK  status: ('A' for Active; 'I' for Inactive)
ROOT
HETATM    1  C1  UNL     1     -35.267  14.341  -3.809  1.00 20.00     0.076 A 
HETATM    2  C2  UNL     1     -35.047  15.654  -3.500  1.00 20.00     0.123 A 
HETATM    3  C3  UNL     1     -37.315  14.970  -3.698  1.00 20.00     0.073 A 
HETATM    4  C4  UNL     1     -33.107  14.917  -3.639  1.00 20.00     0.097 A 
HETATM    5  C5  UNL     1     -33.973  13.669  -3.943  1.00 20.00     0.109 A 
HETATM    6  C6  UNL     1     -38.794  14.953  -3.727  1.00 20.00     0.079 C 
HETATM    7  N7  UNL     1     -36.549  13.916  -3.930  1.00 20.00    -0.248 NA
HETATM    8  N8  UNL     1     -33.749  16.032  -3.391  1.00 20.00    -0.255 NA
HETATM    9  S9  UNL     1     -36.507  16.469  -3.337  1.00 20.00    -0.053 SA
ENDROOT
TORSDOF 0
ENDMDL
MODEL 4
REMARK VINA RESULT:      -3.7      9.763     10.584
REMARK  0 active torsions:
REMARK  status: ('A' for Active; 'I' for Inactive)
ROOT
HETATM    1  C1  UNL     1     -41.337   5.495  -1.416  1.00 20.00     0.076 A 
HETATM    2  C2  UNL     1     -42.413   6.011  -2.081  1.00 20.00     0.123 A 
HETATM    3  C3  UNL     1     -41.877   3.736  -2.521  1.00 20.00     0.073 A 
HETATM    4  C4  UNL     1     -41.786   7.643  -0.956  1.00 20.00     0.097 A 
HETATM    5  C5  UNL     1     -40.769   6.540  -0.564  1.00 20.00     0.109 A 
HETATM    6  C6  UNL     1     -41.881   2.355  -3.051  1.00 20.00     0.079 C 
HETATM    7  N7  UNL     1     -41.002   4.201  -1.643  1.00 20.00    -0.248 NA
HETATM    8  N8  UNL     1     -42.710   7.308  -1.823  1.00 20.00    -0.255 NA
HETATM    9  S9  UNL     1     -43.100   4.844  -3.077  1.00 20.00    -0.053 SA
ENDROOT
TORSDOF 0
ENDMDL
MODEL 5
REMARK VINA RESULT:      -3.7     12.447     13.270
REMARK  0 active torsions:
REMARK  status: ('A' for Active; 'I' for Inactive)
ROOT
HETATM    1  C1  UNL     1     -34.413  16.100  -2.386  1.00 20.00     0.076 A 
HETATM    2  C2  UNL     1     -33.840  17.113  -3.103  1.00 20.00     0.123 A 
HETATM    3  C3  UNL     1     -34.324  15.110  -4.287  1.00 20.00     0.073 A 
HETATM    4  C4  UNL     1     -33.983  17.959  -1.208  1.00 20.00     0.097 A 
HETATM    5  C5  UNL     1     -34.583  16.545  -1.002  1.00 20.00     0.109 A 
HETATM    6  C6  UNL     1     -34.459  14.085  -5.346  1.00 20.00     0.079 C 
HETATM    7  N7  UNL     1     -34.702  14.942  -3.030  1.00 20.00    -0.248 NA
HETATM    8  N8  UNL     1     -33.568  18.251  -2.416  1.00 20.00    -0.255 NA
HETATM    9  S9  UNL     1     -33.622  16.648  -4.703  1.00 20.00    -0.053 SA
ENDROOT
TORSDOF 0
ENDMDL
MODEL 6
REMARK VINA RESULT:      -3.7     12.034     13.360
REMARK  0 active torsions:
REMARK  status: ('A' for Active; 'I' for Inactive)
ROOT
HETATM    1  C1  UNL     1     -34.399  15.371  -4.979  1.00 20.00     0.076 A 
HETATM    2  C2  UNL     1     -34.214  14.861  -3.725  1.00 20.00     0.123 A 
HETATM    3  C3  UNL     1     -33.995  17.216  -3.962  1.00 20.00     0.073 A 
HETATM    4  C4  UNL     1     -34.620  13.145  -4.828  1.00 20.00     0.097 A 
HETATM    5  C5  UNL     1     -34.699  14.267  -5.893  1.00 20.00     0.109 A 
HETATM    6  C6  UNL     1     -33.782  18.655  -3.692  1.00 20.00     0.079 C 
HETATM    7  N7  UNL     1     -34.282  16.710  -5.151  1.00 20.00    -0.248 NA
HETATM    8  N8  UNL     1     -34.341  13.516  -3.602  1.00 20.00    -0.255 NA
HETATM    9  S9  UNL     1     -33.865  16.093  -2.637  1.00 20.00    -0.053 SA
ENDROOT
TORSDOF 0
ENDMDL
MODEL 7
REMARK VINA RESULT:      -3.6     12.106     12.626
REMARK  0 active torsions:
REMARK  status: ('A' for Active; 'I' for Inactive)
ROOT
HETATM    1  C1  UNL     1     -34.080  14.962  -3.397  1.00 20.00     0.076 A 
HETATM    2  C2  UNL     1     -35.431  15.150  -3.483  1.00 20.00     0.123 A 
HETATM    3  C3  UNL     1     -34.176  16.879  -2.439  1.00 20.00     0.073 A 
HETATM    4  C4  UNL     1     -35.201  13.294  -4.391  1.00 20.00     0.097 A 
HETATM    5  C5  UNL     1     -33.748  13.672  -4.005  1.00 20.00     0.109 A 
HETATM    6  C6  UNL     1     -33.781  18.129  -1.754  1.00 20.00     0.079 C 
HETATM    7  N7  UNL     1     -33.333  15.927  -2.808  1.00 20.00    -0.248 NA
HETATM    8  N8  UNL     1     -36.136  14.157  -4.079  1.00 20.00    -0.255 NA
HETATM    9  S9  UNL     1     -35.861  16.621  -2.795  1.00 20.00    -0.053 SA
ENDROOT
TORSDOF 0
ENDMDL
MODEL 8
REMARK VINA RESULT:      -3.6     12.492     13.706
REMARK  0 active torsions:
REMARK  status: ('A' for Active; 'I' for Inactive)
ROOT
HETATM    1  C1  UNL     1     -34.662  15.000  -4.468  1.00 20.00     0.076 A 
HETATM    2  C2  UNL     1     -34.197  16.172  -4.995  1.00 20.00     0.123 A 
HETATM    3  C3  UNL     1     -34.508  16.112  -2.639  1.00 20.00     0.073 A 
HETATM    4  C4  UNL     1     -34.392  14.988  -6.694  1.00 20.00     0.097 A 
HETATM    5  C5  UNL     1     -34.856  14.042  -5.557  1.00 20.00     0.109 A 
HETATM    6  C6  UNL     1     -34.561  16.474  -1.206  1.00 20.00     0.079 C 
HETATM    7  N7  UNL     1     -34.852  14.930  -3.127  1.00 20.00    -0.248 NA
HETATM    8  N8  UNL     1     -34.023  16.194  -6.340  1.00 20.00    -0.255 NA
HETATM    9  S9  UNL     1     -33.959  17.308  -3.780  1.00 20.00    -0.053 SA
ENDROOT
TORSDOF 0
ENDMDL
MODEL 9
REMARK VINA RESULT:      -3.6     11.756     12.757
REMARK  0 active torsions:
REMARK  status: ('A' for Active; 'I' for Inactive)
ROOT
HETATM    1  C1  UNL     1     -34.769  15.190  -3.638  1.00 20.00     0.076 A 
HETATM    2  C2  UNL     1     -35.625  14.189  -4.001  1.00 20.00     0.123 A 
HETATM    3  C3  UNL     1     -36.606  16.283  -3.448  1.00 20.00     0.073 A 
HETATM    4  C4  UNL     1     -33.779  13.244  -4.145  1.00 20.00     0.097 A 
HETATM    5  C5  UNL     1     -33.400  14.675  -3.688  1.00 20.00     0.109 A 
HETATM    6  C6  UNL     1     -37.572  17.374  -3.195  1.00 20.00     0.079 C 
HETATM    7  N7  UNL     1     -35.293  16.398  -3.315  1.00 20.00    -0.248 NA
HETATM    8  N8  UNL     1     -35.055  12.999  -4.314  1.00 20.00    -0.255 NA
HETATM    9  S9  UNL     1     -37.215  14.733  -3.957  1.00 20.00    -0.053 SA
ENDROOT
TORSDOF 0
ENDMDL
