MODEL 1
REMARK VINA RESULT:      -5.1      0.000      0.000
REMARK  0 active torsions:
REMARK  status: ('A' for Active; 'I' for Inactive)
ROOT
HETATM    1  C1  UNL     1     -34.570  13.691  -4.559  1.00 20.00     0.100 C 
HETATM    2  C2  UNL     1     -34.202  15.415  -2.884  1.00 20.00     0.067 A 
HETATM    3  C3  UNL     1     -34.271  15.050  -4.224  1.00 20.00     0.056 A 
HETATM    4  C4  UNL     1     -34.053  16.006  -5.211  1.00 20.00    -0.001 A 
HETATM    5  C5  UNL     1     -33.913  16.736  -2.586  1.00 20.00     0.129 A 
HETATM    6  C6  UNL     1     -33.770  17.301  -4.808  1.00 20.00     0.135 A 
HETATM    7  C7  UNL     1     -34.120  15.643  -6.660  1.00 20.00     0.053 C 
HETATM    8  N8  UNL     1     -34.812  12.590  -4.831  1.00 20.00    -0.191 NA
HETATM    9  N9  UNL     1     -33.694  17.692  -3.517  1.00 20.00    -0.224 NA
HETATM   10 CL10 UNL     1     -33.807  17.276  -0.961  1.00 20.00    -0.062 Cl
HETATM   11 CL11 UNL     1     -33.481  18.573  -5.930  1.00 20.00    -0.062 Cl
ENDROOT
TORSDOF 0
ENDMDL
MODEL 2
REMARK VINA RESULT:      -4.6      2.445      2.873
REMARK  0 active torsions:
REMARK  status: ('A' for Active; 'I' for Inactive)
ROOT
HETATM    1  C1  UNL     1     -37.456  14.797  -3.678  1.00 20.00     0.100 C 
HETATM    2  C2  UNL     1     -36.142  16.649  -2.811  1.00 20.00     0.067 A 
HETATM    3  C3  UNL     1     -36.185  15.377  -3.370  1.00 20.00     0.056 A 
HETATM    4  C4  UNL     1     -34.999  14.693  -3.621  1.00 20.00    -0.001 A 
HETATM    5  C5  UNL     1     -34.899  17.190  -2.524  1.00 20.00     0.129 A 
HETATM    6  C6  UNL     1     -33.808  15.322  -3.296  1.00 20.00     0.135 A 
HETATM    7  C7  UNL     1     -35.014  13.324  -4.220  1.00 20.00     0.053 C 
HETATM    8  N8  UNL     1     -38.487  14.326  -3.927  1.00 20.00    -0.191 NA
HETATM    9  N9  UNL     1     -33.727  16.556  -2.753  1.00 20.00    -0.224 NA
HETATM   10 CL10 UNL     1     -34.749  18.753  -1.834  1.00 20.00    -0.062 Cl
HETATM   11 CL11 UNL     1     -32.275  14.584  -3.557  1.00 20.00    -0.062 Cl
ENDROOT
TORSDOF 0
ENDMDL
MODEL 3
REMARK VINA RESULT:      -4.5      2.350      3.610
REMARK  0 active torsions:
REMARK  status: ('A' for Active; 'I' for Inactive)
ROOT
HETATM    1  C1  UNL     1     -34.583  16.703  -1.073  1.00 20.00     0.100 C 
HETATM    2  C2  UNL     1     -34.456  15.076  -2.876  1.00 20.00     0.067 A 
HETATM    3  C3  UNL     1     -34.362  16.398  -2.453  1.00 20.00     0.056 A 
HETATM    4  C4  UNL     1     -34.054  17.395  -3.373  1.00 20.00    -0.001 A 
HETATM    5  C5  UNL     1     -34.236  14.807  -4.216  1.00 20.00     0.129 A 
HETATM    6  C6  UNL     1     -33.852  17.021  -4.692  1.00 20.00     0.135 A 
HETATM    7  C7  UNL     1     -33.947  18.825  -2.949  1.00 20.00     0.053 C 
HETATM    8  N8  UNL     1     -34.762  16.950   0.046  1.00 20.00    -0.191 NA
HETATM    9  N9  UNL     1     -33.936  15.749  -5.138  1.00 20.00    -0.224 NA
HETATM   10 CL10 UNL     1     -34.330  13.206  -4.827  1.00 20.00    -0.062 Cl
HETATM   11 CL11 UNL     1     -33.466  18.158  -5.924  1.00 20.00    -0.062 Cl
ENDROOT
TORSDOF 0
ENDMDL
MODEL 4
REMARK VINA RESULT:      -4.5      2.246      3.372
REMARK  0 active torsions:
REMARK  status: ('A' for Active; 'I' for Inactive)
ROOT
HETATM    1  C1  UNL     1     -33.736  18.140  -5.737  1.00 20.00     0.100 C 
HETATM    2  C2  UNL     1     -34.076  17.337  -3.468  1.00 20.00     0.067 A 
HETATM    3  C3  UNL     1     -34.002  17.066  -4.830  1.00 20.00     0.056 A 
HETATM    4  C4  UNL     1     -34.185  15.764  -5.284  1.00 20.00    -0.001 A 
HETATM    5  C5  UNL     1     -34.334  16.281  -2.609  1.00 20.00     0.129 A 
HETATM    6  C6  UNL     1     -34.438  14.779  -4.344  1.00 20.00     0.135 A 
HETATM    7  C7  UNL     1     -34.112  15.442  -6.742  1.00 20.00     0.053 C 
HETATM    8  N8  UNL     1     -33.520  19.010  -6.473  1.00 20.00    -0.191 NA
HETATM    9  N9  UNL     1     -34.517  15.004  -3.014  1.00 20.00    -0.224 NA
HETATM   10 CL10 UNL     1     -34.442  16.521  -0.914  1.00 20.00    -0.062 Cl
HETATM   11 CL11 UNL     1     -34.681  13.131  -4.777  1.00 20.00    -0.062 Cl
ENDROOT
TORSDOF 0
ENDMDL
MODEL 5
REMARK VINA RESULT:      -4.5      2.429      2.724
REMARK  0 active torsions:
REMARK  status: ('A' for Active; 'I' for Inactive)
ROOT
HETATM    1  C1  UNL     1     -35.071  13.704  -4.111  1.00 20.00     0.100 C 
HETATM    2  C2  UNL     1     -34.479  15.478  -2.558  1.00 20.00     0.067 A 
HETATM    3  C3  UNL     1     -35.396  14.930  -3.448  1.00 20.00     0.056 A 
HETATM    4  C4  UNL     1     -36.607  15.575  -3.676  1.00 20.00    -0.001 A 
HETATM    5  C5  UNL     1     -34.817  16.664  -1.928  1.00 20.00     0.129 A 
HETATM    6  C6  UNL     1     -36.849  16.758  -2.996  1.00 20.00     0.135 A 
HETATM    7  C7  UNL     1     -37.611  15.010  -4.628  1.00 20.00     0.053 C 
HETATM    8  N8  UNL     1     -34.808  12.710  -4.649  1.00 20.00    -0.191 NA
HETATM    9  N9  UNL     1     -35.983  17.321  -2.125  1.00 20.00    -0.224 NA
HETATM   10 CL10 UNL     1     -33.749  17.414  -0.814  1.00 20.00    -0.062 Cl
HETATM   11 CL11 UNL     1     -38.306  17.652  -3.190  1.00 20.00    -0.062 Cl
ENDROOT
TORSDOF 0
ENDMDL
MODEL 6
REMARK VINA RESULT:      -4.4      3.041      3.776
REMARK  0 active torsions:
REMARK  status: ('A' for Active; 'I' for Inactive)
ROOT
HETATM    1  C1  UNL     1     -34.111  13.848  -3.616  1.00 20.00     0.100 C 
HETATM    2  C2  UNL     1     -36.470  14.278  -4.020  1.00 20.00     0.067 A 
HETATM    3  C3  UNL     1     -35.253  14.701  -3.495  1.00 20.00     0.056 A 
HETATM    4  C4  UNL     1     -35.167  15.940  -2.869  1.00 20.00    -0.001 A 
HETATM    5  C5  UNL     1     -37.560  15.123  -3.893  1.00 20.00     0.129 A 
HETATM    6  C6  UNL     1     -36.316  16.710  -2.792  1.00 20.00     0.135 A 
HETATM    7  C7  UNL     1     -33.873  16.422  -2.294  1.00 20.00     0.053 C 
HETATM    8  N8  UNL     1     -33.185  13.156  -3.713  1.00 20.00    -0.191 NA
HETATM    9  N9  UNL     1     -37.514  16.332  -3.290  1.00 20.00    -0.224 NA
HETATM   10 CL10 UNL     1     -39.099  14.684  -4.510  1.00 20.00    -0.062 Cl
HETATM   11 CL11 UNL     1     -36.341  18.259  -2.043  1.00 20.00    -0.062 Cl
ENDROOT
TORSDOF 0
ENDMDL
MODEL 7
REMARK VINA RESULT:      -4.3      1.360      3.145
REMARK  0 active torsions:
REMARK  status: ('A' for Active; 'I' for Inactive)
ROOT
HETATM    1  C1  UNL     1     -34.711  13.923  -4.609  1.00 20.00     0.100 C 
HETATM    2  C2  UNL     1     -34.499  15.798  -6.143  1.00 20.00     0.067 A 
HETATM    3  C3  UNL     1     -34.470  15.314  -4.839  1.00 20.00     0.056 A 
HETATM    4  C4  UNL     1     -34.205  16.185  -3.787  1.00 20.00    -0.001 A 
HETATM    5  C5  UNL     1     -34.261  17.147  -6.340  1.00 20.00     0.129 A 
HETATM    6  C6  UNL     1     -33.981  17.519  -4.090  1.00 20.00     0.135 A 
HETATM    7  C7  UNL     1     -34.167  15.696  -2.375  1.00 20.00     0.053 C 
HETATM    8  N8  UNL     1     -34.907  12.795  -4.422  1.00 20.00    -0.191 NA
HETATM    9  N9  UNL     1     -34.002  18.024  -5.343  1.00 20.00    -0.224 NA
HETATM   10 CL10 UNL     1     -34.277  17.832  -7.913  1.00 20.00    -0.062 Cl
HETATM   11 CL11 UNL     1     -33.643  18.695  -2.880  1.00 20.00    -0.062 Cl
ENDROOT
TORSDOF 0
ENDMDL
MODEL 8
REMARK VINA RESULT:      -4.3      2.297      4.171
REMARK  0 active torsions:
REMARK  status: ('A' for Active; 'I' for Inactive)
ROOT
HETATM    1  C1  UNL     1     -33.651  18.188  -5.701  1.00 20.00     0.100 C 
HETATM    2  C2  UNL     1     -33.950  15.824  -5.218  1.00 20.00     0.067 A 
HETATM    3  C3  UNL     1     -33.886  17.136  -4.760  1.00 20.00     0.056 A 
HETATM    4  C4  UNL     1     -34.052  17.402  -3.405  1.00 20.00    -0.001 A 
HETATM    5  C5  UNL     1     -34.179  14.824  -4.288  1.00 20.00     0.129 A 
HETATM    6  C6  UNL     1     -34.277  16.330  -2.557  1.00 20.00     0.135 A 
HETATM    7  C7  UNL     1     -33.988  18.802  -2.884  1.00 20.00     0.053 C 
HETATM    8  N8  UNL     1     -33.461  19.041  -6.464  1.00 20.00    -0.191 NA
HETATM    9  N9  UNL     1     -34.345  15.044  -2.964  1.00 20.00    -0.224 NA
HETATM   10 CL10 UNL     1     -34.274  13.177  -4.760  1.00 20.00    -0.062 Cl
HETATM   11 CL11 UNL     1     -34.499  16.527  -0.862  1.00 20.00    -0.062 Cl
ENDROOT
TORSDOF 0
ENDMDL
MODEL 9
REMARK VINA RESULT:      -4.3      6.763      8.241
REMARK  0 active torsions:
REMARK  status: ('A' for Active; 'I' for Inactive)
ROOT
HETATM    1  C1  UNL     1     -31.972  19.012   1.020  1.00 20.00     0.100 C 
HETATM    2  C2  UNL     1     -31.964  19.028   3.452  1.00 20.00     0.067 A 
HETATM    3  C3  UNL     1     -32.655  18.820   2.263  1.00 20.00     0.056 A 
HETATM    4  C4  UNL     1     -33.989  18.429   2.300  1.00 20.00    -0.001 A 
HETATM    5  C5  UNL     1     -32.647  18.834   4.641  1.00 20.00     0.129 A 
HETATM    6  C6  UNL     1     -34.581  18.263   3.542  1.00 20.00     0.135 A 
HETATM    7  C7  UNL     1     -34.759  18.199   1.040  1.00 20.00     0.053 C 
HETATM    8  N8  UNL     1     -31.418  19.168   0.013  1.00 20.00    -0.191 NA
HETATM    9  N9  UNL     1     -33.942  18.456   4.717  1.00 20.00    -0.224 NA
HETATM   10 CL10 UNL     1     -31.875  19.067   6.155  1.00 20.00    -0.062 Cl
HETATM   11 CL11 UNL     1     -36.224  17.782   3.724  1.00 20.00    -0.062 Cl
ENDROOT
TORSDOF 0
ENDMDL
