MODEL 1
REMARK VINA RESULT:      -3.9      0.000      0.000
REMARK  1 active torsions:
REMARK  status: ('A' for Active; 'I' for Inactive)
REMARK    1  A    between atoms: C3_3  and  C6_6 
ROOT
HETATM    1  C1  UNL     1     -34.917  16.329  -1.929  1.00 20.00     0.134 C 
HETATM    2  C2  UNL     1     -36.124  15.203  -3.669  1.00 20.00     0.137 C 
HETATM    3  C3  UNL     1     -34.867  15.606  -4.428  1.00 20.00     0.075 C 
HETATM    4  N7  UNL     1     -36.136  15.920  -2.417  1.00 20.00    -0.374 N 
HETATM    5  S8  UNL     1     -34.685  17.063  -0.459  1.00 20.00    -0.053 SA
HETATM    6  S9  UNL     1     -33.664  15.956  -3.100  1.00 20.00    -0.094 SA
HETATM    7  H20 UNL     1     -36.987  16.030  -1.876  1.00 20.00     0.161 HD
ENDROOT
BRANCH   3   8
HETATM    8  C6  UNL     1     -34.366  14.529  -5.372  1.00 20.00    -0.007 C 
HETATM    9  C4  UNL     1     -34.734  13.136  -4.855  1.00 20.00     0.011 C 
HETATM   10  C5  UNL     1     -34.926  14.735  -6.781  1.00 20.00     0.011 C 
ENDBRANCH   3   8
TORSDOF 1
ENDMDL
MODEL 2
REMARK VINA RESULT:      -3.8      0.491      1.280
REMARK  1 active torsions:
REMARK  status: ('A' for Active; 'I' for Inactive)
REMARK    1  A    between atoms: C3_3  and  C6_6 
ROOT
HETATM    1  C1  UNL     1     -35.050  16.252  -2.083  1.00 20.00     0.134 C 
HETATM    2  C2  UNL     1     -36.625  15.317  -3.632  1.00 20.00     0.137 C 
HETATM    3  C3  UNL     1     -35.429  15.520  -4.551  1.00 20.00     0.075 C 
HETATM    4  N7  UNL     1     -36.369  16.032  -2.405  1.00 20.00    -0.374 N 
HETATM    5  S8  UNL     1     -34.524  16.946  -0.671  1.00 20.00    -0.053 SA
HETATM    6  S9  UNL     1     -34.028  15.687  -3.393  1.00 20.00    -0.094 SA
HETATM    7  H20 UNL     1     -37.117  16.273  -1.764  1.00 20.00     0.161 HD
ENDROOT
BRANCH   3   8
HETATM    8  C6  UNL     1     -35.221  14.375  -5.525  1.00 20.00    -0.007 C 
HETATM    9  C4  UNL     1     -34.468  14.847  -6.771  1.00 20.00     0.011 C 
HETATM   10  C5  UNL     1     -34.470  13.221  -4.858  1.00 20.00     0.011 C 
ENDBRANCH   3   8
TORSDOF 1
ENDMDL
MODEL 3
REMARK VINA RESULT:      -3.7      2.122      4.259
REMARK  1 active torsions:
REMARK  status: ('A' for Active; 'I' for Inactive)
REMARK    1  A    between atoms: C3_3  and  C6_6 
ROOT
HETATM    1  C1  UNL     1     -34.566  15.384  -5.494  1.00 20.00     0.134 C 
HETATM    2  C2  UNL     1     -35.377  15.395  -3.236  1.00 20.00     0.137 C 
HETATM    3  C3  UNL     1     -33.911  15.732  -3.000  1.00 20.00     0.075 C 
HETATM    4  N7  UNL     1     -35.515  14.944  -4.600  1.00 20.00    -0.374 N 
HETATM    5  S8  UNL     1     -34.594  15.086  -7.126  1.00 20.00    -0.053 SA
HETATM    6  S9  UNL     1     -33.336  16.297  -4.637  1.00 20.00    -0.094 SA
HETATM    7  H20 UNL     1     -36.323  14.413  -4.905  1.00 20.00     0.161 HD
ENDROOT
BRANCH   3   8
HETATM    8  C6  UNL     1     -33.705  16.792  -1.934  1.00 20.00    -0.007 C 
HETATM    9  C4  UNL     1     -33.831  18.197  -2.528  1.00 20.00     0.011 C 
HETATM   10  C5  UNL     1     -34.700  16.612  -0.786  1.00 20.00     0.011 C 
ENDBRANCH   3   8
TORSDOF 1
ENDMDL
MODEL 4
REMARK VINA RESULT:      -3.7     12.277     13.208
REMARK  1 active torsions:
REMARK  status: ('A' for Active; 'I' for Inactive)
REMARK    1  A    between atoms: C3_3  and  C6_6 
ROOT
HETATM    1  C1  UNL     1     -41.693   3.577  -2.492  1.00 20.00     0.134 C 
HETATM    2  C2  UNL     1     -40.867   5.075  -0.810  1.00 20.00     0.137 C 
HETATM    3  C3  UNL     1     -41.613   6.056  -1.705  1.00 20.00     0.075 C 
HETATM    4  N7  UNL     1     -40.750   3.826  -1.522  1.00 20.00    -0.374 N 
HETATM    5  S8  UNL     1     -41.818   2.162  -3.349  1.00 20.00    -0.053 SA
HETATM    6  S9  UNL     1     -42.728   4.983  -2.673  1.00 20.00    -0.094 SA
HETATM    7  H20 UNL     1     -40.068   3.124  -1.255  1.00 20.00     0.161 HD
ENDROOT
BRANCH   3   8
HETATM    8  C6  UNL     1     -42.380   7.110  -0.928  1.00 20.00    -0.007 C 
HETATM    9  C4  UNL     1     -43.170   8.019  -1.873  1.00 20.00     0.011 C 
HETATM   10  C5  UNL     1     -43.320   6.461   0.090  1.00 20.00     0.011 C 
ENDBRANCH   3   8
TORSDOF 1
ENDMDL
MODEL 5
REMARK VINA RESULT:      -3.5      1.612      1.971
REMARK  1 active torsions:
REMARK  status: ('A' for Active; 'I' for Inactive)
REMARK    1  A    between atoms: C3_3  and  C6_6 
ROOT
HETATM    1  C1  UNL     1     -34.478  16.115  -2.609  1.00 20.00     0.134 C 
HETATM    2  C2  UNL     1     -33.548  15.899  -4.810  1.00 20.00     0.137 C 
HETATM    3  C3  UNL     1     -34.483  14.697  -4.791  1.00 20.00     0.075 C 
HETATM    4  N7  UNL     1     -33.433  16.393  -3.459  1.00 20.00    -0.374 N 
HETATM    5  S8  UNL     1     -34.610  16.682  -1.055  1.00 20.00    -0.053 SA
HETATM    6  S9  UNL     1     -35.634  15.077  -3.425  1.00 20.00    -0.094 SA
HETATM    7  H20 UNL     1     -32.669  16.998  -3.178  1.00 20.00     0.161 HD
ENDROOT
BRANCH   3   8
HETATM    8  C6  UNL     1     -35.216  14.488  -6.103  1.00 20.00    -0.007 C 
HETATM    9  C4  UNL     1     -36.598  15.146  -6.068  1.00 20.00     0.011 C 
HETATM   10  C5  UNL     1     -34.400  15.034  -7.277  1.00 20.00     0.011 C 
ENDBRANCH   3   8
TORSDOF 1
ENDMDL
MODEL 6
REMARK VINA RESULT:      -3.4      2.219      2.574
REMARK  1 active torsions:
REMARK  status: ('A' for Active; 'I' for Inactive)
REMARK    1  A    between atoms: C3_3  and  C6_6 
ROOT
HETATM    1  C1  UNL     1     -36.542  17.502  -2.344  1.00 20.00     0.134 C 
HETATM    2  C2  UNL     1     -34.627  16.412  -1.396  1.00 20.00     0.137 C 
HETATM    3  C3  UNL     1     -34.804  15.592  -2.666  1.00 20.00     0.075 C 
HETATM    4  N7  UNL     1     -35.814  17.211  -1.214  1.00 20.00    -0.374 N 
HETATM    5  S8  UNL     1     -37.871  18.495  -2.385  1.00 20.00    -0.053 SA
HETATM    6  S9  UNL     1     -35.847  16.659  -3.718  1.00 20.00    -0.094 SA
HETATM    7  H20 UNL     1     -36.047  17.621  -0.316  1.00 20.00     0.161 HD
ENDROOT
BRANCH   3   8
HETATM    8  C6  UNL     1     -33.491  15.245  -3.344  1.00 20.00    -0.007 C 
HETATM    9  C4  UNL     1     -33.500  13.799  -3.844  1.00 20.00     0.011 C 
HETATM   10  C5  UNL     1     -33.205  16.204  -4.501  1.00 20.00     0.011 C 
ENDBRANCH   3   8
TORSDOF 1
ENDMDL
MODEL 7
REMARK VINA RESULT:      -3.4     11.405     12.291
REMARK  1 active torsions:
REMARK  status: ('A' for Active; 'I' for Inactive)
REMARK    1  A    between atoms: C3_3  and  C6_6 
ROOT
HETATM    1  C1  UNL     1     -42.429   7.592  -3.352  1.00 20.00     0.134 C 
HETATM    2  C2  UNL     1     -41.400   6.960  -1.279  1.00 20.00     0.137 C 
HETATM    3  C3  UNL     1     -42.542   5.956  -1.332  1.00 20.00     0.075 C 
HETATM    4  N7  UNL     1     -41.645   7.965  -2.285  1.00 20.00    -0.374 N 
HETATM    5  S8  UNL     1     -42.743   8.544  -4.673  1.00 20.00    -0.053 SA
HETATM    6  S9  UNL     1     -43.035   5.966  -3.089  1.00 20.00    -0.094 SA
HETATM    7  H20 UNL     1     -41.184   8.868  -2.258  1.00 20.00     0.161 HD
ENDROOT
BRANCH   3   8
HETATM    8  C6  UNL     1     -42.141   4.567  -0.868  1.00 20.00    -0.007 C 
HETATM    9  C4  UNL     1     -40.659   4.305  -1.147  1.00 20.00     0.011 C 
HETATM   10  C5  UNL     1     -42.440   4.382   0.621  1.00 20.00     0.011 C 
ENDBRANCH   3   8
TORSDOF 1
ENDMDL
MODEL 8
REMARK VINA RESULT:      -3.3      2.953      4.039
REMARK  1 active torsions:
REMARK  status: ('A' for Active; 'I' for Inactive)
REMARK    1  A    between atoms: C3_3  and  C6_6 
ROOT
HETATM    1  C1  UNL     1     -34.281  17.895  -6.319  1.00 20.00     0.134 C 
HETATM    2  C2  UNL     1     -34.128  15.549  -5.842  1.00 20.00     0.137 C 
HETATM    3  C3  UNL     1     -33.195  16.104  -4.775  1.00 20.00     0.075 C 
HETATM    4  N7  UNL     1     -34.404  16.606  -6.784  1.00 20.00    -0.374 N 
HETATM    5  S8  UNL     1     -34.660  19.255  -7.190  1.00 20.00    -0.053 SA
HETATM    6  S9  UNL     1     -33.664  17.866  -4.676  1.00 20.00    -0.094 SA
HETATM    7  H20 UNL     1     -34.766  16.411  -7.711  1.00 20.00     0.161 HD
ENDROOT
BRANCH   3   8
HETATM    8  C6  UNL     1     -33.338  15.408  -3.434  1.00 20.00    -0.007 C 
HETATM    9  C4  UNL     1     -33.926  16.355  -2.386  1.00 20.00     0.011 C 
HETATM   10  C5  UNL     1     -34.205  14.154  -3.560  1.00 20.00     0.011 C 
ENDBRANCH   3   8
TORSDOF 1
ENDMDL
MODEL 9
REMARK VINA RESULT:      -3.3      2.375      2.809
REMARK  1 active torsions:
REMARK  status: ('A' for Active; 'I' for Inactive)
REMARK    1  A    between atoms: C3_3  and  C6_6 
ROOT
HETATM    1  C1  UNL     1     -37.410  16.500  -3.610  1.00 20.00     0.134 C 
HETATM    2  C2  UNL     1     -35.384  15.457  -2.861  1.00 20.00     0.137 C 
HETATM    3  C3  UNL     1     -35.908  14.384  -3.805  1.00 20.00     0.075 C 
HETATM    4  N7  UNL     1     -36.448  16.405  -2.633  1.00 20.00    -0.374 N 
HETATM    5  S8  UNL     1     -38.653  17.599  -3.611  1.00 20.00    -0.053 SA
HETATM    6  S9  UNL     1     -37.115  15.282  -4.839  1.00 20.00    -0.094 SA
HETATM    7  H20 UNL     1     -36.433  17.040  -1.841  1.00 20.00     0.161 HD
ENDROOT
BRANCH   3   8
HETATM    8  C6  UNL     1     -34.819  13.740  -4.642  1.00 20.00    -0.007 C 
HETATM    9  C4  UNL     1     -34.643  14.478  -5.972  1.00 20.00     0.011 C 
HETATM   10  C5  UNL     1     -33.494  13.703  -3.878  1.00 20.00     0.011 C 
ENDBRANCH   3   8
TORSDOF 1
ENDMDL
