MODEL 1
REMARK VINA RESULT:      -5.3      0.000      0.000
REMARK  0 active torsions:
REMARK  status: ('A' for Active; 'I' for Inactive)
ROOT
HETATM    1  C1  UNL     1     -34.356  13.557  -4.365  1.00 20.00     0.136 C 
HETATM    2  C2  UNL     1     -33.093  13.511  -3.546  1.00 20.00     0.080 C 
HETATM    3  C3  UNL     1     -32.560  14.930  -3.698  1.00 20.00     0.017 C 
HETATM    4  C4  UNL     1     -34.064  16.830  -6.063  1.00 20.00     0.002 C 
HETATM    5  C5  UNL     1     -34.387  15.345  -6.129  1.00 20.00     0.018 C 
HETATM    6  C6  UNL     1     -33.515  17.090  -4.660  1.00 20.00     0.010 C 
HETATM    7  C7  UNL     1     -34.781  14.980  -4.693  1.00 20.00     0.024 C 
HETATM    8  C8  UNL     1     -33.812  15.828  -3.826  1.00 20.00    -0.029 C 
HETATM    9  C9  UNL     1     -36.268  15.195  -4.433  1.00 20.00     0.024 C 
HETATM   10  C10 UNL     1     -34.331  16.200  -2.430  1.00 20.00     0.016 C 
HETATM   11  O11 UNL     1     -34.969  12.556  -4.716  1.00 20.00    -0.297 OA
ENDROOT
TORSDOF 0
ENDMDL
MODEL 2
REMARK VINA RESULT:      -5.0      1.453      3.167
REMARK  0 active torsions:
REMARK  status: ('A' for Active; 'I' for Inactive)
ROOT
HETATM    1  C1  UNL     1     -36.781  14.861  -4.368  1.00 20.00     0.136 C 
HETATM    2  C2  UNL     1     -37.120  15.998  -5.296  1.00 20.00     0.080 C 
HETATM    3  C3  UNL     1     -35.780  16.710  -5.434  1.00 20.00     0.017 C 
HETATM    4  C4  UNL     1     -33.362  15.748  -3.267  1.00 20.00     0.002 C 
HETATM    5  C5  UNL     1     -34.764  15.262  -2.927  1.00 20.00     0.018 C 
HETATM    6  C6  UNL     1     -33.391  16.144  -4.744  1.00 20.00     0.010 C 
HETATM    7  C7  UNL     1     -35.280  14.652  -4.235  1.00 20.00     0.024 C 
HETATM    8  C8  UNL     1     -34.711  15.598  -5.325  1.00 20.00    -0.029 C 
HETATM    9  C9  UNL     1     -34.905  13.179  -4.370  1.00 20.00     0.024 C 
HETATM   10  C10 UNL     1     -34.483  14.957  -6.701  1.00 20.00     0.016 C 
HETATM   11  O11 UNL     1     -37.626  14.182  -3.796  1.00 20.00    -0.297 OA
ENDROOT
TORSDOF 0
ENDMDL
MODEL 3
REMARK VINA RESULT:      -4.8      1.512      2.510
REMARK  0 active torsions:
REMARK  status: ('A' for Active; 'I' for Inactive)
ROOT
HETATM    1  C1  UNL     1     -34.503  14.773  -5.845  1.00 20.00     0.136 C 
HETATM    2  C2  UNL     1     -34.693  13.390  -5.278  1.00 20.00     0.080 C 
HETATM    3  C3  UNL     1     -34.693  13.657  -3.777  1.00 20.00     0.017 C 
HETATM    4  C4  UNL     1     -33.704  16.751  -2.823  1.00 20.00     0.002 C 
HETATM    5  C5  UNL     1     -33.411  16.400  -4.274  1.00 20.00     0.018 C 
HETATM    6  C6  UNL     1     -34.776  15.769  -2.350  1.00 20.00     0.010 C 
HETATM    7  C7  UNL     1     -34.742  15.860  -4.809  1.00 20.00     0.024 C 
HETATM    8  C8  UNL     1     -35.317  15.062  -3.609  1.00 20.00    -0.029 C 
HETATM    9  C9  UNL     1     -35.633  16.971  -5.358  1.00 20.00     0.024 C 
HETATM   10  C10 UNL     1     -36.847  14.950  -3.563  1.00 20.00     0.016 C 
HETATM   11  O11 UNL     1     -34.198  14.986  -7.012  1.00 20.00    -0.297 OA
ENDROOT
TORSDOF 0
ENDMDL
MODEL 4
REMARK VINA RESULT:      -4.8      1.300      2.951
REMARK  0 active torsions:
REMARK  status: ('A' for Active; 'I' for Inactive)
ROOT
HETATM    1  C1  UNL     1     -34.031  13.903  -3.890  1.00 20.00     0.136 C 
HETATM    2  C2  UNL     1     -35.289  13.197  -4.322  1.00 20.00     0.080 C 
HETATM    3  C3  UNL     1     -36.351  14.267  -4.096  1.00 20.00     0.017 C 
HETATM    4  C4  UNL     1     -35.360  16.987  -2.339  1.00 20.00     0.002 C 
HETATM    5  C5  UNL     1     -34.401  15.806  -2.294  1.00 20.00     0.018 C 
HETATM    6  C6  UNL     1     -36.272  16.756  -3.545  1.00 20.00     0.010 C 
HETATM    7  C7  UNL     1     -34.226  15.406  -3.764  1.00 20.00     0.024 C 
HETATM    8  C8  UNL     1     -35.641  15.614  -4.367  1.00 20.00    -0.029 C 
HETATM    9  C9  UNL     1     -33.095  16.177  -4.438  1.00 20.00     0.024 C 
HETATM   10  C10 UNL     1     -35.678  15.929  -5.868  1.00 20.00     0.016 C 
HETATM   11  O11 UNL     1     -32.972  13.324  -3.676  1.00 20.00    -0.297 OA
ENDROOT
TORSDOF 0
ENDMDL
MODEL 5
REMARK VINA RESULT:      -4.8      1.757      3.537
REMARK  0 active torsions:
REMARK  status: ('A' for Active; 'I' for Inactive)
ROOT
HETATM    1  C1  UNL     1     -33.869  16.942  -4.840  1.00 20.00     0.136 C 
HETATM    2  C2  UNL     1     -34.185  16.747  -6.300  1.00 20.00     0.080 C 
HETATM    3  C3  UNL     1     -34.313  15.231  -6.400  1.00 20.00     0.017 C 
HETATM    4  C4  UNL     1     -33.256  13.476  -3.704  1.00 20.00     0.002 C 
HETATM    5  C5  UNL     1     -32.846  14.941  -3.720  1.00 20.00     0.018 C 
HETATM    6  C6  UNL     1     -34.419  13.343  -4.688  1.00 20.00     0.010 C 
HETATM    7  C7  UNL     1     -34.147  15.695  -4.016  1.00 20.00     0.024 C 
HETATM    8  C8  UNL     1     -34.875  14.775  -5.033  1.00 20.00    -0.029 C 
HETATM    9  C9  UNL     1     -34.922  16.025  -2.744  1.00 20.00     0.024 C 
HETATM   10  C10 UNL     1     -36.406  14.879  -5.037  1.00 20.00     0.016 C 
HETATM   11  O11 UNL     1     -33.444  17.994  -4.378  1.00 20.00    -0.297 OA
ENDROOT
TORSDOF 0
ENDMDL
MODEL 6
REMARK VINA RESULT:      -4.8      0.996      2.833
REMARK  0 active torsions:
REMARK  status: ('A' for Active; 'I' for Inactive)
ROOT
HETATM    1  C1  UNL     1     -35.003  14.020  -4.430  1.00 20.00     0.136 C 
HETATM    2  C2  UNL     1     -35.888  14.649  -5.474  1.00 20.00     0.080 C 
HETATM    3  C3  UNL     1     -35.825  16.125  -5.100  1.00 20.00     0.017 C 
HETATM    4  C4  UNL     1     -34.428  16.833  -2.098  1.00 20.00     0.002 C 
HETATM    5  C5  UNL     1     -34.762  15.366  -2.324  1.00 20.00     0.018 C 
HETATM    6  C6  UNL     1     -34.401  17.486  -3.481  1.00 20.00     0.010 C 
HETATM    7  C7  UNL     1     -34.156  15.047  -3.695  1.00 20.00     0.024 C 
HETATM    8  C8  UNL     1     -34.411  16.341  -4.513  1.00 20.00    -0.029 C 
HETATM    9  C9  UNL     1     -32.701  14.602  -3.591  1.00 20.00     0.024 C 
HETATM   10  C10 UNL     1     -33.412  16.612  -5.646  1.00 20.00     0.016 C 
HETATM   11  O11 UNL     1     -34.972  12.815  -4.211  1.00 20.00    -0.297 OA
ENDROOT
TORSDOF 0
ENDMDL
MODEL 7
REMARK VINA RESULT:      -4.7      1.840      3.090
REMARK  0 active torsions:
REMARK  status: ('A' for Active; 'I' for Inactive)
ROOT
HETATM    1  C1  UNL     1     -33.715  16.314  -4.541  1.00 20.00     0.136 C 
HETATM    2  C2  UNL     1     -33.544  15.993  -3.079  1.00 20.00     0.080 C 
HETATM    3  C3  UNL     1     -34.887  15.361  -2.731  1.00 20.00     0.017 C 
HETATM    4  C4  UNL     1     -37.322  15.681  -5.062  1.00 20.00     0.002 C 
HETATM    5  C5  UNL     1     -36.102  16.564  -5.279  1.00 20.00     0.018 C 
HETATM    6  C6  UNL     1     -36.885  14.571  -4.105  1.00 20.00     0.010 C 
HETATM    7  C7  UNL     1     -34.913  15.605  -5.153  1.00 20.00     0.024 C 
HETATM    8  C8  UNL     1     -35.348  14.638  -4.019  1.00 20.00    -0.029 C 
HETATM    9  C9  UNL     1     -34.558  14.952  -6.484  1.00 20.00     0.024 C 
HETATM   10  C10 UNL     1     -34.731  13.235  -4.077  1.00 20.00     0.016 C 
HETATM   11  O11 UNL     1     -32.963  17.057  -5.160  1.00 20.00    -0.297 OA
ENDROOT
TORSDOF 0
ENDMDL
MODEL 8
REMARK VINA RESULT:      -4.6      1.625      2.326
REMARK  0 active torsions:
REMARK  status: ('A' for Active; 'I' for Inactive)
ROOT
HETATM    1  C1  UNL     1     -36.418  14.335  -4.291  1.00 20.00     0.136 C 
HETATM    2  C2  UNL     1     -35.284  13.377  -4.032  1.00 20.00     0.080 C 
HETATM    3  C3  UNL     1     -34.326  13.699  -5.173  1.00 20.00     0.017 C 
HETATM    4  C4  UNL     1     -35.562  15.671  -7.632  1.00 20.00     0.002 C 
HETATM    5  C5  UNL     1     -36.601  15.111  -6.672  1.00 20.00     0.018 C 
HETATM    6  C6  UNL     1     -34.212  15.549  -6.925  1.00 20.00     0.010 C 
HETATM    7  C7  UNL     1     -36.039  15.425  -5.281  1.00 20.00     0.024 C 
HETATM    8  C8  UNL     1     -34.511  15.209  -5.451  1.00 20.00    -0.029 C 
HETATM    9  C9  UNL     1     -36.466  16.804  -4.787  1.00 20.00     0.024 C 
HETATM   10  C10 UNL     1     -33.621  16.027  -4.505  1.00 20.00     0.016 C 
HETATM   11  O11 UNL     1     -37.515  14.242  -3.752  1.00 20.00    -0.297 OA
ENDROOT
TORSDOF 0
ENDMDL
MODEL 9
REMARK VINA RESULT:      -4.6      1.430      1.847
REMARK  0 active torsions:
REMARK  status: ('A' for Active; 'I' for Inactive)
ROOT
HETATM    1  C1  UNL     1     -36.338  14.407  -4.114  1.00 20.00     0.136 C 
HETATM    2  C2  UNL     1     -35.291  13.326  -4.156  1.00 20.00     0.080 C 
HETATM    3  C3  UNL     1     -34.137  14.025  -4.866  1.00 20.00     0.017 C 
HETATM    4  C4  UNL     1     -34.871  17.000  -6.306  1.00 20.00     0.002 C 
HETATM    5  C5  UNL     1     -36.077  16.178  -5.875  1.00 20.00     0.018 C 
HETATM    6  C6  UNL     1     -33.672  16.439  -5.541  1.00 20.00     0.010 C 
HETATM    7  C7  UNL     1     -35.765  15.780  -4.428  1.00 20.00     0.024 C 
HETATM    8  C8  UNL     1     -34.237  15.510  -4.448  1.00 20.00    -0.029 C 
HETATM    9  C9  UNL     1     -36.242  16.829  -3.428  1.00 20.00     0.024 C 
HETATM   10  C10 UNL     1     -33.512  15.725  -3.113  1.00 20.00     0.016 C 
HETATM   11  O11 UNL     1     -37.516  14.195  -3.847  1.00 20.00    -0.297 OA
ENDROOT
TORSDOF 0
ENDMDL
