MODEL 1
REMARK VINA RESULT:      -5.2      0.000      0.000
REMARK  0 active torsions:
REMARK  status: ('A' for Active; 'I' for Inactive)
ROOT
HETATM    1  C1  UNL     1     -35.087  13.943  -5.409  1.00 20.00     0.051 C 
HETATM    2  C2  UNL     1     -35.188  14.140  -6.870  1.00 20.00     0.058 C 
HETATM    3  C3  UNL     1     -34.301  15.406  -6.947  1.00 20.00     0.007 C 
HETATM    4  C4  UNL     1     -35.434  16.789  -2.951  1.00 20.00     0.004 C 
HETATM    5  C5  UNL     1     -34.483  15.678  -2.427  1.00 20.00     0.036 C 
HETATM    6  C6  UNL     1     -33.832  15.723  -5.494  1.00 20.00     0.018 C 
HETATM    7  C7  UNL     1     -35.983  16.288  -4.323  1.00 20.00     0.018 C 
HETATM    8  C8  UNL     1     -34.902  14.529  -3.302  1.00 20.00     0.169 C 
HETATM    9  C9  UNL     1     -34.996  15.199  -4.647  1.00 20.00     0.031 C 
HETATM   10  N10 UNL     1     -34.642  12.882  -4.805  1.00 20.00    -0.142 NA
HETATM   11  O11 UNL     1     -34.164  13.355  -3.527  1.00 20.00    -0.250 OA
ENDROOT
TORSDOF 0
ENDMDL
MODEL 2
REMARK VINA RESULT:      -5.0      0.775      3.166
REMARK  0 active torsions:
REMARK  status: ('A' for Active; 'I' for Inactive)
ROOT
HETATM    1  C1  UNL     1     -34.299  14.594  -3.528  1.00 20.00     0.051 C 
HETATM    2  C2  UNL     1     -34.365  15.556  -2.408  1.00 20.00     0.058 C 
HETATM    3  C3  UNL     1     -35.637  16.302  -2.880  1.00 20.00     0.007 C 
HETATM    4  C4  UNL     1     -34.797  15.632  -7.124  1.00 20.00     0.004 C 
HETATM    5  C5  UNL     1     -35.273  14.176  -6.866  1.00 20.00     0.036 C 
HETATM    6  C6  UNL     1     -36.092  15.627  -4.210  1.00 20.00     0.018 C 
HETATM    7  C7  UNL     1     -34.198  16.146  -5.779  1.00 20.00     0.018 C 
HETATM    8  C8  UNL     1     -34.540  13.876  -5.587  1.00 20.00     0.169 C 
HETATM    9  C9  UNL     1     -34.768  15.144  -4.810  1.00 20.00     0.031 C 
HETATM   10  N10 UNL     1     -34.312  13.299  -3.430  1.00 20.00    -0.142 NA
HETATM   11  O11 UNL     1     -34.841  12.836  -4.692  1.00 20.00    -0.250 OA
ENDROOT
TORSDOF 0
ENDMDL
MODEL 3
REMARK VINA RESULT:      -4.8      2.476      3.153
REMARK  0 active torsions:
REMARK  status: ('A' for Active; 'I' for Inactive)
ROOT
HETATM    1  C1  UNL     1     -33.275  15.509  -3.800  1.00 20.00     0.051 C 
HETATM    2  C2  UNL     1     -33.268  14.031  -3.782  1.00 20.00     0.058 C 
HETATM    3  C3  UNL     1     -34.799  13.841  -3.657  1.00 20.00     0.007 C 
HETATM    4  C4  UNL     1     -35.362  17.554  -1.408  1.00 20.00     0.004 C 
HETATM    5  C5  UNL     1     -35.169  18.270  -2.773  1.00 20.00     0.036 C 
HETATM    6  C6  UNL     1     -35.433  15.264  -3.627  1.00 20.00     0.018 C 
HETATM    7  C7  UNL     1     -34.541  16.230  -1.484  1.00 20.00     0.018 C 
HETATM    8  C8  UNL     1     -33.971  17.529  -3.299  1.00 20.00     0.169 C 
HETATM    9  C9  UNL     1     -34.334  16.106  -2.970  1.00 20.00     0.031 C 
HETATM   10  N10 UNL     1     -32.796  16.269  -4.738  1.00 20.00    -0.142 NA
HETATM   11  O11 UNL     1     -33.544  17.500  -4.637  1.00 20.00    -0.250 OA
ENDROOT
TORSDOF 0
ENDMDL
MODEL 4
REMARK VINA RESULT:      -4.8      1.502      2.090
REMARK  0 active torsions:
REMARK  status: ('A' for Active; 'I' for Inactive)
ROOT
HETATM    1  C1  UNL     1     -36.128  14.028  -4.017  1.00 20.00     0.051 C 
HETATM    2  C2  UNL     1     -37.505  14.508  -4.257  1.00 20.00     0.058 C 
HETATM    3  C3  UNL     1     -37.119  15.853  -4.920  1.00 20.00     0.007 C 
HETATM    4  C4  UNL     1     -33.422  16.254  -2.610  1.00 20.00     0.004 C 
HETATM    5  C5  UNL     1     -32.848  15.171  -3.564  1.00 20.00     0.036 C 
HETATM    6  C6  UNL     1     -35.561  15.914  -4.950  1.00 20.00     0.018 C 
HETATM    7  C7  UNL     1     -34.956  15.988  -2.512  1.00 20.00     0.018 C 
HETATM    8  C8  UNL     1     -33.986  14.186  -3.569  1.00 20.00     0.169 C 
HETATM    9  C9  UNL     1     -35.171  15.103  -3.710  1.00 20.00     0.031 C 
HETATM   10  N10 UNL     1     -35.612  12.921  -4.460  1.00 20.00    -0.142 NA
HETATM   11  O11 UNL     1     -34.190  13.171  -4.519  1.00 20.00    -0.250 OA
ENDROOT
TORSDOF 0
ENDMDL
MODEL 5
REMARK VINA RESULT:      -4.7      1.573      2.647
REMARK  0 active torsions:
REMARK  status: ('A' for Active; 'I' for Inactive)
ROOT
HETATM    1  C1  UNL     1     -34.089  14.536  -4.205  1.00 20.00     0.051 C 
HETATM    2  C2  UNL     1     -32.894  15.292  -3.776  1.00 20.00     0.058 C 
HETATM    3  C3  UNL     1     -33.568  16.056  -2.610  1.00 20.00     0.007 C 
HETATM    4  C4  UNL     1     -37.488  16.143  -4.558  1.00 20.00     0.004 C 
HETATM    5  C5  UNL     1     -37.590  14.647  -4.154  1.00 20.00     0.036 C 
HETATM    6  C6  UNL     1     -35.057  15.597  -2.567  1.00 20.00     0.018 C 
HETATM    7  C7  UNL     1     -35.970  16.447  -4.750  1.00 20.00     0.018 C 
HETATM    8  C8  UNL     1     -36.223  14.165  -4.558  1.00 20.00     0.169 C 
HETATM    9  C9  UNL     1     -35.351  15.275  -4.036  1.00 20.00     0.031 C 
HETATM   10  N10 UNL     1     -34.196  13.243  -4.274  1.00 20.00    -0.142 NA
HETATM   11  O11 UNL     1     -35.609  12.978  -4.124  1.00 20.00    -0.250 OA
ENDROOT
TORSDOF 0
ENDMDL
MODEL 6
REMARK VINA RESULT:      -4.6      1.835      2.322
REMARK  0 active torsions:
REMARK  status: ('A' for Active; 'I' for Inactive)
ROOT
HETATM    1  C1  UNL     1     -35.715  14.969  -4.844  1.00 20.00     0.051 C 
HETATM    2  C2  UNL     1     -35.143  14.062  -5.862  1.00 20.00     0.058 C 
HETATM    3  C3  UNL     1     -34.244  13.249  -4.900  1.00 20.00     0.007 C 
HETATM    4  C4  UNL     1     -33.601  16.625  -2.189  1.00 20.00     0.004 C 
HETATM    5  C5  UNL     1     -35.048  16.351  -1.695  1.00 20.00     0.036 C 
HETATM    6  C6  UNL     1     -34.459  13.834  -3.471  1.00 20.00     0.018 C 
HETATM    7  C7  UNL     1     -33.549  16.168  -3.680  1.00 20.00     0.018 C 
HETATM    8  C8  UNL     1     -35.754  16.176  -3.012  1.00 20.00     0.169 C 
HETATM    9  C9  UNL     1     -34.780  15.305  -3.758  1.00 20.00     0.031 C 
HETATM   10  N10 UNL     1     -36.976  15.121  -4.572  1.00 20.00    -0.142 NA
HETATM   11  O11 UNL     1     -37.008  15.571  -3.199  1.00 20.00    -0.250 OA
ENDROOT
TORSDOF 0
ENDMDL
MODEL 7
REMARK VINA RESULT:      -4.6      2.148      3.750
REMARK  0 active torsions:
REMARK  status: ('A' for Active; 'I' for Inactive)
ROOT
HETATM    1  C1  UNL     1     -35.666  15.978  -2.645  1.00 20.00     0.051 C 
HETATM    2  C2  UNL     1     -34.867  16.454  -1.496  1.00 20.00     0.058 C 
HETATM    3  C3  UNL     1     -33.522  16.590  -2.250  1.00 20.00     0.007 C 
HETATM    4  C4  UNL     1     -34.418  13.319  -5.018  1.00 20.00     0.004 C 
HETATM    5  C5  UNL     1     -35.363  14.331  -5.721  1.00 20.00     0.036 C 
HETATM    6  C6  UNL     1     -33.784  16.165  -3.727  1.00 20.00     0.018 C 
HETATM    7  C7  UNL     1     -34.372  13.730  -3.513  1.00 20.00     0.018 C 
HETATM    8  C8  UNL     1     -36.062  14.923  -4.527  1.00 20.00     0.169 C 
HETATM    9  C9  UNL     1     -34.909  15.135  -3.584  1.00 20.00     0.031 C 
HETATM   10  N10 UNL     1     -36.733  16.543  -3.126  1.00 20.00    -0.142 NA
HETATM   11  O11 UNL     1     -36.779  16.131  -4.510  1.00 20.00    -0.250 OA
ENDROOT
TORSDOF 0
ENDMDL
MODEL 8
REMARK VINA RESULT:      -4.5      2.311      3.713
REMARK  0 active torsions:
REMARK  status: ('A' for Active; 'I' for Inactive)
ROOT
HETATM    1  C1  UNL     1     -34.583  17.226  -3.782  1.00 20.00     0.051 C 
HETATM    2  C2  UNL     1     -35.346  18.112  -2.878  1.00 20.00     0.058 C 
HETATM    3  C3  UNL     1     -35.267  17.207  -1.624  1.00 20.00     0.007 C 
HETATM    4  C4  UNL     1     -35.185  13.502  -3.954  1.00 20.00     0.004 C 
HETATM    5  C5  UNL     1     -33.707  13.869  -4.263  1.00 20.00     0.036 C 
HETATM    6  C6  UNL     1     -34.457  15.938  -2.029  1.00 20.00     0.018 C 
HETATM    7  C7  UNL     1     -35.940  14.851  -3.743  1.00 20.00     0.018 C 
HETATM    8  C8  UNL     1     -33.858  15.326  -4.606  1.00 20.00     0.169 C 
HETATM    9  C9  UNL     1     -34.787  15.792  -3.518  1.00 20.00     0.031 C 
HETATM   10  N10 UNL     1     -33.496  17.534  -4.423  1.00 20.00    -0.142 NA
HETATM   11  O11 UNL     1     -32.821  16.274  -4.637  1.00 20.00    -0.250 OA
ENDROOT
TORSDOF 0
ENDMDL
MODEL 9
REMARK VINA RESULT:      -4.5      1.969      2.795
REMARK  0 active torsions:
REMARK  status: ('A' for Active; 'I' for Inactive)
ROOT
HETATM    1  C1  UNL     1     -35.461  14.725  -4.116  1.00 20.00     0.051 C 
HETATM    2  C2  UNL     1     -34.961  13.339  -4.238  1.00 20.00     0.058 C 
HETATM    3  C3  UNL     1     -33.498  13.634  -3.827  1.00 20.00     0.007 C 
HETATM    4  C4  UNL     1     -33.556  17.692  -5.468  1.00 20.00     0.004 C 
HETATM    5  C5  UNL     1     -34.395  18.060  -4.213  1.00 20.00     0.036 C 
HETATM    6  C6  UNL     1     -33.407  15.162  -3.532  1.00 20.00     0.018 C 
HETATM    7  C7  UNL     1     -33.861  16.194  -5.779  1.00 20.00     0.018 C 
HETATM    8  C8  UNL     1     -35.371  16.915  -4.196  1.00 20.00     0.169 C 
HETATM    9  C9  UNL     1     -34.464  15.747  -4.475  1.00 20.00     0.031 C 
HETATM   10  N10 UNL     1     -36.435  15.126  -3.356  1.00 20.00    -0.142 NA
HETATM   11  O11 UNL     1     -36.156  16.521  -3.100  1.00 20.00    -0.250 OA
ENDROOT
TORSDOF 0
ENDMDL
