MODEL 1
REMARK VINA RESULT:      -5.4      0.000      0.000
REMARK  1 active torsions:
REMARK  status: ('A' for Active; 'I' for Inactive)
REMARK    1  A    between atoms: C8_8  and  C11_11 
ROOT
HETATM    1  C1  UNL     1     -35.743  16.195  -3.274  1.00 20.00     0.071 C 
HETATM    2  C2  UNL     1     -34.794  13.539  -5.234  1.00 20.00    -0.004 A 
HETATM    3  C3  UNL     1     -34.575  14.665  -6.119  1.00 20.00    -0.004 A 
HETATM    4  C4  UNL     1     -34.381  13.585  -3.955  1.00 20.00    -0.020 A 
HETATM    5  C5  UNL     1     -33.954  15.773  -5.673  1.00 20.00    -0.020 A 
HETATM    6  C6  UNL     1     -33.649  14.731  -3.371  1.00 20.00     0.041 A 
HETATM    7  C7  UNL     1     -33.418  15.915  -4.301  1.00 20.00     0.041 A 
HETATM    8  C8  UNL     1     -34.317  16.064  -3.087  1.00 20.00     0.067 A 
HETATM    9  N12 UNL     1     -36.889  16.300  -3.424  1.00 20.00    -0.196 NA
ENDROOT
BRANCH   8  10
HETATM   10  C11 UNL     1     -33.783  16.869  -1.929  1.00 20.00     0.001 C 
HETATM   11  C9  UNL     1     -33.705  18.360  -2.277  1.00 20.00     0.011 C 
HETATM   12  C10 UNL     1     -34.640  16.670  -0.672  1.00 20.00     0.011 C 
ENDBRANCH   8  10
TORSDOF 1
ENDMDL
MODEL 2
REMARK VINA RESULT:      -5.2      1.769      4.285
REMARK  1 active torsions:
REMARK  status: ('A' for Active; 'I' for Inactive)
REMARK    1  A    between atoms: C8_8  and  C11_11 
ROOT
HETATM    1  C1  UNL     1     -34.702  13.815  -5.206  1.00 20.00     0.071 C 
HETATM    2  C2  UNL     1     -35.377  15.908  -2.567  1.00 20.00    -0.004 A 
HETATM    3  C3  UNL     1     -33.931  15.821  -2.525  1.00 20.00    -0.004 A 
HETATM    4  C4  UNL     1     -36.015  16.104  -3.734  1.00 20.00    -0.020 A 
HETATM    5  C5  UNL     1     -33.207  15.935  -3.654  1.00 20.00    -0.020 A 
HETATM    6  C6  UNL     1     -35.320  16.290  -5.027  1.00 20.00     0.041 A 
HETATM    7  C7  UNL     1     -33.800  16.198  -4.984  1.00 20.00     0.041 A 
HETATM    8  C8  UNL     1     -34.605  15.154  -5.737  1.00 20.00     0.067 A 
HETATM    9  N12 UNL     1     -34.779  12.739  -4.779  1.00 20.00    -0.196 NA
ENDROOT
BRANCH   8  10
HETATM   10  C11 UNL     1     -34.560  15.205  -7.244  1.00 20.00     0.001 C 
HETATM   11  C9  UNL     1     -35.685  14.367  -7.863  1.00 20.00     0.011 C 
HETATM   12  C10 UNL     1     -34.645  16.649  -7.754  1.00 20.00     0.011 C 
ENDBRANCH   8  10
TORSDOF 1
ENDMDL
MODEL 3
REMARK VINA RESULT:      -5.2      1.883      3.025
REMARK  1 active torsions:
REMARK  status: ('A' for Active; 'I' for Inactive)
REMARK    1  A    between atoms: C8_8  and  C11_11 
ROOT
HETATM    1  C1  UNL     1     -34.738  13.810  -4.659  1.00 20.00     0.071 C 
HETATM    2  C2  UNL     1     -35.758  14.606  -7.841  1.00 20.00    -0.004 A 
HETATM    3  C3  UNL     1     -36.889  15.034  -7.042  1.00 20.00    -0.004 A 
HETATM    4  C4  UNL     1     -34.503  14.908  -7.464  1.00 20.00    -0.020 A 
HETATM    5  C5  UNL     1     -36.699  15.739  -5.911  1.00 20.00    -0.020 A 
HETATM    6  C6  UNL     1     -34.179  15.717  -6.268  1.00 20.00     0.041 A 
HETATM    7  C7  UNL     1     -35.367  16.167  -5.428  1.00 20.00     0.041 A 
HETATM    8  C8  UNL     1     -34.357  15.189  -4.855  1.00 20.00     0.067 A 
HETATM    9  N12 UNL     1     -35.045  12.703  -4.500  1.00 20.00    -0.196 NA
ENDROOT
BRANCH   8  10
HETATM   10  C11 UNL     1     -33.413  15.711  -3.802  1.00 20.00     0.001 C 
HETATM   11  C9  UNL     1     -34.156  16.034  -2.500  1.00 20.00     0.011 C 
HETATM   12  C10 UNL     1     -32.283  14.712  -3.523  1.00 20.00     0.011 C 
ENDBRANCH   8  10
TORSDOF 1
ENDMDL
MODEL 4
REMARK VINA RESULT:      -5.2      1.462      2.081
REMARK  1 active torsions:
REMARK  status: ('A' for Active; 'I' for Inactive)
REMARK    1  A    between atoms: C8_8  and  C11_11 
ROOT
HETATM    1  C1  UNL     1     -33.538  16.640  -4.318  1.00 20.00     0.071 C 
HETATM    2  C2  UNL     1     -35.962  14.415  -5.304  1.00 20.00    -0.004 A 
HETATM    3  C3  UNL     1     -34.815  13.551  -5.111  1.00 20.00    -0.004 A 
HETATM    4  C4  UNL     1     -36.271  15.354  -4.392  1.00 20.00    -0.020 A 
HETATM    5  C5  UNL     1     -34.043  13.676  -4.015  1.00 20.00    -0.020 A 
HETATM    6  C6  UNL     1     -35.522  15.548  -3.130  1.00 20.00     0.041 A 
HETATM    7  C7  UNL     1     -34.316  14.640  -2.926  1.00 20.00     0.041 A 
HETATM    8  C8  UNL     1     -34.122  16.136  -3.097  1.00 20.00     0.067 A 
HETATM    9  N12 UNL     1     -33.067  17.044  -5.298  1.00 20.00    -0.196 NA
ENDROOT
BRANCH   8  10
HETATM   10  C11 UNL     1     -33.737  16.925  -1.871  1.00 20.00     0.001 C 
HETATM   11  C9  UNL     1     -33.736  18.431  -2.156  1.00 20.00     0.011 C 
HETATM   12  C10 UNL     1     -34.673  16.617  -0.695  1.00 20.00     0.011 C 
ENDBRANCH   8  10
TORSDOF 1
ENDMDL
MODEL 5
REMARK VINA RESULT:      -4.9      1.759      2.551
REMARK  1 active torsions:
REMARK  status: ('A' for Active; 'I' for Inactive)
REMARK    1  A    between atoms: C8_8  and  C11_11 
ROOT
HETATM    1  C1  UNL     1     -36.597  14.618  -4.059  1.00 20.00     0.071 C 
HETATM    2  C2  UNL     1     -36.415  14.993  -7.468  1.00 20.00    -0.004 A 
HETATM    3  C3  UNL     1     -36.786  16.324  -7.034  1.00 20.00    -0.004 A 
HETATM    4  C4  UNL     1     -35.442  14.314  -6.835  1.00 20.00    -0.020 A 
HETATM    5  C5  UNL     1     -36.161  16.901  -5.991  1.00 20.00    -0.020 A 
HETATM    6  C6  UNL     1     -34.658  14.867  -5.708  1.00 20.00     0.041 A 
HETATM    7  C7  UNL     1     -35.047  16.267  -5.251  1.00 20.00     0.041 A 
HETATM    8  C8  UNL     1     -35.255  15.079  -4.328  1.00 20.00     0.067 A 
HETATM    9  N12 UNL     1     -37.675  14.248  -3.842  1.00 20.00    -0.196 NA
ENDROOT
BRANCH   8  10
HETATM   10  C11 UNL     1     -34.324  14.953  -3.149  1.00 20.00     0.001 C 
HETATM   11  C9  UNL     1     -32.857  15.050  -3.586  1.00 20.00     0.011 C 
HETATM   12  C10 UNL     1     -34.623  16.019  -2.087  1.00 20.00     0.011 C 
ENDBRANCH   8  10
TORSDOF 1
ENDMDL
MODEL 6
REMARK VINA RESULT:      -4.9      1.649      4.151
REMARK  1 active torsions:
REMARK  status: ('A' for Active; 'I' for Inactive)
REMARK    1  A    between atoms: C8_8  and  C11_11 
ROOT
HETATM    1  C1  UNL     1     -33.684  16.393  -4.106  1.00 20.00     0.071 C 
HETATM    2  C2  UNL     1     -34.091  18.678  -1.574  1.00 20.00    -0.004 A 
HETATM    3  C3  UNL     1     -35.286  18.885  -2.366  1.00 20.00    -0.004 A 
HETATM    4  C4  UNL     1     -33.680  17.435  -1.269  1.00 20.00    -0.020 A 
HETATM    5  C5  UNL     1     -36.003  17.835  -2.808  1.00 20.00    -0.020 A 
HETATM    6  C6  UNL     1     -34.414  16.211  -1.661  1.00 20.00     0.041 A 
HETATM    7  C7  UNL     1     -35.670  16.427  -2.494  1.00 20.00     0.041 A 
HETATM    8  C8  UNL     1     -34.469  15.721  -3.098  1.00 20.00     0.067 A 
HETATM    9  N12 UNL     1     -33.054  16.933  -4.916  1.00 20.00    -0.196 NA
ENDROOT
BRANCH   8  10
HETATM   10  C11 UNL     1     -34.582  14.232  -3.312  1.00 20.00     0.001 C 
HETATM   11  C9  UNL     1     -35.654  13.901  -4.358  1.00 20.00     0.011 C 
HETATM   12  C10 UNL     1     -33.237  13.628  -3.735  1.00 20.00     0.011 C 
ENDBRANCH   8  10
TORSDOF 1
ENDMDL
MODEL 7
REMARK VINA RESULT:      -4.8      1.514      2.317
REMARK  1 active torsions:
REMARK  status: ('A' for Active; 'I' for Inactive)
REMARK    1  A    between atoms: C8_8  and  C11_11 
ROOT
HETATM    1  C1  UNL     1     -33.800  16.897  -4.279  1.00 20.00     0.071 C 
HETATM    2  C2  UNL     1     -35.468  14.131  -5.448  1.00 20.00    -0.004 A 
HETATM    3  C3  UNL     1     -34.285  13.544  -4.851  1.00 20.00    -0.004 A 
HETATM    4  C4  UNL     1     -36.161  15.083  -4.798  1.00 20.00    -0.020 A 
HETATM    5  C5  UNL     1     -33.863  13.944  -3.637  1.00 20.00    -0.020 A 
HETATM    6  C6  UNL     1     -35.816  15.565  -3.442  1.00 20.00     0.041 A 
HETATM    7  C7  UNL     1     -34.573  14.948  -2.813  1.00 20.00     0.041 A 
HETATM    8  C8  UNL     1     -34.594  16.424  -3.170  1.00 20.00     0.067 A 
HETATM    9  N12 UNL     1     -33.162  17.276  -5.170  1.00 20.00    -0.196 NA
ENDROOT
BRANCH   8  10
HETATM   10  C11 UNL     1     -34.684  17.406  -2.029  1.00 20.00     0.001 C 
HETATM   11  C9  UNL     1     -34.641  16.690  -0.674  1.00 20.00     0.011 C 
HETATM   12  C10 UNL     1     -33.562  18.450  -2.103  1.00 20.00     0.011 C 
ENDBRANCH   8  10
TORSDOF 1
ENDMDL
MODEL 8
REMARK VINA RESULT:      -4.6      1.689      2.825
REMARK  1 active torsions:
REMARK  status: ('A' for Active; 'I' for Inactive)
REMARK    1  A    between atoms: C8_8  and  C11_11 
ROOT
HETATM    1  C1  UNL     1     -35.678  16.523  -4.118  1.00 20.00     0.071 C 
HETATM    2  C2  UNL     1     -33.554  13.854  -3.713  1.00 20.00    -0.004 A 
HETATM    3  C3  UNL     1     -34.413  13.400  -4.787  1.00 20.00    -0.004 A 
HETATM    4  C4  UNL     1     -33.042  15.098  -3.727  1.00 20.00    -0.020 A 
HETATM    5  C5  UNL     1     -34.711  14.216  -5.815  1.00 20.00    -0.020 A 
HETATM    6  C6  UNL     1     -33.265  16.063  -4.827  1.00 20.00     0.041 A 
HETATM    7  C7  UNL     1     -34.168  15.586  -5.957  1.00 20.00     0.041 A 
HETATM    8  C8  UNL     1     -34.607  16.732  -5.064  1.00 20.00     0.067 A 
HETATM    9  N12 UNL     1     -36.539  16.355  -3.359  1.00 20.00    -0.196 NA
ENDROOT
BRANCH   8  10
HETATM   10  C11 UNL     1     -34.589  18.116  -5.661  1.00 20.00     0.001 C 
HETATM   11  C9  UNL     1     -33.508  18.989  -5.012  1.00 20.00     0.011 C 
HETATM   12  C10 UNL     1     -34.374  18.063  -7.180  1.00 20.00     0.011 C 
ENDBRANCH   8  10
TORSDOF 1
ENDMDL
MODEL 9
REMARK VINA RESULT:      -4.6     12.554     14.466
REMARK  1 active torsions:
REMARK  status: ('A' for Active; 'I' for Inactive)
REMARK    1  A    between atoms: C8_8  and  C11_11 
ROOT
HETATM    1  C1  UNL     1     -43.052   5.187  -3.049  1.00 20.00     0.071 C 
HETATM    2  C2  UNL     1     -41.382   6.382  -0.295  1.00 20.00    -0.004 A 
HETATM    3  C3  UNL     1     -42.720   6.181   0.223  1.00 20.00    -0.004 A 
HETATM    4  C4  UNL     1     -40.795   5.441  -1.055  1.00 20.00    -0.020 A 
HETATM    5  C5  UNL     1     -43.394   5.048  -0.049  1.00 20.00    -0.020 A 
HETATM    6  C6  UNL     1     -41.423   4.140  -1.378  1.00 20.00     0.041 A 
HETATM    7  C7  UNL     1     -42.829   3.928  -0.834  1.00 20.00     0.041 A 
HETATM    8  C8  UNL     1     -42.598   4.018  -2.332  1.00 20.00     0.067 A 
HETATM    9  N12 UNL     1     -43.417   6.125  -3.625  1.00 20.00    -0.196 NA
ENDROOT
BRANCH   8  10
HETATM   10  C11 UNL     1     -42.711   2.741  -3.124  1.00 20.00     0.001 C 
HETATM   11  C9  UNL     1     -41.334   2.245  -3.581  1.00 20.00     0.011 C 
HETATM   12  C10 UNL     1     -43.417   1.645  -2.315  1.00 20.00     0.011 C 
ENDBRANCH   8  10
TORSDOF 1
ENDMDL
