MODEL 1
REMARK VINA RESULT:      -5.5      0.000      0.000
REMARK  0 active torsions:
REMARK  status: ('A' for Active; 'I' for Inactive)
ROOT
HETATM    1  C1  UNL     1     -34.492  13.277  -4.204  1.00 20.00    -0.004 C 
HETATM    2  C2  UNL     1     -33.310  13.969  -3.764  1.00 20.00    -0.003 C 
HETATM    3  C3  UNL     1     -35.699  13.854  -4.133  1.00 20.00    -0.025 C 
HETATM    4  C4  UNL     1     -33.331  15.277  -3.465  1.00 20.00    -0.009 C 
HETATM    5  C5  UNL     1     -34.442  16.862  -4.903  1.00 20.00     0.140 C 
HETATM    6  C6  UNL     1     -35.892  15.249  -3.605  1.00 20.00     0.048 C 
HETATM    7  C7  UNL     1     -33.530  18.069  -4.962  1.00 20.00     0.079 C 
HETATM    8  C8  UNL     1     -33.823  19.030  -3.828  1.00 20.00     0.008 C 
HETATM    9  C9  UNL     1     -33.720  18.328  -2.483  1.00 20.00     0.006 C 
HETATM   10  C10 UNL     1     -34.721  17.162  -2.385  1.00 20.00     0.001 C 
HETATM   11  C11 UNL     1     -34.590  16.126  -3.550  1.00 20.00     0.044 C 
HETATM   12  C12 UNL     1     -34.593  16.533  -0.987  1.00 20.00     0.011 C 
HETATM   13  O13 UNL     1     -34.941  16.429  -5.945  1.00 20.00    -0.297 OA
ENDROOT
TORSDOF 0
ENDMDL
MODEL 2
REMARK VINA RESULT:      -5.4      1.570      3.679
REMARK  0 active torsions:
REMARK  status: ('A' for Active; 'I' for Inactive)
ROOT
HETATM    1  C1  UNL     1     -35.056  17.112  -1.865  1.00 20.00    -0.004 C 
HETATM    2  C2  UNL     1     -36.103  16.789  -2.797  1.00 20.00    -0.003 C 
HETATM    3  C3  UNL     1     -33.819  16.620  -2.015  1.00 20.00    -0.025 C 
HETATM    4  C4  UNL     1     -35.845  16.163  -3.955  1.00 20.00    -0.009 C 
HETATM    5  C5  UNL     1     -34.003  16.845  -5.353  1.00 20.00     0.140 C 
HETATM    6  C6  UNL     1     -33.448  15.716  -3.160  1.00 20.00     0.048 C 
HETATM    7  C7  UNL     1     -34.526  16.794  -6.773  1.00 20.00     0.079 C 
HETATM    8  C8  UNL     1     -34.350  15.413  -7.369  1.00 20.00     0.008 C 
HETATM    9  C9  UNL     1     -35.014  14.357  -6.500  1.00 20.00     0.006 C 
HETATM   10  C10 UNL     1     -34.410  14.341  -5.083  1.00 20.00     0.001 C 
HETATM   11  C11 UNL     1     -34.447  15.734  -4.372  1.00 20.00     0.044 C 
HETATM   12  C12 UNL     1     -35.096  13.223  -4.280  1.00 20.00     0.011 C 
HETATM   13  O13 UNL     1     -33.344  17.821  -4.985  1.00 20.00    -0.297 OA
ENDROOT
TORSDOF 0
ENDMDL
MODEL 3
REMARK VINA RESULT:      -5.3      1.272      4.030
REMARK  0 active torsions:
REMARK  status: ('A' for Active; 'I' for Inactive)
ROOT
HETATM    1  C1  UNL     1     -33.840  18.476  -1.389  1.00 20.00    -0.004 C 
HETATM    2  C2  UNL     1     -34.109  17.158  -0.879  1.00 20.00    -0.003 C 
HETATM    3  C3  UNL     1     -33.676  18.690  -2.702  1.00 20.00    -0.025 C 
HETATM    4  C4  UNL     1     -34.413  16.137  -1.693  1.00 20.00    -0.009 C 
HETATM    5  C5  UNL     1     -36.001  16.409  -3.488  1.00 20.00     0.140 C 
HETATM    6  C6  UNL     1     -33.772  17.581  -3.714  1.00 20.00     0.048 C 
HETATM    7  C7  UNL     1     -36.839  15.148  -3.486  1.00 20.00     0.079 C 
HETATM    8  C8  UNL     1     -36.201  14.068  -4.335  1.00 20.00     0.008 C 
HETATM    9  C9  UNL     1     -34.780  13.784  -3.875  1.00 20.00     0.006 C 
HETATM   10  C10 UNL     1     -33.900  15.044  -3.972  1.00 20.00     0.001 C 
HETATM   11  C11 UNL     1     -34.485  16.277  -3.206  1.00 20.00     0.044 C 
HETATM   12  C12 UNL     1     -32.473  14.671  -3.536  1.00 20.00     0.011 C 
HETATM   13  O13 UNL     1     -36.557  17.505  -3.591  1.00 20.00    -0.297 OA
ENDROOT
TORSDOF 0
ENDMDL
MODEL 4
REMARK VINA RESULT:      -5.3      2.363      3.880
REMARK  0 active torsions:
REMARK  status: ('A' for Active; 'I' for Inactive)
ROOT
HETATM    1  C1  UNL     1     -37.337  15.119  -7.291  1.00 20.00    -0.004 C 
HETATM    2  C2  UNL     1     -37.303  15.774  -6.011  1.00 20.00    -0.003 C 
HETATM    3  C3  UNL     1     -36.207  14.765  -7.918  1.00 20.00    -0.025 C 
HETATM    4  C4  UNL     1     -36.170  15.870  -5.300  1.00 20.00    -0.009 C 
HETATM    5  C5  UNL     1     -34.708  13.972  -5.029  1.00 20.00     0.140 C 
HETATM    6  C6  UNL     1     -34.847  15.018  -7.325  1.00 20.00     0.048 C 
HETATM    7  C7  UNL     1     -34.257  14.006  -3.583  1.00 20.00     0.079 C 
HETATM    8  C8  UNL     1     -33.022  14.867  -3.418  1.00 20.00     0.008 C 
HETATM    9  C9  UNL     1     -33.263  16.270  -3.952  1.00 20.00     0.006 C 
HETATM   10  C10 UNL     1     -33.622  16.242  -5.449  1.00 20.00     0.001 C 
HETATM   11  C11 UNL     1     -34.839  15.317  -5.783  1.00 20.00     0.044 C 
HETATM   12  C12 UNL     1     -33.805  17.693  -5.928  1.00 20.00     0.011 C 
HETATM   13  O13 UNL     1     -35.070  12.902  -5.524  1.00 20.00    -0.297 OA
ENDROOT
TORSDOF 0
ENDMDL
MODEL 5
REMARK VINA RESULT:      -5.1      1.725      2.831
REMARK  0 active torsions:
REMARK  status: ('A' for Active; 'I' for Inactive)
ROOT
HETATM    1  C1  UNL     1     -34.728  15.114  -7.472  1.00 20.00    -0.004 C 
HETATM    2  C2  UNL     1     -34.047  16.212  -6.838  1.00 20.00    -0.003 C 
HETATM    3  C3  UNL     1     -35.197  14.084  -6.756  1.00 20.00    -0.025 C 
HETATM    4  C4  UNL     1     -34.035  16.356  -5.505  1.00 20.00    -0.009 C 
HETATM    5  C5  UNL     1     -36.050  16.085  -4.208  1.00 20.00     0.140 C 
HETATM    6  C6  UNL     1     -35.052  14.014  -5.260  1.00 20.00     0.048 C 
HETATM    7  C7  UNL     1     -36.021  17.188  -3.172  1.00 20.00     0.079 C 
HETATM    8  C8  UNL     1     -35.271  16.751  -1.931  1.00 20.00     0.008 C 
HETATM    9  C9  UNL     1     -33.865  16.289  -2.281  1.00 20.00     0.006 C 
HETATM   10  C10 UNL     1     -33.898  15.099  -3.258  1.00 20.00     0.001 C 
HETATM   11  C11 UNL     1     -34.718  15.380  -4.560  1.00 20.00     0.044 C 
HETATM   12  C12 UNL     1     -32.449  14.657  -3.528  1.00 20.00     0.011 C 
HETATM   13  O13 UNL     1     -37.095  15.861  -4.825  1.00 20.00    -0.297 OA
ENDROOT
TORSDOF 0
ENDMDL
MODEL 6
REMARK VINA RESULT:      -5.0      1.661      3.762
REMARK  0 active torsions:
REMARK  status: ('A' for Active; 'I' for Inactive)
ROOT
HETATM    1  C1  UNL     1     -34.926  16.935  -1.411  1.00 20.00    -0.004 C 
HETATM    2  C2  UNL     1     -33.805  16.324  -2.073  1.00 20.00    -0.003 C 
HETATM    3  C3  UNL     1     -35.984  17.377  -2.105  1.00 20.00    -0.025 C 
HETATM    4  C4  UNL     1     -33.855  15.982  -3.369  1.00 20.00    -0.009 C 
HETATM    5  C5  UNL     1     -35.772  14.837  -4.280  1.00 20.00     0.140 C 
HETATM    6  C6  UNL     1     -36.069  17.255  -3.602  1.00 20.00     0.048 C 
HETATM    7  C7  UNL     1     -35.213  13.784  -5.213  1.00 20.00     0.079 C 
HETATM    8  C8  UNL     1     -35.000  14.344  -6.603  1.00 20.00     0.008 C 
HETATM    9  C9  UNL     1     -34.104  15.572  -6.562  1.00 20.00     0.006 C 
HETATM   10  C10 UNL     1     -34.722  16.684  -5.694  1.00 20.00     0.001 C 
HETATM   11  C11 UNL     1     -35.076  16.219  -4.242  1.00 20.00     0.044 C 
HETATM   12  C12 UNL     1     -33.787  17.905  -5.737  1.00 20.00     0.011 C 
HETATM   13  O13 UNL     1     -36.676  14.535  -3.497  1.00 20.00    -0.297 OA
ENDROOT
TORSDOF 0
ENDMDL
MODEL 7
REMARK VINA RESULT:      -4.9      1.416      3.941
REMARK  0 active torsions:
REMARK  status: ('A' for Active; 'I' for Inactive)
ROOT
HETATM    1  C1  UNL     1     -35.311  18.851  -5.826  1.00 20.00    -0.004 C 
HETATM    2  C2  UNL     1     -36.206  17.955  -5.143  1.00 20.00    -0.003 C 
HETATM    3  C3  UNL     1     -33.991  18.622  -5.856  1.00 20.00    -0.025 C 
HETATM    4  C4  UNL     1     -35.796  16.759  -4.694  1.00 20.00    -0.009 C 
HETATM    5  C5  UNL     1     -34.448  15.310  -6.071  1.00 20.00     0.140 C 
HETATM    6  C6  UNL     1     -33.369  17.422  -5.195  1.00 20.00     0.048 C 
HETATM    7  C7  UNL     1     -34.995  13.915  -5.854  1.00 20.00     0.079 C 
HETATM    8  C8  UNL     1     -34.335  13.249  -4.665  1.00 20.00     0.008 C 
HETATM    9  C9  UNL     1     -34.486  14.100  -3.414  1.00 20.00     0.006 C 
HETATM   10  C10 UNL     1     -33.839  15.485  -3.600  1.00 20.00     0.001 C 
HETATM   11  C11 UNL     1     -34.369  16.259  -4.852  1.00 20.00     0.044 C 
HETATM   12  C12 UNL     1     -33.989  16.268  -2.284  1.00 20.00     0.011 C 
HETATM   13  O13 UNL     1     -34.197  15.690  -7.218  1.00 20.00    -0.297 OA
ENDROOT
TORSDOF 0
ENDMDL
MODEL 8
REMARK VINA RESULT:      -4.9      2.141      4.112
REMARK  0 active torsions:
REMARK  status: ('A' for Active; 'I' for Inactive)
ROOT
HETATM    1  C1  UNL     1     -32.997  14.117  -3.593  1.00 20.00    -0.004 C 
HETATM    2  C2  UNL     1     -33.914  13.235  -4.264  1.00 20.00    -0.003 C 
HETATM    3  C3  UNL     1     -33.008  15.437  -3.826  1.00 20.00    -0.025 C 
HETATM    4  C4  UNL     1     -34.944  13.706  -4.981  1.00 20.00    -0.009 C 
HETATM    5  C5  UNL     1     -36.345  15.476  -4.132  1.00 20.00     0.140 C 
HETATM    6  C6  UNL     1     -33.977  16.073  -4.786  1.00 20.00     0.048 C 
HETATM    7  C7  UNL     1     -37.761  15.087  -4.499  1.00 20.00     0.079 C 
HETATM    8  C8  UNL     1     -38.123  15.588  -5.881  1.00 20.00     0.008 C 
HETATM    9  C9  UNL     1     -37.130  15.086  -6.918  1.00 20.00     0.006 C 
HETATM   10  C10 UNL     1     -35.702  15.566  -6.599  1.00 20.00     0.001 C 
HETATM   11  C11 UNL     1     -35.222  15.190  -5.158  1.00 20.00     0.044 C 
HETATM   12  C12 UNL     1     -34.764  15.061  -7.709  1.00 20.00     0.011 C 
HETATM   13  O13 UNL     1     -36.106  15.891  -2.995  1.00 20.00    -0.297 OA
ENDROOT
TORSDOF 0
ENDMDL
MODEL 9
REMARK VINA RESULT:      -4.8      1.945      3.122
REMARK  0 active torsions:
REMARK  status: ('A' for Active; 'I' for Inactive)
ROOT
HETATM    1  C1  UNL     1     -34.743  14.909  -7.549  1.00 20.00    -0.004 C 
HETATM    2  C2  UNL     1     -35.260  14.182  -6.421  1.00 20.00    -0.003 C 
HETATM    3  C3  UNL     1     -34.609  16.242  -7.513  1.00 20.00    -0.025 C 
HETATM    4  C4  UNL     1     -35.431  14.768  -5.226  1.00 20.00    -0.009 C 
HETATM    5  C5  UNL     1     -33.726  16.187  -4.281  1.00 20.00     0.140 C 
HETATM    6  C6  UNL     1     -34.977  17.053  -6.300  1.00 20.00     0.048 C 
HETATM    7  C7  UNL     1     -33.670  15.833  -2.810  1.00 20.00     0.079 C 
HETATM    8  C8  UNL     1     -34.664  16.653  -2.014  1.00 20.00     0.008 C 
HETATM    9  C9  UNL     1     -36.071  16.484  -2.567  1.00 20.00     0.006 C 
HETATM   10  C10 UNL     1     -36.151  16.939  -4.035  1.00 20.00     0.001 C 
HETATM   11  C11 UNL     1     -35.112  16.231  -4.967  1.00 20.00     0.044 C 
HETATM   12  C12 UNL     1     -37.607  16.784  -4.509  1.00 20.00     0.011 C 
HETATM   13  O13 UNL     1     -32.675  16.308  -4.916  1.00 20.00    -0.297 OA
ENDROOT
TORSDOF 0
ENDMDL
