MODEL 1
REMARK VINA RESULT:      -5.2      0.000      0.000
REMARK  2 active torsions:
REMARK  status: ('A' for Active; 'I' for Inactive)
REMARK    1  A    between atoms: C2_2  and  C3_3 
REMARK    2  A    between atoms: C3_3  and  O11_11 
ROOT
HETATM    1  C1  UNL     1     -33.431   6.045   3.077  1.00 20.00    -0.069 C 
HETATM    2  C2  UNL     1     -32.868   6.962   2.293  1.00 20.00     0.084 C 
HETATM    3  C4  UNL     1     -34.376   4.845   2.837  1.00 20.00     0.040 C 
HETATM    4  C5  UNL     1     -34.636   5.678   6.571  1.00 20.00     0.001 C 
HETATM    5  C6  UNL     1     -33.693   6.591   5.747  1.00 20.00     0.009 C 
HETATM    6  C7  UNL     1     -35.177   4.628   5.572  1.00 20.00     0.005 C 
HETATM    7  C8  UNL     1     -33.398   5.726   4.547  1.00 20.00     0.019 C 
HETATM    8  C9  UNL     1     -34.868   5.286   4.246  1.00 20.00    -0.002 C 
ENDROOT
BRANCH   2   9
HETATM    9  C3  UNL     1     -31.977   8.036   2.777  1.00 20.00     0.165 C 
HETATM   10  O10 UNL     1     -31.173   7.877   3.683  1.00 20.00    -0.647 OA
BRANCH   9  11
HETATM   11  O11 UNL     1     -32.150   9.198   2.109  1.00 20.00    -0.773 OA
HETATM   12  H23 UNL     1     -33.087   9.490   2.117  1.00 20.00     0.167 HD
ENDBRANCH   9  11
ENDBRANCH   2   9
TORSDOF 2
ENDMDL
MODEL 2
REMARK VINA RESULT:      -5.0     11.292     12.592
REMARK  2 active torsions:
REMARK  status: ('A' for Active; 'I' for Inactive)
REMARK    1  A    between atoms: C2_2  and  C3_3 
REMARK    2  A    between atoms: C3_3  and  O11_11 
ROOT
HETATM    1  C1  UNL     1     -34.816  16.107  -4.264  1.00 20.00    -0.069 C 
HETATM    2  C2  UNL     1     -35.125  14.961  -4.868  1.00 20.00     0.084 C 
HETATM    3  C4  UNL     1     -34.067  17.391  -4.691  1.00 20.00     0.040 C 
HETATM    4  C5  UNL     1     -34.080  17.389  -0.856  1.00 20.00     0.001 C 
HETATM    5  C6  UNL     1     -34.758  16.168  -1.527  1.00 20.00     0.009 C 
HETATM    6  C7  UNL     1     -33.619  18.300  -2.019  1.00 20.00     0.005 C 
HETATM    7  C8  UNL     1     -35.063  16.703  -2.905  1.00 20.00     0.019 C 
HETATM    8  C9  UNL     1     -33.665  17.343  -3.189  1.00 20.00    -0.002 C 
ENDROOT
BRANCH   2   9
HETATM    9  C3  UNL     1     -35.869  13.857  -4.226  1.00 20.00     0.165 C 
HETATM   10  O10 UNL     1     -37.023  13.968  -3.839  1.00 20.00    -0.647 OA
BRANCH   9  11
HETATM   11  O11 UNL     1     -35.135  12.727  -4.119  1.00 20.00    -0.773 OA
HETATM   12  H23 UNL     1     -35.596  11.952  -4.506  1.00 20.00     0.167 HD
ENDBRANCH   9  11
ENDBRANCH   2   9
TORSDOF 2
ENDMDL
MODEL 3
REMARK VINA RESULT:      -4.9     10.920     12.362
REMARK  2 active torsions:
REMARK  status: ('A' for Active; 'I' for Inactive)
REMARK    1  A    between atoms: C2_2  and  C3_3 
REMARK    2  A    between atoms: C3_3  and  O11_11 
ROOT
HETATM    1  C1  UNL     1     -35.087  15.801  -4.294  1.00 20.00    -0.069 C 
HETATM    2  C2  UNL     1     -34.643  14.704  -4.904  1.00 20.00     0.084 C 
HETATM    3  C4  UNL     1     -35.497  17.215  -4.767  1.00 20.00     0.040 C 
HETATM    4  C5  UNL     1     -34.811  17.504  -1.005  1.00 20.00     0.001 C 
HETATM    5  C6  UNL     1     -34.591  16.098  -1.617  1.00 20.00     0.009 C 
HETATM    6  C7  UNL     1     -35.308  18.393  -2.170  1.00 20.00     0.005 C 
HETATM    7  C8  UNL     1     -35.420  16.177  -2.876  1.00 20.00     0.019 C 
HETATM    8  C9  UNL     1     -34.906  17.568  -3.371  1.00 20.00    -0.002 C 
ENDROOT
BRANCH   2   9
HETATM    9  C3  UNL     1     -34.311  13.442  -4.211  1.00 20.00     0.165 C 
HETATM   10  O10 UNL     1     -33.207  13.208  -3.743  1.00 20.00    -0.647 OA
BRANCH   9  11
HETATM   11  O11 UNL     1     -35.358  12.588  -4.153  1.00 20.00    -0.773 OA
HETATM   12  H23 UNL     1     -36.055  12.903  -3.538  1.00 20.00     0.167 HD
ENDBRANCH   9  11
ENDBRANCH   2   9
TORSDOF 2
ENDMDL
MODEL 4
REMARK VINA RESULT:      -4.8     11.173     13.534
REMARK  2 active torsions:
REMARK  status: ('A' for Active; 'I' for Inactive)
REMARK    1  A    between atoms: C2_2  and  C3_3 
REMARK    2  A    between atoms: C3_3  and  O11_11 
ROOT
HETATM    1  C1  UNL     1     -34.135  15.883  -4.228  1.00 20.00    -0.069 C 
HETATM    2  C2  UNL     1     -34.202  14.869  -3.368  1.00 20.00     0.084 C 
HETATM    3  C4  UNL     1     -34.326  17.414  -4.117  1.00 20.00     0.040 C 
HETATM    4  C5  UNL     1     -34.687  16.561  -7.838  1.00 20.00     0.001 C 
HETATM    5  C6  UNL     1     -34.432  15.355  -6.899  1.00 20.00     0.009 C 
HETATM    6  C7  UNL     1     -34.674  17.811  -6.926  1.00 20.00     0.005 C 
HETATM    7  C8  UNL     1     -33.823  16.028  -5.693  1.00 20.00     0.019 C 
HETATM    8  C9  UNL     1     -34.862  17.189  -5.560  1.00 20.00    -0.002 C 
ENDROOT
BRANCH   2   9
HETATM    9  C3  UNL     1     -33.972  13.455  -3.731  1.00 20.00     0.165 C 
HETATM   10  O10 UNL     1     -32.863  12.940  -3.738  1.00 20.00    -0.647 OA
BRANCH   9  11
HETATM   11  O11 UNL     1     -35.113  12.805  -4.048  1.00 20.00    -0.773 OA
HETATM   12  H23 UNL     1     -35.910  13.343  -3.848  1.00 20.00     0.167 HD
ENDBRANCH   9  11
ENDBRANCH   2   9
TORSDOF 2
ENDMDL
MODEL 5
REMARK VINA RESULT:      -4.8     11.136     13.373
REMARK  2 active torsions:
REMARK  status: ('A' for Active; 'I' for Inactive)
REMARK    1  A    between atoms: C2_2  and  C3_3 
REMARK    2  A    between atoms: C3_3  and  O11_11 
ROOT
HETATM    1  C1  UNL     1     -34.524  15.444  -5.682  1.00 20.00    -0.069 C 
HETATM    2  C2  UNL     1     -34.409  14.117  -5.659  1.00 20.00     0.084 C 
HETATM    3  C4  UNL     1     -34.619  16.505  -6.803  1.00 20.00     0.040 C 
HETATM    4  C5  UNL     1     -33.575  18.393  -3.633  1.00 20.00     0.001 C 
HETATM    5  C6  UNL     1     -33.752  16.862  -3.470  1.00 20.00     0.009 C 
HETATM    6  C7  UNL     1     -33.937  18.700  -5.105  1.00 20.00     0.005 C 
HETATM    7  C8  UNL     1     -34.638  16.528  -4.646  1.00 20.00     0.019 C 
HETATM    8  C9  UNL     1     -33.846  17.327  -5.731  1.00 20.00    -0.002 C 
ENDROOT
BRANCH   2   9
HETATM    9  C3  UNL     1     -34.336  13.311  -4.422  1.00 20.00     0.165 C 
HETATM   10  O10 UNL     1     -33.349  13.282  -3.703  1.00 20.00    -0.647 OA
BRANCH   9  11
HETATM   11  O11 UNL     1     -35.472  12.619  -4.184  1.00 20.00    -0.773 OA
HETATM   12  H23 UNL     1     -35.297  11.663  -4.041  1.00 20.00     0.167 HD
ENDBRANCH   9  11
ENDBRANCH   2   9
TORSDOF 2
ENDMDL
MODEL 6
REMARK VINA RESULT:      -4.8     10.723     13.180
REMARK  2 active torsions:
REMARK  status: ('A' for Active; 'I' for Inactive)
REMARK    1  A    between atoms: C2_2  and  C3_3 
REMARK    2  A    between atoms: C3_3  and  O11_11 
ROOT
HETATM    1  C1  UNL     1     -33.955  15.791  -3.201  1.00 20.00    -0.069 C 
HETATM    2  C2  UNL     1     -34.343  14.550  -2.918  1.00 20.00     0.084 C 
HETATM    3  C4  UNL     1     -33.932  17.125  -2.419  1.00 20.00     0.040 C 
HETATM    4  C5  UNL     1     -33.672  18.058  -6.130  1.00 20.00     0.001 C 
HETATM    5  C6  UNL     1     -33.793  16.543  -5.829  1.00 20.00     0.009 C 
HETATM    6  C7  UNL     1     -33.653  18.757  -4.749  1.00 20.00     0.005 C 
HETATM    7  C8  UNL     1     -33.341  16.477  -4.391  1.00 20.00     0.019 C 
HETATM    8  C9  UNL     1     -34.199  17.668  -3.853  1.00 20.00    -0.002 C 
ENDROOT
BRANCH   2   9
HETATM    9  C3  UNL     1     -34.260  13.416  -3.863  1.00 20.00     0.165 C 
HETATM   10  O10 UNL     1     -35.245  12.873  -4.340  1.00 20.00    -0.647 OA
BRANCH   9  11
HETATM   11  O11 UNL     1     -32.986  13.057  -4.136  1.00 20.00    -0.773 OA
HETATM   12  H23 UNL     1     -32.357  13.796  -3.990  1.00 20.00     0.167 HD
ENDBRANCH   9  11
ENDBRANCH   2   9
TORSDOF 2
ENDMDL
MODEL 7
REMARK VINA RESULT:      -4.7      1.177      2.229
REMARK  2 active torsions:
REMARK  status: ('A' for Active; 'I' for Inactive)
REMARK    1  A    between atoms: C2_2  and  C3_3 
REMARK    2  A    between atoms: C3_3  and  O11_11 
ROOT
HETATM    1  C1  UNL     1     -33.266   6.915   5.020  1.00 20.00    -0.069 C 
HETATM    2  C2  UNL     1     -32.319   7.451   4.253  1.00 20.00     0.084 C 
HETATM    3  C4  UNL     1     -33.618   6.996   6.524  1.00 20.00     0.040 C 
HETATM    4  C5  UNL     1     -35.365   3.855   5.187  1.00 20.00     0.001 C 
HETATM    5  C6  UNL     1     -34.524   4.643   4.151  1.00 20.00     0.009 C 
HETATM    6  C7  UNL     1     -35.260   4.657   6.506  1.00 20.00     0.005 C 
HETATM    7  C8  UNL     1     -34.443   6.007   4.793  1.00 20.00     0.019 C 
HETATM    8  C9  UNL     1     -34.058   5.532   6.232  1.00 20.00    -0.002 C 
ENDROOT
BRANCH   2   9
HETATM    9  C3  UNL     1     -32.193   7.212   2.800  1.00 20.00     0.165 C 
HETATM   10  O10 UNL     1     -32.099   6.095   2.313  1.00 20.00    -0.647 OA
BRANCH   9  11
HETATM   11  O11 UNL     1     -32.194   8.357   2.081  1.00 20.00    -0.773 OA
HETATM   12  H23 UNL     1     -31.401   8.431   1.507  1.00 20.00     0.167 HD
ENDBRANCH   9  11
ENDBRANCH   2   9
TORSDOF 2
ENDMDL
MODEL 8
REMARK VINA RESULT:      -4.7     10.172     11.348
REMARK  2 active torsions:
REMARK  status: ('A' for Active; 'I' for Inactive)
REMARK    1  A    between atoms: C2_2  and  C3_3 
REMARK    2  A    between atoms: C3_3  and  O11_11 
ROOT
HETATM    1  C1  UNL     1     -42.749   4.739  -2.777  1.00 20.00    -0.069 C 
HETATM    2  C2  UNL     1     -42.872   3.601  -3.459  1.00 20.00     0.084 C 
HETATM    3  C4  UNL     1     -43.110   6.216  -3.059  1.00 20.00     0.040 C 
HETATM    4  C5  UNL     1     -40.532   6.269  -0.220  1.00 20.00     0.001 C 
HETATM    5  C6  UNL     1     -40.894   4.865  -0.767  1.00 20.00     0.009 C 
HETATM    6  C7  UNL     1     -41.411   7.265  -1.015  1.00 20.00     0.005 C 
HETATM    7  C8  UNL     1     -42.231   5.123  -1.419  1.00 20.00     0.019 C 
HETATM    8  C9  UNL     1     -41.832   6.420  -2.196  1.00 20.00    -0.002 C 
ENDROOT
BRANCH   2   9
HETATM    9  C3  UNL     1     -42.437   2.280  -2.957  1.00 20.00     0.165 C 
HETATM   10  O10 UNL     1     -41.517   1.649  -3.454  1.00 20.00    -0.647 OA
BRANCH   9  11
HETATM   11  O11 UNL     1     -43.165   1.859  -1.899  1.00 20.00    -0.773 OA
HETATM   12  H23 UNL     1     -43.987   1.401  -2.178  1.00 20.00     0.167 HD
ENDBRANCH   9  11
ENDBRANCH   2   9
TORSDOF 2
ENDMDL
MODEL 9
REMARK VINA RESULT:      -4.6     11.548     12.331
REMARK  2 active torsions:
REMARK  status: ('A' for Active; 'I' for Inactive)
REMARK    1  A    between atoms: C2_2  and  C3_3 
REMARK    2  A    between atoms: C3_3  and  O11_11 
ROOT
HETATM    1  C1  UNL     1     -36.155  15.557  -3.599  1.00 20.00    -0.069 C 
HETATM    2  C2  UNL     1     -36.123  14.698  -4.616  1.00 20.00     0.084 C 
HETATM    3  C4  UNL     1     -37.151  16.642  -3.126  1.00 20.00     0.040 C 
HETATM    4  C5  UNL     1     -33.807  17.453  -1.434  1.00 20.00     0.001 C 
HETATM    5  C6  UNL     1     -33.798  16.221  -2.373  1.00 20.00     0.009 C 
HETATM    6  C7  UNL     1     -35.263  17.976  -1.446  1.00 20.00     0.005 C 
HETATM    7  C8  UNL     1     -35.264  15.864  -2.427  1.00 20.00     0.019 C 
HETATM    8  C9  UNL     1     -35.815  17.305  -2.683  1.00 20.00    -0.002 C 
ENDROOT
BRANCH   2   9
HETATM    9  C3  UNL     1     -35.029  13.735  -4.857  1.00 20.00     0.165 C 
HETATM   10  O10 UNL     1     -35.034  12.596  -4.415  1.00 20.00    -0.647 OA
BRANCH   9  11
HETATM   11  O11 UNL     1     -34.036  14.253  -5.613  1.00 20.00    -0.773 OA
HETATM   12  H23 UNL     1     -34.367  14.931  -6.240  1.00 20.00     0.167 HD
ENDBRANCH   9  11
ENDBRANCH   2   9
TORSDOF 2
ENDMDL
