MODEL 1
REMARK VINA RESULT:      -5.1      0.000      0.000
REMARK  1 active torsions:
REMARK  status: ('A' for Active; 'I' for Inactive)
REMARK    1  A    between atoms: C8_8  and  C11_11 
ROOT
HETATM    1  C1  UNL     1     -34.353  16.786  -5.653  1.00 20.00    -0.079 C 
HETATM    2  C2  UNL     1     -34.313  13.537  -4.695  1.00 20.00     0.132 C 
HETATM    3  C3  UNL     1     -33.915  17.966  -6.086  1.00 20.00     0.015 C 
HETATM    4  C4  UNL     1     -35.322  15.705  -6.221  1.00 20.00     0.047 C 
HETATM    5  C5  UNL     1     -33.290  13.799  -3.586  1.00 20.00     0.080 C 
HETATM    6  C6  UNL     1     -32.878  15.296  -3.828  1.00 20.00     0.022 C 
HETATM    7  C7  UNL     1     -34.307  14.810  -5.527  1.00 20.00     0.072 C 
HETATM    8  C8  UNL     1     -34.138  15.944  -4.409  1.00 20.00    -0.004 C 
HETATM    9  O12 UNL     1     -34.954  12.507  -4.830  1.00 20.00    -0.298 OA
ENDROOT
BRANCH   8  10
HETATM   10  C11 UNL     1     -35.178  16.229  -3.316  1.00 20.00    -0.009 C 
HETATM   11  C9  UNL     1     -34.547  16.086  -1.936  1.00 20.00     0.011 C 
HETATM   12  C10 UNL     1     -35.772  17.620  -3.500  1.00 20.00     0.011 C 
ENDBRANCH   8  10
TORSDOF 1
ENDMDL
MODEL 2
REMARK VINA RESULT:      -5.1      1.165      2.908
REMARK  1 active torsions:
REMARK  status: ('A' for Active; 'I' for Inactive)
REMARK    1  A    between atoms: C8_8  and  C11_11 
ROOT
HETATM    1  C1  UNL     1     -34.937  16.756  -3.426  1.00 20.00    -0.079 C 
HETATM    2  C2  UNL     1     -33.761  13.611  -3.881  1.00 20.00     0.132 C 
HETATM    3  C3  UNL     1     -35.793  17.747  -3.184  1.00 20.00     0.015 C 
HETATM    4  C4  UNL     1     -33.692  16.182  -2.684  1.00 20.00     0.047 C 
HETATM    5  C5  UNL     1     -34.731  13.335  -5.034  1.00 20.00     0.080 C 
HETATM    6  C6  UNL     1     -35.660  14.603  -5.029  1.00 20.00     0.022 C 
HETATM    7  C7  UNL     1     -34.274  14.897  -3.252  1.00 20.00     0.072 C 
HETATM    8  C8  UNL     1     -34.754  15.732  -4.532  1.00 20.00    -0.004 C 
HETATM    9  O12 UNL     1     -32.810  12.909  -3.581  1.00 20.00    -0.298 OA
ENDROOT
BRANCH   8  10
HETATM   10  C11 UNL     1     -33.807  16.221  -5.638  1.00 20.00    -0.009 C 
HETATM   11  C9  UNL     1     -34.267  15.702  -6.995  1.00 20.00     0.011 C 
HETATM   12  C10 UNL     1     -33.730  17.743  -5.635  1.00 20.00     0.011 C 
ENDBRANCH   8  10
TORSDOF 1
ENDMDL
MODEL 3
REMARK VINA RESULT:      -5.0      1.284      2.876
REMARK  1 active torsions:
REMARK  status: ('A' for Active; 'I' for Inactive)
REMARK    1  A    between atoms: C8_8  and  C11_11 
ROOT
HETATM    1  C1  UNL     1     -33.778  16.304  -2.717  1.00 20.00    -0.079 C 
HETATM    2  C2  UNL     1     -35.137  13.597  -4.235  1.00 20.00     0.132 C 
HETATM    3  C3  UNL     1     -33.559  17.244  -1.799  1.00 20.00     0.015 C 
HETATM    4  C4  UNL     1     -32.939  15.124  -3.293  1.00 20.00     0.047 C 
HETATM    5  C5  UNL     1     -36.545  14.199  -4.213  1.00 20.00     0.080 C 
HETATM    6  C6  UNL     1     -36.362  15.503  -3.354  1.00 20.00     0.022 C 
HETATM    7  C7  UNL     1     -34.324  14.497  -3.316  1.00 20.00     0.072 C 
HETATM    8  C8  UNL     1     -34.925  15.946  -3.643  1.00 20.00    -0.004 C 
HETATM    9  O12 UNL     1     -34.806  12.607  -4.865  1.00 20.00    -0.298 OA
ENDROOT
BRANCH   8  10
HETATM   10  C11 UNL     1     -34.813  16.628  -5.014  1.00 20.00    -0.009 C 
HETATM   11  C9  UNL     1     -36.119  17.331  -5.364  1.00 20.00     0.011 C 
HETATM   12  C10 UNL     1     -33.647  17.611  -5.023  1.00 20.00     0.011 C 
ENDBRANCH   8  10
TORSDOF 1
ENDMDL
MODEL 4
REMARK VINA RESULT:      -4.9      1.398      2.926
REMARK  1 active torsions:
REMARK  status: ('A' for Active; 'I' for Inactive)
REMARK    1  A    between atoms: C8_8  and  C11_11 
ROOT
HETATM    1  C1  UNL     1     -34.836  16.934  -4.384  1.00 20.00    -0.079 C 
HETATM    2  C2  UNL     1     -33.804  13.744  -3.895  1.00 20.00     0.132 C 
HETATM    3  C3  UNL     1     -35.592  18.027  -4.310  1.00 20.00     0.015 C 
HETATM    4  C4  UNL     1     -33.412  16.554  -3.879  1.00 20.00     0.047 C 
HETATM    5  C5  UNL     1     -35.079  13.158  -4.509  1.00 20.00     0.080 C 
HETATM    6  C6  UNL     1     -35.983  14.425  -4.728  1.00 20.00     0.022 C 
HETATM    7  C7  UNL     1     -34.119  15.219  -3.699  1.00 20.00     0.072 C 
HETATM    8  C8  UNL     1     -34.988  15.556  -5.002  1.00 20.00    -0.004 C 
HETATM    9  O12 UNL     1     -32.794  13.111  -3.638  1.00 20.00    -0.298 OA
ENDROOT
BRANCH   8  10
HETATM   10  C11 UNL     1     -34.442  15.488  -6.436  1.00 20.00    -0.009 C 
HETATM   11  C9  UNL     1     -35.216  14.455  -7.247  1.00 20.00     0.011 C 
HETATM   12  C10 UNL     1     -34.511  16.860  -7.094  1.00 20.00     0.011 C 
ENDBRANCH   8  10
TORSDOF 1
ENDMDL
MODEL 5
REMARK VINA RESULT:      -4.7      0.955      1.043
REMARK  1 active torsions:
REMARK  status: ('A' for Active; 'I' for Inactive)
REMARK    1  A    between atoms: C8_8  and  C11_11 
ROOT
HETATM    1  C1  UNL     1     -34.835  16.337  -6.705  1.00 20.00    -0.079 C 
HETATM    2  C2  UNL     1     -34.442  13.627  -4.711  1.00 20.00     0.132 C 
HETATM    3  C3  UNL     1     -34.525  17.356  -7.503  1.00 20.00     0.015 C 
HETATM    4  C4  UNL     1     -35.625  15.006  -6.890  1.00 20.00     0.047 C 
HETATM    5  C5  UNL     1     -33.527  14.380  -3.741  1.00 20.00     0.080 C 
HETATM    6  C6  UNL     1     -33.294  15.755  -4.466  1.00 20.00     0.022 C 
HETATM    7  C7  UNL     1     -34.547  14.540  -5.922  1.00 20.00     0.072 C 
HETATM    8  C8  UNL     1     -34.589  15.993  -5.248  1.00 20.00    -0.004 C 
HETATM    9  O12 UNL     1     -34.939  12.532  -4.501  1.00 20.00    -0.298 OA
ENDROOT
BRANCH   8  10
HETATM   10  C11 UNL     1     -35.720  16.476  -4.327  1.00 20.00    -0.009 C 
HETATM   11  C9  UNL     1     -35.206  16.643  -2.902  1.00 20.00     0.011 C 
HETATM   12  C10 UNL     1     -36.306  17.782  -4.850  1.00 20.00     0.011 C 
ENDBRANCH   8  10
TORSDOF 1
ENDMDL
MODEL 6
REMARK VINA RESULT:      -4.6      1.592      2.615
REMARK  1 active torsions:
REMARK  status: ('A' for Active; 'I' for Inactive)
REMARK    1  A    between atoms: C8_8  and  C11_11 
ROOT
HETATM    1  C1  UNL     1     -34.091  16.529  -2.994  1.00 20.00    -0.079 C 
HETATM    2  C2  UNL     1     -34.243  14.836  -5.925  1.00 20.00     0.132 C 
HETATM    3  C3  UNL     1     -33.785  16.814  -1.730  1.00 20.00     0.015 C 
HETATM    4  C4  UNL     1     -33.724  17.155  -4.374  1.00 20.00     0.047 C 
HETATM    5  C5  UNL     1     -34.900  13.616  -5.272  1.00 20.00     0.080 C 
HETATM    6  C6  UNL     1     -34.843  13.959  -3.739  1.00 20.00     0.022 C 
HETATM    7  C7  UNL     1     -33.765  15.683  -4.755  1.00 20.00     0.072 C 
HETATM    8  C8  UNL     1     -34.946  15.486  -3.690  1.00 20.00    -0.004 C 
HETATM    9  O12 UNL     1     -34.149  15.024  -7.127  1.00 20.00    -0.298 OA
ENDROOT
BRANCH   8  10
HETATM   10  C11 UNL     1     -36.389  15.960  -3.917  1.00 20.00    -0.009 C 
HETATM   11  C9  UNL     1     -37.349  14.778  -3.849  1.00 20.00     0.011 C 
HETATM   12  C10 UNL     1     -36.763  17.024  -2.893  1.00 20.00     0.011 C 
ENDBRANCH   8  10
TORSDOF 1
ENDMDL
MODEL 7
REMARK VINA RESULT:      -4.6      2.217      3.671
REMARK  1 active torsions:
REMARK  status: ('A' for Active; 'I' for Inactive)
REMARK    1  A    between atoms: C8_8  and  C11_11 
ROOT
HETATM    1  C1  UNL     1     -37.472  15.138  -3.934  1.00 20.00    -0.079 C 
HETATM    2  C2  UNL     1     -34.180  15.261  -3.140  1.00 20.00     0.132 C 
HETATM    3  C3  UNL     1     -38.723  14.688  -4.010  1.00 20.00     0.015 C 
HETATM    4  C4  UNL     1     -36.791  16.365  -3.256  1.00 20.00     0.047 C 
HETATM    5  C5  UNL     1     -33.883  13.936  -3.849  1.00 20.00     0.080 C 
HETATM    6  C6  UNL     1     -35.313  13.415  -4.242  1.00 20.00     0.022 C 
HETATM    7  C7  UNL     1     -35.698  15.324  -3.071  1.00 20.00     0.072 C 
HETATM    8  C8  UNL     1     -36.128  14.689  -4.478  1.00 20.00    -0.004 C 
HETATM    9  O12 UNL     1     -33.338  16.046  -2.737  1.00 20.00    -0.298 OA
ENDROOT
BRANCH   8  10
HETATM   10  C11 UNL     1     -35.799  15.322  -5.837  1.00 20.00    -0.009 C 
HETATM   11  C9  UNL     1     -34.840  14.431  -6.617  1.00 20.00     0.011 C 
HETATM   12  C10 UNL     1     -37.078  15.569  -6.629  1.00 20.00     0.011 C 
ENDBRANCH   8  10
TORSDOF 1
ENDMDL
MODEL 8
REMARK VINA RESULT:      -4.6      1.646      2.193
REMARK  1 active torsions:
REMARK  status: ('A' for Active; 'I' for Inactive)
REMARK    1  A    between atoms: C8_8  and  C11_11 
ROOT
HETATM    1  C1  UNL     1     -35.303  16.473  -6.609  1.00 20.00    -0.079 C 
HETATM    2  C2  UNL     1     -36.646  14.346  -4.341  1.00 20.00     0.132 C 
HETATM    3  C3  UNL     1     -34.729  16.905  -7.731  1.00 20.00     0.015 C 
HETATM    4  C4  UNL     1     -36.695  16.687  -5.942  1.00 20.00     0.047 C 
HETATM    5  C5  UNL     1     -35.366  13.510  -4.255  1.00 20.00     0.080 C 
HETATM    6  C6  UNL     1     -34.467  14.119  -5.391  1.00 20.00     0.022 C 
HETATM    7  C7  UNL     1     -36.437  15.239  -5.554  1.00 20.00     0.072 C 
HETATM    8  C8  UNL     1     -34.878  15.593  -5.449  1.00 20.00    -0.004 C 
HETATM    9  O12 UNL     1     -37.594  14.259  -3.577  1.00 20.00    -0.298 OA
ENDROOT
BRANCH   8  10
HETATM   10  C11 UNL     1     -34.259  16.394  -4.295  1.00 20.00    -0.009 C 
HETATM   11  C9  UNL     1     -33.306  15.516  -3.492  1.00 20.00     0.011 C 
HETATM   12  C10 UNL     1     -33.540  17.626  -4.832  1.00 20.00     0.011 C 
ENDBRANCH   8  10
TORSDOF 1
ENDMDL
MODEL 9
REMARK VINA RESULT:      -4.6      1.828      3.583
REMARK  1 active torsions:
REMARK  status: ('A' for Active; 'I' for Inactive)
REMARK    1  A    between atoms: C8_8  and  C11_11 
ROOT
HETATM    1  C1  UNL     1     -34.114  14.836  -4.080  1.00 20.00    -0.079 C 
HETATM    2  C2  UNL     1     -37.488  14.920  -3.781  1.00 20.00     0.132 C 
HETATM    3  C3  UNL     1     -32.830  15.073  -3.818  1.00 20.00     0.015 C 
HETATM    4  C4  UNL     1     -35.013  13.563  -4.074  1.00 20.00     0.047 C 
HETATM    5  C5  UNL     1     -37.533  16.447  -3.879  1.00 20.00     0.080 C 
HETATM    6  C6  UNL     1     -36.015  16.851  -3.851  1.00 20.00     0.022 C 
HETATM    7  C7  UNL     1     -36.015  14.595  -3.580  1.00 20.00     0.072 C 
HETATM    8  C8  UNL     1     -35.299  15.675  -4.521  1.00 20.00    -0.004 C 
HETATM    9  O12 UNL     1     -38.457  14.182  -3.849  1.00 20.00    -0.298 OA
ENDROOT
BRANCH   8  10
HETATM   10  C11 UNL     1     -35.457  15.718  -6.048  1.00 20.00    -0.009 C 
HETATM   11  C9  UNL     1     -36.090  17.037  -6.477  1.00 20.00     0.011 C 
HETATM   12  C10 UNL     1     -34.107  15.517  -6.725  1.00 20.00     0.011 C 
ENDBRANCH   8  10
TORSDOF 1
ENDMDL
