MODEL 1
REMARK VINA RESULT:      -5.2      0.000      0.000
REMARK  1 active torsions:
REMARK  status: ('A' for Active; 'I' for Inactive)
REMARK    1  A    between atoms: C6_6  and  C10_10 
ROOT
HETATM    1  C1  UNL     1     -33.416  14.020  -3.751  1.00 20.00     0.054 A 
HETATM    2  C2  UNL     1     -35.384  14.758  -5.163  1.00 20.00     0.060 A 
HETATM    3  C3  UNL     1     -33.159  15.302  -3.478  1.00 20.00     0.025 A 
HETATM    4  C4  UNL     1     -35.117  16.043  -4.882  1.00 20.00    -0.037 A 
HETATM    5  C5  UNL     1     -34.578  13.659  -4.587  1.00 20.00     0.172 A 
HETATM    6  C6  UNL     1     -33.990  16.465  -3.955  1.00 20.00     0.147 A 
HETATM    7  C7  UNL     1     -35.922  17.140  -5.525  1.00 20.00     0.047 C 
HETATM    8  O11 UNL     1     -34.856  12.485  -4.811  1.00 20.00    -0.289 OA
HETATM    9  F12 UNL     1     -33.167  17.328  -4.626  1.00 20.00    -0.233 F 
ENDROOT
BRANCH   6  10
HETATM   10  C10 UNL     1     -34.524  17.219  -2.734  1.00 20.00     0.026 C 
HETATM   11  C8  UNL     1     -34.585  16.294  -1.523  1.00 20.00     0.014 C 
HETATM   12  C9  UNL     1     -33.656  18.438  -2.441  1.00 20.00     0.014 C 
ENDBRANCH   6  10
TORSDOF 1
ENDMDL
MODEL 2
REMARK VINA RESULT:      -5.0     11.991     13.332
REMARK  1 active torsions:
REMARK  status: ('A' for Active; 'I' for Inactive)
REMARK    1  A    between atoms: C6_6  and  C10_10 
ROOT
HETATM    1  C1  UNL     1     -35.222   4.568   4.112  1.00 20.00     0.054 A 
HETATM    2  C2  UNL     1     -34.385   5.440   6.337  1.00 20.00     0.060 A 
HETATM    3  C3  UNL     1     -34.639   5.608   3.509  1.00 20.00     0.025 A 
HETATM    4  C4  UNL     1     -33.802   6.481   5.721  1.00 20.00    -0.037 A 
HETATM    5  C5  UNL     1     -35.100   4.394   5.573  1.00 20.00     0.172 A 
HETATM    6  C6  UNL     1     -33.821   6.659   4.213  1.00 20.00     0.147 A 
HETATM    7  C7  UNL     1     -33.128   7.557   6.530  1.00 20.00     0.047 C 
HETATM    8  O11 UNL     1     -35.590   3.421   6.138  1.00 20.00    -0.289 OA
HETATM    9  F12 UNL     1     -34.359   7.882   3.920  1.00 20.00    -0.233 F 
ENDROOT
BRANCH   6  10
HETATM   10  C10 UNL     1     -32.404   6.647   3.631  1.00 20.00     0.026 C 
HETATM   11  C8  UNL     1     -32.124   5.317   2.940  1.00 20.00     0.014 C 
HETATM   12  C9  UNL     1     -32.217   7.810   2.664  1.00 20.00     0.014 C 
ENDBRANCH   6  10
TORSDOF 1
ENDMDL
MODEL 3
REMARK VINA RESULT:      -5.0      1.934      3.119
REMARK  1 active torsions:
REMARK  status: ('A' for Active; 'I' for Inactive)
REMARK    1  A    between atoms: C6_6  and  C10_10 
ROOT
HETATM    1  C1  UNL     1     -36.749  16.206  -3.764  1.00 20.00     0.054 A 
HETATM    2  C2  UNL     1     -35.617  13.942  -3.818  1.00 20.00     0.060 A 
HETATM    3  C3  UNL     1     -35.544  16.785  -3.774  1.00 20.00     0.025 A 
HETATM    4  C4  UNL     1     -34.412  14.533  -3.828  1.00 20.00    -0.037 A 
HETATM    5  C5  UNL     1     -36.866  14.736  -3.825  1.00 20.00     0.172 A 
HETATM    6  C6  UNL     1     -34.237  16.041  -3.858  1.00 20.00     0.147 A 
HETATM    7  C7  UNL     1     -33.161  13.699  -3.767  1.00 20.00     0.047 C 
HETATM    8  O11 UNL     1     -37.963  14.189  -3.862  1.00 20.00    -0.289 OA
HETATM    9  F12 UNL     1     -33.466  16.417  -2.792  1.00 20.00    -0.233 F 
ENDROOT
BRANCH   6  10
HETATM   10  C10 UNL     1     -33.497  16.493  -5.120  1.00 20.00     0.026 C 
HETATM   11  C8  UNL     1     -34.148  15.893  -6.362  1.00 20.00     0.014 C 
HETATM   12  C9  UNL     1     -33.470  18.015  -5.206  1.00 20.00     0.014 C 
ENDBRANCH   6  10
TORSDOF 1
ENDMDL
MODEL 4
REMARK VINA RESULT:      -4.8      1.898      3.440
REMARK  1 active torsions:
REMARK  status: ('A' for Active; 'I' for Inactive)
REMARK    1  A    between atoms: C6_6  and  C10_10 
ROOT
HETATM    1  C1  UNL     1     -34.845  13.327  -4.247  1.00 20.00     0.054 A 
HETATM    2  C2  UNL     1     -33.105  15.158  -4.071  1.00 20.00     0.060 A 
HETATM    3  C3  UNL     1     -35.692  14.212  -4.778  1.00 20.00     0.025 A 
HETATM    4  C4  UNL     1     -33.964  16.040  -4.605  1.00 20.00    -0.037 A 
HETATM    5  C5  UNL     1     -33.471  13.735  -3.891  1.00 20.00     0.172 A 
HETATM    6  C6  UNL     1     -35.356  15.651  -5.072  1.00 20.00     0.147 A 
HETATM    7  C7  UNL     1     -33.581  17.490  -4.726  1.00 20.00     0.047 C 
HETATM    8  O11 UNL     1     -32.665  12.926  -3.445  1.00 20.00    -0.289 OA
HETATM    9  F12 UNL     1     -36.272  16.440  -4.431  1.00 20.00    -0.233 F 
ENDROOT
BRANCH   6  10
HETATM   10  C10 UNL     1     -35.532  15.898  -6.573  1.00 20.00     0.026 C 
HETATM   11  C8  UNL     1     -34.568  15.026  -7.371  1.00 20.00     0.014 C 
HETATM   12  C9  UNL     1     -36.974  15.634  -6.990  1.00 20.00     0.014 C 
ENDBRANCH   6  10
TORSDOF 1
ENDMDL
MODEL 5
REMARK VINA RESULT:      -4.8      1.206      1.518
REMARK  1 active torsions:
REMARK  status: ('A' for Active; 'I' for Inactive)
REMARK    1  A    between atoms: C6_6  and  C10_10 
ROOT
HETATM    1  C1  UNL     1     -34.072  14.404  -3.520  1.00 20.00     0.054 A 
HETATM    2  C2  UNL     1     -34.823  14.350  -5.938  1.00 20.00     0.060 A 
HETATM    3  C3  UNL     1     -33.787  15.701  -3.660  1.00 20.00     0.025 A 
HETATM    4  C4  UNL     1     -34.533  15.655  -6.068  1.00 20.00    -0.037 A 
HETATM    5  C5  UNL     1     -34.650  13.646  -4.648  1.00 20.00     0.172 A 
HETATM    6  C6  UNL     1     -34.023  16.501  -4.915  1.00 20.00     0.147 A 
HETATM    7  C7  UNL     1     -34.670  16.330  -7.405  1.00 20.00     0.047 C 
HETATM    8  O11 UNL     1     -34.960  12.466  -4.525  1.00 20.00    -0.289 OA
HETATM    9  F12 UNL     1     -32.836  17.076  -5.280  1.00 20.00    -0.233 F 
ENDROOT
BRANCH   6  10
HETATM   10  C10 UNL     1     -34.988  17.646  -4.591  1.00 20.00     0.026 C 
HETATM   11  C8  UNL     1     -36.332  17.093  -4.127  1.00 20.00     0.014 C 
HETATM   12  C9  UNL     1     -34.387  18.566  -3.535  1.00 20.00     0.014 C 
ENDBRANCH   6  10
TORSDOF 1
ENDMDL
MODEL 6
REMARK VINA RESULT:      -4.8      1.612      2.763
REMARK  1 active torsions:
REMARK  status: ('A' for Active; 'I' for Inactive)
REMARK    1  A    between atoms: C6_6  and  C10_10 
ROOT
HETATM    1  C1  UNL     1     -35.730  14.570  -5.544  1.00 20.00     0.054 A 
HETATM    2  C2  UNL     1     -34.627  14.348  -3.276  1.00 20.00     0.060 A 
HETATM    3  C3  UNL     1     -35.970  15.858  -5.278  1.00 20.00     0.025 A 
HETATM    4  C4  UNL     1     -34.873  15.643  -3.018  1.00 20.00    -0.037 A 
HETATM    5  C5  UNL     1     -35.003  13.734  -4.568  1.00 20.00     0.172 A 
HETATM    6  C6  UNL     1     -35.536  16.569  -4.023  1.00 20.00     0.147 A 
HETATM    7  C7  UNL     1     -34.527  16.225  -1.675  1.00 20.00     0.047 C 
HETATM    8  O11 UNL     1     -34.735  12.563  -4.815  1.00 20.00    -0.289 OA
HETATM    9  F12 UNL     1     -36.645  17.125  -3.446  1.00 20.00    -0.233 F 
ENDROOT
BRANCH   6  10
HETATM   10  C10 UNL     1     -34.611  17.726  -4.412  1.00 20.00     0.026 C 
HETATM   11  C8  UNL     1     -33.412  17.207  -5.199  1.00 20.00     0.014 C 
HETATM   12  C9  UNL     1     -35.375  18.771  -5.216  1.00 20.00     0.014 C 
ENDBRANCH   6  10
TORSDOF 1
ENDMDL
MODEL 7
REMARK VINA RESULT:      -4.7      1.672      2.129
REMARK  1 active torsions:
REMARK  status: ('A' for Active; 'I' for Inactive)
REMARK    1  A    between atoms: C6_6  and  C10_10 
ROOT
HETATM    1  C1  UNL     1     -34.942  13.703  -5.292  1.00 20.00     0.054 A 
HETATM    2  C2  UNL     1     -34.394  15.904  -6.416  1.00 20.00     0.060 A 
HETATM    3  C3  UNL     1     -34.580  14.234  -4.121  1.00 20.00     0.025 A 
HETATM    4  C4  UNL     1     -34.032  16.429  -5.234  1.00 20.00    -0.037 A 
HETATM    5  C5  UNL     1     -34.909  14.521  -6.520  1.00 20.00     0.172 A 
HETATM    6  C6  UNL     1     -34.132  15.660  -3.929  1.00 20.00     0.147 A 
HETATM    7  C7  UNL     1     -33.462  17.820  -5.168  1.00 20.00     0.047 C 
HETATM    8  O11 UNL     1     -35.281  14.063  -7.596  1.00 20.00    -0.289 OA
HETATM    9  F12 UNL     1     -32.901  15.641  -3.331  1.00 20.00    -0.233 F 
ENDROOT
BRANCH   6  10
HETATM   10  C10 UNL     1     -35.090  16.345  -2.949  1.00 20.00     0.026 C 
HETATM   11  C8  UNL     1     -36.481  15.728  -3.046  1.00 20.00     0.014 C 
HETATM   12  C9  UNL     1     -34.553  16.250  -1.525  1.00 20.00     0.014 C 
ENDBRANCH   6  10
TORSDOF 1
ENDMDL
MODEL 8
REMARK VINA RESULT:      -4.7      2.474      3.872
REMARK  1 active torsions:
REMARK  status: ('A' for Active; 'I' for Inactive)
REMARK    1  A    between atoms: C6_6  and  C10_10 
ROOT
HETATM    1  C1  UNL     1     -34.684  16.350  -1.497  1.00 20.00     0.054 A 
HETATM    2  C2  UNL     1     -33.602  17.819  -3.253  1.00 20.00     0.060 A 
HETATM    3  C3  UNL     1     -35.124  15.548  -2.470  1.00 20.00     0.025 A 
HETATM    4  C4  UNL     1     -34.049  17.006  -4.223  1.00 20.00    -0.037 A 
HETATM    5  C5  UNL     1     -33.854  17.527  -1.824  1.00 20.00     0.172 A 
HETATM    6  C6  UNL     1     -34.829  15.735  -3.935  1.00 20.00     0.147 A 
HETATM    7  C7  UNL     1     -33.822  17.358  -5.668  1.00 20.00     0.047 C 
HETATM    8  O11 UNL     1     -33.403  18.249  -0.941  1.00 20.00    -0.289 OA
HETATM    9  F12 UNL     1     -36.021  15.787  -4.605  1.00 20.00    -0.233 F 
ENDROOT
BRANCH   6  10
HETATM   10  C10 UNL     1     -34.087  14.496  -4.447  1.00 20.00     0.026 C 
HETATM   11  C8  UNL     1     -32.821  14.259  -3.629  1.00 20.00     0.014 C 
HETATM   12  C9  UNL     1     -34.997  13.275  -4.402  1.00 20.00     0.014 C 
ENDBRANCH   6  10
TORSDOF 1
ENDMDL
MODEL 9
REMARK VINA RESULT:      -4.7      2.401      3.911
REMARK  1 active torsions:
REMARK  status: ('A' for Active; 'I' for Inactive)
REMARK    1  A    between atoms: C6_6  and  C10_10 
ROOT
HETATM    1  C1  UNL     1     -33.766  17.081  -5.591  1.00 20.00     0.054 A 
HETATM    2  C2  UNL     1     -34.527  17.862  -3.306  1.00 20.00     0.060 A 
HETATM    3  C3  UNL     1     -33.536  15.869  -5.077  1.00 20.00     0.025 A 
HETATM    4  C4  UNL     1     -34.292  16.641  -2.799  1.00 20.00    -0.037 A 
HETATM    5  C5  UNL     1     -34.317  18.155  -4.741  1.00 20.00     0.172 A 
HETATM    6  C6  UNL     1     -33.812  15.478  -3.649  1.00 20.00     0.147 A 
HETATM    7  C7  UNL     1     -34.464  16.388  -1.326  1.00 20.00     0.047 C 
HETATM    8  O11 UNL     1     -34.577  19.260  -5.206  1.00 20.00    -0.289 OA
HETATM    9  F12 UNL     1     -32.652  14.989  -3.112  1.00 20.00    -0.233 F 
ENDROOT
BRANCH   6  10
HETATM   10  C10 UNL     1     -34.822  14.327  -3.643  1.00 20.00     0.026 C 
HETATM   11  C8  UNL     1     -36.212  14.838  -4.007  1.00 20.00     0.014 C 
HETATM   12  C9  UNL     1     -34.382  13.227  -4.603  1.00 20.00     0.014 C 
ENDBRANCH   6  10
TORSDOF 1
ENDMDL
