MODEL 1
REMARK VINA RESULT:      -5.1      0.000      0.000
REMARK  2 active torsions:
REMARK  status: ('A' for Active; 'I' for Inactive)
REMARK    1  A    between atoms: C2_2  and  C5_5 
REMARK    2  A    between atoms: C7_7  and  C10_10 
ROOT
HETATM    1  C1  UNL     1     -34.703  15.554  -2.222  1.00 20.00    -0.006 A 
HETATM    2  C2  UNL     1     -34.045  15.137  -3.307  1.00 20.00     0.005 A 
HETATM    3  C3  UNL     1     -33.463  16.350  -3.911  1.00 20.00     0.159 A 
HETATM    4  C6  UNL     1     -33.835  17.586  -3.139  1.00 20.00     0.092 A 
HETATM    5  C7  UNL     1     -34.643  17.031  -1.962  1.00 20.00     0.019 A 
HETATM    6  O11 UNL     1     -32.773  16.349  -4.920  1.00 20.00    -0.292 OA
ENDROOT
BRANCH   5   7
HETATM    7  C10 UNL     1     -33.992  17.337  -0.619  1.00 20.00    -0.015 C 
HETATM    8  C8  UNL     1     -33.164  18.620  -0.700  1.00 20.00     0.010 C 
HETATM    9  C9  UNL     1     -35.047  17.453   0.479  1.00 20.00     0.010 C 
ENDBRANCH   5   7
BRANCH   2  10
HETATM   10  C5  UNL     1     -33.912  13.813  -3.816  1.00 20.00     0.004 C 
HETATM   11  C4  UNL     1     -34.852  13.305  -4.644  1.00 20.00     0.012 C 
ENDBRANCH   2  10
TORSDOF 2
ENDMDL
MODEL 2
REMARK VINA RESULT:      -5.0      2.080      3.210
REMARK  2 active torsions:
REMARK  status: ('A' for Active; 'I' for Inactive)
REMARK    1  A    between atoms: C2_2  and  C5_5 
REMARK    2  A    between atoms: C7_7  and  C10_10 
ROOT
HETATM    1  C1  UNL     1     -33.888  15.648  -5.189  1.00 20.00    -0.006 A 
HETATM    2  C2  UNL     1     -34.629  14.602  -5.564  1.00 20.00     0.005 A 
HETATM    3  C3  UNL     1     -34.476  13.600  -4.493  1.00 20.00     0.159 A 
HETATM    4  C6  UNL     1     -33.544  14.081  -3.415  1.00 20.00     0.092 A 
HETATM    5  C7  UNL     1     -33.182  15.497  -3.874  1.00 20.00     0.019 A 
HETATM    6  O11 UNL     1     -35.031  12.511  -4.488  1.00 20.00    -0.292 OA
ENDROOT
BRANCH   5   7
HETATM    7  C10 UNL     1     -33.624  16.559  -2.875  1.00 20.00    -0.015 C 
HETATM    8  C8  UNL     1     -34.111  17.813  -3.601  1.00 20.00     0.010 C 
HETATM    9  C9  UNL     1     -34.718  16.015  -1.958  1.00 20.00     0.010 C 
ENDBRANCH   5   7
BRANCH   2  10
HETATM   10  C5  UNL     1     -35.413  14.439  -6.743  1.00 20.00     0.004 C 
HETATM   11  C4  UNL     1     -34.995  14.967  -7.916  1.00 20.00     0.012 C 
ENDBRANCH   2  10
TORSDOF 2
ENDMDL
MODEL 3
REMARK VINA RESULT:      -4.9      2.075      3.209
REMARK  2 active torsions:
REMARK  status: ('A' for Active; 'I' for Inactive)
REMARK    1  A    between atoms: C2_2  and  C5_5 
REMARK    2  A    between atoms: C7_7  and  C10_10 
ROOT
HETATM    1  C1  UNL     1     -33.964  15.860  -5.269  1.00 20.00    -0.006 A 
HETATM    2  C2  UNL     1     -34.444  14.736  -5.808  1.00 20.00     0.005 A 
HETATM    3  C3  UNL     1     -34.450  13.743  -4.718  1.00 20.00     0.159 A 
HETATM    4  C6  UNL     1     -33.899  14.317  -3.443  1.00 20.00     0.092 A 
HETATM    5  C7  UNL     1     -33.611  15.775  -3.814  1.00 20.00     0.019 A 
HETATM    6  O11 UNL     1     -34.845  12.592  -4.842  1.00 20.00    -0.292 OA
ENDROOT
BRANCH   5   7
HETATM    7  C10 UNL     1     -34.429  16.755  -2.981  1.00 20.00    -0.015 C 
HETATM    8  C8  UNL     1     -34.548  16.268  -1.537  1.00 20.00     0.010 C 
HETATM    9  C9  UNL     1     -33.808  18.150  -3.024  1.00 20.00     0.010 C 
ENDBRANCH   5   7
BRANCH   2  10
HETATM   10  C5  UNL     1     -34.867  14.497  -7.147  1.00 20.00     0.004 C 
HETATM   11  C4  UNL     1     -36.138  14.772  -7.519  1.00 20.00     0.012 C 
ENDBRANCH   2  10
TORSDOF 2
ENDMDL
MODEL 4
REMARK VINA RESULT:      -4.9      1.776      4.511
REMARK  2 active torsions:
REMARK  status: ('A' for Active; 'I' for Inactive)
REMARK    1  A    between atoms: C2_2  and  C5_5 
REMARK    2  A    between atoms: C7_7  and  C10_10 
ROOT
HETATM    1  C1  UNL     1     -35.554  15.192  -3.355  1.00 20.00    -0.006 A 
HETATM    2  C2  UNL     1     -34.328  15.504  -2.926  1.00 20.00     0.005 A 
HETATM    3  C3  UNL     1     -33.412  14.596  -3.641  1.00 20.00     0.159 A 
HETATM    4  C6  UNL     1     -34.161  13.650  -4.539  1.00 20.00     0.092 A 
HETATM    5  C7  UNL     1     -35.618  14.092  -4.373  1.00 20.00     0.019 A 
HETATM    6  O11 UNL     1     -32.197  14.606  -3.510  1.00 20.00    -0.292 OA
ENDROOT
BRANCH   5   7
HETATM    7  C10 UNL     1     -36.227  14.576  -5.683  1.00 20.00    -0.015 C 
HETATM    8  C8  UNL     1     -36.701  16.024  -5.556  1.00 20.00     0.010 C 
HETATM    9  C9  UNL     1     -35.223  14.442  -6.827  1.00 20.00     0.010 C 
ENDBRANCH   5   7
BRANCH   2  10
HETATM   10  C5  UNL     1     -33.938  16.492  -1.976  1.00 20.00     0.004 C 
HETATM   11  C4  UNL     1     -34.628  16.635  -0.822  1.00 20.00     0.012 C 
ENDBRANCH   2  10
TORSDOF 2
ENDMDL
MODEL 5
REMARK VINA RESULT:      -4.7      1.253      4.345
REMARK  2 active torsions:
REMARK  status: ('A' for Active; 'I' for Inactive)
REMARK    1  A    between atoms: C2_2  and  C5_5 
REMARK    2  A    between atoms: C7_7  and  C10_10 
ROOT
HETATM    1  C1  UNL     1     -34.057  15.025  -2.749  1.00 20.00    -0.006 A 
HETATM    2  C2  UNL     1     -34.279  16.300  -2.419  1.00 20.00     0.005 A 
HETATM    3  C3  UNL     1     -33.781  17.098  -3.554  1.00 20.00     0.159 A 
HETATM    4  C6  UNL     1     -33.188  16.226  -4.626  1.00 20.00     0.092 A 
HETATM    5  C7  UNL     1     -33.421  14.810  -4.090  1.00 20.00     0.019 A 
HETATM    6  O11 UNL     1     -33.835  18.318  -3.610  1.00 20.00    -0.292 OA
ENDROOT
BRANCH   5   7
HETATM    7  C10 UNL     1     -34.314  13.985  -5.008  1.00 20.00    -0.015 C 
HETATM    8  C8  UNL     1     -35.627  13.631  -4.310  1.00 20.00     0.010 C 
HETATM    9  C9  UNL     1     -34.588  14.733  -6.311  1.00 20.00     0.010 C 
ENDBRANCH   5   7
BRANCH   2  10
HETATM   10  C5  UNL     1     -34.863  16.826  -1.231  1.00 20.00     0.004 C 
HETATM   11  C4  UNL     1     -34.094  17.468  -0.322  1.00 20.00     0.012 C 
ENDBRANCH   2  10
TORSDOF 2
ENDMDL
MODEL 6
REMARK VINA RESULT:      -4.3      2.872      4.195
REMARK  2 active torsions:
REMARK  status: ('A' for Active; 'I' for Inactive)
REMARK    1  A    between atoms: C2_2  and  C5_5 
REMARK    2  A    between atoms: C7_7  and  C10_10 
ROOT
HETATM    1  C1  UNL     1     -35.193  15.339  -5.886  1.00 20.00    -0.006 A 
HETATM    2  C2  UNL     1     -36.491  15.214  -5.598  1.00 20.00     0.005 A 
HETATM    3  C3  UNL     1     -36.548  14.454  -4.336  1.00 20.00     0.159 A 
HETATM    4  C6  UNL     1     -35.174  14.071  -3.859  1.00 20.00     0.092 A 
HETATM    5  C7  UNL     1     -34.252  14.717  -4.897  1.00 20.00     0.019 A 
HETATM    6  O11 UNL     1     -37.584  14.163  -3.756  1.00 20.00    -0.292 OA
ENDROOT
BRANCH   5   7
HETATM    7  C10 UNL     1     -33.323  15.754  -4.279  1.00 20.00    -0.015 C 
HETATM    8  C8  UNL     1     -33.406  17.076  -5.042  1.00 20.00     0.010 C 
HETATM    9  C9  UNL     1     -33.657  15.968  -2.804  1.00 20.00     0.010 C 
ENDBRANCH   5   7
BRANCH   2  10
HETATM   10  C5  UNL     1     -37.618  15.691  -6.327  1.00 20.00     0.004 C 
HETATM   11  C4  UNL     1     -37.948  15.130  -7.512  1.00 20.00     0.012 C 
ENDBRANCH   2  10
TORSDOF 2
ENDMDL
MODEL 7
REMARK VINA RESULT:      -4.2     12.538     14.067
REMARK  2 active torsions:
REMARK  status: ('A' for Active; 'I' for Inactive)
REMARK    1  A    between atoms: C2_2  and  C5_5 
REMARK    2  A    between atoms: C7_7  and  C10_10 
ROOT
HETATM    1  C1  UNL     1     -41.528   5.146  -2.022  1.00 20.00    -0.006 A 
HETATM    2  C2  UNL     1     -42.246   4.073  -1.680  1.00 20.00     0.005 A 
HETATM    3  C3  UNL     1     -42.659   4.298  -0.283  1.00 20.00     0.159 A 
HETATM    4  C6  UNL     1     -42.113   5.593   0.254  1.00 20.00     0.092 A 
HETATM    5  C7  UNL     1     -41.380   6.188  -0.952  1.00 20.00     0.019 A 
HETATM    6  O11 UNL     1     -43.351   3.523   0.361  1.00 20.00    -0.292 OA
ENDROOT
BRANCH   5   7
HETATM    7  C10 UNL     1     -41.971   7.524  -1.386  1.00 20.00    -0.015 C 
HETATM    8  C8  UNL     1     -42.231   7.536  -2.892  1.00 20.00     0.010 C 
HETATM    9  C9  UNL     1     -43.259   7.819  -0.619  1.00 20.00     0.010 C 
ENDBRANCH   5   7
BRANCH   2  10
HETATM   10  C5  UNL     1     -42.566   2.927  -2.463  1.00 20.00     0.004 C 
HETATM   11  C4  UNL     1     -41.638   2.381  -3.281  1.00 20.00     0.012 C 
ENDBRANCH   2  10
TORSDOF 2
ENDMDL
MODEL 8
REMARK VINA RESULT:      -4.2      2.133      2.755
REMARK  2 active torsions:
REMARK  status: ('A' for Active; 'I' for Inactive)
REMARK    1  A    between atoms: C2_2  and  C5_5 
REMARK    2  A    between atoms: C7_7  and  C10_10 
ROOT
HETATM    1  C1  UNL     1     -34.368  14.606  -3.941  1.00 20.00    -0.006 A 
HETATM    2  C2  UNL     1     -35.146  14.723  -5.020  1.00 20.00     0.005 A 
HETATM    3  C3  UNL     1     -36.349  15.446  -4.568  1.00 20.00     0.159 A 
HETATM    4  C6  UNL     1     -36.290  15.750  -3.096  1.00 20.00     0.092 A 
HETATM    5  C7  UNL     1     -34.916  15.214  -2.684  1.00 20.00     0.019 A 
HETATM    6  O11 UNL     1     -37.282  15.750  -5.297  1.00 20.00    -0.292 OA
ENDROOT
BRANCH   5   7
HETATM    7  C10 UNL     1     -34.004  16.312  -2.150  1.00 20.00    -0.015 C 
HETATM    8  C8  UNL     1     -33.922  17.475  -3.139  1.00 20.00     0.010 C 
HETATM    9  C9  UNL     1     -34.492  16.804  -0.789  1.00 20.00     0.010 C 
ENDBRANCH   5   7
BRANCH   2  10
HETATM   10  C5  UNL     1     -34.911  14.259  -6.347  1.00 20.00     0.004 C 
HETATM   11  C4  UNL     1     -34.382  15.089  -7.274  1.00 20.00     0.012 C 
ENDBRANCH   2  10
TORSDOF 2
ENDMDL
MODEL 9
REMARK VINA RESULT:      -4.2     10.792     11.846
REMARK  2 active torsions:
REMARK  status: ('A' for Active; 'I' for Inactive)
REMARK    1  A    between atoms: C2_2  and  C5_5 
REMARK    2  A    between atoms: C7_7  and  C10_10 
ROOT
HETATM    1  C1  UNL     1     -33.446   6.031   2.817  1.00 20.00    -0.006 A 
HETATM    2  C2  UNL     1     -34.027   5.851   4.005  1.00 20.00     0.005 A 
HETATM    3  C3  UNL     1     -33.301   6.729   4.941  1.00 20.00     0.159 A 
HETATM    4  C6  UNL     1     -32.181   7.462   4.256  1.00 20.00     0.092 A 
HETATM    5  C7  UNL     1     -32.314   7.015   2.797  1.00 20.00     0.019 A 
HETATM    6  O11 UNL     1     -33.572   6.838   6.129  1.00 20.00    -0.292 OA
ENDROOT
BRANCH   5   7
HETATM    7  C10 UNL     1     -32.602   8.182   1.860  1.00 20.00    -0.015 C 
HETATM    8  C8  UNL     1     -32.654   9.498   2.637  1.00 20.00     0.010 C 
HETATM    9  C9  UNL     1     -31.552   8.257   0.753  1.00 20.00     0.010 C 
ENDBRANCH   5   7
BRANCH   2  10
HETATM   10  C5  UNL     1     -35.115   4.996   4.348  1.00 20.00     0.004 C 
HETATM   11  C4  UNL     1     -34.968   4.063   5.315  1.00 20.00     0.012 C 
ENDBRANCH   2  10
TORSDOF 2
ENDMDL
