MODEL 1
REMARK VINA RESULT:      -5.0      0.000      0.000
REMARK  1 active torsions:
REMARK  status: ('A' for Active; 'I' for Inactive)
REMARK    1  A    between atoms: C4_4  and  C9_9 
ROOT
HETATM    1  C1  UNL     1     -33.126  14.970  -3.061  1.00 20.00     0.014 A 
HETATM    2  C2  UNL     1     -33.432  13.888  -3.787  1.00 20.00     0.075 A 
HETATM    3  C3  UNL     1     -35.418  15.672  -2.982  1.00 20.00     0.101 A 
HETATM    4  C4  UNL     1     -34.143  15.903  -2.637  1.00 20.00    -0.039 A 
HETATM    5  C5  UNL     1     -34.850  13.625  -4.176  1.00 20.00     0.246 A 
HETATM    6  C8  UNL     1     -37.191  14.380  -4.073  1.00 20.00     0.159 C 
HETATM    7  N10 UNL     1     -35.786  14.567  -3.733  1.00 20.00    -0.329 N 
HETATM    8  O11 UNL     1     -35.104  12.624  -4.843  1.00 20.00    -0.268 OA
ENDROOT
BRANCH   4   9
HETATM    9  C9  UNL     1     -33.711  17.084  -1.827  1.00 20.00     0.012 C 
HETATM   10  C6  UNL     1     -33.932  18.376  -2.610  1.00 20.00     0.015 C 
HETATM   11  C7  UNL     1     -34.448  17.127  -0.490  1.00 20.00     0.015 C 
ENDBRANCH   4   9
TORSDOF 1
ENDMDL
MODEL 2
REMARK VINA RESULT:      -4.6      1.837      2.165
REMARK  1 active torsions:
REMARK  status: ('A' for Active; 'I' for Inactive)
REMARK    1  A    between atoms: C4_4  and  C9_9 
ROOT
HETATM    1  C1  UNL     1     -33.593  17.313  -4.266  1.00 20.00     0.014 A 
HETATM    2  C2  UNL     1     -33.730  16.857  -5.517  1.00 20.00     0.075 A 
HETATM    3  C3  UNL     1     -34.125  15.166  -3.336  1.00 20.00     0.101 A 
HETATM    4  C4  UNL     1     -33.795  16.449  -3.126  1.00 20.00    -0.039 A 
HETATM    5  C5  UNL     1     -34.098  15.431  -5.758  1.00 20.00     0.246 A 
HETATM    6  C8  UNL     1     -34.641  13.244  -4.765  1.00 20.00     0.159 C 
HETATM    7  N10 UNL     1     -34.279  14.648  -4.612  1.00 20.00    -0.329 N 
HETATM    8  O11 UNL     1     -34.217  15.038  -6.917  1.00 20.00    -0.268 OA
ENDROOT
BRANCH   4   9
HETATM    9  C9  UNL     1     -33.621  17.042  -1.763  1.00 20.00     0.012 C 
HETATM   10  C6  UNL     1     -33.574  18.566  -1.848  1.00 20.00     0.015 C 
HETATM   11  C7  UNL     1     -34.735  16.584  -0.824  1.00 20.00     0.015 C 
ENDBRANCH   4   9
TORSDOF 1
ENDMDL
MODEL 3
REMARK VINA RESULT:      -4.5      1.823      2.002
REMARK  1 active torsions:
REMARK  status: ('A' for Active; 'I' for Inactive)
REMARK    1  A    between atoms: C4_4  and  C9_9 
ROOT
HETATM    1  C1  UNL     1     -34.462  14.755  -3.038  1.00 20.00     0.014 A 
HETATM    2  C2  UNL     1     -34.808  14.010  -4.095  1.00 20.00     0.075 A 
HETATM    3  C3  UNL     1     -34.066  16.678  -4.416  1.00 20.00     0.101 A 
HETATM    4  C4  UNL     1     -34.075  16.138  -3.188  1.00 20.00    -0.039 A 
HETATM    5  C5  UNL     1     -34.800  14.605  -5.465  1.00 20.00     0.246 A 
HETATM    6  C8  UNL     1     -34.381  16.600  -6.844  1.00 20.00     0.159 C 
HETATM    7  N10 UNL     1     -34.415  15.949  -5.541  1.00 20.00    -0.329 N 
HETATM    8  O11 UNL     1     -35.122  13.899  -6.418  1.00 20.00    -0.268 OA
ENDROOT
BRANCH   4   9
HETATM    9  C9  UNL     1     -33.704  16.896  -1.953  1.00 20.00     0.012 C 
HETATM   10  C6  UNL     1     -33.652  18.394  -2.242  1.00 20.00     0.015 C 
HETATM   11  C7  UNL     1     -34.680  16.596  -0.817  1.00 20.00     0.015 C 
ENDBRANCH   4   9
TORSDOF 1
ENDMDL
MODEL 4
REMARK VINA RESULT:      -4.4      1.857      2.194
REMARK  1 active torsions:
REMARK  status: ('A' for Active; 'I' for Inactive)
REMARK    1  A    between atoms: C4_4  and  C9_9 
ROOT
HETATM    1  C1  UNL     1     -33.759  15.504  -3.287  1.00 20.00     0.014 A 
HETATM    2  C2  UNL     1     -34.046  14.207  -3.446  1.00 20.00     0.075 A 
HETATM    3  C3  UNL     1     -34.428  16.014  -5.534  1.00 20.00     0.101 A 
HETATM    4  C4  UNL     1     -33.951  16.453  -4.360  1.00 20.00    -0.039 A 
HETATM    5  C5  UNL     1     -34.576  13.711  -4.751  1.00 20.00     0.246 A 
HETATM    6  C8  UNL     1     -35.250  14.275  -7.051  1.00 20.00     0.159 C 
HETATM    7  N10 UNL     1     -34.738  14.681  -5.748  1.00 20.00    -0.329 N 
HETATM    8  O11 UNL     1     -34.831  12.515  -4.870  1.00 20.00    -0.268 OA
ENDROOT
BRANCH   4   9
HETATM    9  C9  UNL     1     -33.605  17.884  -4.095  1.00 20.00     0.012 C 
HETATM   10  C6  UNL     1     -33.600  18.681  -5.396  1.00 20.00     0.015 C 
HETATM   11  C7  UNL     1     -34.572  18.499  -3.085  1.00 20.00     0.015 C 
ENDBRANCH   4   9
TORSDOF 1
ENDMDL
MODEL 5
REMARK VINA RESULT:      -4.4      2.303      3.386
REMARK  1 active torsions:
REMARK  status: ('A' for Active; 'I' for Inactive)
REMARK    1  A    between atoms: C4_4  and  C9_9 
ROOT
HETATM    1  C1  UNL     1     -34.478  16.702  -0.988  1.00 20.00     0.014 A 
HETATM    2  C2  UNL     1     -34.794  15.928  -2.033  1.00 20.00     0.075 A 
HETATM    3  C3  UNL     1     -33.601  18.419  -2.416  1.00 20.00     0.101 A 
HETATM    4  C4  UNL     1     -33.858  17.995  -1.170  1.00 20.00    -0.039 A 
HETATM    5  C5  UNL     1     -34.509  16.394  -3.422  1.00 20.00     0.246 A 
HETATM    6  C8  UNL     1     -33.598  18.178  -4.854  1.00 20.00     0.159 C 
HETATM    7  N10 UNL     1     -33.909  17.654  -3.529  1.00 20.00    -0.329 N 
HETATM    8  O11 UNL     1     -34.810  15.663  -4.364  1.00 20.00    -0.268 OA
ENDROOT
BRANCH   4   9
HETATM    9  C9  UNL     1     -33.540  18.793   0.054  1.00 20.00     0.012 C 
HETATM   10  C6  UNL     1     -34.229  18.192   1.276  1.00 20.00     0.015 C 
HETATM   11  C7  UNL     1     -32.030  18.878   0.270  1.00 20.00     0.015 C 
ENDBRANCH   4   9
TORSDOF 1
ENDMDL
MODEL 6
REMARK VINA RESULT:      -4.4     11.158     13.251
REMARK  1 active torsions:
REMARK  status: ('A' for Active; 'I' for Inactive)
REMARK    1  A    between atoms: C4_4  and  C9_9 
ROOT
HETATM    1  C1  UNL     1     -41.232   4.265  -1.354  1.00 20.00     0.014 A 
HETATM    2  C2  UNL     1     -40.797   5.394  -0.781  1.00 20.00     0.075 A 
HETATM    3  C3  UNL     1     -42.645   5.477  -2.867  1.00 20.00     0.101 A 
HETATM    4  C4  UNL     1     -42.190   4.292  -2.435  1.00 20.00    -0.039 A 
HETATM    5  C5  UNL     1     -41.300   6.717  -1.257  1.00 20.00     0.246 A 
HETATM    6  C8  UNL     1     -42.764   7.924  -2.826  1.00 20.00     0.159 C 
HETATM    7  N10 UNL     1     -42.225   6.673  -2.307  1.00 20.00    -0.329 N 
HETATM    8  O11 UNL     1     -40.884   7.738  -0.714  1.00 20.00    -0.268 OA
ENDROOT
BRANCH   4   9
HETATM    9  C9  UNL     1     -42.621   2.983  -3.016  1.00 20.00     0.012 C 
HETATM   10  C6  UNL     1     -41.410   2.195  -3.511  1.00 20.00     0.015 C 
HETATM   11  C7  UNL     1     -43.417   2.170  -1.997  1.00 20.00     0.015 C 
ENDBRANCH   4   9
TORSDOF 1
ENDMDL
MODEL 7
REMARK VINA RESULT:      -4.2      5.011      6.818
REMARK  1 active torsions:
REMARK  status: ('A' for Active; 'I' for Inactive)
REMARK    1  A    between atoms: C4_4  and  C9_9 
ROOT
HETATM    1  C1  UNL     1     -32.257  18.818   0.481  1.00 20.00     0.014 A 
HETATM    2  C2  UNL     1     -31.570  19.074   1.600  1.00 20.00     0.075 A 
HETATM    3  C3  UNL     1     -34.219  18.214   1.722  1.00 20.00     0.101 A 
HETATM    4  C4  UNL     1     -33.630  18.371   0.528  1.00 20.00    -0.039 A 
HETATM    5  C5  UNL     1     -32.219  18.900   2.933  1.00 20.00     0.246 A 
HETATM    6  C8  UNL     1     -34.251  18.270   4.171  1.00 20.00     0.159 C 
HETATM    7  N10 UNL     1     -33.549  18.465   2.909  1.00 20.00    -0.329 N 
HETATM    8  O11 UNL     1     -31.564  19.142   3.946  1.00 20.00    -0.268 OA
ENDROOT
BRANCH   4   9
HETATM    9  C9  UNL     1     -34.323  18.110  -0.772  1.00 20.00     0.012 C 
HETATM   10  C6  UNL     1     -33.515  18.688  -1.932  1.00 20.00     0.015 C 
HETATM   11  C7  UNL     1     -34.563  16.615  -0.970  1.00 20.00     0.015 C 
ENDBRANCH   4   9
TORSDOF 1
ENDMDL
MODEL 8
REMARK VINA RESULT:      -4.2      2.722      4.519
REMARK  1 active torsions:
REMARK  status: ('A' for Active; 'I' for Inactive)
REMARK    1  A    between atoms: C4_4  and  C9_9 
ROOT
HETATM    1  C1  UNL     1     -33.680  16.656  -5.127  1.00 20.00     0.014 A 
HETATM    2  C2  UNL     1     -33.496  17.824  -4.500  1.00 20.00     0.075 A 
HETATM    3  C3  UNL     1     -34.364  15.577  -3.097  1.00 20.00     0.101 A 
HETATM    4  C4  UNL     1     -34.129  15.483  -4.414  1.00 20.00    -0.039 A 
HETATM    5  C5  UNL     1     -33.755  17.936  -3.034  1.00 20.00     0.246 A 
HETATM    6  C8  UNL     1     -34.461  16.791  -0.971  1.00 20.00     0.159 C 
HETATM    7  N10 UNL     1     -34.188  16.763  -2.403  1.00 20.00    -0.329 N 
HETATM    8  O11 UNL     1     -33.578  19.020  -2.483  1.00 20.00    -0.268 OA
ENDROOT
BRANCH   4   9
HETATM    9  C9  UNL     1     -34.308  14.220  -5.194  1.00 20.00     0.012 C 
HETATM   10  C6  UNL     1     -35.089  13.194  -4.376  1.00 20.00     0.015 C 
HETATM   11  C7  UNL     1     -35.005  14.497  -6.525  1.00 20.00     0.015 C 
ENDBRANCH   4   9
TORSDOF 1
ENDMDL
MODEL 9
REMARK VINA RESULT:      -4.2      1.284      2.367
REMARK  1 active torsions:
REMARK  status: ('A' for Active; 'I' for Inactive)
REMARK    1  A    between atoms: C4_4  and  C9_9 
ROOT
HETATM    1  C1  UNL     1     -36.489  15.545  -3.386  1.00 20.00     0.014 A 
HETATM    2  C2  UNL     1     -36.416  14.383  -4.045  1.00 20.00     0.075 A 
HETATM    3  C3  UNL     1     -34.166  15.452  -2.793  1.00 20.00     0.101 A 
HETATM    4  C4  UNL     1     -35.332  16.112  -2.732  1.00 20.00    -0.039 A 
HETATM    5  C5  UNL     1     -35.122  13.642  -4.116  1.00 20.00     0.246 A 
HETATM    6  C8  UNL     1     -32.743  13.582  -3.485  1.00 20.00     0.159 C 
HETATM    7  N10 UNL     1     -34.041  14.245  -3.462  1.00 20.00    -0.329 N 
HETATM    8  O11 UNL     1     -35.083  12.577  -4.728  1.00 20.00    -0.268 OA
ENDROOT
BRANCH   4   9
HETATM    9  C9  UNL     1     -35.504  17.415  -2.019  1.00 20.00     0.012 C 
HETATM   10  C6  UNL     1     -36.964  17.858  -2.063  1.00 20.00     0.015 C 
HETATM   11  C7  UNL     1     -35.010  17.317  -0.577  1.00 20.00     0.015 C 
ENDBRANCH   4   9
TORSDOF 1
ENDMDL
