MODEL 1
REMARK VINA RESULT:      -5.3      0.000      0.000
REMARK  1 active torsions:
REMARK  status: ('A' for Active; 'I' for Inactive)
REMARK    1  A    between atoms: C2_2  and  C6_6 
ROOT
HETATM    1  C3  UNL     1     -35.541   5.050   4.168  1.00 20.00     0.003 C 
HETATM    2  C4  UNL     1     -34.289   5.444   3.385  1.00 20.00     0.011 C 
HETATM    3  C5  UNL     1     -35.173   4.456   5.526  1.00 20.00     0.034 C 
HETATM    4  C6  UNL     1     -33.519   6.582   4.081  1.00 20.00     0.039 C 
HETATM    5  C7  UNL     1     -34.162   5.266   6.268  1.00 20.00     0.151 A 
HETATM    6  C8  UNL     1     -33.314   6.283   5.548  1.00 20.00     0.158 A 
HETATM    7  O9  UNL     1     -34.442   6.663   6.365  1.00 20.00    -0.375 OA
ENDROOT
BRANCH   4   8
HETATM    8  C2  UNL     1     -32.243   6.858   3.339  1.00 20.00    -0.030 C 
HETATM    9  C1  UNL     1     -32.115   7.793   2.391  1.00 20.00     0.007 C 
ENDBRANCH   4   8
TORSDOF 1
ENDMDL
MODEL 2
REMARK VINA RESULT:      -4.5     12.071     13.141
REMARK  1 active torsions:
REMARK  status: ('A' for Active; 'I' for Inactive)
REMARK    1  A    between atoms: C2_2  and  C6_6 
ROOT
HETATM    1  C3  UNL     1     -34.232  13.789  -4.757  1.00 20.00     0.003 C 
HETATM    2  C4  UNL     1     -34.836  14.335  -3.464  1.00 20.00     0.011 C 
HETATM    3  C5  UNL     1     -34.417  14.777  -5.908  1.00 20.00     0.034 C 
HETATM    4  C6  UNL     1     -34.095  15.597  -2.981  1.00 20.00     0.039 C 
HETATM    5  C7  UNL     1     -34.041  16.176  -5.548  1.00 20.00     0.151 A 
HETATM    6  C8  UNL     1     -33.926  16.593  -4.104  1.00 20.00     0.158 A 
HETATM    7  O9  UNL     1     -32.767  16.331  -4.923  1.00 20.00    -0.375 OA
ENDROOT
BRANCH   4   8
HETATM    8  C2  UNL     1     -34.789  16.161  -1.775  1.00 20.00    -0.030 C 
HETATM    9  C1  UNL     1     -34.207  16.978  -0.890  1.00 20.00     0.007 C 
ENDBRANCH   4   8
TORSDOF 1
ENDMDL
MODEL 3
REMARK VINA RESULT:      -4.4     11.518     12.563
REMARK  1 active torsions:
REMARK  status: ('A' for Active; 'I' for Inactive)
REMARK    1  A    between atoms: C2_2  and  C6_6 
ROOT
HETATM    1  C3  UNL     1     -36.122  15.158  -5.435  1.00 20.00     0.003 C 
HETATM    2  C4  UNL     1     -35.419  15.983  -4.357  1.00 20.00     0.011 C 
HETATM    3  C5  UNL     1     -35.157  14.169  -6.085  1.00 20.00     0.034 C 
HETATM    4  C6  UNL     1     -34.957  15.103  -3.181  1.00 20.00     0.039 C 
HETATM    5  C7  UNL     1     -34.348  13.400  -5.093  1.00 20.00     0.151 A 
HETATM    6  C8  UNL     1     -34.211  13.884  -3.672  1.00 20.00     0.158 A 
HETATM    7  O9  UNL     1     -35.086  12.793  -4.032  1.00 20.00    -0.375 OA
ENDROOT
BRANCH   4   8
HETATM    8  C2  UNL     1     -34.176  15.933  -2.203  1.00 20.00    -0.030 C 
HETATM    9  C1  UNL     1     -34.706  16.509  -1.119  1.00 20.00     0.007 C 
ENDBRANCH   4   8
TORSDOF 1
ENDMDL
MODEL 4
REMARK VINA RESULT:      -4.2     11.530     13.291
REMARK  1 active torsions:
REMARK  status: ('A' for Active; 'I' for Inactive)
REMARK    1  A    between atoms: C2_2  and  C6_6 
ROOT
HETATM    1  C3  UNL     1     -33.312  15.973  -4.464  1.00 20.00     0.003 C 
HETATM    2  C4  UNL     1     -34.259  15.898  -5.662  1.00 20.00     0.011 C 
HETATM    3  C5  UNL     1     -33.924  15.296  -3.239  1.00 20.00     0.034 C 
HETATM    4  C6  UNL     1     -34.476  14.444  -6.122  1.00 20.00     0.039 C 
HETATM    5  C7  UNL     1     -34.500  13.952  -3.537  1.00 20.00     0.151 A 
HETATM    6  C8  UNL     1     -34.815  13.547  -4.954  1.00 20.00     0.158 A 
HETATM    7  O9  UNL     1     -33.648  13.061  -4.257  1.00 20.00    -0.375 OA
ENDROOT
BRANCH   4   8
HETATM    8  C2  UNL     1     -35.496  14.408  -7.224  1.00 20.00    -0.030 C 
HETATM    9  C1  UNL     1     -36.625  15.126  -7.223  1.00 20.00     0.007 C 
ENDBRANCH   4   8
TORSDOF 1
ENDMDL
MODEL 5
REMARK VINA RESULT:      -4.1      9.193     10.754
REMARK  1 active torsions:
REMARK  status: ('A' for Active; 'I' for Inactive)
REMARK    1  A    between atoms: C2_2  and  C6_6 
ROOT
HETATM    1  C3  UNL     1     -40.918   5.883  -0.150  1.00 20.00     0.003 C 
HETATM    2  C4  UNL     1     -40.665   4.635  -0.994  1.00 20.00     0.011 C 
HETATM    3  C5  UNL     1     -41.094   7.116  -1.033  1.00 20.00     0.034 C 
HETATM    4  C6  UNL     1     -41.885   4.284  -1.868  1.00 20.00     0.039 C 
HETATM    5  C7  UNL     1     -42.031   6.894  -2.173  1.00 20.00     0.151 A 
HETATM    6  C8  UNL     1     -42.387   5.497  -2.615  1.00 20.00     0.158 A 
HETATM    7  O9  UNL     1     -43.289   6.310  -1.833  1.00 20.00    -0.375 OA
ENDROOT
BRANCH   4   8
HETATM    8  C2  UNL     1     -41.552   3.123  -2.760  1.00 20.00    -0.030 C 
HETATM    9  C1  UNL     1     -42.402   2.130  -3.045  1.00 20.00     0.007 C 
ENDBRANCH   4   8
TORSDOF 1
ENDMDL
MODEL 6
REMARK VINA RESULT:      -4.1      1.337      2.120
REMARK  1 active torsions:
REMARK  status: ('A' for Active; 'I' for Inactive)
REMARK    1  A    between atoms: C2_2  and  C6_6 
ROOT
HETATM    1  C3  UNL     1     -33.815   5.526   6.361  1.00 20.00     0.003 C 
HETATM    2  C4  UNL     1     -33.404   6.600   5.355  1.00 20.00     0.011 C 
HETATM    3  C5  UNL     1     -35.255   5.074   6.122  1.00 20.00     0.034 C 
HETATM    4  C6  UNL     1     -33.377   6.049   3.916  1.00 20.00     0.039 C 
HETATM    5  C7  UNL     1     -35.548   4.778   4.689  1.00 20.00     0.151 A 
HETATM    6  C8  UNL     1     -34.647   5.296   3.597  1.00 20.00     0.158 A 
HETATM    7  O9  UNL     1     -34.614   3.920   4.032  1.00 20.00    -0.375 OA
ENDROOT
BRANCH   4   8
HETATM    8  C2  UNL     1     -33.079   7.162   2.953  1.00 20.00    -0.030 C 
HETATM    9  C1  UNL     1     -31.851   7.637   2.715  1.00 20.00     0.007 C 
ENDBRANCH   4   8
TORSDOF 1
ENDMDL
MODEL 7
REMARK VINA RESULT:      -4.0     12.037     12.487
REMARK  1 active torsions:
REMARK  status: ('A' for Active; 'I' for Inactive)
REMARK    1  A    between atoms: C2_2  and  C6_6 
ROOT
HETATM    1  C3  UNL     1     -33.878  14.242  -4.501  1.00 20.00     0.003 C 
HETATM    2  C4  UNL     1     -33.726  14.851  -3.108  1.00 20.00     0.011 C 
HETATM    3  C5  UNL     1     -35.189  13.468  -4.621  1.00 20.00     0.034 C 
HETATM    4  C6  UNL     1     -34.802  15.920  -2.837  1.00 20.00     0.039 C 
HETATM    5  C7  UNL     1     -36.367  14.226  -4.104  1.00 20.00     0.151 A 
HETATM    6  C8  UNL     1     -36.179  15.408  -3.188  1.00 20.00     0.158 A 
HETATM    7  O9  UNL     1     -36.501  15.563  -4.586  1.00 20.00    -0.375 OA
ENDROOT
BRANCH   4   8
HETATM    8  C2  UNL     1     -34.685  16.409  -1.422  1.00 20.00    -0.030 C 
HETATM    9  C1  UNL     1     -33.795  17.323  -1.017  1.00 20.00     0.007 C 
ENDBRANCH   4   8
TORSDOF 1
ENDMDL
MODEL 8
REMARK VINA RESULT:      -3.9     11.537     13.389
REMARK  1 active torsions:
REMARK  status: ('A' for Active; 'I' for Inactive)
REMARK    1  A    between atoms: C2_2  and  C6_6 
ROOT
HETATM    1  C3  UNL     1     -34.665  13.533  -4.336  1.00 20.00     0.003 C 
HETATM    2  C4  UNL     1     -34.685  14.263  -5.678  1.00 20.00     0.011 C 
HETATM    3  C5  UNL     1     -33.288  13.628  -3.681  1.00 20.00     0.034 C 
HETATM    4  C6  UNL     1     -34.472  15.778  -5.502  1.00 20.00     0.039 C 
HETATM    5  C7  UNL     1     -32.730  15.012  -3.684  1.00 20.00     0.151 A 
HETATM    6  C8  UNL     1     -33.283  16.062  -4.614  1.00 20.00     0.158 A 
HETATM    7  O9  UNL     1     -33.609  16.033  -3.208  1.00 20.00    -0.375 OA
ENDROOT
BRANCH   4   8
HETATM    8  C2  UNL     1     -34.387  16.437  -6.849  1.00 20.00    -0.030 C 
HETATM    9  C1  UNL     1     -35.093  16.051  -7.917  1.00 20.00     0.007 C 
ENDBRANCH   4   8
TORSDOF 1
ENDMDL
MODEL 9
REMARK VINA RESULT:      -3.9     11.905     13.553
REMARK  1 active torsions:
REMARK  status: ('A' for Active; 'I' for Inactive)
REMARK    1  A    between atoms: C2_2  and  C6_6 
ROOT
HETATM    1  C3  UNL     1     -33.445  13.771  -3.824  1.00 20.00     0.003 C 
HETATM    2  C4  UNL     1     -33.358  15.275  -3.571  1.00 20.00     0.011 C 
HETATM    3  C5  UNL     1     -34.841  13.376  -4.304  1.00 20.00     0.034 C 
HETATM    4  C6  UNL     1     -33.535  16.080  -4.873  1.00 20.00     0.039 C 
HETATM    5  C7  UNL     1     -35.358  14.255  -5.393  1.00 20.00     0.151 A 
HETATM    6  C8  UNL     1     -34.744  15.609  -5.646  1.00 20.00     0.158 A 
HETATM    7  O9  UNL     1     -34.469  14.470  -6.489  1.00 20.00    -0.375 OA
ENDROOT
BRANCH   4   8
HETATM    8  C2  UNL     1     -33.554  17.549  -4.561  1.00 20.00    -0.030 C 
HETATM    9  C1  UNL     1     -33.584  18.511  -5.491  1.00 20.00     0.007 C 
ENDBRANCH   4   8
TORSDOF 1
ENDMDL
