MODEL 1
REMARK VINA RESULT:      -4.6      0.000      0.000
REMARK  1 active torsions:
REMARK  status: ('A' for Active; 'I' for Inactive)
REMARK    1  A    between atoms: C6_6  and  C8_8 
ROOT
HETATM    1  C1  UNL     1     -35.944  14.804  -5.652  1.00 20.00     0.061 C 
HETATM    2  C2  UNL     1     -33.525  14.212  -3.399  1.00 20.00     0.066 C 
HETATM    3  C3  UNL     1     -35.806  16.024  -4.708  1.00 20.00     0.170 C 
HETATM    4  C4  UNL     1     -34.803  13.897  -5.428  1.00 20.00     0.153 A 
HETATM    5  C5  UNL     1     -34.724  13.552  -3.955  1.00 20.00     0.153 A 
HETATM    6  C6  UNL     1     -33.812  15.739  -3.254  1.00 20.00     0.123 C 
HETATM    7  O9  UNL     1     -34.438  16.360  -4.403  1.00 20.00    -0.386 OA
HETATM    8  O10 UNL     1     -34.799  12.560  -4.965  1.00 20.00    -0.375 OA
ENDROOT
BRANCH   6   9
HETATM    9  C8  UNL     1     -34.539  16.082  -1.952  1.00 20.00     0.027 C 
HETATM   10  C7  UNL     1     -33.870  17.200  -1.221  1.00 20.00     0.007 C 
ENDBRANCH   6   9
TORSDOF 1
ENDMDL
MODEL 2
REMARK VINA RESULT:      -4.3     11.633     12.781
REMARK  1 active torsions:
REMARK  status: ('A' for Active; 'I' for Inactive)
REMARK    1  A    between atoms: C6_6  and  C8_8 
ROOT
HETATM    1  C1  UNL     1     -34.463   5.463   6.572  1.00 20.00     0.061 C 
HETATM    2  C2  UNL     1     -34.527   5.239   3.222  1.00 20.00     0.066 C 
HETATM    3  C3  UNL     1     -33.553   6.558   5.962  1.00 20.00     0.170 C 
HETATM    4  C4  UNL     1     -35.263   4.854   5.494  1.00 20.00     0.153 A 
HETATM    5  C5  UNL     1     -34.334   4.369   4.400  1.00 20.00     0.153 A 
HETATM    6  C6  UNL     1     -33.847   6.616   3.496  1.00 20.00     0.123 C 
HETATM    7  O9  UNL     1     -34.121   7.191   4.797  1.00 20.00    -0.386 OA
HETATM    8  O10 UNL     1     -35.272   3.515   5.033  1.00 20.00    -0.375 OA
ENDROOT
BRANCH   6   9
HETATM    9  C8  UNL     1     -32.350   6.609   3.178  1.00 20.00     0.027 C 
HETATM   10  C7  UNL     1     -31.939   7.830   2.422  1.00 20.00     0.007 C 
ENDBRANCH   6   9
TORSDOF 1
ENDMDL
MODEL 3
REMARK VINA RESULT:      -4.2      1.507      3.061
REMARK  1 active torsions:
REMARK  status: ('A' for Active; 'I' for Inactive)
REMARK    1  A    between atoms: C6_6  and  C8_8 
ROOT
HETATM    1  C1  UNL     1     -33.151  14.145  -3.574  1.00 20.00     0.061 C 
HETATM    2  C2  UNL     1     -35.797  14.856  -5.514  1.00 20.00     0.066 C 
HETATM    3  C3  UNL     1     -32.992  15.568  -4.165  1.00 20.00     0.170 C 
HETATM    4  C4  UNL     1     -34.521  13.671  -3.835  1.00 20.00     0.153 A 
HETATM    5  C5  UNL     1     -34.809  13.776  -5.319  1.00 20.00     0.153 A 
HETATM    6  C6  UNL     1     -35.084  16.231  -5.328  1.00 20.00     0.123 C 
HETATM    7  O9  UNL     1     -34.219  16.325  -4.170  1.00 20.00    -0.386 OA
HETATM    8  O10 UNL     1     -34.954  12.562  -4.602  1.00 20.00    -0.375 OA
ENDROOT
BRANCH   6   9
HETATM    9  C8  UNL     1     -34.388  16.712  -6.603  1.00 20.00     0.027 C 
HETATM   10  C7  UNL     1     -34.116  18.180  -6.566  1.00 20.00     0.007 C 
ENDBRANCH   6   9
TORSDOF 1
ENDMDL
MODEL 4
REMARK VINA RESULT:      -4.2      1.429      1.630
REMARK  1 active torsions:
REMARK  status: ('A' for Active; 'I' for Inactive)
REMARK    1  A    between atoms: C6_6  and  C8_8 
ROOT
HETATM    1  C1  UNL     1     -34.023  16.231  -6.291  1.00 20.00     0.061 C 
HETATM    2  C2  UNL     1     -34.971  14.026  -3.943  1.00 20.00     0.066 C 
HETATM    3  C3  UNL     1     -33.813  16.848  -4.886  1.00 20.00     0.170 C 
HETATM    4  C4  UNL     1     -34.316  14.794  -6.141  1.00 20.00     0.153 A 
HETATM    5  C5  UNL     1     -35.485  14.622  -5.193  1.00 20.00     0.153 A 
HETATM    6  C6  UNL     1     -34.196  15.119  -3.144  1.00 20.00     0.123 C 
HETATM    7  O9  UNL     1     -33.274  15.917  -3.926  1.00 20.00    -0.386 OA
HETATM    8  O10 UNL     1     -35.482  14.076  -6.501  1.00 20.00    -0.375 OA
ENDROOT
BRANCH   6   9
HETATM    9  C8  UNL     1     -35.118  15.988  -2.286  1.00 20.00     0.027 C 
HETATM   10  C7  UNL     1     -34.386  16.617  -1.147  1.00 20.00     0.007 C 
ENDBRANCH   6   9
TORSDOF 1
ENDMDL
MODEL 5
REMARK VINA RESULT:      -4.1      1.488      2.236
REMARK  1 active torsions:
REMARK  status: ('A' for Active; 'I' for Inactive)
REMARK    1  A    between atoms: C6_6  and  C8_8 
ROOT
HETATM    1  C1  UNL     1     -34.740  13.486  -5.330  1.00 20.00     0.061 C 
HETATM    2  C2  UNL     1     -34.726  16.771  -4.634  1.00 20.00     0.066 C 
HETATM    3  C3  UNL     1     -34.840  13.691  -3.798  1.00 20.00     0.170 C 
HETATM    4  C4  UNL     1     -34.937  14.785  -5.999  1.00 20.00     0.153 A 
HETATM    5  C5  UNL     1     -33.958  15.791  -5.429  1.00 20.00     0.153 A 
HETATM    6  C6  UNL     1     -35.161  16.102  -3.294  1.00 20.00     0.123 C 
HETATM    7  O9  UNL     1     -35.718  14.771  -3.422  1.00 20.00    -0.386 OA
HETATM    8  O10 UNL     1     -34.043  15.516  -6.817  1.00 20.00    -0.375 OA
ENDROOT
BRANCH   6   9
HETATM    9  C8  UNL     1     -34.073  16.166  -2.221  1.00 20.00     0.027 C 
HETATM   10  C7  UNL     1     -34.612  16.638  -0.911  1.00 20.00     0.007 C 
ENDBRANCH   6   9
TORSDOF 1
ENDMDL
MODEL 6
REMARK VINA RESULT:      -4.1      1.462      1.656
REMARK  1 active torsions:
REMARK  status: ('A' for Active; 'I' for Inactive)
REMARK    1  A    between atoms: C6_6  and  C8_8 
ROOT
HETATM    1  C1  UNL     1     -35.430  14.278  -6.296  1.00 20.00     0.061 C 
HETATM    2  C2  UNL     1     -33.401  14.744  -3.662  1.00 20.00     0.066 C 
HETATM    3  C3  UNL     1     -35.025  15.771  -6.212  1.00 20.00     0.170 C 
HETATM    4  C4  UNL     1     -34.592  13.504  -5.363  1.00 20.00     0.153 A 
HETATM    5  C5  UNL     1     -34.698  14.112  -3.979  1.00 20.00     0.153 A 
HETATM    6  C6  UNL     1     -33.273  16.069  -4.477  1.00 20.00     0.123 C 
HETATM    7  O9  UNL     1     -33.638  15.969  -5.875  1.00 20.00    -0.386 OA
HETATM    8  O10 UNL     1     -34.978  12.745  -4.232  1.00 20.00    -0.375 OA
ENDROOT
BRANCH   6   9
HETATM    9  C8  UNL     1     -33.958  17.252  -3.790  1.00 20.00     0.027 C 
HETATM   10  C7  UNL     1     -33.567  18.554  -4.410  1.00 20.00     0.007 C 
ENDBRANCH   6   9
TORSDOF 1
ENDMDL
MODEL 7
REMARK VINA RESULT:      -3.7      1.429      2.632
REMARK  1 active torsions:
REMARK  status: ('A' for Active; 'I' for Inactive)
REMARK    1  A    between atoms: C6_6  and  C8_8 
ROOT
HETATM    1  C1  UNL     1     -35.036  14.414  -6.295  1.00 20.00     0.061 C 
HETATM    2  C2  UNL     1     -36.332  16.477  -3.983  1.00 20.00     0.066 C 
HETATM    3  C3  UNL     1     -34.415  14.098  -4.912  1.00 20.00     0.170 C 
HETATM    4  C4  UNL     1     -36.178  15.328  -6.107  1.00 20.00     0.153 A 
HETATM    5  C5  UNL     1     -35.718  16.542  -5.325  1.00 20.00     0.153 A 
HETATM    6  C6  UNL     1     -35.597  15.384  -3.146  1.00 20.00     0.123 C 
HETATM    7  O9  UNL     1     -35.371  14.129  -3.834  1.00 20.00    -0.386 OA
HETATM    8  O10 UNL     1     -36.357  16.648  -6.587  1.00 20.00    -0.375 OA
ENDROOT
BRANCH   6   9
HETATM    9  C8  UNL     1     -34.324  15.908  -2.480  1.00 20.00     0.027 C 
HETATM   10  C7  UNL     1     -34.606  16.515  -1.145  1.00 20.00     0.007 C 
ENDBRANCH   6   9
TORSDOF 1
ENDMDL
MODEL 8
REMARK VINA RESULT:      -3.7      1.549      3.795
REMARK  1 active torsions:
REMARK  status: ('A' for Active; 'I' for Inactive)
REMARK    1  A    between atoms: C6_6  and  C8_8 
ROOT
HETATM    1  C1  UNL     1     -34.146  15.931  -2.722  1.00 20.00     0.061 C 
HETATM    2  C2  UNL     1     -34.534  14.893  -5.892  1.00 20.00     0.066 C 
HETATM    3  C3  UNL     1     -35.620  15.517  -2.954  1.00 20.00     0.170 C 
HETATM    4  C4  UNL     1     -33.340  15.490  -3.874  1.00 20.00     0.153 A 
HETATM    5  C5  UNL     1     -33.957  16.032  -5.148  1.00 20.00     0.153 A 
HETATM    6  C6  UNL     1     -35.849  14.443  -5.183  1.00 20.00     0.123 C 
HETATM    7  O9  UNL     1     -35.761  14.318  -3.742  1.00 20.00    -0.386 OA
HETATM    8  O10 UNL     1     -32.603  16.267  -4.800  1.00 20.00    -0.375 OA
ENDROOT
BRANCH   6   9
HETATM    9  C8  UNL     1     -37.063  15.269  -5.611  1.00 20.00     0.027 C 
HETATM   10  C7  UNL     1     -37.248  15.257  -7.093  1.00 20.00     0.007 C 
ENDBRANCH   6   9
TORSDOF 1
ENDMDL
MODEL 9
REMARK VINA RESULT:      -3.7      1.513      3.119
REMARK  1 active torsions:
REMARK  status: ('A' for Active; 'I' for Inactive)
REMARK    1  A    between atoms: C6_6  and  C8_8 
ROOT
HETATM    1  C1  UNL     1     -33.000  15.329  -3.845  1.00 20.00     0.061 C 
HETATM    2  C2  UNL     1     -36.105  14.117  -4.253  1.00 20.00     0.066 C 
HETATM    3  C3  UNL     1     -33.980  16.497  -4.118  1.00 20.00     0.170 C 
HETATM    4  C4  UNL     1     -33.778  14.103  -3.591  1.00 20.00     0.153 A 
HETATM    5  C5  UNL     1     -34.733  13.873  -4.744  1.00 20.00     0.153 A 
HETATM    6  C6  UNL     1     -36.317  15.654  -4.093  1.00 20.00     0.123 C 
HETATM    7  O9  UNL     1     -35.239  16.360  -3.429  1.00 20.00    -0.386 OA
HETATM    8  O10 UNL     1     -33.803  12.891  -4.321  1.00 20.00    -0.375 OA
ENDROOT
BRANCH   6   9
HETATM    9  C8  UNL     1     -36.723  16.334  -5.403  1.00 20.00     0.027 C 
HETATM   10  C7  UNL     1     -37.894  15.658  -6.038  1.00 20.00     0.007 C 
ENDBRANCH   6   9
TORSDOF 1
ENDMDL
