MODEL 1
REMARK VINA RESULT:      -5.2      0.000      0.000
REMARK  1 active torsions:
REMARK  status: ('A' for Active; 'I' for Inactive)
REMARK    1  A    between atoms: C7_7  and  C11_11 
ROOT
HETATM    1  C1  UNL     1     -33.936  15.555  -5.482  1.00 20.00     0.131 C 
HETATM    2  C2  UNL     1     -33.429  16.930  -5.111  1.00 20.00     0.079 C 
HETATM    3  C3  UNL     1     -34.271  17.487  -3.974  1.00 20.00     0.017 C 
HETATM    4  C4  UNL     1     -35.521  15.634  -2.690  1.00 20.00     0.016 A 
HETATM    5  C5  UNL     1     -33.858  14.500  -4.386  1.00 20.00     0.056 C 
HETATM    6  C6  UNL     1     -34.175  15.050  -3.020  1.00 20.00     0.006 A 
HETATM    7  C7  UNL     1     -34.316  16.547  -2.786  1.00 20.00    -0.032 A 
HETATM    8  C8  UNL     1     -34.727  13.287  -4.704  1.00 20.00     0.018 C 
HETATM    9  O12 UNL     1     -34.306  15.301  -6.627  1.00 20.00    -0.298 OA
ENDROOT
BRANCH   7  10
HETATM   10  C11 UNL     1     -33.752  17.108  -1.510  1.00 20.00    -0.014 C 
HETATM   11  C9  UNL     1     -33.365  18.585  -1.672  1.00 20.00     0.010 C 
HETATM   12  C10 UNL     1     -34.742  16.957  -0.346  1.00 20.00     0.010 C 
ENDBRANCH   7  10
TORSDOF 1
ENDMDL
MODEL 2
REMARK VINA RESULT:      -4.9      1.525      2.771
REMARK  1 active torsions:
REMARK  status: ('A' for Active; 'I' for Inactive)
REMARK    1  A    between atoms: C7_7  and  C11_11 
ROOT
HETATM    1  C1  UNL     1     -34.782  13.697  -4.706  1.00 20.00     0.131 C 
HETATM    2  C2  UNL     1     -34.426  14.138  -3.305  1.00 20.00     0.079 C 
HETATM    3  C3  UNL     1     -33.473  15.320  -3.376  1.00 20.00     0.017 C 
HETATM    4  C4  UNL     1     -33.573  16.516  -5.657  1.00 20.00     0.016 A 
HETATM    5  C5  UNL     1     -35.503  14.728  -5.564  1.00 20.00     0.056 C 
HETATM    6  C6  UNL     1     -34.994  16.129  -5.348  1.00 20.00     0.006 A 
HETATM    7  C7  UNL     1     -34.031  16.452  -4.215  1.00 20.00    -0.032 A 
HETATM    8  C8  UNL     1     -35.472  14.355  -7.043  1.00 20.00     0.018 C 
HETATM    9  O12 UNL     1     -34.570  12.546  -5.083  1.00 20.00    -0.298 OA
ENDROOT
BRANCH   7  10
HETATM   10  C11 UNL     1     -34.232  17.748  -3.479  1.00 20.00    -0.014 C 
HETATM   11  C9  UNL     1     -33.835  17.620  -2.002  1.00 20.00     0.010 C 
HETATM   12  C10 UNL     1     -33.438  18.890  -4.131  1.00 20.00     0.010 C 
ENDBRANCH   7  10
TORSDOF 1
ENDMDL
MODEL 3
REMARK VINA RESULT:      -4.9      1.884      4.057
REMARK  1 active torsions:
REMARK  status: ('A' for Active; 'I' for Inactive)
REMARK    1  A    between atoms: C7_7  and  C11_11 
ROOT
HETATM    1  C1  UNL     1     -33.884  17.956  -2.836  1.00 20.00     0.131 C 
HETATM    2  C2  UNL     1     -33.809  17.989  -4.345  1.00 20.00     0.079 C 
HETATM    3  C3  UNL     1     -33.328  16.641  -4.855  1.00 20.00     0.017 C 
HETATM    4  C4  UNL     1     -33.674  14.764  -3.122  1.00 20.00     0.016 A 
HETATM    5  C5  UNL     1     -34.856  16.945  -2.242  1.00 20.00     0.056 C 
HETATM    6  C6  UNL     1     -34.887  15.646  -3.001  1.00 20.00     0.006 A 
HETATM    7  C7  UNL     1     -34.185  15.500  -4.344  1.00 20.00    -0.032 A 
HETATM    8  C8  UNL     1     -34.588  16.707  -0.759  1.00 20.00     0.018 C 
HETATM    9  O12 UNL     1     -33.255  18.760  -2.151  1.00 20.00    -0.298 OA
ENDROOT
BRANCH   7  10
HETATM   10  C11 UNL     1     -34.880  14.700  -5.410  1.00 20.00    -0.014 C 
HETATM   11  C9  UNL     1     -34.414  15.114  -6.813  1.00 20.00     0.010 C 
HETATM   12  C10 UNL     1     -34.656  13.193  -5.215  1.00 20.00     0.010 C 
ENDBRANCH   7  10
TORSDOF 1
ENDMDL
MODEL 4
REMARK VINA RESULT:      -4.7      2.154      4.391
REMARK  1 active torsions:
REMARK  status: ('A' for Active; 'I' for Inactive)
REMARK    1  A    between atoms: C7_7  and  C11_11 
ROOT
HETATM    1  C1  UNL     1     -35.940  17.166  -2.140  1.00 20.00     0.131 C 
HETATM    2  C2  UNL     1     -36.739  16.445  -3.202  1.00 20.00     0.079 C 
HETATM    3  C3  UNL     1     -35.913  16.349  -4.475  1.00 20.00     0.017 C 
HETATM    4  C4  UNL     1     -33.392  16.646  -4.025  1.00 20.00     0.016 A 
HETATM    5  C5  UNL     1     -34.643  16.493  -1.714  1.00 20.00     0.056 C 
HETATM    6  C6  UNL     1     -33.913  15.847  -2.861  1.00 20.00     0.006 A 
HETATM    7  C7  UNL     1     -34.563  15.706  -4.230  1.00 20.00    -0.032 A 
HETATM    8  C8  UNL     1     -33.731  17.452  -0.954  1.00 20.00     0.018 C 
HETATM    9  O12 UNL     1     -36.369  18.187  -1.607  1.00 20.00    -0.298 OA
ENDROOT
BRANCH   7  10
HETATM   10  C11 UNL     1     -34.320  14.431  -4.989  1.00 20.00    -0.014 C 
HETATM   11  C9  UNL     1     -35.139  13.269  -4.408  1.00 20.00     0.010 C 
HETATM   12  C10 UNL     1     -34.644  14.597  -6.481  1.00 20.00     0.010 C 
ENDBRANCH   7  10
TORSDOF 1
ENDMDL
MODEL 5
REMARK VINA RESULT:      -4.7      1.946      2.778
REMARK  1 active torsions:
REMARK  status: ('A' for Active; 'I' for Inactive)
REMARK    1  A    between atoms: C7_7  and  C11_11 
ROOT
HETATM    1  C1  UNL     1     -35.063  13.876  -4.290  1.00 20.00     0.131 C 
HETATM    2  C2  UNL     1     -36.409  14.522  -4.524  1.00 20.00     0.079 C 
HETATM    3  C3  UNL     1     -36.777  15.372  -3.319  1.00 20.00     0.017 C 
HETATM    4  C4  UNL     1     -34.715  15.995  -1.902  1.00 20.00     0.016 A 
HETATM    5  C5  UNL     1     -33.890  14.831  -4.114  1.00 20.00     0.056 C 
HETATM    6  C6  UNL     1     -34.252  16.065  -3.332  1.00 20.00     0.006 A 
HETATM    7  C7  UNL     1     -35.699  16.384  -2.987  1.00 20.00    -0.032 A 
HETATM    8  C8  UNL     1     -32.678  14.132  -3.505  1.00 20.00     0.018 C 
HETATM    9  O12 UNL     1     -34.929  12.654  -4.326  1.00 20.00    -0.298 OA
ENDROOT
BRANCH   7  10
HETATM   10  C11 UNL     1     -36.133  17.822  -3.064  1.00 20.00    -0.014 C 
HETATM   11  C9  UNL     1     -37.214  18.023  -4.135  1.00 20.00     0.010 C 
HETATM   12  C10 UNL     1     -36.648  18.325  -1.708  1.00 20.00     0.010 C 
ENDBRANCH   7  10
TORSDOF 1
ENDMDL
MODEL 6
REMARK VINA RESULT:      -4.5      2.397      4.407
REMARK  1 active torsions:
REMARK  status: ('A' for Active; 'I' for Inactive)
REMARK    1  A    between atoms: C7_7  and  C11_11 
ROOT
HETATM    1  C1  UNL     1     -35.996  18.049  -1.851  1.00 20.00     0.131 C 
HETATM    2  C2  UNL     1     -36.764  17.293  -2.910  1.00 20.00     0.079 C 
HETATM    3  C3  UNL     1     -35.786  16.590  -3.837  1.00 20.00     0.017 C 
HETATM    4  C4  UNL     1     -33.464  16.295  -2.758  1.00 20.00     0.016 A 
HETATM    5  C5  UNL     1     -35.126  17.203  -0.931  1.00 20.00     0.056 C 
HETATM    6  C6  UNL     1     -34.451  16.064  -1.646  1.00 20.00     0.006 A 
HETATM    7  C7  UNL     1     -34.821  15.702  -3.078  1.00 20.00    -0.032 A 
HETATM    8  C8  UNL     1     -34.111  18.054  -0.173  1.00 20.00     0.018 C 
HETATM    9  O12 UNL     1     -36.142  19.261  -1.704  1.00 20.00    -0.298 OA
ENDROOT
BRANCH   7  10
HETATM   10  C11 UNL     1     -34.888  14.242  -3.432  1.00 20.00    -0.014 C 
HETATM   11  C9  UNL     1     -35.929  13.980  -4.529  1.00 20.00     0.010 C 
HETATM   12  C10 UNL     1     -33.519  13.711  -3.880  1.00 20.00     0.010 C 
ENDBRANCH   7  10
TORSDOF 1
ENDMDL
MODEL 7
REMARK VINA RESULT:      -4.4      1.547      1.963
REMARK  1 active torsions:
REMARK  status: ('A' for Active; 'I' for Inactive)
REMARK    1  A    between atoms: C7_7  and  C11_11 
ROOT
HETATM    1  C1  UNL     1     -36.256  16.185  -5.639  1.00 20.00     0.131 C 
HETATM    2  C2  UNL     1     -36.587  17.172  -4.543  1.00 20.00     0.079 C 
HETATM    3  C3  UNL     1     -36.227  16.568  -3.196  1.00 20.00     0.017 C 
HETATM    4  C4  UNL     1     -34.529  14.640  -3.416  1.00 20.00     0.016 A 
HETATM    5  C5  UNL     1     -34.788  15.800  -5.765  1.00 20.00     0.056 C 
HETATM    6  C6  UNL     1     -34.101  15.665  -4.431  1.00 20.00     0.006 A 
HETATM    7  C7  UNL     1     -34.783  16.109  -3.145  1.00 20.00    -0.032 A 
HETATM    8  C8  UNL     1     -34.603  14.540  -6.606  1.00 20.00     0.018 C 
HETATM    9  O12 UNL     1     -37.118  15.794  -6.424  1.00 20.00    -0.298 OA
ENDROOT
BRANCH   7  10
HETATM   10  C11 UNL     1     -33.936  16.793  -2.108  1.00 20.00    -0.014 C 
HETATM   11  C9  UNL     1     -33.710  18.271  -2.456  1.00 20.00     0.010 C 
HETATM   12  C10 UNL     1     -34.562  16.681  -0.711  1.00 20.00     0.010 C 
ENDBRANCH   7  10
TORSDOF 1
ENDMDL
MODEL 8
REMARK VINA RESULT:      -4.3      2.197      3.342
REMARK  1 active torsions:
REMARK  status: ('A' for Active; 'I' for Inactive)
REMARK    1  A    between atoms: C7_7  and  C11_11 
ROOT
HETATM    1  C1  UNL     1     -37.221  15.527  -5.775  1.00 20.00     0.131 C 
HETATM    2  C2  UNL     1     -37.052  15.999  -4.350  1.00 20.00     0.079 C 
HETATM    3  C3  UNL     1     -36.024  15.128  -3.648  1.00 20.00     0.017 C 
HETATM    4  C4  UNL     1     -34.495  13.892  -5.315  1.00 20.00     0.016 A 
HETATM    5  C5  UNL     1     -35.978  15.607  -6.652  1.00 20.00     0.056 C 
HETATM    6  C6  UNL     1     -34.715  15.255  -5.912  1.00 20.00     0.006 A 
HETATM    7  C7  UNL     1     -34.709  15.080  -4.401  1.00 20.00    -0.032 A 
HETATM    8  C8  UNL     1     -36.124  14.767  -7.918  1.00 20.00     0.018 C 
HETATM    9  O12 UNL     1     -38.320  15.182  -6.205  1.00 20.00    -0.298 OA
ENDROOT
BRANCH   7  10
HETATM   10  C11 UNL     1     -33.524  15.611  -3.643  1.00 20.00    -0.014 C 
HETATM   11  C9  UNL     1     -33.947  16.221  -2.299  1.00 20.00     0.010 C 
HETATM   12  C10 UNL     1     -32.475  14.515  -3.405  1.00 20.00     0.010 C 
ENDBRANCH   7  10
TORSDOF 1
ENDMDL
MODEL 9
REMARK VINA RESULT:      -4.2      2.065      3.239
REMARK  1 active torsions:
REMARK  status: ('A' for Active; 'I' for Inactive)
REMARK    1  A    between atoms: C7_7  and  C11_11 
ROOT
HETATM    1  C1  UNL     1     -33.663  16.212  -4.366  1.00 20.00     0.131 C 
HETATM    2  C2  UNL     1     -34.775  17.227  -4.502  1.00 20.00     0.079 C 
HETATM    3  C3  UNL     1     -36.035  16.532  -4.991  1.00 20.00     0.017 C 
HETATM    4  C4  UNL     1     -35.975  13.991  -4.559  1.00 20.00     0.016 A 
HETATM    5  C5  UNL     1     -33.906  15.093  -3.362  1.00 20.00     0.056 C 
HETATM    6  C6  UNL     1     -35.334  14.616  -3.350  1.00 20.00     0.006 A 
HETATM    7  C7  UNL     1     -36.422  15.365  -4.104  1.00 20.00    -0.032 A 
HETATM    8  C8  UNL     1     -32.940  13.929  -3.568  1.00 20.00     0.018 C 
HETATM    9  O12 UNL     1     -32.603  16.345  -4.974  1.00 20.00    -0.298 OA
ENDROOT
BRANCH   7  10
HETATM   10  C11 UNL     1     -37.768  15.488  -3.446  1.00 20.00    -0.014 C 
HETATM   11  C9  UNL     1     -38.207  16.955  -3.339  1.00 20.00     0.010 C 
HETATM   12  C10 UNL     1     -38.836  14.682  -4.200  1.00 20.00     0.010 C 
ENDBRANCH   7  10
TORSDOF 1
ENDMDL
