MODEL 1
REMARK VINA RESULT:      -5.3      0.000      0.000
REMARK  2 active torsions:
REMARK  status: ('A' for Active; 'I' for Inactive)
REMARK    1  A    between atoms: C1_1  and  C5_5 
REMARK    2  A    between atoms: C2_2  and  C3_3 
ROOT
HETATM    1  C1  UNL     1     -33.968   6.151   3.100  1.00 20.00     0.134 C 
HETATM    2  C2  UNL     1     -34.775   5.610   4.019  1.00 20.00     0.166 C 
HETATM    3  F7  UNL     1     -36.076   5.375   3.746  1.00 20.00    -0.202 F 
ENDROOT
BRANCH   1   4
HETATM    4  C5  UNL     1     -32.523   6.448   3.308  1.00 20.00     0.410 C 
HETATM    5  F8  UNL     1     -32.266   7.133   4.451  1.00 20.00    -0.167 F 
HETATM    6  F9  UNL     1     -32.021   7.189   2.287  1.00 20.00    -0.167 F 
HETATM    7  F10 UNL     1     -31.789   5.308   3.362  1.00 20.00    -0.167 F 
ENDBRANCH   1   4
BRANCH   2   8
HETATM    8  C3  UNL     1     -34.372   5.215   5.393  1.00 20.00     0.183 C 
HETATM    9  C4  UNL     1     -34.235   6.271   6.457  1.00 20.00     0.099 C 
HETATM   10  O6  UNL     1     -34.157   4.028   5.642  1.00 20.00    -0.290 OA
ENDBRANCH   2   8
TORSDOF 2
ENDMDL
MODEL 2
REMARK VINA RESULT:      -5.2      2.370      3.559
REMARK  2 active torsions:
REMARK  status: ('A' for Active; 'I' for Inactive)
REMARK    1  A    between atoms: C1_1  and  C5_5 
REMARK    2  A    between atoms: C2_2  and  C3_3 
ROOT
HETATM    1  C1  UNL     1     -35.322   4.786   4.652  1.00 20.00     0.134 C 
HETATM    2  C2  UNL     1     -34.631   5.474   3.737  1.00 20.00     0.166 C 
HETATM    3  F7  UNL     1     -35.058   5.552   2.459  1.00 20.00    -0.202 F 
ENDROOT
BRANCH   1   4
HETATM    4  C5  UNL     1     -34.930   4.643   6.082  1.00 20.00     0.410 C 
HETATM    5  F8  UNL     1     -34.904   5.817   6.761  1.00 20.00    -0.167 F 
HETATM    6  F9  UNL     1     -33.693   4.095   6.200  1.00 20.00    -0.167 F 
HETATM    7  F10 UNL     1     -35.785   3.825   6.747  1.00 20.00    -0.167 F 
ENDBRANCH   1   4
BRANCH   2   8
HETATM    8  C3  UNL     1     -33.363   6.207   3.988  1.00 20.00     0.183 C 
HETATM    9  C4  UNL     1     -32.195   6.007   3.059  1.00 20.00     0.099 C 
HETATM   10  O6  UNL     1     -33.287   6.968   4.953  1.00 20.00    -0.290 OA
ENDBRANCH   2   8
TORSDOF 2
ENDMDL
MODEL 3
REMARK VINA RESULT:      -5.2      1.605      2.244
REMARK  2 active torsions:
REMARK  status: ('A' for Active; 'I' for Inactive)
REMARK    1  A    between atoms: C1_1  and  C5_5 
REMARK    2  A    between atoms: C2_2  and  C3_3 
ROOT
HETATM    1  C1  UNL     1     -33.092   6.791   4.491  1.00 20.00     0.134 C 
HETATM    2  C2  UNL     1     -34.050   6.284   5.275  1.00 20.00     0.166 C 
HETATM    3  F7  UNL     1     -34.310   6.821   6.486  1.00 20.00    -0.202 F 
ENDROOT
BRANCH   1   4
HETATM    4  C5  UNL     1     -32.733   6.266   3.144  1.00 20.00     0.410 C 
HETATM    5  F8  UNL     1     -33.765   5.671   2.496  1.00 20.00    -0.167 F 
HETATM    6  F9  UNL     1     -31.738   5.345   3.224  1.00 20.00    -0.167 F 
HETATM    7  F10 UNL     1     -32.282   7.258   2.333  1.00 20.00    -0.167 F 
ENDBRANCH   1   4
BRANCH   2   8
HETATM    8  C3  UNL     1     -34.911   5.121   4.940  1.00 20.00     0.183 C 
HETATM    9  C4  UNL     1     -34.635   3.786   5.579  1.00 20.00     0.099 C 
HETATM   10  O6  UNL     1     -35.840   5.267   4.145  1.00 20.00    -0.290 OA
ENDBRANCH   2   8
TORSDOF 2
ENDMDL
MODEL 4
REMARK VINA RESULT:      -4.8      2.326      4.008
REMARK  2 active torsions:
REMARK  status: ('A' for Active; 'I' for Inactive)
REMARK    1  A    between atoms: C1_1  and  C5_5 
REMARK    2  A    between atoms: C2_2  and  C3_3 
ROOT
HETATM    1  C1  UNL     1     -34.234   5.539   6.381  1.00 20.00     0.134 C 
HETATM    2  C2  UNL     1     -33.556   6.446   5.669  1.00 20.00     0.166 C 
HETATM    3  F7  UNL     1     -32.839   7.412   6.280  1.00 20.00    -0.202 F 
ENDROOT
BRANCH   1   4
HETATM    4  C5  UNL     1     -35.052   4.440   5.797  1.00 20.00     0.410 C 
HETATM    5  F8  UNL     1     -35.852   4.838   4.776  1.00 20.00    -0.167 F 
HETATM    6  F9  UNL     1     -35.862   3.879   6.732  1.00 20.00    -0.167 F 
HETATM    7  F10 UNL     1     -34.266   3.445   5.313  1.00 20.00    -0.167 F 
ENDBRANCH   1   4
BRANCH   2   8
HETATM    8  C3  UNL     1     -33.503   6.511   4.186  1.00 20.00     0.183 C 
HETATM    9  C4  UNL     1     -32.271   6.029   3.467  1.00 20.00     0.099 C 
HETATM   10  O6  UNL     1     -34.469   6.957   3.566  1.00 20.00    -0.290 OA
ENDBRANCH   2   8
TORSDOF 2
ENDMDL
MODEL 5
REMARK VINA RESULT:      -4.6     11.809     12.391
REMARK  2 active torsions:
REMARK  status: ('A' for Active; 'I' for Inactive)
REMARK    1  A    between atoms: C1_1  and  C5_5 
REMARK    2  A    between atoms: C2_2  and  C3_3 
ROOT
HETATM    1  C1  UNL     1     -35.153  15.332  -3.101  1.00 20.00     0.134 C 
HETATM    2  C2  UNL     1     -35.749  14.466  -3.928  1.00 20.00     0.166 C 
HETATM    3  F7  UNL     1     -37.062  14.181  -3.804  1.00 20.00    -0.202 F 
ENDROOT
BRANCH   1   4
HETATM    4  C5  UNL     1     -33.713  15.708  -3.158  1.00 20.00     0.410 C 
HETATM    5  F8  UNL     1     -32.875  14.646  -3.263  1.00 20.00    -0.167 F 
HETATM    6  F9  UNL     1     -33.338  16.392  -2.046  1.00 20.00    -0.167 F 
HETATM    7  F10 UNL     1     -33.456  16.515  -4.218  1.00 20.00    -0.167 F 
ENDBRANCH   1   4
BRANCH   2   8
HETATM    8  C3  UNL     1     -35.081  13.737  -5.036  1.00 20.00     0.183 C 
HETATM    9  C4  UNL     1     -34.935  14.403  -6.379  1.00 20.00     0.099 C 
HETATM   10  O6  UNL     1     -34.654  12.598  -4.840  1.00 20.00    -0.290 OA
ENDBRANCH   2   8
TORSDOF 2
ENDMDL
MODEL 6
REMARK VINA RESULT:      -4.5      2.010      3.601
REMARK  2 active torsions:
REMARK  status: ('A' for Active; 'I' for Inactive)
REMARK    1  A    between atoms: C1_1  and  C5_5 
REMARK    2  A    between atoms: C2_2  and  C3_3 
ROOT
HETATM    1  C1  UNL     1     -34.364   5.972   4.912  1.00 20.00     0.134 C 
HETATM    2  C2  UNL     1     -33.195   6.590   4.709  1.00 20.00     0.166 C 
HETATM    3  F7  UNL     1     -32.614   7.313   5.688  1.00 20.00    -0.202 F 
ENDROOT
BRANCH   1   4
HETATM    4  C5  UNL     1     -35.082   5.155   3.895  1.00 20.00     0.410 C 
HETATM    5  F8  UNL     1     -34.439   5.080   2.703  1.00 20.00    -0.167 F 
HETATM    6  F9  UNL     1     -36.317   5.661   3.640  1.00 20.00    -0.167 F 
HETATM    7  F10 UNL     1     -35.262   3.880   4.324  1.00 20.00    -0.167 F 
ENDBRANCH   1   4
BRANCH   2   8
HETATM    8  C3  UNL     1     -32.420   6.567   3.442  1.00 20.00     0.183 C 
HETATM    9  C4  UNL     1     -32.430   7.777   2.545  1.00 20.00     0.099 C 
HETATM   10  O6  UNL     1     -31.779   5.559   3.144  1.00 20.00    -0.290 OA
ENDBRANCH   2   8
TORSDOF 2
ENDMDL
MODEL 7
REMARK VINA RESULT:      -4.4     11.510     12.486
REMARK  2 active torsions:
REMARK  status: ('A' for Active; 'I' for Inactive)
REMARK    1  A    between atoms: C1_1  and  C5_5 
REMARK    2  A    between atoms: C2_2  and  C3_3 
ROOT
HETATM    1  C1  UNL     1     -34.136  15.325  -2.912  1.00 20.00     0.134 C 
HETATM    2  C2  UNL     1     -33.708  14.338  -3.707  1.00 20.00     0.166 C 
HETATM    3  F7  UNL     1     -32.448  13.866  -3.609  1.00 20.00    -0.202 F 
ENDROOT
BRANCH   1   4
HETATM    4  C5  UNL     1     -35.505  15.911  -2.946  1.00 20.00     0.410 C 
HETATM    5  F8  UNL     1     -36.495  14.985  -2.941  1.00 20.00    -0.167 F 
HETATM    6  F9  UNL     1     -35.686  16.671  -4.058  1.00 20.00    -0.167 F 
HETATM    7  F10 UNL     1     -35.721  16.721  -1.879  1.00 20.00    -0.167 F 
ENDBRANCH   1   4
BRANCH   2   8
HETATM    8  C3  UNL     1     -34.519  13.664  -4.753  1.00 20.00     0.183 C 
HETATM    9  C4  UNL     1     -34.658  14.303  -6.109  1.00 20.00     0.099 C 
HETATM   10  O6  UNL     1     -35.066  12.591  -4.496  1.00 20.00    -0.290 OA
ENDBRANCH   2   8
TORSDOF 2
ENDMDL
MODEL 8
REMARK VINA RESULT:      -4.4     11.423     12.343
REMARK  2 active torsions:
REMARK  status: ('A' for Active; 'I' for Inactive)
REMARK    1  A    between atoms: C1_1  and  C5_5 
REMARK    2  A    between atoms: C2_2  and  C3_3 
ROOT
HETATM    1  C1  UNL     1     -34.609  14.920  -3.218  1.00 20.00     0.134 C 
HETATM    2  C2  UNL     1     -35.831  15.463  -3.222  1.00 20.00     0.166 C 
HETATM    3  F7  UNL     1     -36.142  16.476  -2.387  1.00 20.00    -0.202 F 
ENDROOT
BRANCH   1   4
HETATM    4  C5  UNL     1     -34.174  13.800  -4.099  1.00 20.00     0.410 C 
HETATM    5  F8  UNL     1     -35.009  12.732  -4.078  1.00 20.00    -0.167 F 
HETATM    6  F9  UNL     1     -32.945  13.343  -3.743  1.00 20.00    -0.167 F 
HETATM    7  F10 UNL     1     -34.082  14.199  -5.393  1.00 20.00    -0.167 F 
ENDBRANCH   1   4
BRANCH   2   8
HETATM    8  C3  UNL     1     -36.954  15.046  -4.100  1.00 20.00     0.183 C 
HETATM    9  C4  UNL     1     -37.102  15.671  -5.462  1.00 20.00     0.099 C 
HETATM   10  O6  UNL     1     -37.749  14.193  -3.701  1.00 20.00    -0.290 OA
ENDBRANCH   2   8
TORSDOF 2
ENDMDL
MODEL 9
REMARK VINA RESULT:      -4.3      8.654     10.192
REMARK  2 active torsions:
REMARK  status: ('A' for Active; 'I' for Inactive)
REMARK    1  A    between atoms: C1_1  and  C5_5 
REMARK    2  A    between atoms: C2_2  and  C3_3 
ROOT
HETATM    1  C1  UNL     1     -40.734   4.701  -1.039  1.00 20.00     0.134 C 
HETATM    2  C2  UNL     1     -41.046   5.790  -0.329  1.00 20.00     0.166 C 
HETATM    3  F7  UNL     1     -40.164   6.327   0.541  1.00 20.00    -0.202 F 
ENDROOT
BRANCH   1   4
HETATM    4  C5  UNL     1     -41.638   4.038  -2.019  1.00 20.00     0.410 C 
HETATM    5  F8  UNL     1     -42.131   4.878  -2.962  1.00 20.00    -0.167 F 
HETATM    6  F9  UNL     1     -42.709   3.477  -1.398  1.00 20.00    -0.167 F 
HETATM    7  F10 UNL     1     -41.001   3.038  -2.680  1.00 20.00    -0.167 F 
ENDBRANCH   1   4
BRANCH   2   8
HETATM    8  C3  UNL     1     -42.338   6.519  -0.395  1.00 20.00     0.183 C 
HETATM    9  C4  UNL     1     -42.457   7.738  -1.270  1.00 20.00     0.099 C 
HETATM   10  O6  UNL     1     -43.295   6.113   0.267  1.00 20.00    -0.290 OA
ENDBRANCH   2   8
TORSDOF 2
ENDMDL
