MODEL 1
REMARK VINA RESULT:      -4.3      0.000      0.000
REMARK  1 active torsions:
REMARK  status: ('A' for Active; 'I' for Inactive)
REMARK    1  A    between atoms: C7_7  and  N9_9 
ROOT
HETATM    1  C1  UNL     1     -34.854  13.303  -4.241  1.00 20.00     0.004 A 
HETATM    2  C2  UNL     1     -35.882  14.156  -4.191  1.00 20.00     0.042 A 
HETATM    3  C3  UNL     1     -33.528  13.723  -3.890  1.00 20.00     0.018 A 
HETATM    4  C4  UNL     1     -33.308  14.985  -3.507  1.00 20.00     0.097 A 
HETATM    5  C5  UNL     1     -35.670  15.584  -3.763  1.00 20.00     0.106 A 
HETATM    6  N9  UNL     1     -34.335  15.917  -3.435  1.00 20.00    -0.324 N 
HETATM    7  S10 UNL     1     -36.995  16.640  -3.709  1.00 20.00    -0.060 SA
ENDROOT
BRANCH   6   8
HETATM    8  C7  UNL     1     -33.915  17.164  -3.021  1.00 20.00     0.093 C 
HETATM    9  C6  UNL     1     -34.006  17.574  -1.751  1.00 20.00    -0.013 C 
HETATM   10  C8  UNL     1     -34.566  16.735  -0.650  1.00 20.00     0.037 C 
ENDBRANCH   6   8
TORSDOF 1
ENDMDL
MODEL 2
REMARK VINA RESULT:      -4.0      1.818      3.689
REMARK  1 active torsions:
REMARK  status: ('A' for Active; 'I' for Inactive)
REMARK    1  A    between atoms: C7_7  and  N9_9 
ROOT
HETATM    1  C1  UNL     1     -34.373  18.605  -4.785  1.00 20.00     0.004 A 
HETATM    2  C2  UNL     1     -34.635  18.267  -3.518  1.00 20.00     0.042 A 
HETATM    3  C3  UNL     1     -33.661  17.715  -5.656  1.00 20.00     0.018 A 
HETATM    4  C4  UNL     1     -33.247  16.528  -5.200  1.00 20.00     0.097 A 
HETATM    5  C5  UNL     1     -34.184  16.937  -2.974  1.00 20.00     0.106 A 
HETATM    6  N9  UNL     1     -33.489  16.121  -3.895  1.00 20.00    -0.324 N 
HETATM    7  S10 UNL     1     -34.533  16.539  -1.364  1.00 20.00    -0.060 SA
ENDROOT
BRANCH   6   8
HETATM    8  C7  UNL     1     -32.986  14.868  -3.611  1.00 20.00     0.093 C 
HETATM    9  C6  UNL     1     -33.711  13.751  -3.737  1.00 20.00    -0.013 C 
HETATM   10  C8  UNL     1     -35.132  13.735  -4.198  1.00 20.00     0.037 C 
ENDBRANCH   6   8
TORSDOF 1
ENDMDL
MODEL 3
REMARK VINA RESULT:      -3.9      1.990      2.104
REMARK  1 active torsions:
REMARK  status: ('A' for Active; 'I' for Inactive)
REMARK    1  A    between atoms: C7_7  and  N9_9 
ROOT
HETATM    1  C1  UNL     1     -35.003  13.980  -6.212  1.00 20.00     0.004 A 
HETATM    2  C2  UNL     1     -34.689  15.266  -6.396  1.00 20.00     0.042 A 
HETATM    3  C3  UNL     1     -34.762  13.333  -4.954  1.00 20.00     0.018 A 
HETATM    4  C4  UNL     1     -34.214  14.020  -3.946  1.00 20.00     0.097 A 
HETATM    5  C5  UNL     1     -34.072  16.070  -5.281  1.00 20.00     0.106 A 
HETATM    6  N9  UNL     1     -33.867  15.358  -4.077  1.00 20.00    -0.324 N 
HETATM    7  S10 UNL     1     -33.688  17.698  -5.547  1.00 20.00    -0.060 SA
ENDROOT
BRANCH   6   8
HETATM    8  C7  UNL     1     -33.316  15.894  -2.932  1.00 20.00     0.093 C 
HETATM    9  C6  UNL     1     -34.046  16.518  -2.000  1.00 20.00    -0.013 C 
HETATM   10  C8  UNL     1     -35.526  16.699  -2.094  1.00 20.00     0.037 C 
ENDBRANCH   6   8
TORSDOF 1
ENDMDL
MODEL 4
REMARK VINA RESULT:      -3.9      1.277      3.819
REMARK  1 active torsions:
REMARK  status: ('A' for Active; 'I' for Inactive)
REMARK    1  A    between atoms: C7_7  and  N9_9 
ROOT
HETATM    1  C1  UNL     1     -33.608  18.309  -1.583  1.00 20.00     0.004 A 
HETATM    2  C2  UNL     1     -33.688  18.364  -2.917  1.00 20.00     0.042 A 
HETATM    3  C3  UNL     1     -34.135  17.190  -0.857  1.00 20.00     0.018 A 
HETATM    4  C4  UNL     1     -34.718  16.182  -1.517  1.00 20.00     0.097 A 
HETATM    5  C5  UNL     1     -34.336  17.246  -3.691  1.00 20.00     0.106 A 
HETATM    6  N9  UNL     1     -34.830  16.183  -2.901  1.00 20.00    -0.324 N 
HETATM    7  S10 UNL     1     -34.418  17.346  -5.381  1.00 20.00    -0.060 SA
ENDROOT
BRANCH   6   8
HETATM    8  C7  UNL     1     -35.460  15.061  -3.399  1.00 20.00     0.093 C 
HETATM    9  C6  UNL     1     -34.794  13.964  -3.775  1.00 20.00    -0.013 C 
HETATM   10  C8  UNL     1     -33.308  13.830  -3.697  1.00 20.00     0.037 C 
ENDBRANCH   6   8
TORSDOF 1
ENDMDL
MODEL 5
REMARK VINA RESULT:      -3.9      2.640      3.005
REMARK  1 active torsions:
REMARK  status: ('A' for Active; 'I' for Inactive)
REMARK    1  A    between atoms: C7_7  and  N9_9 
ROOT
HETATM    1  C1  UNL     1     -34.620  16.343  -7.324  1.00 20.00     0.004 A 
HETATM    2  C2  UNL     1     -34.823  15.126  -6.807  1.00 20.00     0.042 A 
HETATM    3  C3  UNL     1     -33.990  17.377  -6.555  1.00 20.00     0.018 A 
HETATM    4  C4  UNL     1     -33.598  17.130  -5.301  1.00 20.00     0.097 A 
HETATM    5  C5  UNL     1     -34.392  14.814  -5.398  1.00 20.00     0.106 A 
HETATM    6  N9  UNL     1     -33.781  15.887  -4.709  1.00 20.00    -0.324 N 
HETATM    7  S10 UNL     1     -34.662  13.262  -4.773  1.00 20.00    -0.060 SA
ENDROOT
BRANCH   6   8
HETATM    8  C7  UNL     1     -33.313  15.824  -3.413  1.00 20.00     0.093 C 
HETATM    9  C6  UNL     1     -34.088  16.073  -2.351  1.00 20.00    -0.013 C 
HETATM   10  C8  UNL     1     -35.532  16.441  -2.448  1.00 20.00     0.037 C 
ENDBRANCH   6   8
TORSDOF 1
ENDMDL
MODEL 6
REMARK VINA RESULT:      -3.9     12.170     12.905
REMARK  1 active torsions:
REMARK  status: ('A' for Active; 'I' for Inactive)
REMARK    1  A    between atoms: C7_7  and  N9_9 
ROOT
HETATM    1  C1  UNL     1     -35.191   4.073   5.920  1.00 20.00     0.004 A 
HETATM    2  C2  UNL     1     -34.605   5.058   6.609  1.00 20.00     0.042 A 
HETATM    3  C3  UNL     1     -35.308   4.138   4.491  1.00 20.00     0.018 A 
HETATM    4  C4  UNL     1     -34.826   5.196   3.831  1.00 20.00     0.097 A 
HETATM    5  C5  UNL     1     -34.050   6.263   5.896  1.00 20.00     0.106 A 
HETATM    6  N9  UNL     1     -34.206   6.249   4.491  1.00 20.00    -0.324 N 
HETATM    7  S10 UNL     1     -33.311   7.493   6.798  1.00 20.00    -0.060 SA
ENDROOT
BRANCH   6   8
HETATM    8  C7  UNL     1     -33.776   7.249   3.643  1.00 20.00     0.093 C 
HETATM    9  C6  UNL     1     -32.634   7.169   2.951  1.00 20.00    -0.013 C 
HETATM   10  C8  UNL     1     -31.706   6.001   3.018  1.00 20.00     0.037 C 
ENDBRANCH   6   8
TORSDOF 1
ENDMDL
MODEL 7
REMARK VINA RESULT:      -3.9      2.596      4.065
REMARK  1 active torsions:
REMARK  status: ('A' for Active; 'I' for Inactive)
REMARK    1  A    between atoms: C7_7  and  N9_9 
ROOT
HETATM    1  C1  UNL     1     -34.163  14.880  -3.057  1.00 20.00     0.004 A 
HETATM    2  C2  UNL     1     -33.988  16.068  -3.646  1.00 20.00     0.042 A 
HETATM    3  C3  UNL     1     -34.433  13.703  -3.832  1.00 20.00     0.018 A 
HETATM    4  C4  UNL     1     -34.515  13.787  -5.164  1.00 20.00     0.097 A 
HETATM    5  C5  UNL     1     -34.073  16.197  -5.145  1.00 20.00     0.106 A 
HETATM    6  N9  UNL     1     -34.343  14.992  -5.833  1.00 20.00    -0.324 N 
HETATM    7  S10 UNL     1     -33.846  17.717  -5.860  1.00 20.00    -0.060 SA
ENDROOT
BRANCH   6   8
HETATM    8  C7  UNL     1     -34.464  14.880  -7.202  1.00 20.00     0.093 C 
HETATM    9  C6  UNL     1     -35.641  14.946  -7.833  1.00 20.00    -0.013 C 
HETATM   10  C8  UNL     1     -36.944  15.149  -7.133  1.00 20.00     0.037 C 
ENDBRANCH   6   8
TORSDOF 1
ENDMDL
MODEL 8
REMARK VINA RESULT:      -3.9      1.844      3.588
REMARK  1 active torsions:
REMARK  status: ('A' for Active; 'I' for Inactive)
REMARK    1  A    between atoms: C7_7  and  N9_9 
ROOT
HETATM    1  C1  UNL     1     -34.340  16.222  -2.220  1.00 20.00     0.004 A 
HETATM    2  C2  UNL     1     -35.620  15.973  -2.516  1.00 20.00     0.042 A 
HETATM    3  C3  UNL     1     -33.280  15.724  -3.048  1.00 20.00     0.018 A 
HETATM    4  C4  UNL     1     -33.567  14.996  -4.133  1.00 20.00     0.097 A 
HETATM    5  C5  UNL     1     -35.979  15.159  -3.732  1.00 20.00     0.106 A 
HETATM    6  N9  UNL     1     -34.876  14.705  -4.492  1.00 20.00    -0.324 N 
HETATM    7  S10 UNL     1     -37.611  14.862  -4.079  1.00 20.00    -0.060 SA
ENDROOT
BRANCH   6   8
HETATM    8  C7  UNL     1     -34.973  13.944  -5.639  1.00 20.00     0.093 C 
HETATM    9  C6  UNL     1     -34.976  14.480  -6.864  1.00 20.00    -0.013 C 
HETATM   10  C8  UNL     1     -34.874  15.947  -7.126  1.00 20.00     0.037 C 
ENDBRANCH   6   8
TORSDOF 1
ENDMDL
MODEL 9
REMARK VINA RESULT:      -3.8      1.602      3.387
REMARK  1 active torsions:
REMARK  status: ('A' for Active; 'I' for Inactive)
REMARK    1  A    between atoms: C7_7  and  N9_9 
ROOT
HETATM    1  C1  UNL     1     -33.162  14.557  -3.634  1.00 20.00     0.004 A 
HETATM    2  C2  UNL     1     -33.732  15.650  -3.117  1.00 20.00     0.042 A 
HETATM    3  C3  UNL     1     -33.955  13.519  -4.227  1.00 20.00     0.018 A 
HETATM    4  C4  UNL     1     -35.287  13.638  -4.266  1.00 20.00     0.097 A 
HETATM    5  C5  UNL     1     -35.229  15.817  -3.146  1.00 20.00     0.106 A 
HETATM    6  N9  UNL     1     -35.936  14.750  -3.746  1.00 20.00    -0.324 N 
HETATM    7  S10 UNL     1     -35.920  17.215  -2.484  1.00 20.00    -0.060 SA
ENDROOT
BRANCH   6   8
HETATM    8  C7  UNL     1     -37.308  14.693  -3.879  1.00 20.00     0.093 C 
HETATM    9  C6  UNL     1     -37.954  15.183  -4.943  1.00 20.00    -0.013 C 
HETATM   10  C8  UNL     1     -37.269  15.838  -6.097  1.00 20.00     0.037 C 
ENDBRANCH   6   8
TORSDOF 1
ENDMDL
