MODEL 1
REMARK VINA RESULT:      -4.8      0.000      0.000
REMARK  1 active torsions:
REMARK  status: ('A' for Active; 'I' for Inactive)
REMARK    1  A    between atoms: C8_8  and  C11_11 
ROOT
HETATM    1  C1  UNL     1     -34.139  16.945  -1.952  1.00 20.00    -0.079 C 
HETATM    2  C2  UNL     1     -35.267  14.301  -3.746  1.00 20.00     0.132 C 
HETATM    3  C3  UNL     1     -33.412  17.649  -1.087  1.00 20.00     0.015 C 
HETATM    4  C4  UNL     1     -35.641  16.535  -2.037  1.00 20.00     0.047 C 
HETATM    5  C5  UNL     1     -33.893  14.045  -4.372  1.00 20.00     0.080 C 
HETATM    6  C6  UNL     1     -32.957  15.043  -3.598  1.00 20.00     0.022 C 
HETATM    7  C7  UNL     1     -34.994  15.288  -2.621  1.00 20.00     0.072 C 
HETATM    8  C8  UNL     1     -33.866  16.228  -3.262  1.00 20.00    -0.004 C 
HETATM    9  O12 UNL     1     -36.312  13.787  -4.111  1.00 20.00    -0.298 OA
ENDROOT
BRANCH   8  10
HETATM   10  C11 UNL     1     -34.096  17.126  -4.486  1.00 20.00    -0.009 C 
HETATM   11  C9  UNL     1     -33.603  18.541  -4.203  1.00 20.00     0.011 C 
HETATM   12  C10 UNL     1     -33.399  16.541  -5.708  1.00 20.00     0.011 C 
ENDBRANCH   8  10
TORSDOF 1
ENDMDL
MODEL 2
REMARK VINA RESULT:      -4.8      1.582      2.222
REMARK  1 active torsions:
REMARK  status: ('A' for Active; 'I' for Inactive)
REMARK    1  A    between atoms: C8_8  and  C11_11 
ROOT
HETATM    1  C1  UNL     1     -36.716  16.277  -3.565  1.00 20.00    -0.079 C 
HETATM    2  C2  UNL     1     -34.837  13.531  -4.209  1.00 20.00     0.132 C 
HETATM    3  C3  UNL     1     -37.298  17.260  -2.882  1.00 20.00     0.015 C 
HETATM    4  C4  UNL     1     -37.236  15.039  -4.357  1.00 20.00     0.047 C 
HETATM    5  C5  UNL     1     -33.567  14.178  -3.649  1.00 20.00     0.080 C 
HETATM    6  C6  UNL     1     -34.094  15.523  -3.030  1.00 20.00     0.022 C 
HETATM    7  C7  UNL     1     -35.961  14.456  -3.767  1.00 20.00     0.072 C 
HETATM    8  C8  UNL     1     -35.286  15.902  -3.914  1.00 20.00    -0.004 C 
HETATM    9  O12 UNL     1     -34.873  12.495  -4.852  1.00 20.00    -0.298 OA
ENDROOT
BRANCH   8  10
HETATM   10  C11 UNL     1     -34.828  16.500  -5.251  1.00 20.00    -0.009 C 
HETATM   11  C9  UNL     1     -35.528  17.830  -5.504  1.00 20.00     0.011 C 
HETATM   12  C10 UNL     1     -33.314  16.671  -5.262  1.00 20.00     0.011 C 
ENDBRANCH   8  10
TORSDOF 1
ENDMDL
MODEL 3
REMARK VINA RESULT:      -4.7      1.827      3.617
REMARK  1 active torsions:
REMARK  status: ('A' for Active; 'I' for Inactive)
REMARK    1  A    between atoms: C8_8  and  C11_11 
ROOT
HETATM    1  C1  UNL     1     -35.069  16.236  -7.002  1.00 20.00    -0.079 C 
HETATM    2  C2  UNL     1     -35.334  13.757  -4.707  1.00 20.00     0.132 C 
HETATM    3  C3  UNL     1     -35.428  17.209  -7.838  1.00 20.00     0.015 C 
HETATM    4  C4  UNL     1     -34.434  14.823  -7.178  1.00 20.00     0.047 C 
HETATM    5  C5  UNL     1     -36.004  14.677  -3.682  1.00 20.00     0.080 C 
HETATM    6  C6  UNL     1     -36.245  16.001  -4.495  1.00 20.00     0.022 C 
HETATM    7  C7  UNL     1     -35.364  14.549  -6.006  1.00 20.00     0.072 C 
HETATM    8  C8  UNL     1     -35.087  16.043  -5.497  1.00 20.00    -0.004 C 
HETATM    9  O12 UNL     1     -34.901  12.641  -4.472  1.00 20.00    -0.298 OA
ENDROOT
BRANCH   8  10
HETATM   10  C11 UNL     1     -33.780  16.491  -4.828  1.00 20.00    -0.009 C 
HETATM   11  C9  UNL     1     -33.414  17.901  -5.273  1.00 20.00     0.011 C 
HETATM   12  C10 UNL     1     -33.910  16.415  -3.311  1.00 20.00     0.011 C 
ENDBRANCH   8  10
TORSDOF 1
ENDMDL
MODEL 4
REMARK VINA RESULT:      -4.6      1.648      3.570
REMARK  1 active torsions:
REMARK  status: ('A' for Active; 'I' for Inactive)
REMARK    1  A    between atoms: C8_8  and  C11_11 
ROOT
HETATM    1  C1  UNL     1     -34.595  15.651  -5.635  1.00 20.00    -0.079 C 
HETATM    2  C2  UNL     1     -37.488  15.049  -3.978  1.00 20.00     0.132 C 
HETATM    3  C3  UNL     1     -33.697  16.275  -6.396  1.00 20.00     0.015 C 
HETATM    4  C4  UNL     1     -35.407  14.327  -5.766  1.00 20.00     0.047 C 
HETATM    5  C5  UNL     1     -37.368  16.332  -3.149  1.00 20.00     0.080 C 
HETATM    6  C6  UNL     1     -36.132  17.058  -3.795  1.00 20.00     0.022 C 
HETATM    7  C7  UNL     1     -36.439  15.201  -5.069  1.00 20.00     0.072 C 
HETATM    8  C8  UNL     1     -35.238  15.915  -4.285  1.00 20.00    -0.004 C 
HETATM    9  O12 UNL     1     -38.280  14.146  -3.762  1.00 20.00    -0.298 OA
ENDROOT
BRANCH   8  10
HETATM   10  C11 UNL     1     -34.467  15.267  -3.127  1.00 20.00    -0.009 C 
HETATM   11  C9  UNL     1     -33.015  15.031  -3.525  1.00 20.00     0.011 C 
HETATM   12  C10 UNL     1     -34.555  16.140  -1.880  1.00 20.00     0.011 C 
ENDBRANCH   8  10
TORSDOF 1
ENDMDL
MODEL 5
REMARK VINA RESULT:      -4.6      1.117      1.248
REMARK  1 active torsions:
REMARK  status: ('A' for Active; 'I' for Inactive)
REMARK    1  A    between atoms: C8_8  and  C11_11 
ROOT
HETATM    1  C1  UNL     1     -34.574  17.002  -2.773  1.00 20.00    -0.079 C 
HETATM    2  C2  UNL     1     -36.537  14.429  -3.776  1.00 20.00     0.132 C 
HETATM    3  C3  UNL     1     -33.622  17.667  -2.121  1.00 20.00     0.015 C 
HETATM    4  C4  UNL     1     -36.132  17.056  -2.784  1.00 20.00     0.047 C 
HETATM    5  C5  UNL     1     -35.339  13.607  -4.262  1.00 20.00     0.080 C 
HETATM    6  C6  UNL     1     -34.106  14.452  -3.774  1.00 20.00     0.022 C 
HETATM    7  C7  UNL     1     -35.920  15.561  -2.970  1.00 20.00     0.072 C 
HETATM    8  C8  UNL     1     -34.602  15.900  -3.817  1.00 20.00    -0.004 C 
HETATM    9  O12 UNL     1     -37.706  14.173  -4.012  1.00 20.00    -0.298 OA
ENDROOT
BRANCH   8  10
HETATM   10  C11 UNL     1     -34.624  16.446  -5.251  1.00 20.00    -0.009 C 
HETATM   11  C9  UNL     1     -33.694  17.646  -5.375  1.00 20.00     0.011 C 
HETATM   12  C10 UNL     1     -34.236  15.351  -6.238  1.00 20.00     0.011 C 
ENDBRANCH   8  10
TORSDOF 1
ENDMDL
MODEL 6
REMARK VINA RESULT:      -4.6      1.816      2.277
REMARK  1 active torsions:
REMARK  status: ('A' for Active; 'I' for Inactive)
REMARK    1  A    between atoms: C8_8  and  C11_11 
ROOT
HETATM    1  C1  UNL     1     -34.316  16.834  -3.466  1.00 20.00    -0.079 C 
HETATM    2  C2  UNL     1     -34.699  13.731  -4.771  1.00 20.00     0.132 C 
HETATM    3  C3  UNL     1     -33.781  18.029  -3.220  1.00 20.00     0.015 C 
HETATM    4  C4  UNL     1     -34.594  15.564  -2.607  1.00 20.00     0.047 C 
HETATM    5  C5  UNL     1     -34.682  14.253  -6.211  1.00 20.00     0.080 C 
HETATM    6  C6  UNL     1     -34.315  15.772  -6.035  1.00 20.00     0.022 C 
HETATM    7  C7  UNL     1     -34.231  14.911  -3.933  1.00 20.00     0.072 C 
HETATM    8  C8  UNL     1     -34.920  16.150  -4.680  1.00 20.00    -0.004 C 
HETATM    9  O12 UNL     1     -35.020  12.602  -4.438  1.00 20.00    -0.298 OA
ENDROOT
BRANCH   8  10
HETATM   10  C11 UNL     1     -36.438  16.354  -4.778  1.00 20.00    -0.009 C 
HETATM   11  C9  UNL     1     -36.833  17.693  -4.168  1.00 20.00     0.011 C 
HETATM   12  C10 UNL     1     -36.890  16.262  -6.230  1.00 20.00     0.011 C 
ENDBRANCH   8  10
TORSDOF 1
ENDMDL
MODEL 7
REMARK VINA RESULT:      -4.6      2.071      3.553
REMARK  1 active torsions:
REMARK  status: ('A' for Active; 'I' for Inactive)
REMARK    1  A    between atoms: C8_8  and  C11_11 
ROOT
HETATM    1  C1  UNL     1     -36.081  15.262  -6.255  1.00 20.00    -0.079 C 
HETATM    2  C2  UNL     1     -34.010  14.023  -3.878  1.00 20.00     0.132 C 
HETATM    3  C3  UNL     1     -37.194  15.714  -6.832  1.00 20.00     0.015 C 
HETATM    4  C4  UNL     1     -35.169  14.015  -6.467  1.00 20.00     0.047 C 
HETATM    5  C5  UNL     1     -34.274  15.196  -2.930  1.00 20.00     0.080 C 
HETATM    6  C6  UNL     1     -35.424  15.987  -3.654  1.00 20.00     0.022 C 
HETATM    7  C7  UNL     1     -35.075  14.156  -4.955  1.00 20.00     0.072 C 
HETATM    8  C8  UNL     1     -35.167  15.745  -5.144  1.00 20.00    -0.004 C 
HETATM    9  O12 UNL     1     -33.127  13.192  -3.737  1.00 20.00    -0.298 OA
ENDROOT
BRANCH   8  10
HETATM   10  C11 UNL     1     -34.013  16.613  -5.664  1.00 20.00    -0.009 C 
HETATM   11  C9  UNL     1     -34.400  17.276  -6.980  1.00 20.00     0.011 C 
HETATM   12  C10 UNL     1     -33.626  17.656  -4.622  1.00 20.00     0.011 C 
ENDBRANCH   8  10
TORSDOF 1
ENDMDL
MODEL 8
REMARK VINA RESULT:      -4.6      1.928      3.640
REMARK  1 active torsions:
REMARK  status: ('A' for Active; 'I' for Inactive)
REMARK    1  A    between atoms: C8_8  and  C11_11 
ROOT
HETATM    1  C1  UNL     1     -36.249  15.379  -4.652  1.00 20.00    -0.079 C 
HETATM    2  C2  UNL     1     -34.725  16.405  -1.805  1.00 20.00     0.132 C 
HETATM    3  C3  UNL     1     -36.701  15.399  -5.905  1.00 20.00     0.015 C 
HETATM    4  C4  UNL     1     -36.924  15.340  -3.248  1.00 20.00     0.047 C 
HETATM    5  C5  UNL     1     -33.380  16.605  -2.509  1.00 20.00     0.080 C 
HETATM    6  C6  UNL     1     -33.734  16.381  -4.024  1.00 20.00     0.022 C 
HETATM    7  C7  UNL     1     -35.724  16.222  -2.938  1.00 20.00     0.072 C 
HETATM    8  C8  UNL     1     -34.879  15.366  -3.997  1.00 20.00    -0.004 C 
HETATM    9  O12 UNL     1     -34.893  16.412  -0.597  1.00 20.00    -0.298 OA
ENDROOT
BRANCH   8  10
HETATM   10  C11 UNL     1     -34.365  13.944  -3.732  1.00 20.00    -0.009 C 
HETATM   11  C9  UNL     1     -34.772  13.014  -4.869  1.00 20.00     0.011 C 
HETATM   12  C10 UNL     1     -32.852  13.955  -3.552  1.00 20.00     0.011 C 
ENDBRANCH   8  10
TORSDOF 1
ENDMDL
MODEL 9
REMARK VINA RESULT:      -4.5      1.709      3.262
REMARK  1 active torsions:
REMARK  status: ('A' for Active; 'I' for Inactive)
REMARK    1  A    between atoms: C8_8  and  C11_11 
ROOT
HETATM    1  C1  UNL     1     -33.724  14.003  -4.099  1.00 20.00    -0.079 C 
HETATM    2  C2  UNL     1     -35.652  15.088  -6.665  1.00 20.00     0.132 C 
HETATM    3  C3  UNL     1     -32.639  13.639  -3.418  1.00 20.00     0.015 C 
HETATM    4  C4  UNL     1     -35.005  13.263  -4.591  1.00 20.00     0.047 C 
HETATM    5  C5  UNL     1     -34.876  16.402  -6.791  1.00 20.00     0.080 C 
HETATM    6  C6  UNL     1     -33.674  16.202  -5.798  1.00 20.00     0.022 C 
HETATM    7  C7  UNL     1     -34.795  14.226  -5.750  1.00 20.00     0.072 C 
HETATM    8  C8  UNL     1     -34.239  15.299  -4.698  1.00 20.00    -0.004 C 
HETATM    9  O12 UNL     1     -36.715  14.845  -7.213  1.00 20.00    -0.298 OA
ENDROOT
BRANCH   8  10
HETATM   10  C11 UNL     1     -35.131  16.086  -3.727  1.00 20.00    -0.009 C 
HETATM   11  C9  UNL     1     -34.655  15.888  -2.293  1.00 20.00     0.011 C 
HETATM   12  C10 UNL     1     -35.140  17.565  -4.099  1.00 20.00     0.011 C 
ENDBRANCH   8  10
TORSDOF 1
ENDMDL
