MODEL 1
REMARK VINA RESULT:      -4.3      0.000      0.000
REMARK  1 active torsions:
REMARK  status: ('A' for Active; 'I' for Inactive)
REMARK    1  A    between atoms: C4_4  and  C7_7 
ROOT
HETATM    1  C1  UNL     1     -34.821  13.789  -4.704  1.00 20.00     0.075 C 
HETATM    2  C2  UNL     1     -33.547  15.898  -4.751  1.00 20.00     0.105 C 
HETATM    3  C3  UNL     1     -34.913  15.249  -4.586  1.00 20.00     0.164 C 
HETATM    4  C4  UNL     1     -34.746  17.355  -2.830  1.00 20.00     0.113 C 
HETATM    5  N8  UNL     1     -34.748  12.635  -4.797  1.00 20.00    -0.196 NA
HETATM    6  S9  UNL     1     -33.734  17.643  -4.312  1.00 20.00    -0.151 SA
HETATM    7  S10 UNL     1     -35.573  15.735  -2.957  1.00 20.00    -0.133 SA
ENDROOT
BRANCH   4   8
HETATM    8  C7  UNL     1     -33.870  17.386  -1.584  1.00 20.00     0.001 C 
HETATM    9  C5  UNL     1     -33.285  18.783  -1.368  1.00 20.00     0.011 C 
HETATM   10  C6  UNL     1     -34.662  16.944  -0.354  1.00 20.00     0.011 C 
ENDBRANCH   4   8
TORSDOF 1
ENDMDL
MODEL 2
REMARK VINA RESULT:      -4.3      1.821      1.942
REMARK  1 active torsions:
REMARK  status: ('A' for Active; 'I' for Inactive)
REMARK    1  A    between atoms: C4_4  and  C7_7 
ROOT
HETATM    1  C1  UNL     1     -37.168  14.792  -3.883  1.00 20.00     0.075 C 
HETATM    2  C2  UNL     1     -34.742  14.497  -3.567  1.00 20.00     0.105 C 
HETATM    3  C3  UNL     1     -35.847  15.391  -4.110  1.00 20.00     0.164 C 
HETATM    4  C4  UNL     1     -33.912  16.996  -3.004  1.00 20.00     0.113 C 
HETATM    5  N8  UNL     1     -38.212  14.319  -3.704  1.00 20.00    -0.196 NA
HETATM    6  S9  UNL     1     -33.206  15.449  -3.646  1.00 20.00    -0.151 SA
HETATM    7  S10 UNL     1     -35.713  17.013  -3.289  1.00 20.00    -0.133 SA
ENDROOT
BRANCH   4   8
HETATM    8  C7  UNL     1     -33.628  17.122  -1.513  1.00 20.00     0.001 C 
HETATM    9  C5  UNL     1     -33.237  18.556  -1.154  1.00 20.00     0.011 C 
HETATM   10  C6  UNL     1     -34.840  16.679  -0.692  1.00 20.00     0.011 C 
ENDBRANCH   4   8
TORSDOF 1
ENDMDL
MODEL 3
REMARK VINA RESULT:      -4.0      2.160      2.825
REMARK  1 active torsions:
REMARK  status: ('A' for Active; 'I' for Inactive)
REMARK    1  A    between atoms: C4_4  and  C7_7 
ROOT
HETATM    1  C1  UNL     1     -35.617  14.652  -7.101  1.00 20.00     0.075 C 
HETATM    2  C2  UNL     1     -34.791  13.474  -5.099  1.00 20.00     0.105 C 
HETATM    3  C3  UNL     1     -34.560  14.612  -6.084  1.00 20.00     0.164 C 
HETATM    4  C4  UNL     1     -33.846  15.486  -3.579  1.00 20.00     0.113 C 
HETATM    5  N8  UNL     1     -36.453  14.683  -7.904  1.00 20.00    -0.196 NA
HETATM    6  S9  UNL     1     -33.604  13.693  -3.751  1.00 20.00    -0.151 SA
HETATM    7  S10 UNL     1     -34.499  16.170  -5.139  1.00 20.00    -0.133 SA
ENDROOT
BRANCH   4   8
HETATM    8  C7  UNL     1     -34.820  15.777  -2.445  1.00 20.00     0.001 C 
HETATM    9  C5  UNL     1     -34.192  16.722  -1.420  1.00 20.00     0.011 C 
HETATM   10  C6  UNL     1     -36.121  16.368  -2.987  1.00 20.00     0.011 C 
ENDBRANCH   4   8
TORSDOF 1
ENDMDL
MODEL 4
REMARK VINA RESULT:      -3.9      2.366      4.456
REMARK  1 active torsions:
REMARK  status: ('A' for Active; 'I' for Inactive)
REMARK    1  A    between atoms: C4_4  and  C7_7 
ROOT
HETATM    1  C1  UNL     1     -34.298  16.879  -1.363  1.00 20.00     0.075 C 
HETATM    2  C2  UNL     1     -34.671  17.778  -3.627  1.00 20.00     0.105 C 
HETATM    3  C3  UNL     1     -33.727  17.015  -2.708  1.00 20.00     0.164 C 
HETATM    4  C4  UNL     1     -33.607  15.870  -5.203  1.00 20.00     0.113 C 
HETATM    5  N8  UNL     1     -34.750  16.770  -0.300  1.00 20.00    -0.196 NA
HETATM    6  S9  UNL     1     -34.001  17.642  -5.302  1.00 20.00    -0.151 SA
HETATM    7  S10 UNL     1     -33.412  15.383  -3.456  1.00 20.00    -0.133 SA
ENDROOT
BRANCH   4   8
HETATM    8  C7  UNL     1     -34.720  15.050  -5.841  1.00 20.00     0.001 C 
HETATM    9  C5  UNL     1     -34.524  14.956  -7.355  1.00 20.00     0.011 C 
HETATM   10  C6  UNL     1     -34.785  13.652  -5.225  1.00 20.00     0.011 C 
ENDBRANCH   4   8
TORSDOF 1
ENDMDL
MODEL 5
REMARK VINA RESULT:      -3.8      1.732      2.675
REMARK  1 active torsions:
REMARK  status: ('A' for Active; 'I' for Inactive)
REMARK    1  A    between atoms: C4_4  and  C7_7 
ROOT
HETATM    1  C1  UNL     1     -34.712  13.493  -4.187  1.00 20.00     0.075 C 
HETATM    2  C2  UNL     1     -35.835  15.516  -3.338  1.00 20.00     0.105 C 
HETATM    3  C3  UNL     1     -34.590  14.641  -3.282  1.00 20.00     0.164 C 
HETATM    4  C4  UNL     1     -33.802  17.268  -3.113  1.00 20.00     0.113 C 
HETATM    5  N8  UNL     1     -34.809  12.584  -4.903  1.00 20.00    -0.196 NA
HETATM    6  S9  UNL     1     -35.462  17.025  -2.414  1.00 20.00    -0.151 SA
HETATM    7  S10 UNL     1     -33.156  15.676  -3.725  1.00 20.00    -0.133 SA
ENDROOT
BRANCH   4   8
HETATM    8  C7  UNL     1     -33.858  18.272  -4.257  1.00 20.00     0.001 C 
HETATM    9  C5  UNL     1     -33.687  17.568  -5.603  1.00 20.00     0.011 C 
HETATM   10  C6  UNL     1     -35.171  19.054  -4.227  1.00 20.00     0.011 C 
ENDBRANCH   4   8
TORSDOF 1
ENDMDL
MODEL 6
REMARK VINA RESULT:      -3.8      2.752      4.808
REMARK  1 active torsions:
REMARK  status: ('A' for Active; 'I' for Inactive)
REMARK    1  A    between atoms: C4_4  and  C7_7 
ROOT
HETATM    1  C1  UNL     1     -34.133  16.463  -2.112  1.00 20.00     0.075 C 
HETATM    2  C2  UNL     1     -33.647  14.404  -3.379  1.00 20.00     0.105 C 
HETATM    3  C3  UNL     1     -34.723  15.360  -2.881  1.00 20.00     0.164 C 
HETATM    4  C4  UNL     1     -35.416  14.528  -5.406  1.00 20.00     0.113 C 
HETATM    5  N8  UNL     1     -33.667  17.334  -1.505  1.00 20.00    -0.196 NA
HETATM    6  S9  UNL     1     -34.448  13.263  -4.531  1.00 20.00    -0.151 SA
HETATM    7  S10 UNL     1     -35.634  15.986  -4.331  1.00 20.00    -0.133 SA
ENDROOT
BRANCH   4   8
HETATM    8  C7  UNL     1     -34.703  14.940  -6.688  1.00 20.00     0.001 C 
HETATM    9  C5  UNL     1     -35.532  14.559  -7.915  1.00 20.00     0.011 C 
HETATM   10  C6  UNL     1     -34.410  16.440  -6.687  1.00 20.00     0.011 C 
ENDBRANCH   4   8
TORSDOF 1
ENDMDL
MODEL 7
REMARK VINA RESULT:      -3.7      2.362      2.942
REMARK  1 active torsions:
REMARK  status: ('A' for Active; 'I' for Inactive)
REMARK    1  A    between atoms: C4_4  and  C7_7 
ROOT
HETATM    1  C1  UNL     1     -38.092  14.861  -4.386  1.00 20.00     0.075 C 
HETATM    2  C2  UNL     1     -35.825  14.610  -5.321  1.00 20.00     0.105 C 
HETATM    3  C3  UNL     1     -36.944  15.575  -4.956  1.00 20.00     0.164 C 
HETATM    4  C4  UNL     1     -34.545  16.772  -4.353  1.00 20.00     0.113 C 
HETATM    5  N8  UNL     1     -39.000  14.295  -3.936  1.00 20.00    -0.196 NA
HETATM    6  S9  UNL     1     -34.379  15.611  -5.741  1.00 20.00    -0.151 SA
HETATM    7  S10 UNL     1     -36.274  16.789  -3.771  1.00 20.00    -0.133 SA
ENDROOT
BRANCH   4   8
HETATM    8  C7  UNL     1     -33.626  16.359  -3.211  1.00 20.00     0.001 C 
HETATM    9  C5  UNL     1     -34.430  16.085  -1.940  1.00 20.00     0.011 C 
HETATM   10  C6  UNL     1     -32.803  15.130  -3.597  1.00 20.00     0.011 C 
ENDBRANCH   4   8
TORSDOF 1
ENDMDL
MODEL 8
REMARK VINA RESULT:      -3.6      2.059      2.660
REMARK  1 active torsions:
REMARK  status: ('A' for Active; 'I' for Inactive)
REMARK    1  A    between atoms: C4_4  and  C7_7 
ROOT
HETATM    1  C1  UNL     1     -35.898  14.721  -6.864  1.00 20.00     0.075 C 
HETATM    2  C2  UNL     1     -36.017  16.605  -5.279  1.00 20.00     0.105 C 
HETATM    3  C3  UNL     1     -36.347  15.141  -5.531  1.00 20.00     0.164 C 
HETATM    4  C4  UNL     1     -35.580  15.409  -2.906  1.00 20.00     0.113 C 
HETATM    5  N8  UNL     1     -35.544  14.390  -7.918  1.00 20.00    -0.196 NA
HETATM    6  S9  UNL     1     -36.353  16.930  -3.532  1.00 20.00    -0.151 SA
HETATM    7  S10 UNL     1     -35.544  14.151  -4.228  1.00 20.00    -0.133 SA
ENDROOT
BRANCH   4   8
HETATM    8  C7  UNL     1     -34.160  15.698  -2.437  1.00 20.00     0.001 C 
HETATM    9  C5  UNL     1     -33.142  15.265  -3.492  1.00 20.00     0.011 C 
HETATM   10  C6  UNL     1     -33.990  17.182  -2.110  1.00 20.00     0.011 C 
ENDBRANCH   4   8
TORSDOF 1
ENDMDL
MODEL 9
REMARK VINA RESULT:      -3.6      3.120      4.547
REMARK  1 active torsions:
REMARK  status: ('A' for Active; 'I' for Inactive)
REMARK    1  A    between atoms: C4_4  and  C7_7 
ROOT
HETATM    1  C1  UNL     1     -37.730  14.763  -3.812  1.00 20.00     0.075 C 
HETATM    2  C2  UNL     1     -36.325  16.672  -4.488  1.00 20.00     0.105 C 
HETATM    3  C3  UNL     1     -36.355  15.265  -3.907  1.00 20.00     0.164 C 
HETATM    4  C4  UNL     1     -34.167  15.466  -5.556  1.00 20.00     0.113 C 
HETATM    5  N8  UNL     1     -38.818  14.365  -3.738  1.00 20.00    -0.196 NA
HETATM    6  S9  UNL     1     -34.592  17.071  -4.816  1.00 20.00    -0.151 SA
HETATM    7  S10 UNL     1     -35.337  14.194  -4.975  1.00 20.00    -0.133 SA
ENDROOT
BRANCH   4   8
HETATM    8  C7  UNL     1     -34.224  15.559  -7.076  1.00 20.00     0.001 C 
HETATM    9  C5  UNL     1     -35.269  14.595  -7.638  1.00 20.00     0.011 C 
HETATM   10  C6  UNL     1     -34.527  16.990  -7.519  1.00 20.00     0.011 C 
ENDBRANCH   4   8
TORSDOF 1
ENDMDL
