MODEL 1
REMARK VINA RESULT:      -4.8      0.000      0.000
REMARK  1 active torsions:
REMARK  status: ('A' for Active; 'I' for Inactive)
REMARK    1  A    between atoms: C7_7  and  C11_11 
ROOT
HETATM    1  C1  UNL     1     -34.411  15.317  -6.223  1.00 20.00    -0.021 C 
HETATM    2  C2  UNL     1     -34.275  16.189  -5.203  1.00 20.00    -0.053 C 
HETATM    3  C3  UNL     1     -34.888  13.904  -6.002  1.00 20.00     0.034 C 
HETATM    4  C4  UNL     1     -35.806  14.728  -3.838  1.00 20.00     0.050 C 
HETATM    5  C5  UNL     1     -33.789  13.555  -3.724  1.00 20.00     0.174 C 
HETATM    6  C6  UNL     1     -35.102  13.564  -4.511  1.00 20.00     0.016 C 
HETATM    7  C7  UNL     1     -34.641  15.726  -3.795  1.00 20.00     0.087 C 
HETATM    8  C8  UNL     1     -33.715  17.562  -5.417  1.00 20.00     0.046 C 
HETATM    9  O12 UNL     1     -33.526  14.922  -3.334  1.00 20.00    -0.375 OA
ENDROOT
BRANCH   7  10
HETATM   10  C11 UNL     1     -34.908  16.839  -2.789  1.00 20.00     0.016 C 
HETATM   11  C9  UNL     1     -36.379  17.254  -2.820  1.00 20.00     0.013 C 
HETATM   12  C10 UNL     1     -34.504  16.404  -1.382  1.00 20.00     0.013 C 
ENDBRANCH   7  10
TORSDOF 1
ENDMDL
MODEL 2
REMARK VINA RESULT:      -4.7      1.330      2.591
REMARK  1 active torsions:
REMARK  status: ('A' for Active; 'I' for Inactive)
REMARK    1  A    between atoms: C7_7  and  C11_11 
ROOT
HETATM    1  C1  UNL     1     -34.823  13.621  -5.419  1.00 20.00    -0.021 C 
HETATM    2  C2  UNL     1     -34.687  14.799  -6.061  1.00 20.00    -0.053 C 
HETATM    3  C3  UNL     1     -34.721  13.517  -3.918  1.00 20.00     0.034 C 
HETATM    4  C4  UNL     1     -35.176  15.964  -3.882  1.00 20.00     0.050 C 
HETATM    5  C5  UNL     1     -32.948  15.326  -3.599  1.00 20.00     0.174 C 
HETATM    6  C6  UNL     1     -34.361  14.857  -3.242  1.00 20.00     0.016 C 
HETATM    7  C7  UNL     1     -34.447  16.058  -5.229  1.00 20.00     0.087 C 
HETATM    8  C8  UNL     1     -34.700  14.882  -7.557  1.00 20.00     0.046 C 
HETATM    9  O12 UNL     1     -33.047  16.032  -4.857  1.00 20.00    -0.375 OA
ENDROOT
BRANCH   7  10
HETATM   10  C11 UNL     1     -34.756  17.374  -5.933  1.00 20.00     0.016 C 
HETATM   11  C9  UNL     1     -36.076  17.958  -5.429  1.00 20.00     0.013 C 
HETATM   12  C10 UNL     1     -33.619  18.373  -5.733  1.00 20.00     0.013 C 
ENDBRANCH   7  10
TORSDOF 1
ENDMDL
MODEL 3
REMARK VINA RESULT:      -4.6      1.335      2.714
REMARK  1 active torsions:
REMARK  status: ('A' for Active; 'I' for Inactive)
REMARK    1  A    between atoms: C7_7  and  C11_11 
ROOT
HETATM    1  C1  UNL     1     -35.186  13.738  -3.997  1.00 20.00    -0.021 C 
HETATM    2  C2  UNL     1     -35.909  14.834  -3.691  1.00 20.00    -0.053 C 
HETATM    3  C3  UNL     1     -33.678  13.752  -3.989  1.00 20.00     0.034 C 
HETATM    4  C4  UNL     1     -33.869  15.780  -2.556  1.00 20.00     0.050 C 
HETATM    5  C5  UNL     1     -33.383  16.151  -4.810  1.00 20.00     0.174 C 
HETATM    6  C6  UNL     1     -33.088  15.147  -3.693  1.00 20.00     0.016 C 
HETATM    7  C7  UNL     1     -35.166  16.112  -3.306  1.00 20.00     0.087 C 
HETATM    8  C8  UNL     1     -37.404  14.839  -3.789  1.00 20.00     0.046 C 
HETATM    9  O12 UNL     1     -34.697  16.694  -4.548  1.00 20.00    -0.375 OA
ENDROOT
BRANCH   7  10
HETATM   10  C11 UNL     1     -35.991  17.144  -2.547  1.00 20.00     0.016 C 
HETATM   11  C9  UNL     1     -35.341  17.474  -1.203  1.00 20.00     0.013 C 
HETATM   12  C10 UNL     1     -36.169  18.411  -3.380  1.00 20.00     0.013 C 
ENDBRANCH   7  10
TORSDOF 1
ENDMDL
MODEL 4
REMARK VINA RESULT:      -4.6      1.442      2.397
REMARK  1 active torsions:
REMARK  status: ('A' for Active; 'I' for Inactive)
REMARK    1  A    between atoms: C7_7  and  C11_11 
ROOT
HETATM    1  C1  UNL     1     -34.818  14.075  -5.502  1.00 20.00    -0.021 C 
HETATM    2  C2  UNL     1     -34.294  14.498  -4.335  1.00 20.00    -0.053 C 
HETATM    3  C3  UNL     1     -36.009  14.753  -6.131  1.00 20.00     0.034 C 
HETATM    4  C4  UNL     1     -35.444  16.709  -4.697  1.00 20.00     0.050 C 
HETATM    5  C5  UNL     1     -37.204  15.363  -3.959  1.00 20.00     0.174 C 
HETATM    6  C6  UNL     1     -36.589  15.888  -5.259  1.00 20.00     0.016 C 
HETATM    7  C7  UNL     1     -34.919  15.714  -3.653  1.00 20.00     0.087 C 
HETATM    8  C8  UNL     1     -33.169  13.765  -3.670  1.00 20.00     0.046 C 
HETATM    9  O12 UNL     1     -36.124  15.236  -3.007  1.00 20.00    -0.375 OA
ENDROOT
BRANCH   7  10
HETATM   10  C11 UNL     1     -34.038  16.410  -2.623  1.00 20.00     0.016 C 
HETATM   11  C9  UNL     1     -33.753  17.852  -3.043  1.00 20.00     0.013 C 
HETATM   12  C10 UNL     1     -34.690  16.374  -1.243  1.00 20.00     0.013 C 
ENDBRANCH   7  10
TORSDOF 1
ENDMDL
MODEL 5
REMARK VINA RESULT:      -4.6      1.552      3.179
REMARK  1 active torsions:
REMARK  status: ('A' for Active; 'I' for Inactive)
REMARK    1  A    between atoms: C7_7  and  C11_11 
ROOT
HETATM    1  C1  UNL     1     -34.757  14.862  -6.980  1.00 20.00    -0.021 C 
HETATM    2  C2  UNL     1     -34.643  14.567  -5.669  1.00 20.00    -0.053 C 
HETATM    3  C3  UNL     1     -34.590  16.269  -7.495  1.00 20.00     0.034 C 
HETATM    4  C4  UNL     1     -33.399  16.735  -5.359  1.00 20.00     0.050 C 
HETATM    5  C5  UNL     1     -35.614  17.463  -5.483  1.00 20.00     0.174 C 
HETATM    6  C6  UNL     1     -34.376  17.304  -6.370  1.00 20.00     0.016 C 
HETATM    7  C7  UNL     1     -34.312  15.696  -4.695  1.00 20.00     0.087 C 
HETATM    8  C8  UNL     1     -34.899  13.184  -5.153  1.00 20.00     0.046 C 
HETATM    9  O12 UNL     1     -35.549  16.420  -4.484  1.00 20.00    -0.375 OA
ENDROOT
BRANCH   7  10
HETATM   10  C11 UNL     1     -33.753  15.253  -3.348  1.00 20.00     0.016 C 
HETATM   11  C9  UNL     1     -32.293  14.822  -3.484  1.00 20.00     0.013 C 
HETATM   12  C10 UNL     1     -33.887  16.369  -2.314  1.00 20.00     0.013 C 
ENDBRANCH   7  10
TORSDOF 1
ENDMDL
MODEL 6
REMARK VINA RESULT:      -4.6      1.380      2.869
REMARK  1 active torsions:
REMARK  status: ('A' for Active; 'I' for Inactive)
REMARK    1  A    between atoms: C7_7  and  C11_11 
ROOT
HETATM    1  C1  UNL     1     -34.315  14.042  -3.435  1.00 20.00    -0.021 C 
HETATM    2  C2  UNL     1     -34.471  15.374  -3.297  1.00 20.00    -0.053 C 
HETATM    3  C3  UNL     1     -34.418  13.365  -4.779  1.00 20.00     0.034 C 
HETATM    4  C4  UNL     1     -34.009  15.617  -5.760  1.00 20.00     0.050 C 
HETATM    5  C5  UNL     1     -36.226  14.882  -5.755  1.00 20.00     0.174 C 
HETATM    6  C6  UNL     1     -34.805  14.335  -5.917  1.00 20.00     0.016 C 
HETATM    7  C7  UNL     1     -34.737  16.211  -4.547  1.00 20.00     0.087 C 
HETATM    8  C8  UNL     1     -34.458  16.028  -1.949  1.00 20.00     0.046 C 
HETATM    9  O12 UNL     1     -36.138  16.019  -4.867  1.00 20.00    -0.375 OA
ENDROOT
BRANCH   7  10
HETATM   10  C11 UNL     1     -34.452  17.701  -4.409  1.00 20.00     0.016 C 
HETATM   11  C9  UNL     1     -33.564  18.189  -5.553  1.00 20.00     0.013 C 
HETATM   12  C10 UNL     1     -35.754  18.498  -4.365  1.00 20.00     0.013 C 
ENDBRANCH   7  10
TORSDOF 1
ENDMDL
MODEL 7
REMARK VINA RESULT:      -4.5      1.763      3.158
REMARK  1 active torsions:
REMARK  status: ('A' for Active; 'I' for Inactive)
REMARK    1  A    between atoms: C7_7  and  C11_11 
ROOT
HETATM    1  C1  UNL     1     -33.153  15.243  -3.780  1.00 20.00    -0.021 C 
HETATM    2  C2  UNL     1     -33.777  16.000  -4.704  1.00 20.00    -0.053 C 
HETATM    3  C3  UNL     1     -33.605  13.839  -3.465  1.00 20.00     0.034 C 
HETATM    4  C4  UNL     1     -34.756  13.891  -5.673  1.00 20.00     0.050 C 
HETATM    5  C5  UNL     1     -36.106  14.233  -3.798  1.00 20.00     0.174 C 
HETATM    6  C6  UNL     1     -34.879  13.427  -4.234  1.00 20.00     0.016 C 
HETATM    7  C7  UNL     1     -34.959  15.397  -5.463  1.00 20.00     0.087 C 
HETATM    8  C8  UNL     1     -33.381  17.424  -4.948  1.00 20.00     0.046 C 
HETATM    9  O12 UNL     1     -36.090  15.462  -4.559  1.00 20.00    -0.375 OA
ENDROOT
BRANCH   7  10
HETATM   10  C11 UNL     1     -35.319  16.092  -6.770  1.00 20.00     0.016 C 
HETATM   11  C9  UNL     1     -35.384  15.084  -7.917  1.00 20.00     0.013 C 
HETATM   12  C10 UNL     1     -36.645  16.838  -6.637  1.00 20.00     0.013 C 
ENDBRANCH   7  10
TORSDOF 1
ENDMDL
MODEL 8
REMARK VINA RESULT:      -4.5      1.457      3.882
REMARK  1 active torsions:
REMARK  status: ('A' for Active; 'I' for Inactive)
REMARK    1  A    between atoms: C7_7  and  C11_11 
ROOT
HETATM    1  C1  UNL     1     -33.720  15.948  -2.645  1.00 20.00    -0.021 C 
HETATM    2  C2  UNL     1     -33.928  15.187  -3.738  1.00 20.00    -0.053 C 
HETATM    3  C3  UNL     1     -34.067  17.415  -2.620  1.00 20.00     0.034 C 
HETATM    4  C4  UNL     1     -35.554  16.927  -4.557  1.00 20.00     0.050 C 
HETATM    5  C5  UNL     1     -33.497  17.913  -5.059  1.00 20.00     0.174 C 
HETATM    6  C6  UNL     1     -34.582  17.938  -3.978  1.00 20.00     0.016 C 
HETATM    7  C7  UNL     1     -34.557  15.837  -4.969  1.00 20.00     0.087 C 
HETATM    8  C8  UNL     1     -33.498  13.752  -3.787  1.00 20.00     0.046 C 
HETATM    9  O12 UNL     1     -33.494  16.579  -5.617  1.00 20.00    -0.375 OA
ENDROOT
BRANCH   7  10
HETATM   10  C11 UNL     1     -35.179  14.872  -5.972  1.00 20.00     0.016 C 
HETATM   11  C9  UNL     1     -36.672  15.155  -6.138  1.00 20.00     0.013 C 
HETATM   12  C10 UNL     1     -34.465  14.959  -7.319  1.00 20.00     0.013 C 
ENDBRANCH   7  10
TORSDOF 1
ENDMDL
MODEL 9
REMARK VINA RESULT:      -4.5      1.133      3.431
REMARK  1 active torsions:
REMARK  status: ('A' for Active; 'I' for Inactive)
REMARK    1  A    between atoms: C7_7  and  C11_11 
ROOT
HETATM    1  C1  UNL     1     -35.532  17.904  -3.146  1.00 20.00    -0.021 C 
HETATM    2  C2  UNL     1     -34.975  16.727  -2.796  1.00 20.00    -0.053 C 
HETATM    3  C3  UNL     1     -35.722  18.295  -4.590  1.00 20.00     0.034 C 
HETATM    4  C4  UNL     1     -35.498  15.869  -5.105  1.00 20.00     0.050 C 
HETATM    5  C5  UNL     1     -33.608  17.184  -5.495  1.00 20.00     0.174 C 
HETATM    6  C6  UNL     1     -35.135  17.264  -5.578  1.00 20.00     0.016 C 
HETATM    7  C7  UNL     1     -34.550  15.764  -3.903  1.00 20.00     0.087 C 
HETATM    8  C8  UNL     1     -34.706  16.384  -1.362  1.00 20.00     0.046 C 
HETATM    9  O12 UNL     1     -33.295  16.273  -4.418  1.00 20.00    -0.375 OA
ENDROOT
BRANCH   7  10
HETATM   10  C11 UNL     1     -34.366  14.314  -3.471  1.00 20.00     0.016 C 
HETATM   11  C9  UNL     1     -35.240  13.385  -4.314  1.00 20.00     0.013 C 
HETATM   12  C10 UNL     1     -32.898  13.903  -3.572  1.00 20.00     0.013 C 
ENDBRANCH   7  10
TORSDOF 1
ENDMDL
