MODEL 1
REMARK VINA RESULT:      -5.0      0.000      0.000
REMARK  0 active torsions:
REMARK  status: ('A' for Active; 'I' for Inactive)
ROOT
HETATM    1  C1  UNL     1     -35.359  15.947  -2.600  1.00 20.00    -0.028 C 
HETATM    2  C2  UNL     1     -35.957  15.430  -3.688  1.00 20.00     0.003 C 
HETATM    3  C3  UNL     1     -34.532  13.627  -4.374  1.00 20.00     0.154 C 
HETATM    4  C4  UNL     1     -33.856  16.041  -2.493  1.00 20.00     0.032 C 
HETATM    5  C5  UNL     1     -33.199  13.859  -3.685  1.00 20.00     0.085 C 
HETATM    6  C6  UNL     1     -33.836  15.767  -4.990  1.00 20.00     0.043 C 
HETATM    7  C7  UNL     1     -33.106  15.401  -3.691  1.00 20.00    -0.002 C 
HETATM    8  C8  UNL     1     -35.122  14.943  -4.838  1.00 20.00     0.115 C 
HETATM    9  O9  UNL     1     -35.054  12.527  -4.491  1.00 20.00    -0.295 OA
HETATM   10 CL10 UNL     1     -36.006  14.776  -6.338  1.00 20.00    -0.106 Cl
ENDROOT
TORSDOF 0
ENDMDL
MODEL 2
REMARK VINA RESULT:      -4.5      1.916      3.005
REMARK  0 active torsions:
REMARK  status: ('A' for Active; 'I' for Inactive)
ROOT
HETATM    1  C1  UNL     1     -33.661  16.218  -6.008  1.00 20.00    -0.028 C 
HETATM    2  C2  UNL     1     -33.496  16.166  -4.674  1.00 20.00     0.003 C 
HETATM    3  C3  UNL     1     -33.993  13.895  -4.082  1.00 20.00     0.154 C 
HETATM    4  C4  UNL     1     -34.754  15.439  -6.700  1.00 20.00     0.032 C 
HETATM    5  C5  UNL     1     -34.748  13.309  -5.261  1.00 20.00     0.085 C 
HETATM    6  C6  UNL     1     -35.835  15.281  -4.438  1.00 20.00     0.043 C 
HETATM    7  C7  UNL     1     -35.567  14.526  -5.747  1.00 20.00    -0.002 C 
HETATM    8  C8  UNL     1     -34.423  15.327  -3.840  1.00 20.00     0.115 C 
HETATM    9  O9  UNL     1     -33.134  13.289  -3.457  1.00 20.00    -0.295 OA
HETATM   10 CL10 UNL     1     -34.416  15.738  -2.139  1.00 20.00    -0.106 Cl
ENDROOT
TORSDOF 0
ENDMDL
MODEL 3
REMARK VINA RESULT:      -4.5      2.003      2.757
REMARK  0 active torsions:
REMARK  status: ('A' for Active; 'I' for Inactive)
ROOT
HETATM    1  C1  UNL     1     -34.866  13.386  -4.179  1.00 20.00    -0.028 C 
HETATM    2  C2  UNL     1     -35.859  14.290  -4.114  1.00 20.00     0.003 C 
HETATM    3  C3  UNL     1     -34.853  16.358  -4.797  1.00 20.00     0.154 C 
HETATM    4  C4  UNL     1     -33.448  13.740  -3.800  1.00 20.00     0.032 C 
HETATM    5  C5  UNL     1     -33.353  16.154  -4.681  1.00 20.00     0.085 C 
HETATM    6  C6  UNL     1     -34.446  15.705  -2.594  1.00 20.00     0.043 C 
HETATM    7  C7  UNL     1     -33.255  15.236  -3.441  1.00 20.00    -0.002 C 
HETATM    8  C8  UNL     1     -35.567  15.687  -3.641  1.00 20.00     0.115 C 
HETATM    9  O9  UNL     1     -35.388  16.951  -5.724  1.00 20.00    -0.295 OA
HETATM   10 CL10 UNL     1     -36.986  16.577  -3.138  1.00 20.00    -0.106 Cl
ENDROOT
TORSDOF 0
ENDMDL
MODEL 4
REMARK VINA RESULT:      -4.5      1.604      2.446
REMARK  0 active torsions:
REMARK  status: ('A' for Active; 'I' for Inactive)
ROOT
HETATM    1  C1  UNL     1     -33.187  16.178  -4.713  1.00 20.00    -0.028 C 
HETATM    2  C2  UNL     1     -33.924  15.930  -5.810  1.00 20.00     0.003 C 
HETATM    3  C3  UNL     1     -36.062  15.238  -4.971  1.00 20.00     0.154 C 
HETATM    4  C4  UNL     1     -33.314  15.334  -3.468  1.00 20.00     0.032 C 
HETATM    5  C5  UNL     1     -35.842  14.866  -3.516  1.00 20.00     0.085 C 
HETATM    6  C6  UNL     1     -34.387  13.615  -4.953  1.00 20.00     0.043 C 
HETATM    7  C7  UNL     1     -34.424  14.254  -3.559  1.00 20.00    -0.002 C 
HETATM    8  C8  UNL     1     -34.891  14.779  -5.816  1.00 20.00     0.115 C 
HETATM    9  O9  UNL     1     -37.038  15.857  -5.374  1.00 20.00    -0.295 OA
HETATM   10 CL10 UNL     1     -35.389  14.278  -7.416  1.00 20.00    -0.106 Cl
ENDROOT
TORSDOF 0
ENDMDL
MODEL 5
REMARK VINA RESULT:      -4.5      2.132      2.984
REMARK  0 active torsions:
REMARK  status: ('A' for Active; 'I' for Inactive)
ROOT
HETATM    1  C1  UNL     1     -35.077  13.979  -5.917  1.00 20.00    -0.028 C 
HETATM    2  C2  UNL     1     -35.361  15.291  -5.835  1.00 20.00     0.003 C 
HETATM    3  C3  UNL     1     -33.628  16.209  -4.454  1.00 20.00     0.154 C 
HETATM    4  C4  UNL     1     -34.513  13.217  -4.741  1.00 20.00     0.032 C 
HETATM    5  C5  UNL     1     -32.994  15.031  -3.736  1.00 20.00     0.085 C 
HETATM    6  C6  UNL     1     -35.355  15.117  -3.329  1.00 20.00     0.043 C 
HETATM    7  C7  UNL     1     -34.212  14.109  -3.509  1.00 20.00    -0.002 C 
HETATM    8  C8  UNL     1     -35.129  16.026  -4.544  1.00 20.00     0.115 C 
HETATM    9  O9  UNL     1     -32.990  17.144  -4.919  1.00 20.00    -0.295 OA
HETATM   10 CL10 UNL     1     -35.986  17.546  -4.428  1.00 20.00    -0.106 Cl
ENDROOT
TORSDOF 0
ENDMDL
MODEL 6
REMARK VINA RESULT:      -4.4      1.732      2.731
REMARK  0 active torsions:
REMARK  status: ('A' for Active; 'I' for Inactive)
ROOT
HETATM    1  C1  UNL     1     -34.696  16.459  -5.494  1.00 20.00    -0.028 C 
HETATM    2  C2  UNL     1     -33.784  15.523  -5.175  1.00 20.00     0.003 C 
HETATM    3  C3  UNL     1     -35.061  13.698  -4.287  1.00 20.00     0.154 C 
HETATM    4  C4  UNL     1     -35.922  16.690  -4.643  1.00 20.00     0.032 C 
HETATM    5  C5  UNL     1     -36.425  14.268  -3.939  1.00 20.00     0.085 C 
HETATM    6  C6  UNL     1     -34.678  15.477  -2.828  1.00 20.00     0.043 C 
HETATM    7  C7  UNL     1     -36.058  15.691  -3.464  1.00 20.00    -0.002 C 
HETATM    8  C8  UNL     1     -33.970  14.690  -3.939  1.00 20.00     0.115 C 
HETATM    9  O9  UNL     1     -34.896  12.604  -4.810  1.00 20.00    -0.295 OA
HETATM   10 CL10 UNL     1     -32.511  13.897  -3.390  1.00 20.00    -0.106 Cl
ENDROOT
TORSDOF 0
ENDMDL
MODEL 7
REMARK VINA RESULT:      -4.4     11.527     12.355
REMARK  0 active torsions:
REMARK  status: ('A' for Active; 'I' for Inactive)
ROOT
HETATM    1  C1  UNL     1     -43.204   5.545   0.365  1.00 20.00    -0.028 C 
HETATM    2  C2  UNL     1     -43.417   6.378  -0.669  1.00 20.00     0.003 C 
HETATM    3  C3  UNL     1     -42.491   5.247  -2.570  1.00 20.00     0.154 C 
HETATM    4  C4  UNL     1     -41.942   4.722   0.470  1.00 20.00     0.032 C 
HETATM    5  C5  UNL     1     -41.576   4.171  -2.015  1.00 20.00     0.085 C 
HETATM    6  C6  UNL     1     -40.960   6.335  -1.187  1.00 20.00     0.043 C 
HETATM    7  C7  UNL     1     -41.004   4.863  -0.757  1.00 20.00    -0.002 C 
HETATM    8  C8  UNL     1     -42.378   6.513  -1.746  1.00 20.00     0.115 C 
HETATM    9  O9  UNL     1     -43.236   5.079  -3.527  1.00 20.00    -0.295 OA
HETATM   10 CL10 UNL     1     -42.551   7.953  -2.723  1.00 20.00    -0.106 Cl
ENDROOT
TORSDOF 0
ENDMDL
MODEL 8
REMARK VINA RESULT:      -4.4      1.427      1.867
REMARK  0 active torsions:
REMARK  status: ('A' for Active; 'I' for Inactive)
ROOT
HETATM    1  C1  UNL     1     -33.841  15.979  -3.048  1.00 20.00    -0.028 C 
HETATM    2  C2  UNL     1     -35.027  15.382  -2.841  1.00 20.00     0.003 C 
HETATM    3  C3  UNL     1     -35.267  13.841  -4.663  1.00 20.00     0.154 C 
HETATM    4  C4  UNL     1     -33.357  16.315  -4.439  1.00 20.00     0.032 C 
HETATM    5  C5  UNL     1     -34.269  14.280  -5.719  1.00 20.00     0.085 C 
HETATM    6  C6  UNL     1     -35.756  16.071  -5.144  1.00 20.00     0.043 C 
HETATM    7  C7  UNL     1     -34.302  15.817  -5.563  1.00 20.00    -0.002 C 
HETATM    8  C8  UNL     1     -35.910  15.048  -4.011  1.00 20.00     0.115 C 
HETATM    9  O9  UNL     1     -35.477  12.671  -4.371  1.00 20.00    -0.295 OA
HETATM   10 CL10 UNL     1     -37.579  14.752  -3.580  1.00 20.00    -0.106 Cl
ENDROOT
TORSDOF 0
ENDMDL
MODEL 9
REMARK VINA RESULT:      -4.4      1.944      2.780
REMARK  0 active torsions:
REMARK  status: ('A' for Active; 'I' for Inactive)
ROOT
HETATM    1  C1  UNL     1     -32.875  15.010  -3.729  1.00 20.00    -0.028 C 
HETATM    2  C2  UNL     1     -33.300  16.017  -4.512  1.00 20.00     0.003 C 
HETATM    3  C3  UNL     1     -35.691  15.833  -4.509  1.00 20.00     0.154 C 
HETATM    4  C4  UNL     1     -33.567  13.667  -3.725  1.00 20.00     0.032 C 
HETATM    5  C5  UNL     1     -36.004  14.433  -4.013  1.00 20.00     0.085 C 
HETATM    6  C6  UNL     1     -34.559  14.365  -5.925  1.00 20.00     0.043 C 
HETATM    7  C7  UNL     1     -34.837  13.618  -4.613  1.00 20.00    -0.002 C 
HETATM    8  C8  UNL     1     -34.481  15.812  -5.419  1.00 20.00     0.115 C 
HETATM    9  O9  UNL     1     -36.320  16.828  -4.174  1.00 20.00    -0.295 OA
HETATM   10 CL10 UNL     1     -34.603  16.992  -6.704  1.00 20.00    -0.106 Cl
ENDROOT
TORSDOF 0
ENDMDL
