MODEL 1
REMARK VINA RESULT:      -3.6      0.000      0.000
REMARK  1 active torsions:
REMARK  status: ('A' for Active; 'I' for Inactive)
REMARK    1  A    between atoms: C7_7  and  N8_8 
ROOT
HETATM    1  C1  UNL     1     -34.184  16.885  -2.613  1.00 20.00     0.137 C 
HETATM    2  C2  UNL     1     -33.526  16.263  -4.841  1.00 20.00     0.140 C 
HETATM    3  C3  UNL     1     -33.720  17.759  -5.038  1.00 20.00     0.068 C 
HETATM    4  C4  UNL     1     -35.056  18.097  -5.688  1.00 20.00     0.023 C 
HETATM    5  N8  UNL     1     -34.106  15.876  -3.563  1.00 20.00    -0.361 N 
HETATM    6  S9  UNL     1     -34.668  16.783  -1.019  1.00 20.00    -0.053 SA
HETATM    7  S10 UNL     1     -33.671  18.410  -3.344  1.00 20.00    -0.095 SA
ENDROOT
BRANCH   5   8
HETATM    8  C7  UNL     1     -34.377  14.461  -3.343  1.00 20.00     0.077 C 
HETATM    9  C5  UNL     1     -33.151  13.651  -3.737  1.00 20.00     0.032 C 
HETATM   10  C6  UNL     1     -35.601  14.063  -4.156  1.00 20.00     0.032 C 
ENDBRANCH   5   8
TORSDOF 1
ENDMDL
MODEL 2
REMARK VINA RESULT:      -3.6      1.565      3.034
REMARK  1 active torsions:
REMARK  status: ('A' for Active; 'I' for Inactive)
REMARK    1  A    between atoms: C7_7  and  N8_8 
ROOT
HETATM    1  C1  UNL     1     -34.514  17.236  -4.384  1.00 20.00     0.137 C 
HETATM    2  C2  UNL     1     -35.524  15.549  -3.000  1.00 20.00     0.140 C 
HETATM    3  C3  UNL     1     -35.585  16.734  -2.048  1.00 20.00     0.068 C 
HETATM    4  C4  UNL     1     -34.474  16.709  -1.007  1.00 20.00     0.023 C 
HETATM    5  N8  UNL     1     -34.644  15.881  -4.111  1.00 20.00    -0.361 N 
HETATM    6  S9  UNL     1     -33.702  17.974  -5.642  1.00 20.00    -0.053 SA
HETATM    7  S10 UNL     1     -35.376  18.162  -3.150  1.00 20.00    -0.095 SA
ENDROOT
BRANCH   5   8
HETATM    8  C7  UNL     1     -34.137  14.785  -4.926  1.00 20.00     0.077 C 
HETATM    9  C5  UNL     1     -35.199  14.384  -5.939  1.00 20.00     0.032 C 
HETATM   10  C6  UNL     1     -33.763  13.626  -4.013  1.00 20.00     0.032 C 
ENDBRANCH   5   8
TORSDOF 1
ENDMDL
MODEL 3
REMARK VINA RESULT:      -3.6      2.658      3.104
REMARK  1 active torsions:
REMARK  status: ('A' for Active; 'I' for Inactive)
REMARK    1  A    between atoms: C7_7  and  N8_8 
ROOT
HETATM    1  C1  UNL     1     -36.571  15.492  -4.835  1.00 20.00     0.137 C 
HETATM    2  C2  UNL     1     -34.305  15.964  -5.485  1.00 20.00     0.140 C 
HETATM    3  C3  UNL     1     -34.993  16.102  -6.834  1.00 20.00     0.068 C 
HETATM    4  C4  UNL     1     -34.828  14.864  -7.708  1.00 20.00     0.023 C 
HETATM    5  N8  UNL     1     -35.222  15.331  -4.549  1.00 20.00    -0.361 N 
HETATM    6  S9  UNL     1     -37.893  15.020  -3.931  1.00 20.00    -0.053 SA
HETATM    7  S10 UNL     1     -36.740  16.319  -6.387  1.00 20.00    -0.095 SA
ENDROOT
BRANCH   5   8
HETATM    8  C7  UNL     1     -34.660  14.757  -3.333  1.00 20.00     0.077 C 
HETATM    9  C5  UNL     1     -34.256  15.880  -2.391  1.00 20.00     0.032 C 
HETATM   10  C6  UNL     1     -33.474  13.879  -3.706  1.00 20.00     0.032 C 
ENDBRANCH   5   8
TORSDOF 1
ENDMDL
MODEL 4
REMARK VINA RESULT:      -3.5      2.105      3.660
REMARK  1 active torsions:
REMARK  status: ('A' for Active; 'I' for Inactive)
REMARK    1  A    between atoms: C7_7  and  N8_8 
ROOT
HETATM    1  C1  UNL     1     -35.020  16.725  -4.807  1.00 20.00     0.137 C 
HETATM    2  C2  UNL     1     -33.645  15.354  -3.390  1.00 20.00     0.140 C 
HETATM    3  C3  UNL     1     -33.919  14.368  -4.514  1.00 20.00     0.068 C 
HETATM    4  C4  UNL     1     -35.015  13.368  -4.165  1.00 20.00     0.023 C 
HETATM    5  N8  UNL     1     -34.549  16.486  -3.523  1.00 20.00    -0.361 N 
HETATM    6  S9  UNL     1     -35.961  17.991  -5.354  1.00 20.00    -0.053 SA
HETATM    7  S10 UNL     1     -34.463  15.436  -5.879  1.00 20.00    -0.095 SA
ENDROOT
BRANCH   5   8
HETATM    8  C7  UNL     1     -34.731  17.349  -2.362  1.00 20.00     0.077 C 
HETATM    9  C5  UNL     1     -33.665  18.435  -2.377  1.00 20.00     0.032 C 
HETATM   10  C6  UNL     1     -34.654  16.500  -1.102  1.00 20.00     0.032 C 
ENDBRANCH   5   8
TORSDOF 1
ENDMDL
MODEL 5
REMARK VINA RESULT:      -3.5      1.971      2.646
REMARK  1 active torsions:
REMARK  status: ('A' for Active; 'I' for Inactive)
REMARK    1  A    between atoms: C7_7  and  N8_8 
ROOT
HETATM    1  C1  UNL     1     -35.507  16.313  -2.493  1.00 20.00     0.137 C 
HETATM    2  C2  UNL     1     -36.166  15.350  -4.595  1.00 20.00     0.140 C 
HETATM    3  C3  UNL     1     -37.454  16.071  -4.228  1.00 20.00     0.068 C 
HETATM    4  C4  UNL     1     -38.504  15.137  -3.641  1.00 20.00     0.023 C 
HETATM    5  N8  UNL     1     -35.298  15.308  -3.428  1.00 20.00    -0.361 N 
HETATM    6  S9  UNL     1     -34.633  16.652  -1.112  1.00 20.00    -0.053 SA
HETATM    7  S10 UNL     1     -36.914  17.268  -2.973  1.00 20.00    -0.095 SA
ENDROOT
BRANCH   5   8
HETATM    8  C7  UNL     1     -34.201  14.349  -3.432  1.00 20.00     0.077 C 
HETATM    9  C5  UNL     1     -32.910  15.070  -3.787  1.00 20.00     0.032 C 
HETATM   10  C6  UNL     1     -34.520  13.242  -4.427  1.00 20.00     0.032 C 
ENDBRANCH   5   8
TORSDOF 1
ENDMDL
MODEL 6
REMARK VINA RESULT:      -3.5      2.054      3.704
REMARK  1 active torsions:
REMARK  status: ('A' for Active; 'I' for Inactive)
REMARK    1  A    between atoms: C7_7  and  N8_8 
ROOT
HETATM    1  C1  UNL     1     -34.258  16.709  -4.725  1.00 20.00     0.137 C 
HETATM    2  C2  UNL     1     -35.443  14.633  -4.472  1.00 20.00     0.140 C 
HETATM    3  C3  UNL     1     -34.437  14.495  -3.340  1.00 20.00     0.068 C 
HETATM    4  C4  UNL     1     -33.257  13.603  -3.707  1.00 20.00     0.023 C 
HETATM    5  N8  UNL     1     -35.038  15.734  -5.332  1.00 20.00    -0.361 N 
HETATM    6  S9  UNL     1     -33.720  18.158  -5.356  1.00 20.00    -0.053 SA
HETATM    7  S10 UNL     1     -33.871  16.200  -3.078  1.00 20.00    -0.095 SA
ENDROOT
BRANCH   5   8
HETATM    8  C7  UNL     1     -35.621  15.803  -6.666  1.00 20.00     0.077 C 
HETATM    9  C5  UNL     1     -37.095  15.436  -6.585  1.00 20.00     0.032 C 
HETATM   10  C6  UNL     1     -34.856  14.862  -7.586  1.00 20.00     0.032 C 
ENDBRANCH   5   8
TORSDOF 1
ENDMDL
MODEL 7
REMARK VINA RESULT:      -3.5      2.349      3.061
REMARK  1 active torsions:
REMARK  status: ('A' for Active; 'I' for Inactive)
REMARK    1  A    between atoms: C7_7  and  N8_8 
ROOT
HETATM    1  C1  UNL     1     -34.138  16.783  -5.752  1.00 20.00     0.137 C 
HETATM    2  C2  UNL     1     -34.618  14.439  -5.985  1.00 20.00     0.140 C 
HETATM    3  C3  UNL     1     -35.436  14.986  -7.145  1.00 20.00     0.068 C 
HETATM    4  C4  UNL     1     -36.918  15.104  -6.815  1.00 20.00     0.023 C 
HETATM    5  N8  UNL     1     -34.213  15.545  -5.130  1.00 20.00    -0.361 N 
HETATM    6  S9  UNL     1     -33.597  18.234  -5.128  1.00 20.00    -0.053 SA
HETATM    7  S10 UNL     1     -34.724  16.635  -7.413  1.00 20.00    -0.095 SA
ENDROOT
BRANCH   5   8
HETATM    8  C7  UNL     1     -33.763  15.229  -3.780  1.00 20.00     0.077 C 
HETATM    9  C5  UNL     1     -33.347  13.767  -3.723  1.00 20.00     0.032 C 
HETATM   10  C6  UNL     1     -34.890  15.533  -2.803  1.00 20.00     0.032 C 
ENDBRANCH   5   8
TORSDOF 1
ENDMDL
MODEL 8
REMARK VINA RESULT:      -3.4      2.594      3.625
REMARK  1 active torsions:
REMARK  status: ('A' for Active; 'I' for Inactive)
REMARK    1  A    between atoms: C7_7  and  N8_8 
ROOT
HETATM    1  C1  UNL     1     -34.835  14.765  -4.061  1.00 20.00     0.137 C 
HETATM    2  C2  UNL     1     -35.963  16.754  -3.317  1.00 20.00     0.140 C 
HETATM    3  C3  UNL     1     -34.650  16.908  -2.567  1.00 20.00     0.068 C 
HETATM    4  C4  UNL     1     -34.754  16.484  -1.107  1.00 20.00     0.023 C 
HETATM    5  N8  UNL     1     -36.051  15.401  -3.845  1.00 20.00    -0.361 N 
HETATM    6  S9  UNL     1     -34.544  13.279  -4.763  1.00 20.00    -0.053 SA
HETATM    7  S10 UNL     1     -33.529  15.793  -3.461  1.00 20.00    -0.095 SA
ENDROOT
BRANCH   5   8
HETATM    8  C7  UNL     1     -37.362  14.916  -4.257  1.00 20.00     0.077 C 
HETATM    9  C5  UNL     1     -37.624  15.345  -5.692  1.00 20.00     0.032 C 
HETATM   10  C6  UNL     1     -38.411  15.468  -3.302  1.00 20.00     0.032 C 
ENDBRANCH   5   8
TORSDOF 1
ENDMDL
MODEL 9
REMARK VINA RESULT:      -3.4      2.321      3.383
REMARK  1 active torsions:
REMARK  status: ('A' for Active; 'I' for Inactive)
REMARK    1  A    between atoms: C7_7  and  N8_8 
ROOT
HETATM    1  C1  UNL     1     -34.932  15.403  -3.053  1.00 20.00     0.137 C 
HETATM    2  C2  UNL     1     -36.089  14.230  -4.804  1.00 20.00     0.140 C 
HETATM    3  C3  UNL     1     -34.657  14.071  -5.291  1.00 20.00     0.068 C 
HETATM    4  C4  UNL     1     -34.299  15.059  -6.394  1.00 20.00     0.023 C 
HETATM    5  N8  UNL     1     -36.122  15.231  -3.749  1.00 20.00    -0.361 N 
HETATM    6  S9  UNL     1     -34.633  16.358  -1.717  1.00 20.00    -0.053 SA
HETATM    7  S10 UNL     1     -33.673  14.416  -3.804  1.00 20.00    -0.095 SA
ENDROOT
BRANCH   5   8
HETATM    8  C7  UNL     1     -37.412  15.817  -3.409  1.00 20.00     0.077 C 
HETATM    9  C5  UNL     1     -38.518  14.849  -3.802  1.00 20.00     0.032 C 
HETATM   10  C6  UNL     1     -37.550  17.152  -4.126  1.00 20.00     0.032 C 
ENDBRANCH   5   8
TORSDOF 1
ENDMDL
