MODEL 1
REMARK VINA RESULT:      -5.5      0.000      0.000
REMARK  1 active torsions:
REMARK  status: ('A' for Active; 'I' for Inactive)
REMARK    1  A    between atoms: C7_7  and  C10_10 
ROOT
HETATM    1  C1  UNL     1     -34.662   4.851   6.066  1.00 20.00    -0.004 C 
HETATM    2  C2  UNL     1     -33.859   6.037   6.250  1.00 20.00    -0.004 C 
HETATM    3  C3  UNL     1     -35.432   4.539   5.014  1.00 20.00    -0.019 C 
HETATM    4  C4  UNL     1     -33.384   6.901   5.340  1.00 20.00    -0.014 C 
HETATM    5  C5  UNL     1     -34.168   5.666   3.271  1.00 20.00     0.138 C 
HETATM    6  C6  UNL     1     -35.560   5.332   3.758  1.00 20.00     0.106 C 
HETATM    7  C7  UNL     1     -33.525   6.930   3.841  1.00 20.00     0.081 C 
HETATM    8  O11 UNL     1     -33.587   4.926   2.476  1.00 20.00    -0.297 OA
ENDROOT
BRANCH   7   9
HETATM    9  C10 UNL     1     -32.163   7.178   3.190  1.00 20.00    -0.008 C 
HETATM   10  C8  UNL     1     -32.299   8.162   2.031  1.00 20.00     0.010 C 
HETATM   11  C9  UNL     1     -31.163   7.692   4.220  1.00 20.00     0.010 C 
ENDBRANCH   7   9
TORSDOF 1
ENDMDL
MODEL 2
REMARK VINA RESULT:      -4.8     11.606     12.775
REMARK  1 active torsions:
REMARK  status: ('A' for Active; 'I' for Inactive)
REMARK    1  A    between atoms: C7_7  and  C10_10 
ROOT
HETATM    1  C1  UNL     1     -34.379  15.211  -6.321  1.00 20.00    -0.004 C 
HETATM    2  C2  UNL     1     -33.720  16.133  -5.425  1.00 20.00    -0.004 C 
HETATM    3  C3  UNL     1     -34.931  14.028  -6.016  1.00 20.00    -0.019 C 
HETATM    4  C4  UNL     1     -33.811  16.247  -4.091  1.00 20.00    -0.014 C 
HETATM    5  C5  UNL     1     -35.617  14.505  -3.735  1.00 20.00     0.138 C 
HETATM    6  C6  UNL     1     -35.050  13.445  -4.650  1.00 20.00     0.106 C 
HETATM    7  C7  UNL     1     -34.616  15.463  -3.089  1.00 20.00     0.081 C 
HETATM    8  O11 UNL     1     -36.833  14.596  -3.556  1.00 20.00    -0.297 OA
ENDROOT
BRANCH   7   9
HETATM    9  C10 UNL     1     -35.331  16.416  -2.128  1.00 20.00    -0.008 C 
HETATM   10  C8  UNL     1     -34.493  16.629  -0.870  1.00 20.00     0.010 C 
HETATM   11  C9  UNL     1     -35.625  17.746  -2.814  1.00 20.00     0.010 C 
ENDBRANCH   7   9
TORSDOF 1
ENDMDL
MODEL 3
REMARK VINA RESULT:      -4.6     11.789     12.895
REMARK  1 active torsions:
REMARK  status: ('A' for Active; 'I' for Inactive)
REMARK    1  A    between atoms: C7_7  and  C10_10 
ROOT
HETATM    1  C1  UNL     1     -35.319  13.681  -5.074  1.00 20.00    -0.004 C 
HETATM    2  C2  UNL     1     -35.896  14.236  -3.873  1.00 20.00    -0.004 C 
HETATM    3  C3  UNL     1     -34.689  14.339  -6.059  1.00 20.00    -0.019 C 
HETATM    4  C4  UNL     1     -35.646  15.403  -3.259  1.00 20.00    -0.014 C 
HETATM    5  C5  UNL     1     -33.745  16.160  -4.756  1.00 20.00     0.138 C 
HETATM    6  C6  UNL     1     -34.381  15.797  -6.078  1.00 20.00     0.106 C 
HETATM    7  C7  UNL     1     -34.694  16.516  -3.612  1.00 20.00     0.081 C 
HETATM    8  O11 UNL     1     -32.521  16.133  -4.619  1.00 20.00    -0.297 OA
ENDROOT
BRANCH   7   9
HETATM    9  C10 UNL     1     -33.902  16.942  -2.373  1.00 20.00    -0.008 C 
HETATM   10  C8  UNL     1     -33.713  18.457  -2.358  1.00 20.00     0.010 C 
HETATM   11  C9  UNL     1     -34.604  16.472  -1.103  1.00 20.00     0.010 C 
ENDBRANCH   7   9
TORSDOF 1
ENDMDL
MODEL 4
REMARK VINA RESULT:      -4.4     11.298     13.603
REMARK  1 active torsions:
REMARK  status: ('A' for Active; 'I' for Inactive)
REMARK    1  A    between atoms: C7_7  and  C10_10 
ROOT
HETATM    1  C1  UNL     1     -34.512  13.443  -4.749  1.00 20.00    -0.004 C 
HETATM    2  C2  UNL     1     -34.720  14.233  -5.940  1.00 20.00    -0.004 C 
HETATM    3  C3  UNL     1     -33.591  13.631  -3.793  1.00 20.00    -0.019 C 
HETATM    4  C4  UNL     1     -34.348  15.494  -6.210  1.00 20.00    -0.014 C 
HETATM    5  C5  UNL     1     -33.389  16.049  -3.931  1.00 20.00     0.138 C 
HETATM    6  C6  UNL     1     -32.623  14.763  -3.722  1.00 20.00     0.106 C 
HETATM    7  C7  UNL     1     -33.597  16.498  -5.376  1.00 20.00     0.081 C 
HETATM    8  O11 UNL     1     -33.842  16.673  -2.970  1.00 20.00    -0.297 OA
ENDROOT
BRANCH   7   9
HETATM    9  C10 UNL     1     -34.308  17.853  -5.419  1.00 20.00    -0.008 C 
HETATM   10  C8  UNL     1     -33.675  18.752  -6.477  1.00 20.00     0.010 C 
HETATM   11  C9  UNL     1     -35.798  17.667  -5.688  1.00 20.00     0.010 C 
ENDBRANCH   7   9
TORSDOF 1
ENDMDL
MODEL 5
REMARK VINA RESULT:      -4.4     11.671     12.642
REMARK  1 active torsions:
REMARK  status: ('A' for Active; 'I' for Inactive)
REMARK    1  A    between atoms: C7_7  and  C10_10 
ROOT
HETATM    1  C1  UNL     1     -34.169  16.425  -1.765  1.00 20.00    -0.004 C 
HETATM    2  C2  UNL     1     -33.436  16.035  -2.947  1.00 20.00    -0.004 C 
HETATM    3  C3  UNL     1     -35.429  16.878  -1.695  1.00 20.00    -0.019 C 
HETATM    4  C4  UNL     1     -33.889  15.670  -4.156  1.00 20.00    -0.014 C 
HETATM    5  C5  UNL     1     -36.362  15.698  -3.603  1.00 20.00     0.138 C 
HETATM    6  C6  UNL     1     -36.377  17.001  -2.839  1.00 20.00     0.106 C 
HETATM    7  C7  UNL     1     -35.294  15.548  -4.685  1.00 20.00     0.081 C 
HETATM    8  O11 UNL     1     -37.162  14.800  -3.331  1.00 20.00    -0.297 OA
ENDROOT
BRANCH   7   9
HETATM    9  C10 UNL     1     -35.463  14.219  -5.425  1.00 20.00    -0.008 C 
HETATM   10  C8  UNL     1     -35.224  14.408  -6.920  1.00 20.00     0.010 C 
HETATM   11  C9  UNL     1     -34.517  13.166  -4.856  1.00 20.00     0.010 C 
ENDBRANCH   7   9
TORSDOF 1
ENDMDL
MODEL 6
REMARK VINA RESULT:      -4.3     11.706     13.329
REMARK  1 active torsions:
REMARK  status: ('A' for Active; 'I' for Inactive)
REMARK    1  A    between atoms: C7_7  and  C10_10 
ROOT
HETATM    1  C1  UNL     1     -33.295  15.744  -3.297  1.00 20.00    -0.004 C 
HETATM    2  C2  UNL     1     -33.256  16.153  -4.681  1.00 20.00    -0.004 C 
HETATM    3  C3  UNL     1     -34.376  15.593  -2.518  1.00 20.00    -0.019 C 
HETATM    4  C4  UNL     1     -34.221  16.121  -5.613  1.00 20.00    -0.014 C 
HETATM    5  C5  UNL     1     -35.984  14.948  -4.221  1.00 20.00     0.138 C 
HETATM    6  C6  UNL     1     -35.794  15.746  -2.951  1.00 20.00     0.106 C 
HETATM    7  C7  UNL     1     -35.651  15.656  -5.534  1.00 20.00     0.081 C 
HETATM    8  O11 UNL     1     -36.362  13.776  -4.175  1.00 20.00    -0.297 OA
ENDROOT
BRANCH   7   9
HETATM    9  C10 UNL     1     -35.977  14.754  -6.726  1.00 20.00    -0.008 C 
HETATM   10  C8  UNL     1     -37.320  15.145  -7.337  1.00 20.00     0.010 C 
HETATM   11  C9  UNL     1     -34.867  14.824  -7.770  1.00 20.00     0.010 C 
ENDBRANCH   7   9
TORSDOF 1
ENDMDL
MODEL 7
REMARK VINA RESULT:      -4.3     11.296     12.552
REMARK  1 active torsions:
REMARK  status: ('A' for Active; 'I' for Inactive)
REMARK    1  A    between atoms: C7_7  and  C10_10 
ROOT
HETATM    1  C1  UNL     1     -33.322  15.506  -3.192  1.00 20.00    -0.004 C 
HETATM    2  C2  UNL     1     -34.581  15.969  -2.655  1.00 20.00    -0.004 C 
HETATM    3  C3  UNL     1     -33.073  14.338  -3.802  1.00 20.00    -0.019 C 
HETATM    4  C4  UNL     1     -35.832  15.574  -2.937  1.00 20.00    -0.014 C 
HETATM    5  C5  UNL     1     -35.255  13.960  -4.804  1.00 20.00     0.138 C 
HETATM    6  C6  UNL     1     -34.081  13.289  -4.127  1.00 20.00     0.106 C 
HETATM    7  C7  UNL     1     -36.342  14.527  -3.891  1.00 20.00     0.081 C 
HETATM    8  O11 UNL     1     -35.298  14.061  -6.031  1.00 20.00    -0.297 OA
ENDROOT
BRANCH   7   9
HETATM    9  C10 UNL     1     -37.496  15.092  -4.722  1.00 20.00    -0.008 C 
HETATM   10  C8  UNL     1     -38.835  14.749  -4.074  1.00 20.00     0.010 C 
HETATM   11  C9  UNL     1     -37.348  16.601  -4.889  1.00 20.00     0.010 C 
ENDBRANCH   7   9
TORSDOF 1
ENDMDL
MODEL 8
REMARK VINA RESULT:      -4.3     11.345     13.992
REMARK  1 active torsions:
REMARK  status: ('A' for Active; 'I' for Inactive)
REMARK    1  A    between atoms: C7_7  and  C10_10 
ROOT
HETATM    1  C1  UNL     1     -34.942  15.222  -7.896  1.00 20.00    -0.004 C 
HETATM    2  C2  UNL     1     -35.428  14.373  -6.833  1.00 20.00    -0.004 C 
HETATM    3  C3  UNL     1     -34.745  16.547  -7.858  1.00 20.00    -0.019 C 
HETATM    4  C4  UNL     1     -35.443  14.581  -5.507  1.00 20.00    -0.014 C 
HETATM    5  C5  UNL     1     -34.189  16.783  -5.505  1.00 20.00     0.138 C 
HETATM    6  C6  UNL     1     -34.916  17.424  -6.665  1.00 20.00     0.106 C 
HETATM    7  C7  UNL     1     -34.969  15.753  -4.689  1.00 20.00     0.081 C 
HETATM    8  O11 UNL     1     -33.014  17.069  -5.264  1.00 20.00    -0.297 OA
ENDROOT
BRANCH   7   9
HETATM    9  C10 UNL     1     -34.133  15.263  -3.505  1.00 20.00    -0.008 C 
HETATM   10  C8  UNL     1     -34.702  15.799  -2.194  1.00 20.00     0.010 C 
HETATM   11  C9  UNL     1     -34.075  13.739  -3.485  1.00 20.00     0.010 C 
ENDBRANCH   7   9
TORSDOF 1
ENDMDL
MODEL 9
REMARK VINA RESULT:      -4.3     12.159     13.471
REMARK  1 active torsions:
REMARK  status: ('A' for Active; 'I' for Inactive)
REMARK    1  A    between atoms: C7_7  and  C10_10 
ROOT
HETATM    1  C1  UNL     1     -35.223  15.912  -2.438  1.00 20.00    -0.004 C 
HETATM    2  C2  UNL     1     -36.078  15.310  -3.434  1.00 20.00    -0.004 C 
HETATM    3  C3  UNL     1     -33.883  15.950  -2.425  1.00 20.00    -0.019 C 
HETATM    4  C4  UNL     1     -35.817  14.994  -4.712  1.00 20.00    -0.014 C 
HETATM    5  C5  UNL     1     -33.481  15.971  -4.822  1.00 20.00     0.138 C 
HETATM    6  C6  UNL     1     -32.984  15.437  -3.498  1.00 20.00     0.106 C 
HETATM    7  C7  UNL     1     -34.563  15.155  -5.529  1.00 20.00     0.081 C 
HETATM    8  O11 UNL     1     -33.045  17.030  -5.276  1.00 20.00    -0.297 OA
ENDROOT
BRANCH   7   9
HETATM    9  C10 UNL     1     -34.896  15.773  -6.888  1.00 20.00    -0.008 C 
HETATM   10  C8  UNL     1     -35.167  14.679  -7.918  1.00 20.00     0.010 C 
HETATM   11  C9  UNL     1     -36.092  16.712  -6.770  1.00 20.00     0.010 C 
ENDBRANCH   7   9
TORSDOF 1
ENDMDL
