MODEL 1
REMARK VINA RESULT:      -4.8      0.000      0.000
REMARK  1 active torsions:
REMARK  status: ('A' for Active; 'I' for Inactive)
REMARK    1  A    between atoms: C3_3  and  C8_8 
ROOT
HETATM    1  C1  UNL     1     -34.717  14.009  -4.471  1.00 20.00     0.145 C 
HETATM    2  C4  UNL     1     -34.749  14.757  -3.151  1.00 20.00     0.088 C 
HETATM    3  C5  UNL     1     -34.942  16.265  -5.514  1.00 20.00     0.028 C 
HETATM    4  C6  UNL     1     -34.260  16.953  -4.326  1.00 20.00     0.011 C 
HETATM    5  C7  UNL     1     -34.447  14.838  -5.716  1.00 20.00     0.151 C 
HETATM    6  C8  UNL     1     -33.828  15.976  -3.219  1.00 20.00     0.014 C 
HETATM    7  O9  UNL     1     -34.896  12.791  -4.505  1.00 20.00    -0.296 OA
HETATM    8 CL10 UNL     1     -35.284  14.097  -7.100  1.00 20.00    -0.117 Cl
ENDROOT
BRANCH   6   9
HETATM    9  C3  UNL     1     -33.743  16.673  -1.898  1.00 20.00    -0.032 C 
HETATM   10  C2  UNL     1     -34.666  16.569  -0.936  1.00 20.00     0.007 C 
ENDBRANCH   6   9
TORSDOF 1
ENDMDL
MODEL 2
REMARK VINA RESULT:      -4.6     11.909     12.877
REMARK  1 active torsions:
REMARK  status: ('A' for Active; 'I' for Inactive)
REMARK    1  A    between atoms: C3_3  and  C8_8 
ROOT
HETATM    1  C1  UNL     1     -33.691   6.391   5.592  1.00 20.00     0.145 C 
HETATM    2  C4  UNL     1     -33.236   7.237   4.417  1.00 20.00     0.088 C 
HETATM    3  C5  UNL     1     -34.884   5.025   3.877  1.00 20.00     0.028 C 
HETATM    4  C6  UNL     1     -33.878   5.402   2.783  1.00 20.00     0.011 C 
HETATM    5  C7  UNL     1     -34.253   5.017   5.264  1.00 20.00     0.151 C 
HETATM    6  C8  UNL     1     -32.758   6.334   3.278  1.00 20.00     0.014 C 
HETATM    7  O9  UNL     1     -33.592   6.816   6.743  1.00 20.00    -0.296 OA
HETATM    8 CL10 UNL     1     -35.474   4.584   6.483  1.00 20.00    -0.117 Cl
ENDROOT
BRANCH   6   9
HETATM    9  C3  UNL     1     -32.193   7.133   2.146  1.00 20.00    -0.032 C 
HETATM   10  C2  UNL     1     -32.184   8.469   2.104  1.00 20.00     0.007 C 
ENDBRANCH   6   9
TORSDOF 1
ENDMDL
MODEL 3
REMARK VINA RESULT:      -4.6      1.654      1.940
REMARK  1 active torsions:
REMARK  status: ('A' for Active; 'I' for Inactive)
REMARK    1  A    between atoms: C3_3  and  C8_8 
ROOT
HETATM    1  C1  UNL     1     -36.036  14.651  -3.566  1.00 20.00     0.145 C 
HETATM    2  C4  UNL     1     -36.037  15.972  -2.819  1.00 20.00     0.088 C 
HETATM    3  C5  UNL     1     -33.630  15.143  -4.008  1.00 20.00     0.028 C 
HETATM    4  C6  UNL     1     -33.500  15.981  -2.730  1.00 20.00     0.011 C 
HETATM    5  C7  UNL     1     -34.677  14.044  -3.873  1.00 20.00     0.151 C 
HETATM    6  C8  UNL     1     -34.804  16.063  -1.918  1.00 20.00     0.014 C 
HETATM    7  O9  UNL     1     -37.097  14.115  -3.890  1.00 20.00    -0.296 OA
HETATM    8 CL10 UNL     1     -34.784  13.120  -5.389  1.00 20.00    -0.117 Cl
ENDROOT
BRANCH   6   9
HETATM    9  C3  UNL     1     -34.829  17.301  -1.078  1.00 20.00    -0.032 C 
HETATM   10  C2  UNL     1     -34.894  17.298   0.258  1.00 20.00     0.007 C 
ENDBRANCH   6   9
TORSDOF 1
ENDMDL
MODEL 4
REMARK VINA RESULT:      -4.3      1.508      1.942
REMARK  1 active torsions:
REMARK  status: ('A' for Active; 'I' for Inactive)
REMARK    1  A    between atoms: C3_3  and  C8_8 
ROOT
HETATM    1  C1  UNL     1     -34.242  15.258  -3.240  1.00 20.00     0.145 C 
HETATM    2  C4  UNL     1     -34.643  15.922  -1.936  1.00 20.00     0.088 C 
HETATM    3  C5  UNL     1     -34.060  17.584  -4.126  1.00 20.00     0.028 C 
HETATM    4  C6  UNL     1     -33.743  18.156  -2.739  1.00 20.00     0.011 C 
HETATM    5  C7  UNL     1     -33.579  16.146  -4.281  1.00 20.00     0.151 C 
HETATM    6  C8  UNL     1     -33.700  17.088  -1.632  1.00 20.00     0.014 C 
HETATM    7  O9  UNL     1     -34.448  14.057  -3.419  1.00 20.00    -0.296 OA
HETATM    8 CL10 UNL     1     -33.988  15.543  -5.904  1.00 20.00    -0.117 Cl
ENDROOT
BRANCH   6   9
HETATM    9  C3  UNL     1     -33.992  17.695  -0.296  1.00 20.00    -0.032 C 
HETATM   10  C2  UNL     1     -35.053  17.379   0.454  1.00 20.00     0.007 C 
ENDBRANCH   6   9
TORSDOF 1
ENDMDL
MODEL 5
REMARK VINA RESULT:      -4.3      1.813      2.398
REMARK  1 active torsions:
REMARK  status: ('A' for Active; 'I' for Inactive)
REMARK    1  A    between atoms: C3_3  and  C8_8 
ROOT
HETATM    1  C1  UNL     1     -34.087  16.651  -5.320  1.00 20.00     0.145 C 
HETATM    2  C4  UNL     1     -33.755  16.809  -3.848  1.00 20.00     0.088 C 
HETATM    3  C5  UNL     1     -34.379  14.232  -4.780  1.00 20.00     0.028 C 
HETATM    4  C6  UNL     1     -34.760  14.537  -3.326  1.00 20.00     0.011 C 
HETATM    5  C7  UNL     1     -34.774  15.358  -5.729  1.00 20.00     0.151 C 
HETATM    6  C8  UNL     1     -34.768  16.040  -2.999  1.00 20.00     0.014 C 
HETATM    7  O9  UNL     1     -33.810  17.543  -6.123  1.00 20.00    -0.296 OA
HETATM    8 CL10 UNL     1     -34.293  14.946  -7.391  1.00 20.00    -0.117 Cl
ENDROOT
BRANCH   6   9
HETATM    9  C3  UNL     1     -34.543  16.266  -1.537  1.00 20.00    -0.032 C 
HETATM   10  C2  UNL     1     -33.855  17.298  -1.037  1.00 20.00     0.007 C 
ENDBRANCH   6   9
TORSDOF 1
ENDMDL
MODEL 6
REMARK VINA RESULT:      -4.2      2.836      4.461
REMARK  1 active torsions:
REMARK  status: ('A' for Active; 'I' for Inactive)
REMARK    1  A    between atoms: C3_3  and  C8_8 
ROOT
HETATM    1  C1  UNL     1     -34.013  17.042  -3.801  1.00 20.00     0.145 C 
HETATM    2  C4  UNL     1     -34.417  16.789  -5.242  1.00 20.00     0.088 C 
HETATM    3  C5  UNL     1     -35.069  14.829  -3.337  1.00 20.00     0.028 C 
HETATM    4  C6  UNL     1     -34.788  14.325  -4.758  1.00 20.00     0.011 C 
HETATM    5  C7  UNL     1     -34.031  15.842  -2.868  1.00 20.00     0.151 C 
HETATM    6  C8  UNL     1     -34.061  15.355  -5.639  1.00 20.00     0.014 C 
HETATM    7  O9  UNL     1     -33.686  18.170  -3.432  1.00 20.00    -0.296 OA
HETATM    8 CL10 UNL     1     -34.423  16.391  -1.222  1.00 20.00    -0.117 Cl
ENDROOT
BRANCH   6   9
HETATM    9  C3  UNL     1     -34.337  15.104  -7.088  1.00 20.00    -0.032 C 
HETATM   10  C2  UNL     1     -35.440  14.503  -7.547  1.00 20.00     0.007 C 
ENDBRANCH   6   9
TORSDOF 1
ENDMDL
MODEL 7
REMARK VINA RESULT:      -4.1     12.287     13.521
REMARK  1 active torsions:
REMARK  status: ('A' for Active; 'I' for Inactive)
REMARK    1  A    between atoms: C3_3  and  C8_8 
ROOT
HETATM    1  C1  UNL     1     -41.198   5.432  -1.014  1.00 20.00     0.145 C 
HETATM    2  C4  UNL     1     -41.017   4.144  -1.795  1.00 20.00     0.088 C 
HETATM    3  C5  UNL     1     -42.745   6.087  -2.860  1.00 20.00     0.028 C 
HETATM    4  C6  UNL     1     -43.094   4.627  -3.172  1.00 20.00     0.011 C 
HETATM    5  C7  UNL     1     -42.391   6.296  -1.392  1.00 20.00     0.151 C 
HETATM    6  C8  UNL     1     -42.377   3.619  -2.258  1.00 20.00     0.014 C 
HETATM    7  O9  UNL     1     -40.409   5.738  -0.120  1.00 20.00    -0.296 OA
HETATM    8 CL10 UNL     1     -41.986   8.003  -1.104  1.00 20.00    -0.117 Cl
ENDROOT
BRANCH   6   9
HETATM    9  C3  UNL     1     -42.251   2.288  -2.931  1.00 20.00    -0.032 C 
HETATM   10  C2  UNL     1     -41.272   1.971  -3.785  1.00 20.00     0.007 C 
ENDBRANCH   6   9
TORSDOF 1
ENDMDL
MODEL 8
REMARK VINA RESULT:      -4.0      1.867      1.896
REMARK  1 active torsions:
REMARK  status: ('A' for Active; 'I' for Inactive)
REMARK    1  A    between atoms: C3_3  and  C8_8 
ROOT
HETATM    1  C1  UNL     1     -37.016  14.915  -4.058  1.00 20.00     0.145 C 
HETATM    2  C4  UNL     1     -36.274  15.580  -2.914  1.00 20.00     0.088 C 
HETATM    3  C5  UNL     1     -35.816  16.553  -5.510  1.00 20.00     0.028 C 
HETATM    4  C6  UNL     1     -34.640  16.656  -4.531  1.00 20.00     0.011 C 
HETATM    5  C7  UNL     1     -36.491  15.187  -5.459  1.00 20.00     0.151 C 
HETATM    6  C8  UNL     1     -34.802  15.769  -3.285  1.00 20.00     0.014 C 
HETATM    7  O9  UNL     1     -37.987  14.190  -3.837  1.00 20.00    -0.296 OA
HETATM    8 CL10 UNL     1     -37.849  15.139  -6.607  1.00 20.00    -0.117 Cl
ENDROOT
BRANCH   6   9
HETATM    9  C3  UNL     1     -34.013  16.316  -2.137  1.00 20.00    -0.032 C 
HETATM   10  C2  UNL     1     -34.541  16.636  -0.951  1.00 20.00     0.007 C 
ENDBRANCH   6   9
TORSDOF 1
ENDMDL
MODEL 9
REMARK VINA RESULT:      -3.9      3.413      4.740
REMARK  1 active torsions:
REMARK  status: ('A' for Active; 'I' for Inactive)
REMARK    1  A    between atoms: C3_3  and  C8_8 
ROOT
HETATM    1  C1  UNL     1     -33.756  18.035  -2.681  1.00 20.00     0.145 C 
HETATM    2  C4  UNL     1     -34.047  17.777  -4.148  1.00 20.00     0.088 C 
HETATM    3  C5  UNL     1     -34.810  15.806  -2.296  1.00 20.00     0.028 C 
HETATM    4  C6  UNL     1     -34.417  15.307  -3.692  1.00 20.00     0.011 C 
HETATM    5  C7  UNL     1     -33.826  16.834  -1.752  1.00 20.00     0.151 C 
HETATM    6  C8  UNL     1     -33.642  16.349  -4.517  1.00 20.00     0.014 C 
HETATM    7  O9  UNL     1     -33.475  19.168  -2.289  1.00 20.00    -0.296 OA
HETATM    8 CL10 UNL     1     -34.346  17.377  -0.140  1.00 20.00    -0.117 Cl
ENDROOT
BRANCH   6   9
HETATM    9  C3  UNL     1     -33.805  16.094  -5.982  1.00 20.00    -0.032 C 
HETATM   10  C2  UNL     1     -34.424  15.024  -6.492  1.00 20.00     0.007 C 
ENDBRANCH   6   9
TORSDOF 1
ENDMDL
