MODEL 1
REMARK VINA RESULT:      -4.6      0.000      0.000
REMARK  1 active torsions:
REMARK  status: ('A' for Active; 'I' for Inactive)
REMARK    1  A    between atoms: C6_6  and  C10_10 
ROOT
HETATM    1  C1  UNL     1     -36.519  14.731  -4.634  1.00 20.00     0.014 C 
HETATM    2  C2  UNL     1     -36.109  15.352  -3.288  1.00 20.00     0.039 C 
HETATM    3  C3  UNL     1     -34.374  15.733  -4.901  1.00 20.00     0.049 C 
HETATM    4  C4  UNL     1     -34.401  13.423  -4.549  1.00 20.00     0.177 C 
HETATM    5  C5  UNL     1     -35.161  14.500  -5.329  1.00 20.00    -0.020 C 
HETATM    6  C6  UNL     1     -34.579  15.423  -3.423  1.00 20.00     0.064 C 
HETATM    7  C7  UNL     1     -35.259  14.251  -6.816  1.00 20.00     0.017 C 
HETATM    8  O11 UNL     1     -34.085  14.067  -3.293  1.00 20.00    -0.379 OA
ENDROOT
BRANCH   6   9
HETATM    9  C10 UNL     1     -33.896  16.346  -2.444  1.00 20.00     0.012 C 
HETATM   10  C8  UNL     1     -33.741  17.756  -3.027  1.00 20.00     0.012 C 
HETATM   11  C9  UNL     1     -34.660  16.411  -1.117  1.00 20.00     0.012 C 
ENDBRANCH   6   9
TORSDOF 1
ENDMDL
MODEL 2
REMARK VINA RESULT:      -4.6      1.409      3.913
REMARK  1 active torsions:
REMARK  status: ('A' for Active; 'I' for Inactive)
REMARK    1  A    between atoms: C6_6  and  C10_10 
ROOT
HETATM    1  C1  UNL     1     -34.372  13.835  -3.464  1.00 20.00     0.014 C 
HETATM    2  C2  UNL     1     -34.391  13.580  -4.980  1.00 20.00     0.039 C 
HETATM    3  C3  UNL     1     -34.136  15.931  -4.573  1.00 20.00     0.049 C 
HETATM    4  C4  UNL     1     -36.281  15.395  -3.815  1.00 20.00     0.177 C 
HETATM    5  C5  UNL     1     -34.820  15.308  -3.362  1.00 20.00    -0.020 C 
HETATM    6  C6  UNL     1     -34.809  14.953  -5.529  1.00 20.00     0.064 C 
HETATM    7  C7  UNL     1     -34.534  15.954  -2.026  1.00 20.00     0.017 C 
HETATM    8  O11 UNL     1     -36.218  15.109  -5.232  1.00 20.00    -0.379 OA
ENDROOT
BRANCH   6   9
HETATM    9  C10 UNL     1     -34.539  15.160  -6.999  1.00 20.00     0.012 C 
HETATM   10  C8  UNL     1     -35.571  14.424  -7.862  1.00 20.00     0.012 C 
HETATM   11  C9  UNL     1     -34.528  16.651  -7.356  1.00 20.00     0.012 C 
ENDBRANCH   6   9
TORSDOF 1
ENDMDL
MODEL 3
REMARK VINA RESULT:      -4.5      1.312      2.011
REMARK  1 active torsions:
REMARK  status: ('A' for Active; 'I' for Inactive)
REMARK    1  A    between atoms: C6_6  and  C10_10 
ROOT
HETATM    1  C1  UNL     1     -34.026  15.672  -5.273  1.00 20.00     0.014 C 
HETATM    2  C2  UNL     1     -33.750  16.837  -4.309  1.00 20.00     0.039 C 
HETATM    3  C3  UNL     1     -33.882  14.790  -3.065  1.00 20.00     0.049 C 
HETATM    4  C4  UNL     1     -36.036  15.154  -3.897  1.00 20.00     0.177 C 
HETATM    5  C5  UNL     1     -34.676  14.617  -4.354  1.00 20.00    -0.020 C 
HETATM    6  C6  UNL     1     -34.245  16.267  -2.970  1.00 20.00     0.064 C 
HETATM    7  C7  UNL     1     -34.712  13.223  -4.936  1.00 20.00     0.017 C 
HETATM    8  O11 UNL     1     -35.693  16.261  -3.030  1.00 20.00    -0.379 OA
ENDROOT
BRANCH   6   9
HETATM    9  C10 UNL     1     -33.756  17.000  -1.745  1.00 20.00     0.012 C 
HETATM   10  C8  UNL     1     -33.614  18.502  -2.018  1.00 20.00     0.012 C 
HETATM   11  C9  UNL     1     -34.692  16.773  -0.552  1.00 20.00     0.012 C 
ENDBRANCH   6   9
TORSDOF 1
ENDMDL
MODEL 4
REMARK VINA RESULT:      -4.4      1.258      1.756
REMARK  1 active torsions:
REMARK  status: ('A' for Active; 'I' for Inactive)
REMARK    1  A    between atoms: C6_6  and  C10_10 
ROOT
HETATM    1  C1  UNL     1     -34.427  13.804  -4.890  1.00 20.00     0.014 C 
HETATM    2  C2  UNL     1     -33.674  14.356  -3.669  1.00 20.00     0.039 C 
HETATM    3  C3  UNL     1     -35.391  15.905  -4.310  1.00 20.00     0.049 C 
HETATM    4  C4  UNL     1     -33.848  15.923  -6.065  1.00 20.00     0.177 C 
HETATM    5  C5  UNL     1     -35.011  15.079  -5.534  1.00 20.00    -0.020 C 
HETATM    6  C6  UNL     1     -33.968  15.862  -3.767  1.00 20.00     0.064 C 
HETATM    7  C7  UNL     1     -36.112  14.821  -6.536  1.00 20.00     0.017 C 
HETATM    8  O11 UNL     1     -33.174  16.371  -4.866  1.00 20.00    -0.379 OA
ENDROOT
BRANCH   6   9
HETATM    9  C10 UNL     1     -33.710  16.645  -2.503  1.00 20.00     0.012 C 
HETATM   10  C8  UNL     1     -33.758  18.155  -2.768  1.00 20.00     0.012 C 
HETATM   11  C9  UNL     1     -34.716  16.276  -1.407  1.00 20.00     0.012 C 
ENDBRANCH   6   9
TORSDOF 1
ENDMDL
MODEL 5
REMARK VINA RESULT:      -4.4      1.240      3.910
REMARK  1 active torsions:
REMARK  status: ('A' for Active; 'I' for Inactive)
REMARK    1  A    between atoms: C6_6  and  C10_10 
ROOT
HETATM    1  C1  UNL     1     -36.143  16.730  -2.831  1.00 20.00     0.014 C 
HETATM    2  C2  UNL     1     -36.009  16.110  -4.232  1.00 20.00     0.039 C 
HETATM    3  C3  UNL     1     -34.326  15.189  -2.792  1.00 20.00     0.049 C 
HETATM    4  C4  UNL     1     -33.766  17.444  -3.042  1.00 20.00     0.177 C 
HETATM    5  C5  UNL     1     -34.726  16.555  -2.246  1.00 20.00    -0.020 C 
HETATM    6  C6  UNL     1     -34.548  15.635  -4.232  1.00 20.00     0.064 C 
HETATM    7  C7  UNL     1     -34.647  16.725  -0.747  1.00 20.00     0.017 C 
HETATM    8  O11 UNL     1     -33.723  16.821  -4.347  1.00 20.00    -0.379 OA
ENDROOT
BRANCH   6   9
HETATM    9  C10 UNL     1     -34.204  14.630  -5.304  1.00 20.00     0.012 C 
HETATM   10  C8  UNL     1     -34.738  13.237  -4.949  1.00 20.00     0.012 C 
HETATM   11  C9  UNL     1     -34.751  15.066  -6.669  1.00 20.00     0.012 C 
ENDBRANCH   6   9
TORSDOF 1
ENDMDL
MODEL 6
REMARK VINA RESULT:      -4.4      1.250      3.745
REMARK  1 active torsions:
REMARK  status: ('A' for Active; 'I' for Inactive)
REMARK    1  A    between atoms: C6_6  and  C10_10 
ROOT
HETATM    1  C1  UNL     1     -36.222  17.040  -2.751  1.00 20.00     0.014 C 
HETATM    2  C2  UNL     1     -36.403  16.417  -4.145  1.00 20.00     0.039 C 
HETATM    3  C3  UNL     1     -34.848  15.098  -2.881  1.00 20.00     0.049 C 
HETATM    4  C4  UNL     1     -33.782  17.147  -3.238  1.00 20.00     0.177 C 
HETATM    5  C5  UNL     1     -34.836  16.516  -2.322  1.00 20.00    -0.020 C 
HETATM    6  C6  UNL     1     -35.113  15.596  -4.297  1.00 20.00     0.064 C 
HETATM    7  C7  UNL     1     -34.550  16.651  -0.845  1.00 20.00     0.017 C 
HETATM    8  O11 UNL     1     -34.041  16.542  -4.527  1.00 20.00    -0.379 OA
ENDROOT
BRANCH   6   9
HETATM    9  C10 UNL     1     -35.151  14.545  -5.380  1.00 20.00     0.012 C 
HETATM   10  C8  UNL     1     -34.402  15.015  -6.633  1.00 20.00     0.012 C 
HETATM   11  C9  UNL     1     -34.562  13.219  -4.886  1.00 20.00     0.012 C 
ENDBRANCH   6   9
TORSDOF 1
ENDMDL
MODEL 7
REMARK VINA RESULT:      -4.4      1.199      3.931
REMARK  1 active torsions:
REMARK  status: ('A' for Active; 'I' for Inactive)
REMARK    1  A    between atoms: C6_6  and  C10_10 
ROOT
HETATM    1  C1  UNL     1     -33.413  16.407  -4.221  1.00 20.00     0.014 C 
HETATM    2  C2  UNL     1     -33.745  15.953  -5.652  1.00 20.00     0.039 C 
HETATM    3  C3  UNL     1     -35.615  15.496  -4.220  1.00 20.00     0.049 C 
HETATM    4  C4  UNL     1     -33.907  14.079  -3.487  1.00 20.00     0.177 C 
HETATM    5  C5  UNL     1     -34.356  15.538  -3.362  1.00 20.00    -0.020 C 
HETATM    6  C6  UNL     1     -34.856  14.919  -5.409  1.00 20.00     0.064 C 
HETATM    7  C7  UNL     1     -34.529  16.026  -1.943  1.00 20.00     0.017 C 
HETATM    8  O11 UNL     1     -34.216  13.741  -4.859  1.00 20.00    -0.379 OA
ENDROOT
BRANCH   6   9
HETATM    9  C10 UNL     1     -35.680  14.572  -6.624  1.00 20.00     0.012 C 
HETATM   10  C8  UNL     1     -37.036  15.289  -6.598  1.00 20.00     0.012 C 
HETATM   11  C9  UNL     1     -34.933  14.915  -7.918  1.00 20.00     0.012 C 
ENDBRANCH   6   9
TORSDOF 1
ENDMDL
MODEL 8
REMARK VINA RESULT:      -4.2     12.715     14.200
REMARK  1 active torsions:
REMARK  status: ('A' for Active; 'I' for Inactive)
REMARK    1  A    between atoms: C6_6  and  C10_10 
ROOT
HETATM    1  C1  UNL     1     -42.758   4.548  -0.303  1.00 20.00     0.014 C 
HETATM    2  C2  UNL     1     -43.353   3.443  -1.191  1.00 20.00     0.039 C 
HETATM    3  C3  UNL     1     -41.103   3.901  -1.890  1.00 20.00     0.049 C 
HETATM    4  C4  UNL     1     -42.317   5.835  -2.389  1.00 20.00     0.177 C 
HETATM    5  C5  UNL     1     -41.650   5.143  -1.196  1.00 20.00    -0.020 C 
HETATM    6  C6  UNL     1     -42.474   3.539  -2.449  1.00 20.00     0.064 C 
HETATM    7  C7  UNL     1     -40.644   5.992  -0.455  1.00 20.00     0.017 C 
HETATM    8  O11 UNL     1     -42.879   4.740  -3.150  1.00 20.00    -0.379 OA
ENDROOT
BRANCH   6   9
HETATM    9  C10 UNL     1     -42.530   2.336  -3.358  1.00 20.00     0.012 C 
HETATM   10  C8  UNL     1     -41.128   1.936  -3.835  1.00 20.00     0.012 C 
HETATM   11  C9  UNL     1     -43.204   1.146  -2.664  1.00 20.00     0.012 C 
ENDBRANCH   6   9
TORSDOF 1
ENDMDL
MODEL 9
REMARK VINA RESULT:      -4.2      1.493      3.551
REMARK  1 active torsions:
REMARK  status: ('A' for Active; 'I' for Inactive)
REMARK    1  A    between atoms: C6_6  and  C10_10 
ROOT
HETATM    1  C1  UNL     1     -33.998  17.677  -2.488  1.00 20.00     0.014 C 
HETATM    2  C2  UNL     1     -34.294  16.221  -2.091  1.00 20.00     0.039 C 
HETATM    3  C3  UNL     1     -33.478  16.280  -4.347  1.00 20.00     0.049 C 
HETATM    4  C4  UNL     1     -35.553  17.354  -4.406  1.00 20.00     0.177 C 
HETATM    5  C5  UNL     1     -34.096  17.636  -4.027  1.00 20.00    -0.020 C 
HETATM    6  C6  UNL     1     -34.480  15.549  -3.461  1.00 20.00     0.064 C 
HETATM    7  C7  UNL     1     -33.483  18.831  -4.720  1.00 20.00     0.017 C 
HETATM    8  O11 UNL     1     -35.762  15.990  -3.971  1.00 20.00    -0.379 OA
ENDROOT
BRANCH   6   9
HETATM    9  C10 UNL     1     -34.390  14.043  -3.449  1.00 20.00     0.012 C 
HETATM   10  C8  UNL     1     -35.266  13.427  -4.547  1.00 20.00     0.012 C 
HETATM   11  C9  UNL     1     -32.940  13.573  -3.614  1.00 20.00     0.012 C 
ENDBRANCH   6   9
TORSDOF 1
ENDMDL
