MODEL 1
REMARK VINA RESULT:      -5.2      0.000      0.000
REMARK  2 active torsions:
REMARK  status: ('A' for Active; 'I' for Inactive)
REMARK    1  A    between atoms: C1_1  and  C2_2 
REMARK    2  A    between atoms: C1_1  and  C3_3 
ROOT
HETATM    1  C1  UNL     1     -33.876   5.922   4.554  1.00 20.00     0.280 C 
HETATM    2  O4  UNL     1     -33.672   6.602   5.560  1.00 20.00    -0.284 OA
ENDROOT
BRANCH   1   3
HETATM    3  C2  UNL     1     -34.930   4.848   4.541  1.00 20.00     0.344 C 
HETATM    4  F5  UNL     1     -36.100   5.317   4.028  1.00 20.00    -0.224 F 
HETATM    5 CL9  UNL     1     -35.206   4.310   6.203  1.00 20.00    -0.081 Cl
ENDBRANCH   1   3
BRANCH   1   6
HETATM    6  C3  UNL     1     -33.100   6.158   3.289  1.00 20.00     0.455 C 
HETATM    7  F6  UNL     1     -33.635   5.494   2.234  1.00 20.00    -0.163 F 
HETATM    8  F7  UNL     1     -31.809   5.757   3.397  1.00 20.00    -0.163 F 
HETATM    9  F8  UNL     1     -33.073   7.473   2.950  1.00 20.00    -0.163 F 
ENDBRANCH   1   6
TORSDOF 2
ENDMDL
MODEL 2
REMARK VINA RESULT:      -5.1      0.015      1.257
REMARK  2 active torsions:
REMARK  status: ('A' for Active; 'I' for Inactive)
REMARK    1  A    between atoms: C1_1  and  C2_2 
REMARK    2  A    between atoms: C1_1  and  C3_3 
ROOT
HETATM    1  C1  UNL     1     -33.881   5.924   4.542  1.00 20.00     0.280 C 
HETATM    2  O4  UNL     1     -33.674   6.606   5.546  1.00 20.00    -0.284 OA
ENDROOT
BRANCH   1   3
HETATM    3  C2  UNL     1     -34.934   4.849   4.534  1.00 20.00     0.344 C 
HETATM    4  F5  UNL     1     -36.108   5.318   4.032  1.00 20.00    -0.224 F 
HETATM    5 CL9  UNL     1     -35.197   4.306   6.196  1.00 20.00    -0.081 Cl
ENDBRANCH   1   3
BRANCH   1   6
HETATM    6  C3  UNL     1     -33.111   6.159   3.273  1.00 20.00     0.455 C 
HETATM    7  F6  UNL     1     -33.082   7.472   2.932  1.00 20.00    -0.163 F 
HETATM    8  F7  UNL     1     -33.641   5.487   2.220  1.00 20.00    -0.163 F 
HETATM    9  F8  UNL     1     -31.819   5.756   3.383  1.00 20.00    -0.163 F 
ENDBRANCH   1   6
TORSDOF 2
ENDMDL
MODEL 3
REMARK VINA RESULT:      -5.1      2.000      2.622
REMARK  2 active torsions:
REMARK  status: ('A' for Active; 'I' for Inactive)
REMARK    1  A    between atoms: C1_1  and  C2_2 
REMARK    2  A    between atoms: C1_1  and  C3_3 
ROOT
HETATM    1  C1  UNL     1     -33.966   5.892   4.696  1.00 20.00     0.280 C 
HETATM    2  O4  UNL     1     -33.148   6.649   4.172  1.00 20.00    -0.284 OA
ENDROOT
BRANCH   1   3
HETATM    3  C2  UNL     1     -34.070   5.774   6.193  1.00 20.00     0.344 C 
HETATM    4  F5  UNL     1     -35.335   5.449   6.572  1.00 20.00    -0.224 F 
HETATM    5 CL9  UNL     1     -33.639   7.332   6.911  1.00 20.00    -0.081 Cl
ENDBRANCH   1   3
BRANCH   1   6
HETATM    6  C3  UNL     1     -34.916   5.079   3.863  1.00 20.00     0.455 C 
HETATM    7  F6  UNL     1     -35.099   3.834   4.370  1.00 20.00    -0.163 F 
HETATM    8  F7  UNL     1     -34.476   4.926   2.588  1.00 20.00    -0.163 F 
HETATM    9  F8  UNL     1     -36.143   5.654   3.787  1.00 20.00    -0.163 F 
ENDBRANCH   1   6
TORSDOF 2
ENDMDL
MODEL 4
REMARK VINA RESULT:      -5.0      2.043      3.295
REMARK  2 active torsions:
REMARK  status: ('A' for Active; 'I' for Inactive)
REMARK    1  A    between atoms: C1_1  and  C2_2 
REMARK    2  A    between atoms: C1_1  and  C3_3 
ROOT
HETATM    1  C1  UNL     1     -34.068   5.914   4.822  1.00 20.00     0.280 C 
HETATM    2  O4  UNL     1     -33.488   6.481   5.749  1.00 20.00    -0.284 OA
ENDROOT
BRANCH   1   3
HETATM    3  C2  UNL     1     -33.710   6.199   3.389  1.00 20.00     0.344 C 
HETATM    4  F5  UNL     1     -34.020   5.143   2.588  1.00 20.00    -0.224 F 
HETATM    5 CL9  UNL     1     -31.970   6.501   3.293  1.00 20.00    -0.081 Cl
ENDBRANCH   1   3
BRANCH   1   6
HETATM    6  C3  UNL     1     -35.137   4.892   5.088  1.00 20.00     0.455 C 
HETATM    7  F6  UNL     1     -35.576   4.936   6.370  1.00 20.00    -0.163 F 
HETATM    8  F7  UNL     1     -34.703   3.626   4.861  1.00 20.00    -0.163 F 
HETATM    9  F8  UNL     1     -36.225   5.079   4.296  1.00 20.00    -0.163 F 
ENDBRANCH   1   6
TORSDOF 2
ENDMDL
MODEL 5
REMARK VINA RESULT:      -5.0      2.041      3.344
REMARK  2 active torsions:
REMARK  status: ('A' for Active; 'I' for Inactive)
REMARK    1  A    between atoms: C1_1  and  C2_2 
REMARK    2  A    between atoms: C1_1  and  C3_3 
ROOT
HETATM    1  C1  UNL     1     -34.067   5.914   4.822  1.00 20.00     0.280 C 
HETATM    2  O4  UNL     1     -33.490   6.480   5.752  1.00 20.00    -0.284 OA
ENDROOT
BRANCH   1   3
HETATM    3  C2  UNL     1     -33.703   6.200   3.390  1.00 20.00     0.344 C 
HETATM    4  F5  UNL     1     -34.013   5.147   2.587  1.00 20.00    -0.224 F 
HETATM    5 CL9  UNL     1     -31.962   6.497   3.301  1.00 20.00    -0.081 Cl
ENDBRANCH   1   3
BRANCH   1   6
HETATM    6  C3  UNL     1     -35.136   4.890   5.082  1.00 20.00     0.455 C 
HETATM    7  F6  UNL     1     -34.693   3.627   4.863  1.00 20.00    -0.163 F 
HETATM    8  F7  UNL     1     -36.222   5.073   4.291  1.00 20.00    -0.163 F 
HETATM    9  F8  UNL     1     -35.576   4.932   6.366  1.00 20.00    -0.163 F 
ENDBRANCH   1   6
TORSDOF 2
ENDMDL
MODEL 6
REMARK VINA RESULT:      -5.0      2.752      3.564
REMARK  2 active torsions:
REMARK  status: ('A' for Active; 'I' for Inactive)
REMARK    1  A    between atoms: C1_1  and  C2_2 
REMARK    2  A    between atoms: C1_1  and  C3_3 
ROOT
HETATM    1  C1  UNL     1     -34.792   4.797   4.869  1.00 20.00     0.280 C 
HETATM    2  O4  UNL     1     -35.153   3.649   4.609  1.00 20.00    -0.284 OA
ENDROOT
BRANCH   1   3
HETATM    3  C2  UNL     1     -34.539   5.800   3.776  1.00 20.00     0.344 C 
HETATM    4  F5  UNL     1     -34.989   5.341   2.577  1.00 20.00    -0.224 F 
HETATM    5 CL9  UNL     1     -32.796   6.082   3.664  1.00 20.00    -0.081 Cl
ENDBRANCH   1   3
BRANCH   1   6
HETATM    6  C3  UNL     1     -34.620   5.253   6.291  1.00 20.00     0.455 C 
HETATM    7  F6  UNL     1     -35.754   5.091   7.017  1.00 20.00    -0.163 F 
HETATM    8  F7  UNL     1     -34.282   6.565   6.371  1.00 20.00    -0.163 F 
HETATM    9  F8  UNL     1     -33.644   4.558   6.930  1.00 20.00    -0.163 F 
ENDBRANCH   1   6
TORSDOF 2
ENDMDL
MODEL 7
REMARK VINA RESULT:      -5.0      2.755      3.540
REMARK  2 active torsions:
REMARK  status: ('A' for Active; 'I' for Inactive)
REMARK    1  A    between atoms: C1_1  and  C2_2 
REMARK    2  A    between atoms: C1_1  and  C3_3 
ROOT
HETATM    1  C1  UNL     1     -34.798   4.795   4.878  1.00 20.00     0.280 C 
HETATM    2  O4  UNL     1     -35.152   3.645   4.615  1.00 20.00    -0.284 OA
ENDROOT
BRANCH   1   3
HETATM    3  C2  UNL     1     -34.551   5.802   3.787  1.00 20.00     0.344 C 
HETATM    4  F5  UNL     1     -35.015   5.351   2.590  1.00 20.00    -0.224 F 
HETATM    5 CL9  UNL     1     -32.809   6.078   3.660  1.00 20.00    -0.081 Cl
ENDBRANCH   1   3
BRANCH   1   6
HETATM    6  C3  UNL     1     -34.626   5.247   6.301  1.00 20.00     0.455 C 
HETATM    7  F6  UNL     1     -33.647   4.558   6.938  1.00 20.00    -0.163 F 
HETATM    8  F7  UNL     1     -35.761   5.088   7.028  1.00 20.00    -0.163 F 
HETATM    9  F8  UNL     1     -34.293   6.561   6.378  1.00 20.00    -0.163 F 
ENDBRANCH   1   6
TORSDOF 2
ENDMDL
MODEL 8
REMARK VINA RESULT:      -4.9      1.775      1.795
REMARK  2 active torsions:
REMARK  status: ('A' for Active; 'I' for Inactive)
REMARK    1  A    between atoms: C1_1  and  C2_2 
REMARK    2  A    between atoms: C1_1  and  C3_3 
ROOT
HETATM    1  C1  UNL     1     -34.752   5.419   4.396  1.00 20.00     0.280 C 
HETATM    2  O4  UNL     1     -35.890   5.185   3.989  1.00 20.00    -0.284 OA
ENDROOT
BRANCH   1   3
HETATM    3  C2  UNL     1     -34.373   5.174   5.832  1.00 20.00     0.344 C 
HETATM    4  F5  UNL     1     -35.405   4.616   6.522  1.00 20.00    -0.224 F 
HETATM    5 CL9  UNL     1     -33.957   6.723   6.576  1.00 20.00    -0.081 Cl
ENDBRANCH   1   3
BRANCH   1   6
HETATM    6  C3  UNL     1     -33.686   5.929   3.468  1.00 20.00     0.455 C 
HETATM    7  F6  UNL     1     -33.797   5.398   2.225  1.00 20.00    -0.163 F 
HETATM    8  F7  UNL     1     -32.437   5.639   3.914  1.00 20.00    -0.163 F 
HETATM    9  F8  UNL     1     -33.745   7.278   3.323  1.00 20.00    -0.163 F 
ENDBRANCH   1   6
TORSDOF 2
ENDMDL
MODEL 9
REMARK VINA RESULT:      -4.7      2.773      3.312
REMARK  2 active torsions:
REMARK  status: ('A' for Active; 'I' for Inactive)
REMARK    1  A    between atoms: C1_1  and  C2_2 
REMARK    2  A    between atoms: C1_1  and  C3_3 
ROOT
HETATM    1  C1  UNL     1     -34.111   5.849   4.882  1.00 20.00     0.280 C 
HETATM    2  O4  UNL     1     -33.178   6.520   4.438  1.00 20.00    -0.284 OA
ENDROOT
BRANCH   1   3
HETATM    3  C2  UNL     1     -35.044   5.108   3.963  1.00 20.00     0.344 C 
HETATM    4  F5  UNL     1     -35.200   3.817   4.362  1.00 20.00    -0.224 F 
HETATM    5 CL9  UNL     1     -34.358   5.126   2.333  1.00 20.00    -0.081 Cl
ENDBRANCH   1   3
BRANCH   1   6
HETATM    6  C3  UNL     1     -34.336   5.719   6.362  1.00 20.00     0.455 C 
HETATM    7  F6  UNL     1     -34.102   6.885   7.016  1.00 20.00    -0.163 F 
HETATM    8  F7  UNL     1     -33.530   4.782   6.922  1.00 20.00    -0.163 F 
HETATM    9  F8  UNL     1     -35.613   5.359   6.650  1.00 20.00    -0.163 F 
ENDBRANCH   1   6
TORSDOF 2
ENDMDL
