MODEL 1
REMARK VINA RESULT:      -4.6      0.000      0.000
REMARK  1 active torsions:
REMARK  status: ('A' for Active; 'I' for Inactive)
REMARK    1  A    between atoms: C3_3  and  C9_9 
ROOT
HETATM    1  C1  UNL     1     -33.767   7.381   3.806  1.00 20.00     0.069 C 
HETATM    2  C2  UNL     1     -32.384   7.310   3.175  1.00 20.00     0.069 C 
HETATM    3  C3  UNL     1     -34.106   5.913   4.029  1.00 20.00     0.076 C 
HETATM    4  C4  UNL     1     -32.267   8.244   1.970  1.00 20.00     0.042 C 
HETATM    5  C5  UNL     1     -31.254   7.597   4.164  1.00 20.00     0.042 C 
HETATM    6  C6  UNL     1     -35.536   5.593   3.589  1.00 20.00     0.043 C 
HETATM    7  N10 UNL     1     -32.264   5.919   2.702  1.00 20.00    -0.187 NA
HETATM    8  N11 UNL     1     -33.173   5.181   3.153  1.00 20.00    -0.186 NA
ENDROOT
BRANCH   3   9
HETATM    9  C9  UNL     1     -33.893   5.458   5.473  1.00 20.00     0.009 C 
HETATM   10  C7  UNL     1     -34.022   6.638   6.432  1.00 20.00     0.012 C 
HETATM   11  C8  UNL     1     -34.885   4.357   5.838  1.00 20.00     0.012 C 
ENDBRANCH   3   9
TORSDOF 1
ENDMDL
MODEL 2
REMARK VINA RESULT:      -4.3     11.330     12.766
REMARK  1 active torsions:
REMARK  status: ('A' for Active; 'I' for Inactive)
REMARK    1  A    between atoms: C3_3  and  C9_9 
ROOT
HETATM    1  C1  UNL     1     -33.747  15.950  -2.988  1.00 20.00     0.069 C 
HETATM    2  C2  UNL     1     -34.845  16.693  -2.240  1.00 20.00     0.069 C 
HETATM    3  C3  UNL     1     -34.533  15.121  -3.995  1.00 20.00     0.076 C 
HETATM    4  C4  UNL     1     -34.614  16.663  -0.729  1.00 20.00     0.042 C 
HETATM    5  C5  UNL     1     -35.024  18.136  -2.709  1.00 20.00     0.042 C 
HETATM    6  C6  UNL     1     -34.023  13.680  -4.058  1.00 20.00     0.043 C 
HETATM    7  N10 UNL     1     -36.074  15.936  -2.539  1.00 20.00    -0.187 NA
HETATM    8  N11 UNL     1     -35.909  15.106  -3.466  1.00 20.00    -0.186 NA
ENDROOT
BRANCH   3   9
HETATM    9  C9  UNL     1     -34.546  15.729  -5.397  1.00 20.00     0.009 C 
HETATM   10  C7  UNL     1     -33.322  16.617  -5.608  1.00 20.00     0.012 C 
HETATM   11  C8  UNL     1     -34.601  14.631  -6.456  1.00 20.00     0.012 C 
ENDBRANCH   3   9
TORSDOF 1
ENDMDL
MODEL 3
REMARK VINA RESULT:      -4.3     11.150     12.506
REMARK  1 active torsions:
REMARK  status: ('A' for Active; 'I' for Inactive)
REMARK    1  A    between atoms: C3_3  and  C9_9 
ROOT
HETATM    1  C1  UNL     1     -34.128  16.096  -4.517  1.00 20.00     0.069 C 
HETATM    2  C2  UNL     1     -34.494  14.621  -4.434  1.00 20.00     0.069 C 
HETATM    3  C3  UNL     1     -34.871  16.691  -3.329  1.00 20.00     0.076 C 
HETATM    4  C4  UNL     1     -34.875  14.058  -5.803  1.00 20.00     0.042 C 
HETATM    5  C5  UNL     1     -33.395  13.762  -3.808  1.00 20.00     0.042 C 
HETATM    6  C6  UNL     1     -35.593  17.986  -3.707  1.00 20.00     0.043 C 
HETATM    7  N10 UNL     1     -35.684  14.584  -3.565  1.00 20.00    -0.187 NA
HETATM    8  N11 UNL     1     -35.884  15.677  -2.982  1.00 20.00    -0.186 NA
ENDROOT
BRANCH   3   9
HETATM    9  C9  UNL     1     -33.973  16.933  -2.116  1.00 20.00     0.009 C 
HETATM   10  C7  UNL     1     -33.518  18.389  -2.068  1.00 20.00     0.012 C 
HETATM   11  C8  UNL     1     -34.700  16.554  -0.828  1.00 20.00     0.012 C 
ENDBRANCH   3   9
TORSDOF 1
ENDMDL
MODEL 4
REMARK VINA RESULT:      -4.2     11.479     12.971
REMARK  1 active torsions:
REMARK  status: ('A' for Active; 'I' for Inactive)
REMARK    1  A    between atoms: C3_3  and  C9_9 
ROOT
HETATM    1  C1  UNL     1     -33.388  16.387  -4.166  1.00 20.00     0.069 C 
HETATM    2  C2  UNL     1     -34.136  16.869  -5.400  1.00 20.00     0.069 C 
HETATM    3  C3  UNL     1     -34.510  15.866  -3.279  1.00 20.00     0.076 C 
HETATM    4  C4  UNL     1     -33.640  18.241  -5.859  1.00 20.00     0.042 C 
HETATM    5  C5  UNL     1     -34.078  15.881  -6.565  1.00 20.00     0.042 C 
HETATM    6  C6  UNL     1     -34.350  16.339  -1.832  1.00 20.00     0.043 C 
HETATM    7  N10 UNL     1     -35.535  17.004  -4.955  1.00 20.00    -0.187 NA
HETATM    8  N11 UNL     1     -35.733  16.474  -3.835  1.00 20.00    -0.186 NA
ENDROOT
BRANCH   3   9
HETATM    9  C9  UNL     1     -34.650  14.345  -3.314  1.00 20.00     0.009 C 
HETATM   10  C7  UNL     1     -35.842  13.935  -4.176  1.00 20.00     0.012 C 
HETATM   11  C8  UNL     1     -33.366  13.702  -3.832  1.00 20.00     0.012 C 
ENDBRANCH   3   9
TORSDOF 1
ENDMDL
MODEL 5
REMARK VINA RESULT:      -4.2     11.463     12.478
REMARK  1 active torsions:
REMARK  status: ('A' for Active; 'I' for Inactive)
REMARK    1  A    between atoms: C3_3  and  C9_9 
ROOT
HETATM    1  C1  UNL     1     -35.828  16.315  -2.990  1.00 20.00     0.069 C 
HETATM    2  C2  UNL     1     -34.990  17.249  -2.128  1.00 20.00     0.069 C 
HETATM    3  C3  UNL     1     -34.790  15.702  -3.921  1.00 20.00     0.076 C 
HETATM    4  C4  UNL     1     -35.657  18.615  -1.968  1.00 20.00     0.042 C 
HETATM    5  C5  UNL     1     -34.660  16.668  -0.754  1.00 20.00     0.042 C 
HETATM    6  C6  UNL     1     -35.279  15.681  -5.371  1.00 20.00     0.043 C 
HETATM    7  N10 UNL     1     -33.738  17.427  -2.886  1.00 20.00    -0.187 NA
HETATM    8  N11 UNL     1     -33.632  16.610  -3.833  1.00 20.00    -0.186 NA
ENDROOT
BRANCH   3   9
HETATM    9  C9  UNL     1     -34.356  14.299  -3.500  1.00 20.00     0.009 C 
HETATM   10  C7  UNL     1     -35.069  13.242  -4.340  1.00 20.00     0.012 C 
HETATM   11  C8  UNL     1     -32.841  14.149  -3.620  1.00 20.00     0.012 C 
ENDBRANCH   3   9
TORSDOF 1
ENDMDL
MODEL 6
REMARK VINA RESULT:      -4.1     11.289     13.031
REMARK  1 active torsions:
REMARK  status: ('A' for Active; 'I' for Inactive)
REMARK    1  A    between atoms: C3_3  and  C9_9 
ROOT
HETATM    1  C1  UNL     1     -34.035  15.621  -5.170  1.00 20.00     0.069 C 
HETATM    2  C2  UNL     1     -33.862  14.752  -3.933  1.00 20.00     0.069 C 
HETATM    3  C3  UNL     1     -35.035  14.826  -5.998  1.00 20.00     0.076 C 
HETATM    4  C4  UNL     1     -32.390  14.608  -3.547  1.00 20.00     0.042 C 
HETATM    5  C5  UNL     1     -34.667  15.246  -2.731  1.00 20.00     0.042 C 
HETATM    6  C6  UNL     1     -34.614  14.749  -7.467  1.00 20.00     0.043 C 
HETATM    7  N10 UNL     1     -34.370  13.428  -4.337  1.00 20.00    -0.187 NA
HETATM    8  N11 UNL     1     -34.989  13.467  -5.428  1.00 20.00    -0.186 NA
ENDROOT
BRANCH   3   9
HETATM    9  C9  UNL     1     -36.463  15.361  -5.896  1.00 20.00     0.009 C 
HETATM   10  C7  UNL     1     -36.455  16.850  -5.561  1.00 20.00     0.012 C 
HETATM   11  C8  UNL     1     -37.224  15.106  -7.194  1.00 20.00     0.012 C 
ENDBRANCH   3   9
TORSDOF 1
ENDMDL
MODEL 7
REMARK VINA RESULT:      -4.0     11.292     12.789
REMARK  1 active torsions:
REMARK  status: ('A' for Active; 'I' for Inactive)
REMARK    1  A    between atoms: C3_3  and  C9_9 
ROOT
HETATM    1  C1  UNL     1     -35.465  15.554  -3.418  1.00 20.00     0.069 C 
HETATM    2  C2  UNL     1     -34.643  14.715  -4.385  1.00 20.00     0.069 C 
HETATM    3  C3  UNL     1     -34.406  16.411  -2.738  1.00 20.00     0.076 C 
HETATM    4  C4  UNL     1     -35.062  13.245  -4.350  1.00 20.00     0.042 C 
HETATM    5  C5  UNL     1     -34.690  15.233  -5.822  1.00 20.00     0.042 C 
HETATM    6  C6  UNL     1     -34.611  16.462  -1.222  1.00 20.00     0.043 C 
HETATM    7  N10 UNL     1     -33.261  14.819  -3.883  1.00 20.00    -0.187 NA
HETATM    8  N11 UNL     1     -33.136  15.715  -3.013  1.00 20.00    -0.186 NA
ENDROOT
BRANCH   3   9
HETATM    9  C9  UNL     1     -34.327  17.830  -3.298  1.00 20.00     0.009 C 
HETATM   10  C7  UNL     1     -35.723  18.364  -3.606  1.00 20.00     0.012 C 
HETATM   11  C8  UNL     1     -33.601  18.752  -2.321  1.00 20.00     0.012 C 
ENDBRANCH   3   9
TORSDOF 1
ENDMDL
MODEL 8
REMARK VINA RESULT:      -4.0     11.420     13.164
REMARK  1 active torsions:
REMARK  status: ('A' for Active; 'I' for Inactive)
REMARK    1  A    between atoms: C3_3  and  C9_9 
ROOT
HETATM    1  C1  UNL     1     -36.688  16.109  -4.820  1.00 20.00     0.069 C 
HETATM    2  C2  UNL     1     -38.133  15.643  -4.925  1.00 20.00     0.069 C 
HETATM    3  C3  UNL     1     -35.989  14.892  -4.229  1.00 20.00     0.076 C 
HETATM    4  C4  UNL     1     -39.105  16.710  -4.419  1.00 20.00     0.042 C 
HETATM    5  C5  UNL     1     -38.526  15.211  -6.337  1.00 20.00     0.042 C 
HETATM    6  C6  UNL     1     -35.036  15.284  -3.098  1.00 20.00     0.043 C 
HETATM    7  N10 UNL     1     -38.212  14.477  -4.027  1.00 20.00    -0.187 NA
HETATM    8  N11 UNL     1     -37.080  14.080  -3.660  1.00 20.00    -0.186 NA
ENDROOT
BRANCH   3   9
HETATM    9  C9  UNL     1     -35.242  14.060  -5.271  1.00 20.00     0.009 C 
HETATM   10  C7  UNL     1     -34.648  14.961  -6.351  1.00 20.00     0.012 C 
HETATM   11  C8  UNL     1     -34.150  13.226  -4.607  1.00 20.00     0.012 C 
ENDBRANCH   3   9
TORSDOF 1
ENDMDL
MODEL 9
REMARK VINA RESULT:      -4.0     11.760     14.051
REMARK  1 active torsions:
REMARK  status: ('A' for Active; 'I' for Inactive)
REMARK    1  A    between atoms: C3_3  and  C9_9 
ROOT
HETATM    1  C1  UNL     1     -35.002  17.243  -4.053  1.00 20.00     0.069 C 
HETATM    2  C2  UNL     1     -34.505  16.032  -3.277  1.00 20.00     0.069 C 
HETATM    3  C3  UNL     1     -34.109  17.236  -5.287  1.00 20.00     0.076 C 
HETATM    4  C4  UNL     1     -34.330  16.349  -1.792  1.00 20.00     0.042 C 
HETATM    5  C5  UNL     1     -35.398  14.802  -3.443  1.00 20.00     0.042 C 
HETATM    6  C6  UNL     1     -33.578  18.635  -5.605  1.00 20.00     0.043 C 
HETATM    7  N10 UNL     1     -33.179  15.743  -3.852  1.00 20.00    -0.187 NA
HETATM    8  N11 UNL     1     -32.970  16.378  -4.914  1.00 20.00    -0.186 NA
ENDROOT
BRANCH   3   9
HETATM    9  C9  UNL     1     -34.792  16.647  -6.521  1.00 20.00     0.009 C 
HETATM   10  C7  UNL     1     -34.737  17.632  -7.686  1.00 20.00     0.012 C 
HETATM   11  C8  UNL     1     -34.144  15.320  -6.909  1.00 20.00     0.012 C 
ENDBRANCH   3   9
TORSDOF 1
ENDMDL
