MODEL 1
REMARK VINA RESULT:      -4.0      0.000      0.000
REMARK  3 active torsions:
REMARK  status: ('A' for Active; 'I' for Inactive)
REMARK    1  A    between atoms: C1_1  and  C7_7 
REMARK    2  A    between atoms: C1_1  and  N9_9 
REMARK    3  A    between atoms: C7_7  and  C8_8 
ROOT
HETATM    1  C2  UNL     1     -33.379  13.590  -3.758  1.00 20.00     0.021 C 
HETATM    2  C3  UNL     1     -34.837  13.653  -4.185  1.00 20.00     0.021 C 
HETATM    3  C4  UNL     1     -32.988  15.062  -3.664  1.00 20.00     0.123 C 
HETATM    4  C5  UNL     1     -35.372  14.843  -3.394  1.00 20.00     0.123 C 
HETATM    5  N9  UNL     1     -34.222  15.731  -3.270  1.00 20.00    -0.375 N 
ENDROOT
BRANCH   5   6
HETATM    6  C1  UNL     1     -34.292  17.018  -2.842  1.00 20.00     0.075 C 
HETATM    7  S10 UNL     1     -34.987  18.228  -3.763  1.00 20.00    -0.066 SA
BRANCH   6   8
HETATM    8  C7  UNL     1     -33.715  17.272  -1.466  1.00 20.00     0.069 C 
BRANCH   8   9
HETATM    9  C8  UNL     1     -34.726  16.918  -0.376  1.00 20.00     0.002 C 
HETATM   10  C6  UNL     1     -34.647  17.887   0.793  1.00 20.00     0.005 C 
ENDBRANCH   8   9
ENDBRANCH   6   8
ENDBRANCH   5   6
TORSDOF 3
ENDMDL
MODEL 2
REMARK VINA RESULT:      -4.0      0.450      1.343
REMARK  3 active torsions:
REMARK  status: ('A' for Active; 'I' for Inactive)
REMARK    1  A    between atoms: C1_1  and  C7_7 
REMARK    2  A    between atoms: C1_1  and  N9_9 
REMARK    3  A    between atoms: C7_7  and  C8_8 
ROOT
HETATM    1  C2  UNL     1     -34.707  13.409  -4.359  1.00 20.00     0.021 C 
HETATM    2  C3  UNL     1     -33.326  13.506  -3.730  1.00 20.00     0.021 C 
HETATM    3  C4  UNL     1     -35.443  14.597  -3.747  1.00 20.00     0.123 C 
HETATM    4  C5  UNL     1     -33.070  15.010  -3.701  1.00 20.00     0.123 C 
HETATM    5  N9  UNL     1     -34.397  15.590  -3.535  1.00 20.00    -0.375 N 
ENDROOT
BRANCH   5   6
HETATM    6  C1  UNL     1     -34.630  16.892  -3.225  1.00 20.00     0.075 C 
HETATM    7  S10 UNL     1     -35.567  17.885  -4.190  1.00 20.00    -0.066 SA
BRANCH   6   8
HETATM    8  C7  UNL     1     -33.998  17.371  -1.936  1.00 20.00     0.069 C 
BRANCH   8   9
HETATM    9  C8  UNL     1     -34.634  16.685  -0.727  1.00 20.00     0.002 C 
HETATM   10  C6  UNL     1     -34.663  17.604   0.484  1.00 20.00     0.005 C 
ENDBRANCH   8   9
ENDBRANCH   6   8
ENDBRANCH   5   6
TORSDOF 3
ENDMDL
MODEL 3
REMARK VINA RESULT:      -3.8      1.319      4.098
REMARK  3 active torsions:
REMARK  status: ('A' for Active; 'I' for Inactive)
REMARK    1  A    between atoms: C1_1  and  C7_7 
REMARK    2  A    between atoms: C1_1  and  N9_9 
REMARK    3  A    between atoms: C7_7  and  C8_8 
ROOT
HETATM    1  C2  UNL     1     -34.539  18.489  -1.270  1.00 20.00     0.021 C 
HETATM    2  C3  UNL     1     -34.553  17.183  -0.492  1.00 20.00     0.021 C 
HETATM    3  C4  UNL     1     -33.694  18.146  -2.494  1.00 20.00     0.123 C 
HETATM    4  C5  UNL     1     -34.660  16.131  -1.592  1.00 20.00     0.123 C 
HETATM    5  N9  UNL     1     -33.960  16.731  -2.722  1.00 20.00    -0.375 N 
ENDROOT
BRANCH   5   6
HETATM    6  C1  UNL     1     -33.603  16.057  -3.846  1.00 20.00     0.075 C 
HETATM    7  S10 UNL     1     -33.559  16.788  -5.349  1.00 20.00    -0.066 SA
BRANCH   6   8
HETATM    8  C7  UNL     1     -33.228  14.606  -3.636  1.00 20.00     0.069 C 
BRANCH   8   9
HETATM    9  C8  UNL     1     -34.054  13.691  -4.540  1.00 20.00     0.002 C 
HETATM   10  C6  UNL     1     -35.523  13.698  -4.147  1.00 20.00     0.005 C 
ENDBRANCH   8   9
ENDBRANCH   6   8
ENDBRANCH   5   6
TORSDOF 3
ENDMDL
MODEL 4
REMARK VINA RESULT:      -3.7      2.562      3.149
REMARK  3 active torsions:
REMARK  status: ('A' for Active; 'I' for Inactive)
REMARK    1  A    between atoms: C1_1  and  C7_7 
REMARK    2  A    between atoms: C1_1  and  N9_9 
REMARK    3  A    between atoms: C7_7  and  C8_8 
ROOT
HETATM    1  C2  UNL     1     -34.456  16.417  -7.236  1.00 20.00     0.021 C 
HETATM    2  C3  UNL     1     -34.677  14.936  -7.499  1.00 20.00     0.021 C 
HETATM    3  C4  UNL     1     -35.309  16.674  -5.997  1.00 20.00     0.123 C 
HETATM    4  C5  UNL     1     -34.711  14.342  -6.094  1.00 20.00     0.123 C 
HETATM    5  N9  UNL     1     -35.270  15.408  -5.273  1.00 20.00    -0.375 N 
ENDROOT
BRANCH   5   6
HETATM    6  C1  UNL     1     -35.699  15.245  -3.995  1.00 20.00     0.075 C 
HETATM    7  S10 UNL     1     -37.319  15.294  -3.584  1.00 20.00    -0.066 SA
BRANCH   6   8
HETATM    8  C7  UNL     1     -34.609  14.996  -2.975  1.00 20.00     0.069 C 
BRANCH   8   9
HETATM    9  C8  UNL     1     -34.085  16.313  -2.402  1.00 20.00     0.002 C 
HETATM   10  C6  UNL     1     -34.608  16.555  -0.995  1.00 20.00     0.005 C 
ENDBRANCH   8   9
ENDBRANCH   6   8
ENDBRANCH   5   6
TORSDOF 3
ENDMDL
MODEL 5
REMARK VINA RESULT:      -3.7      1.315      4.459
REMARK  3 active torsions:
REMARK  status: ('A' for Active; 'I' for Inactive)
REMARK    1  A    between atoms: C1_1  and  C7_7 
REMARK    2  A    between atoms: C1_1  and  N9_9 
REMARK    3  A    between atoms: C7_7  and  C8_8 
ROOT
HETATM    1  C2  UNL     1     -34.069  17.821   0.097  1.00 20.00     0.021 C 
HETATM    2  C3  UNL     1     -34.019  19.055  -0.788  1.00 20.00     0.021 C 
HETATM    3  C4  UNL     1     -34.596  16.745  -0.847  1.00 20.00     0.123 C 
HETATM    4  C5  UNL     1     -33.545  18.495  -2.127  1.00 20.00     0.123 C 
HETATM    5  N9  UNL     1     -34.087  17.142  -2.155  1.00 20.00    -0.375 N 
ENDROOT
BRANCH   5   6
HETATM    6  C1  UNL     1     -34.113  16.351  -3.259  1.00 20.00     0.075 C 
HETATM    7  S10 UNL     1     -33.497  16.851  -4.730  1.00 20.00    -0.066 SA
BRANCH   6   8
HETATM    8  C7  UNL     1     -34.719  14.979  -3.055  1.00 20.00     0.069 C 
BRANCH   8   9
HETATM    9  C8  UNL     1     -33.890  13.905  -3.758  1.00 20.00     0.002 C 
HETATM   10  C6  UNL     1     -34.715  13.148  -4.787  1.00 20.00     0.005 C 
ENDBRANCH   8   9
ENDBRANCH   6   8
ENDBRANCH   5   6
TORSDOF 3
ENDMDL
MODEL 6
REMARK VINA RESULT:      -3.6      1.640      4.485
REMARK  3 active torsions:
REMARK  status: ('A' for Active; 'I' for Inactive)
REMARK    1  A    between atoms: C1_1  and  C7_7 
REMARK    2  A    between atoms: C1_1  and  N9_9 
REMARK    3  A    between atoms: C7_7  and  C8_8 
ROOT
HETATM    1  C2  UNL     1     -33.696  17.373  -1.085  1.00 20.00     0.021 C 
HETATM    2  C3  UNL     1     -33.697  18.206  -2.357  1.00 20.00     0.021 C 
HETATM    3  C4  UNL     1     -34.786  16.340  -1.353  1.00 20.00     0.123 C 
HETATM    4  C5  UNL     1     -33.922  17.162  -3.447  1.00 20.00     0.123 C 
HETATM    5  N9  UNL     1     -34.739  16.144  -2.798  1.00 20.00    -0.375 N 
ENDROOT
BRANCH   5   6
HETATM    6  C1  UNL     1     -35.375  15.139  -3.455  1.00 20.00     0.075 C 
HETATM    7  S10 UNL     1     -37.038  15.094  -3.620  1.00 20.00    -0.066 SA
BRANCH   6   8
HETATM    8  C7  UNL     1     -34.470  14.079  -4.042  1.00 20.00     0.069 C 
BRANCH   8   9
HETATM    9  C8  UNL     1     -34.928  13.685  -5.446  1.00 20.00     0.002 C 
HETATM   10  C6  UNL     1     -34.479  14.701  -6.485  1.00 20.00     0.005 C 
ENDBRANCH   8   9
ENDBRANCH   6   8
ENDBRANCH   5   6
TORSDOF 3
ENDMDL
MODEL 7
REMARK VINA RESULT:      -3.6      2.896      3.308
REMARK  3 active torsions:
REMARK  status: ('A' for Active; 'I' for Inactive)
REMARK    1  A    between atoms: C1_1  and  C7_7 
REMARK    2  A    between atoms: C1_1  and  N9_9 
REMARK    3  A    between atoms: C7_7  and  C8_8 
ROOT
HETATM    1  C2  UNL     1     -35.015  15.905  -7.658  1.00 20.00     0.021 C 
HETATM    2  C3  UNL     1     -34.547  17.270  -7.182  1.00 20.00     0.021 C 
HETATM    3  C4  UNL     1     -34.400  14.957  -6.633  1.00 20.00     0.123 C 
HETATM    4  C5  UNL     1     -34.635  17.150  -5.663  1.00 20.00     0.123 C 
HETATM    5  N9  UNL     1     -34.362  15.742  -5.404  1.00 20.00    -0.375 N 
ENDROOT
BRANCH   5   6
HETATM    6  C1  UNL     1     -34.107  15.225  -4.174  1.00 20.00     0.075 C 
HETATM    7  S10 UNL     1     -34.064  13.579  -3.889  1.00 20.00    -0.066 SA
BRANCH   6   8
HETATM    8  C7  UNL     1     -33.844  16.246  -3.088  1.00 20.00     0.069 C 
BRANCH   8   9
HETATM    9  C8  UNL     1     -34.800  16.050  -1.911  1.00 20.00     0.002 C 
HETATM   10  C6  UNL     1     -34.457  16.976  -0.755  1.00 20.00     0.005 C 
ENDBRANCH   8   9
ENDBRANCH   6   8
ENDBRANCH   5   6
TORSDOF 3
ENDMDL
MODEL 8
REMARK VINA RESULT:      -3.5      1.964      2.755
REMARK  3 active torsions:
REMARK  status: ('A' for Active; 'I' for Inactive)
REMARK    1  A    between atoms: C1_1  and  C7_7 
REMARK    2  A    between atoms: C1_1  and  N9_9 
REMARK    3  A    between atoms: C7_7  and  C8_8 
ROOT
HETATM    1  C2  UNL     1     -37.829  14.841  -3.979  1.00 20.00     0.021 C 
HETATM    2  C3  UNL     1     -37.821  15.499  -5.349  1.00 20.00     0.021 C 
HETATM    3  C4  UNL     1     -36.344  14.689  -3.665  1.00 20.00     0.123 C 
HETATM    4  C5  UNL     1     -36.654  16.476  -5.251  1.00 20.00     0.123 C 
HETATM    5  N9  UNL     1     -35.723  15.824  -4.338  1.00 20.00    -0.375 N 
ENDROOT
BRANCH   5   6
HETATM    6  C1  UNL     1     -34.439  16.223  -4.139  1.00 20.00     0.075 C 
HETATM    7  S10 UNL     1     -33.612  17.154  -5.253  1.00 20.00    -0.066 SA
BRANCH   6   8
HETATM    8  C7  UNL     1     -33.823  15.781  -2.829  1.00 20.00     0.069 C 
BRANCH   8   9
HETATM    9  C8  UNL     1     -33.770  16.939  -1.832  1.00 20.00     0.002 C 
HETATM   10  C6  UNL     1     -34.712  16.709  -0.661  1.00 20.00     0.005 C 
ENDBRANCH   8   9
ENDBRANCH   6   8
ENDBRANCH   5   6
TORSDOF 3
ENDMDL
MODEL 9
REMARK VINA RESULT:      -3.5      2.652      3.839
REMARK  3 active torsions:
REMARK  status: ('A' for Active; 'I' for Inactive)
REMARK    1  A    between atoms: C1_1  and  C7_7 
REMARK    2  A    between atoms: C1_1  and  N9_9 
REMARK    3  A    between atoms: C7_7  and  C8_8 
ROOT
HETATM    1  C2  UNL     1     -36.599  15.608  -7.318  1.00 20.00     0.021 C 
HETATM    2  C3  UNL     1     -35.581  14.495  -7.516  1.00 20.00     0.021 C 
HETATM    3  C4  UNL     1     -36.126  16.276  -6.030  1.00 20.00     0.123 C 
HETATM    4  C5  UNL     1     -34.273  15.149  -7.080  1.00 20.00     0.123 C 
HETATM    5  N9  UNL     1     -34.678  16.098  -6.051  1.00 20.00    -0.375 N 
ENDROOT
BRANCH   5   6
HETATM    6  C1  UNL     1     -33.817  16.738  -5.217  1.00 20.00     0.075 C 
HETATM    7  S10 UNL     1     -33.655  18.402  -5.208  1.00 20.00    -0.066 SA
BRANCH   6   8
HETATM    8  C7  UNL     1     -33.033  15.839  -4.287  1.00 20.00     0.069 C 
BRANCH   8   9
HETATM    9  C8  UNL     1     -33.945  15.217  -3.229  1.00 20.00     0.002 C 
HETATM   10  C6  UNL     1     -34.287  13.775  -3.565  1.00 20.00     0.005 C 
ENDBRANCH   8   9
ENDBRANCH   6   8
ENDBRANCH   5   6
TORSDOF 3
ENDMDL
