MODEL 1
REMARK VINA RESULT:      -4.5      0.000      0.000
REMARK  1 active torsions:
REMARK  status: ('A' for Active; 'I' for Inactive)
REMARK    1  A    between atoms: C3_3  and  C8_8 
ROOT
HETATM    1  C1  UNL     1     -34.514  14.545  -5.572  1.00 20.00     0.145 C 
HETATM    2  C4  UNL     1     -34.196  13.762  -4.316  1.00 20.00     0.080 C 
HETATM    3  C5  UNL     1     -34.382  14.630  -3.078  1.00 20.00     0.016 C 
HETATM    4  C6  UNL     1     -34.020  16.721  -4.436  1.00 20.00     0.036 C 
HETATM    5  C7  UNL     1     -33.818  15.889  -5.700  1.00 20.00     0.152 C 
HETATM    6  C8  UNL     1     -33.594  15.944  -3.182  1.00 20.00     0.009 C 
HETATM    7  O9  UNL     1     -35.213  14.054  -6.458  1.00 20.00    -0.296 OA
HETATM    8 CL10 UNL     1     -34.449  16.767  -7.113  1.00 20.00    -0.117 Cl
ENDROOT
BRANCH   6   9
HETATM    9  C3  UNL     1     -33.788  16.782  -1.956  1.00 20.00    -0.032 C 
HETATM   10  C2  UNL     1     -34.668  16.503  -0.990  1.00 20.00     0.007 C 
ENDBRANCH   6   9
TORSDOF 1
ENDMDL
MODEL 2
REMARK VINA RESULT:      -4.5      1.536      1.786
REMARK  1 active torsions:
REMARK  status: ('A' for Active; 'I' for Inactive)
REMARK    1  A    between atoms: C3_3  and  C8_8 
ROOT
HETATM    1  C1  UNL     1     -34.302  13.657  -4.849  1.00 20.00     0.145 C 
HETATM    2  C4  UNL     1     -33.371  13.982  -3.699  1.00 20.00     0.080 C 
HETATM    3  C5  UNL     1     -33.597  15.407  -3.209  1.00 20.00     0.016 C 
HETATM    4  C6  UNL     1     -34.532  16.077  -5.451  1.00 20.00     0.036 C 
HETATM    5  C7  UNL     1     -34.315  14.664  -5.986  1.00 20.00     0.152 C 
HETATM    6  C8  UNL     1     -33.511  16.423  -4.357  1.00 20.00     0.009 C 
HETATM    7  O9  UNL     1     -34.917  12.592  -4.876  1.00 20.00    -0.296 OA
HETATM    8 CL10 UNL     1     -35.597  14.250  -7.148  1.00 20.00    -0.117 Cl
ENDROOT
BRANCH   6   9
HETATM    9  C3  UNL     1     -33.732  17.817  -3.856  1.00 20.00    -0.032 C 
HETATM   10  C2  UNL     1     -33.779  18.148  -2.562  1.00 20.00     0.007 C 
ENDBRANCH   6   9
TORSDOF 1
ENDMDL
MODEL 3
REMARK VINA RESULT:      -4.4      2.143      2.312
REMARK  1 active torsions:
REMARK  status: ('A' for Active; 'I' for Inactive)
REMARK    1  A    between atoms: C3_3  and  C8_8 
ROOT
HETATM    1  C1  UNL     1     -35.215  13.923  -4.232  1.00 20.00     0.145 C 
HETATM    2  C4  UNL     1     -33.732  14.231  -4.225  1.00 20.00     0.080 C 
HETATM    3  C5  UNL     1     -33.354  15.030  -2.983  1.00 20.00     0.016 C 
HETATM    4  C6  UNL     1     -35.712  15.889  -2.763  1.00 20.00     0.036 C 
HETATM    5  C7  UNL     1     -36.133  15.112  -4.008  1.00 20.00     0.152 C 
HETATM    6  C8  UNL     1     -34.229  16.281  -2.824  1.00 20.00     0.009 C 
HETATM    7  O9  UNL     1     -35.619  12.793  -4.503  1.00 20.00    -0.296 OA
HETATM    8 CL10 UNL     1     -37.814  14.557  -3.839  1.00 20.00    -0.117 Cl
ENDROOT
BRANCH   6   9
HETATM    9  C3  UNL     1     -33.840  17.053  -1.600  1.00 20.00    -0.032 C 
HETATM   10  C2  UNL     1     -34.526  17.032  -0.454  1.00 20.00     0.007 C 
ENDBRANCH   6   9
TORSDOF 1
ENDMDL
MODEL 4
REMARK VINA RESULT:      -4.4     12.096     13.014
REMARK  1 active torsions:
REMARK  status: ('A' for Active; 'I' for Inactive)
REMARK    1  A    between atoms: C3_3  and  C8_8 
ROOT
HETATM    1  C1  UNL     1     -34.814   4.840   4.344  1.00 20.00     0.145 C 
HETATM    2  C4  UNL     1     -34.754   4.996   2.839  1.00 20.00     0.080 C 
HETATM    3  C5  UNL     1     -33.448   5.657   2.417  1.00 20.00     0.016 C 
HETATM    4  C6  UNL     1     -33.207   6.730   4.684  1.00 20.00     0.036 C 
HETATM    5  C7  UNL     1     -34.516   6.094   5.146  1.00 20.00     0.152 C 
HETATM    6  C8  UNL     1     -33.210   6.975   3.168  1.00 20.00     0.009 C 
HETATM    7  O9  UNL     1     -35.180   3.779   4.850  1.00 20.00    -0.296 OA
HETATM    8 CL10 UNL     1     -34.423   5.700   6.878  1.00 20.00    -0.117 Cl
ENDROOT
BRANCH   6   9
HETATM    9  C3  UNL     1     -31.923   7.610   2.738  1.00 20.00    -0.032 C 
HETATM   10  C2  UNL     1     -31.798   8.393   1.663  1.00 20.00     0.007 C 
ENDBRANCH   6   9
TORSDOF 1
ENDMDL
MODEL 5
REMARK VINA RESULT:      -4.2      1.783      2.443
REMARK  1 active torsions:
REMARK  status: ('A' for Active; 'I' for Inactive)
REMARK    1  A    between atoms: C3_3  and  C8_8 
ROOT
HETATM    1  C1  UNL     1     -34.467  15.663  -5.254  1.00 20.00     0.145 C 
HETATM    2  C4  UNL     1     -34.343  17.158  -5.047  1.00 20.00     0.080 C 
HETATM    3  C5  UNL     1     -33.788  17.466  -3.661  1.00 20.00     0.016 C 
HETATM    4  C6  UNL     1     -34.620  15.254  -2.789  1.00 20.00     0.036 C 
HETATM    5  C7  UNL     1     -35.199  14.908  -4.158  1.00 20.00     0.152 C 
HETATM    6  C8  UNL     1     -34.600  16.772  -2.558  1.00 20.00     0.009 C 
HETATM    7  O9  UNL     1     -34.079  15.140  -6.298  1.00 20.00    -0.296 OA
HETATM    8 CL10 UNL     1     -35.081  13.156  -4.444  1.00 20.00    -0.117 Cl
ENDROOT
BRANCH   6   9
HETATM    9  C3  UNL     1     -34.041  17.088  -1.204  1.00 20.00    -0.032 C 
HETATM   10  C2  UNL     1     -34.764  17.098  -0.080  1.00 20.00     0.007 C 
ENDBRANCH   6   9
TORSDOF 1
ENDMDL
MODEL 6
REMARK VINA RESULT:      -4.1     11.934     13.014
REMARK  1 active torsions:
REMARK  status: ('A' for Active; 'I' for Inactive)
REMARK    1  A    between atoms: C3_3  and  C8_8 
ROOT
HETATM    1  C1  UNL     1     -41.569   5.083  -0.556  1.00 20.00     0.145 C 
HETATM    2  C4  UNL     1     -40.944   6.455  -0.408  1.00 20.00     0.080 C 
HETATM    3  C5  UNL     1     -41.725   7.491  -1.208  1.00 20.00     0.016 C 
HETATM    4  C6  UNL     1     -42.606   5.703  -2.749  1.00 20.00     0.036 C 
HETATM    5  C7  UNL     1     -41.833   4.633  -1.981  1.00 20.00     0.152 C 
HETATM    6  C8  UNL     1     -41.900   7.064  -2.673  1.00 20.00     0.009 C 
HETATM    7  O9  UNL     1     -41.745   4.365   0.428  1.00 20.00    -0.296 OA
HETATM    8 CL10 UNL     1     -42.749   3.107  -1.977  1.00 20.00    -0.117 Cl
ENDROOT
BRANCH   6   9
HETATM    9  C3  UNL     1     -42.667   8.096  -3.442  1.00 20.00    -0.032 C 
HETATM   10  C2  UNL     1     -42.275   8.596  -4.617  1.00 20.00     0.007 C 
ENDBRANCH   6   9
TORSDOF 1
ENDMDL
MODEL 7
REMARK VINA RESULT:      -4.1      3.025      4.291
REMARK  1 active torsions:
REMARK  status: ('A' for Active; 'I' for Inactive)
REMARK    1  A    between atoms: C3_3  and  C8_8 
ROOT
HETATM    1  C1  UNL     1     -34.136  17.877  -2.892  1.00 20.00     0.145 C 
HETATM    2  C4  UNL     1     -33.614  17.768  -4.310  1.00 20.00     0.080 C 
HETATM    3  C5  UNL     1     -34.054  16.456  -4.947  1.00 20.00     0.016 C 
HETATM    4  C6  UNL     1     -34.305  15.388  -2.679  1.00 20.00     0.036 C 
HETATM    5  C7  UNL     1     -33.860  16.680  -1.999  1.00 20.00     0.152 C 
HETATM    6  C8  UNL     1     -33.681  15.248  -4.075  1.00 20.00     0.009 C 
HETATM    7  O9  UNL     1     -34.656  18.918  -2.493  1.00 20.00    -0.296 OA
HETATM    8 CL10 UNL     1     -34.708  16.873  -0.447  1.00 20.00    -0.117 Cl
ENDROOT
BRANCH   6   9
HETATM    9  C3  UNL     1     -34.119  13.969  -4.719  1.00 20.00    -0.032 C 
HETATM   10  C2  UNL     1     -35.195  13.271  -4.342  1.00 20.00     0.007 C 
ENDBRANCH   6   9
TORSDOF 1
ENDMDL
MODEL 8
REMARK VINA RESULT:      -4.1      2.313      3.317
REMARK  1 active torsions:
REMARK  status: ('A' for Active; 'I' for Inactive)
REMARK    1  A    between atoms: C3_3  and  C8_8 
ROOT
HETATM    1  C1  UNL     1     -33.580  16.780  -4.070  1.00 20.00     0.145 C 
HETATM    2  C4  UNL     1     -33.720  18.264  -3.802  1.00 20.00     0.080 C 
HETATM    3  C5  UNL     1     -33.596  18.556  -2.312  1.00 20.00     0.016 C 
HETATM    4  C6  UNL     1     -34.317  16.209  -1.746  1.00 20.00     0.036 C 
HETATM    5  C7  UNL     1     -34.464  15.876  -3.229  1.00 20.00     0.152 C 
HETATM    6  C8  UNL     1     -34.565  17.701  -1.483  1.00 20.00     0.009 C 
HETATM    7  O9  UNL     1     -32.864  16.372  -4.984  1.00 20.00    -0.296 OA
HETATM    8 CL10 UNL     1     -34.035  14.173  -3.514  1.00 20.00    -0.117 Cl
ENDROOT
BRANCH   6   9
HETATM    9  C3  UNL     1     -34.430  18.005  -0.022  1.00 20.00    -0.032 C 
HETATM   10  C2  UNL     1     -35.208  17.475   0.927  1.00 20.00     0.007 C 
ENDBRANCH   6   9
TORSDOF 1
ENDMDL
MODEL 9
REMARK VINA RESULT:      -4.0     12.157     13.492
REMARK  1 active torsions:
REMARK  status: ('A' for Active; 'I' for Inactive)
REMARK    1  A    between atoms: C3_3  and  C8_8 
ROOT
HETATM    1  C1  UNL     1     -41.500   6.671  -1.024  1.00 20.00     0.145 C 
HETATM    2  C4  UNL     1     -40.956   5.381  -0.445  1.00 20.00     0.080 C 
HETATM    3  C5  UNL     1     -40.974   4.272  -1.490  1.00 20.00     0.016 C 
HETATM    4  C6  UNL     1     -42.819   5.432  -2.755  1.00 20.00     0.036 C 
HETATM    5  C7  UNL     1     -42.842   6.560  -1.726  1.00 20.00     0.152 C 
HETATM    6  C8  UNL     1     -42.364   4.109  -2.122  1.00 20.00     0.009 C 
HETATM    7  O9  UNL     1     -40.918   7.738  -0.834  1.00 20.00    -0.296 OA
HETATM    8 CL10 UNL     1     -43.239   8.101  -2.522  1.00 20.00    -0.117 Cl
ENDROOT
BRANCH   6   9
HETATM    9  C3  UNL     1     -42.361   3.014  -3.144  1.00 20.00    -0.032 C 
HETATM   10  C2  UNL     1     -41.292   2.266  -3.437  1.00 20.00     0.007 C 
ENDBRANCH   6   9
TORSDOF 1
ENDMDL
