MODEL 1
REMARK VINA RESULT:      -5.0      0.000      0.000
REMARK  4 active torsions:
REMARK  status: ('A' for Active; 'I' for Inactive)
REMARK    1  A    between atoms: C1_1  and  C6_6 
REMARK    2  A    between atoms: C1_1  and  C7_7 
REMARK    3  A    between atoms: C6_6  and  C8_8 
REMARK    4  A    between atoms: C7_7  and  C9_9 
ROOT
HETATM    1  C1  UNL     1     -32.455   6.591   3.438  1.00 20.00     0.161 C 
HETATM    2  O10 UNL     1     -32.145   5.515   2.928  1.00 20.00    -0.295 OA
ENDROOT
BRANCH   1   3
HETATM    3  C6  UNL     1     -31.794   7.902   3.039  1.00 20.00     0.085 C 
BRANCH   3   4
HETATM    4  C8  UNL     1     -32.420   8.548   1.795  1.00 20.00    -0.016 C 
HETATM    5  C2  UNL     1     -31.487   8.451   0.585  1.00 20.00     0.010 C 
HETATM    6  C3  UNL     1     -32.751  10.015   2.077  1.00 20.00     0.010 C 
ENDBRANCH   3   4
ENDBRANCH   1   3
BRANCH   1   7
HETATM    7  C7  UNL     1     -33.546   6.660   4.494  1.00 20.00     0.242 C 
HETATM    8  F11 UNL     1     -33.007   6.977   5.708  1.00 20.00    -0.241 F 
BRANCH   7   9
HETATM    9  C9  UNL     1     -34.336   5.351   4.632  1.00 20.00     0.019 C 
HETATM   10  C4  UNL     1     -34.698   5.060   6.090  1.00 20.00     0.012 C 
HETATM   11  C5  UNL     1     -35.610   5.416   3.788  1.00 20.00     0.012 C 
ENDBRANCH   7   9
ENDBRANCH   1   7
TORSDOF 4
ENDMDL
MODEL 2
REMARK VINA RESULT:      -5.0      1.578      4.416
REMARK  4 active torsions:
REMARK  status: ('A' for Active; 'I' for Inactive)
REMARK    1  A    between atoms: C1_1  and  C6_6 
REMARK    2  A    between atoms: C1_1  and  C7_7 
REMARK    3  A    between atoms: C6_6  and  C8_8 
REMARK    4  A    between atoms: C7_7  and  C9_9 
ROOT
HETATM    1  C1  UNL     1     -33.891   5.715   2.968  1.00 20.00     0.161 C 
HETATM    2  O10 UNL     1     -34.440   4.883   2.246  1.00 20.00    -0.295 OA
ENDROOT
BRANCH   1   3
HETATM    3  C6  UNL     1     -34.564   6.290   4.206  1.00 20.00     0.085 C 
BRANCH   3   4
HETATM    4  C8  UNL     1     -34.076   5.658   5.517  1.00 20.00    -0.016 C 
HETATM    5  C2  UNL     1     -35.041   4.576   6.009  1.00 20.00     0.010 C 
HETATM    6  C3  UNL     1     -33.915   6.736   6.591  1.00 20.00     0.010 C 
ENDBRANCH   3   4
ENDBRANCH   1   3
BRANCH   1   7
HETATM    7  C7  UNL     1     -32.483   6.197   2.661  1.00 20.00     0.242 C 
HETATM    8  F11 UNL     1     -31.574   5.500   3.402  1.00 20.00    -0.241 F 
BRANCH   7   9
HETATM    9  C9  UNL     1     -32.289   7.697   2.925  1.00 20.00     0.019 C 
HETATM   10  C4  UNL     1     -31.197   7.950   3.967  1.00 20.00     0.012 C 
HETATM   11  C5  UNL     1     -31.934   8.417   1.623  1.00 20.00     0.012 C 
ENDBRANCH   7   9
ENDBRANCH   1   7
TORSDOF 4
ENDMDL
MODEL 3
REMARK VINA RESULT:      -4.7      1.061      4.523
REMARK  4 active torsions:
REMARK  status: ('A' for Active; 'I' for Inactive)
REMARK    1  A    between atoms: C1_1  and  C6_6 
REMARK    2  A    between atoms: C1_1  and  C7_7 
REMARK    3  A    between atoms: C6_6  and  C8_8 
REMARK    4  A    between atoms: C7_7  and  C9_9 
ROOT
HETATM    1  C1  UNL     1     -32.517   6.414   3.130  1.00 20.00     0.161 C 
HETATM    2  O10 UNL     1     -32.087   5.299   2.834  1.00 20.00    -0.295 OA
ENDROOT
BRANCH   1   3
HETATM    3  C6  UNL     1     -33.830   6.609   3.874  1.00 20.00     0.085 C 
BRANCH   3   4
HETATM    4  C8  UNL     1     -34.019   5.636   5.047  1.00 20.00    -0.016 C 
HETATM    5  C2  UNL     1     -35.268   4.771   4.859  1.00 20.00     0.010 C 
HETATM    6  C3  UNL     1     -34.120   6.413   6.361  1.00 20.00     0.010 C 
ENDBRANCH   3   4
ENDBRANCH   1   3
BRANCH   1   7
HETATM    7  C7  UNL     1     -31.730   7.665   2.777  1.00 20.00     0.242 C 
HETATM    8  F11 UNL     1     -31.516   8.418   3.894  1.00 20.00    -0.241 F 
BRANCH   7   9
HETATM    9  C9  UNL     1     -32.426   8.536   1.721  1.00 20.00     0.019 C 
HETATM   10  C4  UNL     1     -32.697   9.949   2.243  1.00 20.00     0.012 C 
HETATM   11  C5  UNL     1     -31.570   8.611   0.456  1.00 20.00     0.012 C 
ENDBRANCH   7   9
ENDBRANCH   1   7
TORSDOF 4
ENDMDL
MODEL 4
REMARK VINA RESULT:      -4.7      1.472      2.071
REMARK  4 active torsions:
REMARK  status: ('A' for Active; 'I' for Inactive)
REMARK    1  A    between atoms: C1_1  and  C6_6 
REMARK    2  A    between atoms: C1_1  and  C7_7 
REMARK    3  A    between atoms: C6_6  and  C8_8 
REMARK    4  A    between atoms: C7_7  and  C9_9 
ROOT
HETATM    1  C1  UNL     1     -33.763   5.510   2.899  1.00 20.00     0.161 C 
HETATM    2  O10 UNL     1     -34.160   4.936   1.886  1.00 20.00    -0.295 OA
ENDROOT
BRANCH   1   3
HETATM    3  C6  UNL     1     -32.326   5.987   3.054  1.00 20.00     0.085 C 
BRANCH   3   4
HETATM    4  C8  UNL     1     -32.196   7.514   3.152  1.00 20.00    -0.016 C 
HETATM    5  C2  UNL     1     -31.956   8.144   1.777  1.00 20.00     0.010 C 
HETATM    6  C3  UNL     1     -31.051   7.883   4.098  1.00 20.00     0.010 C 
ENDBRANCH   3   4
ENDBRANCH   1   3
BRANCH   1   7
HETATM    7  C7  UNL     1     -34.712   5.791   4.052  1.00 20.00     0.242 C 
HETATM    8  F11 UNL     1     -34.977   7.127   4.129  1.00 20.00    -0.241 F 
BRANCH   7   9
HETATM    9  C9  UNL     1     -34.170   5.315   5.407  1.00 20.00     0.019 C 
HETATM   10  C4  UNL     1     -34.050   6.471   6.404  1.00 20.00     0.012 C 
HETATM   11  C5  UNL     1     -35.081   4.231   5.985  1.00 20.00     0.012 C 
ENDBRANCH   7   9
ENDBRANCH   1   7
TORSDOF 4
ENDMDL
MODEL 5
REMARK VINA RESULT:      -4.5     11.020     12.457
REMARK  4 active torsions:
REMARK  status: ('A' for Active; 'I' for Inactive)
REMARK    1  A    between atoms: C1_1  and  C6_6 
REMARK    2  A    between atoms: C1_1  and  C7_7 
REMARK    3  A    between atoms: C6_6  and  C8_8 
REMARK    4  A    between atoms: C7_7  and  C9_9 
ROOT
HETATM    1  C1  UNL     1     -35.188  13.754  -4.833  1.00 20.00     0.161 C 
HETATM    2  O10 UNL     1     -34.781  12.614  -4.609  1.00 20.00    -0.295 OA
ENDROOT
BRANCH   1   3
HETATM    3  C6  UNL     1     -35.535  14.728  -3.717  1.00 20.00     0.085 C 
BRANCH   3   4
HETATM    4  C8  UNL     1     -34.316  15.179  -2.898  1.00 20.00    -0.016 C 
HETATM    5  C2  UNL     1     -34.714  16.173  -1.804  1.00 20.00     0.010 C 
HETATM    6  C3  UNL     1     -33.271  15.812  -3.819  1.00 20.00     0.010 C 
ENDBRANCH   3   4
ENDBRANCH   1   3
BRANCH   1   7
HETATM    7  C7  UNL     1     -35.347  14.253  -6.259  1.00 20.00     0.242 C 
HETATM    8  F11 UNL     1     -34.126  14.552  -6.792  1.00 20.00    -0.241 F 
BRANCH   7   9
HETATM    9  C9  UNL     1     -36.249  15.490  -6.368  1.00 20.00     0.019 C 
HETATM   10  C4  UNL     1     -35.469  16.718  -6.842  1.00 20.00     0.012 C 
HETATM   11  C5  UNL     1     -37.405  15.212  -7.330  1.00 20.00     0.012 C 
ENDBRANCH   7   9
ENDBRANCH   1   7
TORSDOF 4
ENDMDL
MODEL 6
REMARK VINA RESULT:      -4.4     10.663     11.849
REMARK  4 active torsions:
REMARK  status: ('A' for Active; 'I' for Inactive)
REMARK    1  A    between atoms: C1_1  and  C6_6 
REMARK    2  A    between atoms: C1_1  and  C7_7 
REMARK    3  A    between atoms: C6_6  and  C8_8 
REMARK    4  A    between atoms: C7_7  and  C9_9 
ROOT
HETATM    1  C1  UNL     1     -34.070  14.202  -3.840  1.00 20.00     0.161 C 
HETATM    2  O10 UNL     1     -33.317  13.291  -3.498  1.00 20.00    -0.295 OA
ENDROOT
BRANCH   1   3
HETATM    3  C6  UNL     1     -33.953  15.610  -3.273  1.00 20.00     0.085 C 
BRANCH   3   4
HETATM    4  C8  UNL     1     -35.037  15.944  -2.238  1.00 20.00    -0.016 C 
HETATM    5  C2  UNL     1     -36.116  16.853  -2.832  1.00 20.00     0.010 C 
HETATM    6  C3  UNL     1     -34.407  16.617  -1.018  1.00 20.00     0.010 C 
ENDBRANCH   3   4
ENDBRANCH   1   3
BRANCH   1   7
HETATM    7  C7  UNL     1     -35.155  13.962  -4.875  1.00 20.00     0.242 C 
HETATM    8  F11 UNL     1     -34.901  12.812  -5.566  1.00 20.00    -0.241 F 
BRANCH   7   9
HETATM    9  C9  UNL     1     -35.300  15.117  -5.876  1.00 20.00     0.019 C 
HETATM   10  C4  UNL     1     -34.490  14.866  -7.150  1.00 20.00     0.012 C 
HETATM   11  C5  UNL     1     -36.773  15.319  -6.234  1.00 20.00     0.012 C 
ENDBRANCH   7   9
ENDBRANCH   1   7
TORSDOF 4
ENDMDL
MODEL 7
REMARK VINA RESULT:      -4.4      1.313      1.858
REMARK  4 active torsions:
REMARK  status: ('A' for Active; 'I' for Inactive)
REMARK    1  A    between atoms: C1_1  and  C6_6 
REMARK    2  A    between atoms: C1_1  and  C7_7 
REMARK    3  A    between atoms: C6_6  and  C8_8 
REMARK    4  A    between atoms: C7_7  and  C9_9 
ROOT
HETATM    1  C1  UNL     1     -32.995   6.439   3.242  1.00 20.00     0.161 C 
HETATM    2  O10 UNL     1     -31.815   6.145   3.427  1.00 20.00    -0.295 OA
ENDROOT
BRANCH   1   3
HETATM    3  C6  UNL     1     -33.413   7.659   2.434  1.00 20.00     0.085 C 
BRANCH   3   4
HETATM    4  C8  UNL     1     -32.242   8.585   2.076  1.00 20.00    -0.016 C 
HETATM    5  C2  UNL     1     -32.664  10.056   2.103  1.00 20.00     0.010 C 
HETATM    6  C3  UNL     1     -31.695   8.228   0.692  1.00 20.00     0.010 C 
ENDBRANCH   3   4
ENDBRANCH   1   3
BRANCH   1   7
HETATM    7  C7  UNL     1     -34.107   5.571   3.807  1.00 20.00     0.242 C 
HETATM    8  F11 UNL     1     -35.318   6.168   3.608  1.00 20.00    -0.241 F 
BRANCH   7   9
HETATM    9  C9  UNL     1     -33.941   5.279   5.305  1.00 20.00     0.019 C 
HETATM   10  C4  UNL     1     -34.032   6.557   6.143  1.00 20.00     0.012 C 
HETATM   11  C5  UNL     1     -35.008   4.284   5.767  1.00 20.00     0.012 C 
ENDBRANCH   7   9
ENDBRANCH   1   7
TORSDOF 4
ENDMDL
MODEL 8
REMARK VINA RESULT:      -4.4      1.537      2.063
REMARK  4 active torsions:
REMARK  status: ('A' for Active; 'I' for Inactive)
REMARK    1  A    between atoms: C1_1  and  C6_6 
REMARK    2  A    between atoms: C1_1  and  C7_7 
REMARK    3  A    between atoms: C6_6  and  C8_8 
REMARK    4  A    between atoms: C7_7  and  C9_9 
ROOT
HETATM    1  C1  UNL     1     -32.485   6.953   3.352  1.00 20.00     0.161 C 
HETATM    2  O10 UNL     1     -31.455   7.256   3.953  1.00 20.00    -0.295 OA
ENDROOT
BRANCH   1   3
HETATM    3  C6  UNL     1     -33.044   7.797   2.216  1.00 20.00     0.085 C 
BRANCH   3   4
HETATM    4  C8  UNL     1     -32.061   8.860   1.704  1.00 20.00    -0.016 C 
HETATM    5  C2  UNL     1     -32.665  10.264   1.781  1.00 20.00     0.010 C 
HETATM    6  C3  UNL     1     -31.656   8.548   0.262  1.00 20.00     0.010 C 
ENDBRANCH   3   4
ENDBRANCH   1   3
BRANCH   1   7
HETATM    7  C7  UNL     1     -33.246   5.688   3.711  1.00 20.00     0.242 C 
HETATM    8  F11 UNL     1     -33.731   5.093   2.582  1.00 20.00    -0.241 F 
BRANCH   7   9
HETATM    9  C9  UNL     1     -34.414   5.940   4.675  1.00 20.00     0.019 C 
HETATM   10  C4  UNL     1     -35.293   4.698   4.836  1.00 20.00     0.012 C 
HETATM   11  C5  UNL     1     -33.881   6.374   6.042  1.00 20.00     0.012 C 
ENDBRANCH   7   9
ENDBRANCH   1   7
TORSDOF 4
ENDMDL
MODEL 9
REMARK VINA RESULT:      -4.3     10.767     11.900
REMARK  4 active torsions:
REMARK  status: ('A' for Active; 'I' for Inactive)
REMARK    1  A    between atoms: C1_1  and  C6_6 
REMARK    2  A    between atoms: C1_1  and  C7_7 
REMARK    3  A    between atoms: C6_6  and  C8_8 
REMARK    4  A    between atoms: C7_7  and  C9_9 
ROOT
HETATM    1  C1  UNL     1     -34.648  13.770  -4.821  1.00 20.00     0.161 C 
HETATM    2  O10 UNL     1     -34.918  12.708  -4.261  1.00 20.00    -0.295 OA
ENDROOT
BRANCH   1   3
HETATM    3  C6  UNL     1     -34.974  14.024  -6.285  1.00 20.00     0.085 C 
BRANCH   3   4
HETATM    4  C8  UNL     1     -35.589  15.407  -6.544  1.00 20.00    -0.016 C 
HETATM    5  C2  UNL     1     -37.003  15.291  -7.118  1.00 20.00     0.010 C 
HETATM    6  C3  UNL     1     -34.703  16.203  -7.504  1.00 20.00     0.010 C 
ENDBRANCH   3   4
ENDBRANCH   1   3
BRANCH   1   7
HETATM    7  C7  UNL     1     -33.984  14.902  -4.055  1.00 20.00     0.242 C 
HETATM    8  F11 UNL     1     -32.704  14.559  -3.725  1.00 20.00    -0.241 F 
BRANCH   7   9
HETATM    9  C9  UNL     1     -34.737  15.286  -2.774  1.00 20.00     0.019 C 
HETATM   10  C4  UNL     1     -34.017  16.397  -2.006  1.00 20.00     0.012 C 
HETATM   11  C5  UNL     1     -36.158  15.737  -3.117  1.00 20.00     0.012 C 
ENDBRANCH   7   9
ENDBRANCH   1   7
TORSDOF 4
ENDMDL
