MODEL 1
REMARK VINA RESULT:      -3.8      0.000      0.000
REMARK  1 active torsions:
REMARK  status: ('A' for Active; 'I' for Inactive)
REMARK    1  A    between atoms: C4_4  and  C8_8 
ROOT
HETATM    1  C1  UNL     1     -36.140  15.190  -5.270  1.00 20.00     0.302 C 
HETATM    2  C2  UNL     1     -35.045  16.192  -5.644  1.00 20.00     0.302 C 
HETATM    3  C3  UNL     1     -35.221  15.016  -3.054  1.00 20.00     0.307 C 
HETATM    4  C4  UNL     1     -34.108  16.029  -3.410  1.00 20.00     0.250 C 
HETATM    5  C6  UNL     1     -34.828  13.237  -4.664  1.00 20.00     0.310 C 
HETATM    6  C7  UNL     1     -33.549  17.904  -4.885  1.00 20.00     0.310 C 
HETATM    7  N9  UNL     1     -35.752  14.268  -4.199  1.00 20.00     0.088 N 
HETATM    8  N10 UNL     1     -34.577  16.947  -4.470  1.00 20.00     0.092 N 
ENDROOT
BRANCH   4   9
HETATM    9  C8  UNL     1     -33.710  16.774  -2.127  1.00 20.00     0.033 C 
HETATM   10  C5  UNL     1     -34.688  16.529  -1.030  1.00 20.00     0.007 C 
ENDBRANCH   4   9
TORSDOF 1
ENDMDL
MODEL 2
REMARK VINA RESULT:      -3.8      1.529      2.235
REMARK  1 active torsions:
REMARK  status: ('A' for Active; 'I' for Inactive)
REMARK    1  A    between atoms: C4_4  and  C8_8 
ROOT
HETATM    1  C1  UNL     1     -36.291  14.999  -5.592  1.00 20.00     0.302 C 
HETATM    2  C2  UNL     1     -35.219  14.054  -5.045  1.00 20.00     0.302 C 
HETATM    3  C3  UNL     1     -36.060  16.388  -3.642  1.00 20.00     0.307 C 
HETATM    4  C4  UNL     1     -34.972  15.448  -3.072  1.00 20.00     0.250 C 
HETATM    5  C6  UNL     1     -37.972  14.898  -3.839  1.00 20.00     0.310 C 
HETATM    6  C7  UNL     1     -33.250  13.821  -3.697  1.00 20.00     0.310 C 
HETATM    7  N9  UNL     1     -37.012  15.737  -4.551  1.00 20.00     0.088 N 
HETATM    8  N10 UNL     1     -34.266  14.762  -4.175  1.00 20.00     0.092 N 
ENDROOT
BRANCH   4   9
HETATM    9  C8  UNL     1     -34.023  16.286  -2.203  1.00 20.00     0.033 C 
HETATM   10  C5  UNL     1     -34.635  16.608  -0.883  1.00 20.00     0.007 C 
ENDBRANCH   4   9
TORSDOF 1
ENDMDL
MODEL 3
REMARK VINA RESULT:      -3.8      1.485      3.065
REMARK  1 active torsions:
REMARK  status: ('A' for Active; 'I' for Inactive)
REMARK    1  A    between atoms: C4_4  and  C8_8 
ROOT
HETATM    1  C1  UNL     1     -34.342  15.375  -7.269  1.00 20.00     0.302 C 
HETATM    2  C2  UNL     1     -35.030  14.365  -6.349  1.00 20.00     0.302 C 
HETATM    3  C3  UNL     1     -33.653  16.652  -5.350  1.00 20.00     0.307 C 
HETATM    4  C4  UNL     1     -34.340  15.641  -4.402  1.00 20.00     0.250 C 
HETATM    5  C6  UNL     1     -35.516  17.427  -6.707  1.00 20.00     0.310 C 
HETATM    6  C7  UNL     1     -35.062  13.309  -4.197  1.00 20.00     0.310 C 
HETATM    7  N9  UNL     1     -34.239  16.720  -6.694  1.00 20.00     0.088 N 
HETATM    8  N10 UNL     1     -34.381  14.303  -5.029  1.00 20.00     0.092 N 
ENDROOT
BRANCH   4   9
HETATM    9  C8  UNL     1     -33.575  15.638  -3.070  1.00 20.00     0.033 C 
HETATM   10  C5  UNL     1     -34.397  16.217  -1.969  1.00 20.00     0.007 C 
ENDBRANCH   4   9
TORSDOF 1
ENDMDL
MODEL 4
REMARK VINA RESULT:      -3.7      1.307      2.819
REMARK  1 active torsions:
REMARK  status: ('A' for Active; 'I' for Inactive)
REMARK    1  A    between atoms: C4_4  and  C8_8 
ROOT
HETATM    1  C1  UNL     1     -34.126  15.816  -6.119  1.00 20.00     0.302 C 
HETATM    2  C2  UNL     1     -35.560  15.653  -5.611  1.00 20.00     0.302 C 
HETATM    3  C3  UNL     1     -33.422  16.481  -3.918  1.00 20.00     0.307 C 
HETATM    4  C4  UNL     1     -34.864  16.319  -3.382  1.00 20.00     0.250 C 
HETATM    5  C6  UNL     1     -33.706  18.163  -5.650  1.00 20.00     0.310 C 
HETATM    6  C7  UNL     1     -36.982  15.142  -3.750  1.00 20.00     0.310 C 
HETATM    7  N9  UNL     1     -33.336  16.783  -5.351  1.00 20.00     0.088 N 
HETATM    8  N10 UNL     1     -35.592  15.309  -4.180  1.00 20.00     0.092 N 
ENDROOT
BRANCH   4   9
HETATM    9  C8  UNL     1     -34.784  15.941  -1.895  1.00 20.00     0.033 C 
HETATM   10  C5  UNL     1     -34.151  17.025  -1.092  1.00 20.00     0.007 C 
ENDBRANCH   4   9
TORSDOF 1
ENDMDL
MODEL 5
REMARK VINA RESULT:      -3.6      1.371      3.450
REMARK  1 active torsions:
REMARK  status: ('A' for Active; 'I' for Inactive)
REMARK    1  A    between atoms: C4_4  and  C8_8 
ROOT
HETATM    1  C1  UNL     1     -33.960  17.559  -3.156  1.00 20.00     0.302 C 
HETATM    2  C2  UNL     1     -35.331  17.612  -3.833  1.00 20.00     0.302 C 
HETATM    3  C3  UNL     1     -34.189  15.180  -2.885  1.00 20.00     0.307 C 
HETATM    4  C4  UNL     1     -35.576  15.211  -3.570  1.00 20.00     0.250 C 
HETATM    5  C6  UNL     1     -34.528  16.647  -0.976  1.00 20.00     0.310 C 
HETATM    6  C7  UNL     1     -36.959  16.458  -5.163  1.00 20.00     0.310 C 
HETATM    7  N9  UNL     1     -33.806  16.435  -2.228  1.00 20.00     0.088 N 
HETATM    8  N10 UNL     1     -35.650  16.347  -4.514  1.00 20.00     0.092 N 
ENDROOT
BRANCH   4   9
HETATM    9  C8  UNL     1     -35.798  13.859  -4.265  1.00 20.00     0.033 C 
HETATM   10  C5  UNL     1     -34.513  13.275  -4.742  1.00 20.00     0.007 C 
ENDBRANCH   4   9
TORSDOF 1
ENDMDL
MODEL 6
REMARK VINA RESULT:      -3.5      1.629      2.312
REMARK  1 active torsions:
REMARK  status: ('A' for Active; 'I' for Inactive)
REMARK    1  A    between atoms: C4_4  and  C8_8 
ROOT
HETATM    1  C1  UNL     1     -35.381  15.313  -4.961  1.00 20.00     0.302 C 
HETATM    2  C2  UNL     1     -36.263  16.438  -4.415  1.00 20.00     0.302 C 
HETATM    3  C3  UNL     1     -33.937  15.520  -3.049  1.00 20.00     0.307 C 
HETATM    4  C4  UNL     1     -34.816  16.657  -2.478  1.00 20.00     0.250 C 
HETATM    5  C6  UNL     1     -33.239  16.439  -5.190  1.00 20.00     0.310 C 
HETATM    6  C7  UNL     1     -37.086  17.579  -2.474  1.00 20.00     0.310 C 
HETATM    7  N9  UNL     1     -33.988  15.386  -4.509  1.00 20.00     0.088 N 
HETATM    8  N10 UNL     1     -36.210  16.504  -2.946  1.00 20.00     0.092 N 
ENDROOT
BRANCH   4   9
HETATM    9  C8  UNL     1     -34.708  16.623  -0.946  1.00 20.00     0.033 C 
HETATM   10  C5  UNL     1     -33.802  17.694  -0.441  1.00 20.00     0.007 C 
ENDBRANCH   4   9
TORSDOF 1
ENDMDL
MODEL 7
REMARK VINA RESULT:      -3.5      1.625      3.312
REMARK  1 active torsions:
REMARK  status: ('A' for Active; 'I' for Inactive)
REMARK    1  A    between atoms: C4_4  and  C8_8 
ROOT
HETATM    1  C1  UNL     1     -35.693  17.669  -4.934  1.00 20.00     0.302 C 
HETATM    2  C2  UNL     1     -35.406  17.612  -3.432  1.00 20.00     0.302 C 
HETATM    3  C3  UNL     1     -33.806  16.236  -5.347  1.00 20.00     0.307 C 
HETATM    4  C4  UNL     1     -33.500  16.162  -3.833  1.00 20.00     0.250 C 
HETATM    5  C6  UNL     1     -33.627  18.620  -5.790  1.00 20.00     0.310 C 
HETATM    6  C7  UNL     1     -34.511  16.340  -1.607  1.00 20.00     0.310 C 
HETATM    7  N9  UNL     1     -34.507  17.455  -5.768  1.00 20.00     0.088 N 
HETATM    8  N10 UNL     1     -34.743  16.354  -3.054  1.00 20.00     0.092 N 
ENDROOT
BRANCH   4   9
HETATM    9  C8  UNL     1     -32.834  14.809  -3.544  1.00 20.00     0.033 C 
HETATM   10  C5  UNL     1     -33.691  13.674  -3.990  1.00 20.00     0.007 C 
ENDBRANCH   4   9
TORSDOF 1
ENDMDL
MODEL 8
REMARK VINA RESULT:      -3.5      1.621      3.445
REMARK  1 active torsions:
REMARK  status: ('A' for Active; 'I' for Inactive)
REMARK    1  A    between atoms: C4_4  and  C8_8 
ROOT
HETATM    1  C1  UNL     1     -33.940  18.373  -2.149  1.00 20.00     0.302 C 
HETATM    2  C2  UNL     1     -33.794  18.086  -3.646  1.00 20.00     0.302 C 
HETATM    3  C3  UNL     1     -34.653  16.104  -1.787  1.00 20.00     0.307 C 
HETATM    4  C4  UNL     1     -34.508  15.793  -3.295  1.00 20.00     0.250 C 
HETATM    5  C6  UNL     1     -36.296  17.897  -1.791  1.00 20.00     0.310 C 
HETATM    6  C7  UNL     1     -33.331  16.454  -5.340  1.00 20.00     0.310 C 
HETATM    7  N9  UNL     1     -34.922  17.514  -1.480  1.00 20.00     0.088 N 
HETATM    8  N10 UNL     1     -33.483  16.670  -3.899  1.00 20.00     0.092 N 
ENDROOT
BRANCH   4   9
HETATM    9  C8  UNL     1     -34.164  14.303  -3.446  1.00 20.00     0.033 C 
HETATM   10  C5  UNL     1     -35.260  13.558  -4.128  1.00 20.00     0.007 C 
ENDBRANCH   4   9
TORSDOF 1
ENDMDL
MODEL 9
REMARK VINA RESULT:      -3.4      1.956      3.088
REMARK  1 active torsions:
REMARK  status: ('A' for Active; 'I' for Inactive)
REMARK    1  A    between atoms: C4_4  and  C8_8 
ROOT
HETATM    1  C1  UNL     1     -36.041  17.327  -4.549  1.00 20.00     0.302 C 
HETATM    2  C2  UNL     1     -35.838  16.626  -5.895  1.00 20.00     0.302 C 
HETATM    3  C3  UNL     1     -35.802  15.219  -3.417  1.00 20.00     0.307 C 
HETATM    4  C4  UNL     1     -35.591  14.491  -4.765  1.00 20.00     0.250 C 
HETATM    5  C6  UNL     1     -38.013  16.190  -3.699  1.00 20.00     0.310 C 
HETATM    6  C7  UNL     1     -34.826  14.800  -7.072  1.00 20.00     0.310 C 
HETATM    7  N9  UNL     1     -36.589  16.454  -3.508  1.00 20.00     0.088 N 
HETATM    8  N10 UNL     1     -35.007  15.419  -5.757  1.00 20.00     0.092 N 
ENDROOT
BRANCH   4   9
HETATM    9  C8  UNL     1     -34.699  13.266  -4.514  1.00 20.00     0.033 C 
HETATM   10  C5  UNL     1     -33.450  13.642  -3.793  1.00 20.00     0.007 C 
ENDBRANCH   4   9
TORSDOF 1
ENDMDL
