MODEL 1
REMARK VINA RESULT:      -4.8      0.000      0.000
REMARK  1 active torsions:
REMARK  status: ('A' for Active; 'I' for Inactive)
REMARK    1  A    between atoms: C7_7  and  C10_10 
ROOT
HETATM    1  C1  UNL     1     -34.964  13.821  -5.843  1.00 20.00    -0.018 C 
HETATM    2  C2  UNL     1     -34.211  14.933  -5.781  1.00 20.00    -0.024 C 
HETATM    3  C3  UNL     1     -36.149  14.459  -3.872  1.00 20.00     0.139 C 
HETATM    4  C4  UNL     1     -33.924  13.824  -3.774  1.00 20.00     0.025 C 
HETATM    5  C5  UNL     1     -35.233  13.377  -4.431  1.00 20.00     0.078 C 
HETATM    6  C6  UNL     1     -34.002  15.260  -4.313  1.00 20.00     0.020 C 
HETATM    7  C7  UNL     1     -35.360  15.771  -3.748  1.00 20.00     0.067 C 
HETATM    8  O11 UNL     1     -37.332  14.315  -3.604  1.00 20.00    -0.297 OA
ENDROOT
BRANCH   7   9
HETATM    9  C10 UNL     1     -35.293  16.260  -2.314  1.00 20.00    -0.011 C 
HETATM   10  C8  UNL     1     -33.867  16.678  -1.945  1.00 20.00     0.010 C 
HETATM   11  C9  UNL     1     -36.261  17.424  -2.087  1.00 20.00     0.010 C 
ENDBRANCH   7   9
TORSDOF 1
ENDMDL
MODEL 2
REMARK VINA RESULT:      -4.7      2.128      3.953
REMARK  1 active torsions:
REMARK  status: ('A' for Active; 'I' for Inactive)
REMARK    1  A    between atoms: C7_7  and  C10_10 
ROOT
HETATM    1  C1  UNL     1     -34.651  15.149  -2.826  1.00 20.00    -0.018 C 
HETATM    2  C2  UNL     1     -35.797  14.878  -3.474  1.00 20.00    -0.024 C 
HETATM    3  C3  UNL     1     -33.646  15.940  -4.842  1.00 20.00     0.139 C 
HETATM    4  C4  UNL     1     -34.129  13.694  -4.550  1.00 20.00     0.025 C 
HETATM    5  C5  UNL     1     -33.517  14.862  -3.772  1.00 20.00     0.078 C 
HETATM    6  C6  UNL     1     -35.432  14.438  -4.880  1.00 20.00     0.020 C 
HETATM    7  C7  UNL     1     -34.929  15.694  -5.650  1.00 20.00     0.067 C 
HETATM    8  O11 UNL     1     -32.874  16.872  -5.004  1.00 20.00    -0.297 OA
ENDROOT
BRANCH   7   9
HETATM    9  C10 UNL     1     -34.638  15.450  -7.118  1.00 20.00    -0.011 C 
HETATM   10  C8  UNL     1     -35.594  14.405  -7.699  1.00 20.00     0.010 C 
HETATM   11  C9  UNL     1     -34.728  16.752  -7.918  1.00 20.00     0.010 C 
ENDBRANCH   7   9
TORSDOF 1
ENDMDL
MODEL 3
REMARK VINA RESULT:      -4.7      1.767      3.519
REMARK  1 active torsions:
REMARK  status: ('A' for Active; 'I' for Inactive)
REMARK    1  A    between atoms: C7_7  and  C10_10 
ROOT
HETATM    1  C1  UNL     1     -32.906  14.686  -3.446  1.00 20.00    -0.018 C 
HETATM    2  C2  UNL     1     -32.925  15.787  -4.217  1.00 20.00    -0.024 C 
HETATM    3  C3  UNL     1     -34.543  13.635  -4.830  1.00 20.00     0.139 C 
HETATM    4  C4  UNL     1     -35.094  15.444  -3.495  1.00 20.00     0.025 C 
HETATM    5  C5  UNL     1     -34.306  14.135  -3.410  1.00 20.00     0.078 C 
HETATM    6  C6  UNL     1     -34.343  15.958  -4.733  1.00 20.00     0.020 C 
HETATM    7  C7  UNL     1     -34.599  14.838  -5.784  1.00 20.00     0.067 C 
HETATM    8  O11 UNL     1     -34.633  12.463  -5.161  1.00 20.00    -0.297 OA
ENDROOT
BRANCH   7   9
HETATM    9  C10 UNL     1     -35.937  14.940  -6.490  1.00 20.00    -0.011 C 
HETATM   10  C8  UNL     1     -36.436  16.387  -6.509  1.00 20.00     0.010 C 
HETATM   11  C9  UNL     1     -35.845  14.394  -7.917  1.00 20.00     0.010 C 
ENDBRANCH   7   9
TORSDOF 1
ENDMDL
MODEL 4
REMARK VINA RESULT:      -4.6      1.741      2.241
REMARK  1 active torsions:
REMARK  status: ('A' for Active; 'I' for Inactive)
REMARK    1  A    between atoms: C7_7  and  C10_10 
ROOT
HETATM    1  C1  UNL     1     -34.423  13.884  -5.196  1.00 20.00    -0.018 C 
HETATM    2  C2  UNL     1     -33.953  13.649  -3.958  1.00 20.00    -0.024 C 
HETATM    3  C3  UNL     1     -34.621  16.217  -4.724  1.00 20.00     0.139 C 
HETATM    4  C4  UNL     1     -36.011  14.670  -3.705  1.00 20.00     0.025 C 
HETATM    5  C5  UNL     1     -35.442  14.986  -5.091  1.00 20.00     0.078 C 
HETATM    6  C6  UNL     1     -34.637  14.625  -3.018  1.00 20.00     0.020 C 
HETATM    7  C7  UNL     1     -34.057  16.040  -3.306  1.00 20.00     0.067 C 
HETATM    8  O11 UNL     1     -34.412  17.170  -5.457  1.00 20.00    -0.297 OA
ENDROOT
BRANCH   7   9
HETATM    9  C10 UNL     1     -34.550  17.120  -2.362  1.00 20.00    -0.011 C 
HETATM   10  C8  UNL     1     -34.607  16.602  -0.922  1.00 20.00     0.010 C 
HETATM   11  C9  UNL     1     -33.661  18.364  -2.442  1.00 20.00     0.010 C 
ENDBRANCH   7   9
TORSDOF 1
ENDMDL
MODEL 5
REMARK VINA RESULT:      -4.5      1.286      3.885
REMARK  1 active torsions:
REMARK  status: ('A' for Active; 'I' for Inactive)
REMARK    1  A    between atoms: C7_7  and  C10_10 
ROOT
HETATM    1  C1  UNL     1     -35.588  17.771  -0.927  1.00 20.00    -0.018 C 
HETATM    2  C2  UNL     1     -34.537  17.011  -0.573  1.00 20.00    -0.024 C 
HETATM    3  C3  UNL     1     -35.933  16.457  -2.891  1.00 20.00     0.139 C 
HETATM    4  C4  UNL     1     -34.082  17.833  -2.685  1.00 20.00     0.025 C 
HETATM    5  C5  UNL     1     -35.591  17.869  -2.428  1.00 20.00     0.078 C 
HETATM    6  C6  UNL     1     -33.847  16.565  -1.850  1.00 20.00     0.020 C 
HETATM    7  C7  UNL     1     -34.769  15.518  -2.541  1.00 20.00     0.067 C 
HETATM    8  O11 UNL     1     -36.982  16.120  -3.417  1.00 20.00    -0.297 OA
ENDROOT
BRANCH   7   9
HETATM    9  C10 UNL     1     -34.166  14.877  -3.776  1.00 20.00    -0.011 C 
HETATM   10  C8  UNL     1     -32.654  14.699  -3.618  1.00 20.00     0.010 C 
HETATM   11  C9  UNL     1     -34.829  13.529  -4.072  1.00 20.00     0.010 C 
ENDBRANCH   7   9
TORSDOF 1
ENDMDL
MODEL 6
REMARK VINA RESULT:      -4.5      1.959      3.055
REMARK  1 active torsions:
REMARK  status: ('A' for Active; 'I' for Inactive)
REMARK    1  A    between atoms: C7_7  and  C10_10 
ROOT
HETATM    1  C1  UNL     1     -33.367  13.579  -3.670  1.00 20.00    -0.018 C 
HETATM    2  C2  UNL     1     -32.528  14.629  -3.640  1.00 20.00    -0.024 C 
HETATM    3  C3  UNL     1     -34.678  14.618  -5.373  1.00 20.00     0.139 C 
HETATM    4  C4  UNL     1     -34.644  15.457  -3.215  1.00 20.00     0.025 C 
HETATM    5  C5  UNL     1     -34.749  14.111  -3.938  1.00 20.00     0.078 C 
HETATM    6  C6  UNL     1     -33.347  15.875  -3.926  1.00 20.00     0.020 C 
HETATM    7  C7  UNL     1     -33.748  15.840  -5.430  1.00 20.00     0.067 C 
HETATM    8  O11 UNL     1     -35.239  14.109  -6.331  1.00 20.00    -0.297 OA
ENDROOT
BRANCH   7   9
HETATM    9  C10 UNL     1     -34.472  17.082  -5.911  1.00 20.00    -0.011 C 
HETATM   10  C8  UNL     1     -33.795  18.349  -5.380  1.00 20.00     0.010 C 
HETATM   11  C9  UNL     1     -34.539  17.119  -7.440  1.00 20.00     0.010 C 
ENDBRANCH   7   9
TORSDOF 1
ENDMDL
MODEL 7
REMARK VINA RESULT:      -4.5      1.665      2.299
REMARK  1 active torsions:
REMARK  status: ('A' for Active; 'I' for Inactive)
REMARK    1  A    between atoms: C7_7  and  C10_10 
ROOT
HETATM    1  C1  UNL     1     -36.176  14.848  -6.868  1.00 20.00    -0.018 C 
HETATM    2  C2  UNL     1     -36.541  15.821  -6.015  1.00 20.00    -0.024 C 
HETATM    3  C3  UNL     1     -34.908  13.765  -5.159  1.00 20.00     0.139 C 
HETATM    4  C4  UNL     1     -34.230  15.795  -6.043  1.00 20.00     0.025 C 
HETATM    5  C5  UNL     1     -34.770  14.443  -6.517  1.00 20.00     0.078 C 
HETATM    6  C6  UNL     1     -35.383  16.047  -5.059  1.00 20.00     0.020 C 
HETATM    7  C7  UNL     1     -35.308  14.815  -4.111  1.00 20.00     0.067 C 
HETATM    8  O11 UNL     1     -34.765  12.571  -4.947  1.00 20.00    -0.297 OA
ENDROOT
BRANCH   7   9
HETATM    9  C10 UNL     1     -34.274  14.939  -3.009  1.00 20.00    -0.011 C 
HETATM   10  C8  UNL     1     -32.861  15.025  -3.592  1.00 20.00     0.010 C 
HETATM   11  C9  UNL     1     -34.557  16.158  -2.128  1.00 20.00     0.010 C 
ENDBRANCH   7   9
TORSDOF 1
ENDMDL
MODEL 8
REMARK VINA RESULT:      -4.4      1.730      2.512
REMARK  1 active torsions:
REMARK  status: ('A' for Active; 'I' for Inactive)
REMARK    1  A    between atoms: C7_7  and  C10_10 
ROOT
HETATM    1  C1  UNL     1     -34.835  13.334  -4.871  1.00 20.00    -0.018 C 
HETATM    2  C2  UNL     1     -35.896  13.646  -4.108  1.00 20.00    -0.024 C 
HETATM    3  C3  UNL     1     -33.535  15.052  -3.843  1.00 20.00     0.139 C 
HETATM    4  C4  UNL     1     -35.306  15.571  -5.242  1.00 20.00     0.025 C 
HETATM    5  C5  UNL     1     -34.111  14.615  -5.185  1.00 20.00     0.078 C 
HETATM    6  C6  UNL     1     -35.866  15.146  -3.876  1.00 20.00     0.020 C 
HETATM    7  C7  UNL     1     -34.686  15.448  -2.907  1.00 20.00     0.067 C 
HETATM    8  O11 UNL     1     -32.350  15.048  -3.548  1.00 20.00    -0.297 OA
ENDROOT
BRANCH   7   9
HETATM    9  C10 UNL     1     -34.592  16.898  -2.473  1.00 20.00    -0.011 C 
HETATM   10  C8  UNL     1     -35.974  17.555  -2.458  1.00 20.00     0.010 C 
HETATM   11  C9  UNL     1     -33.935  17.016  -1.096  1.00 20.00     0.010 C 
ENDBRANCH   7   9
TORSDOF 1
ENDMDL
MODEL 9
REMARK VINA RESULT:      -4.2      1.622      2.861
REMARK  1 active torsions:
REMARK  status: ('A' for Active; 'I' for Inactive)
REMARK    1  A    between atoms: C7_7  and  C10_10 
ROOT
HETATM    1  C1  UNL     1     -33.344  13.834  -3.767  1.00 20.00    -0.018 C 
HETATM    2  C2  UNL     1     -34.213  13.167  -4.546  1.00 20.00    -0.024 C 
HETATM    3  C3  UNL     1     -35.041  15.391  -3.134  1.00 20.00     0.139 C 
HETATM    4  C4  UNL     1     -34.199  15.355  -5.290  1.00 20.00     0.025 C 
HETATM    5  C5  UNL     1     -33.696  15.295  -3.846  1.00 20.00     0.078 C 
HETATM    6  C6  UNL     1     -35.180  14.184  -5.126  1.00 20.00     0.020 C 
HETATM    7  C7  UNL     1     -36.105  14.665  -3.970  1.00 20.00     0.067 C 
HETATM    8  O11 UNL     1     -35.231  15.923  -2.052  1.00 20.00    -0.297 OA
ENDROOT
BRANCH   7   9
HETATM    9  C10 UNL     1     -37.216  15.599  -4.410  1.00 20.00    -0.011 C 
HETATM   10  C8  UNL     1     -37.597  15.346  -5.870  1.00 20.00     0.010 C 
HETATM   11  C9  UNL     1     -38.444  15.450  -3.509  1.00 20.00     0.010 C 
ENDBRANCH   7   9
TORSDOF 1
ENDMDL
