MODEL 1
REMARK VINA RESULT:      -4.7      0.000      0.000
REMARK  0 active torsions:
REMARK  status: ('A' for Active; 'I' for Inactive)
ROOT
HETATM    1  C1  UNL     1     -35.575  14.446  -7.912  1.00 20.00     0.001 C 
HETATM    2  C2  UNL     1     -36.810  15.050  -7.248  1.00 20.00     0.001 C 
HETATM    3  C3  UNL     1     -35.097  14.707  -3.433  1.00 20.00     0.004 C 
HETATM    4  C4  UNL     1     -33.967  15.589  -2.910  1.00 20.00     0.034 C 
HETATM    5  C5  UNL     1     -34.376  15.116  -7.252  1.00 20.00     0.012 C 
HETATM    6  C6  UNL     1     -36.294  15.993  -6.162  1.00 20.00     0.012 C 
HETATM    7  C7  UNL     1     -34.861  14.300  -4.890  1.00 20.00     0.012 C 
HETATM    8  C8  UNL     1     -33.629  16.700  -3.851  1.00 20.00     0.152 A 
HETATM    9  C9  UNL     1     -34.033  16.657  -5.302  1.00 20.00     0.159 A 
HETATM   10  C10 UNL     1     -34.860  15.520  -5.848  1.00 20.00    -0.012 C 
HETATM   11  O11 UNL     1     -32.709  16.306  -4.885  1.00 20.00    -0.375 OA
ENDROOT
TORSDOF 0
ENDMDL
MODEL 2
REMARK VINA RESULT:      -4.6      2.257      3.307
REMARK  0 active torsions:
REMARK  status: ('A' for Active; 'I' for Inactive)
ROOT
HETATM    1  C1  UNL     1     -38.176  16.108  -3.594  1.00 20.00     0.001 C 
HETATM    2  C2  UNL     1     -37.367  17.095  -4.429  1.00 20.00     0.001 C 
HETATM    3  C3  UNL     1     -33.742  15.387  -3.183  1.00 20.00     0.004 C 
HETATM    4  C4  UNL     1     -33.216  14.034  -3.655  1.00 20.00     0.034 C 
HETATM    5  C5  UNL     1     -37.542  14.742  -3.827  1.00 20.00     0.012 C 
HETATM    6  C6  UNL     1     -36.231  16.290  -5.060  1.00 20.00     0.012 C 
HETATM    7  C7  UNL     1     -35.246  15.336  -2.903  1.00 20.00     0.012 C 
HETATM    8  C8  UNL     1     -34.061  13.439  -4.733  1.00 20.00     0.152 A 
HETATM    9  C9  UNL     1     -35.476  13.899  -4.975  1.00 20.00     0.159 A 
HETATM   10  C10 UNL     1     -36.072  15.034  -4.180  1.00 20.00    -0.012 C 
HETATM   11  O11 UNL     1     -35.195  12.710  -4.228  1.00 20.00    -0.375 OA
ENDROOT
TORSDOF 0
ENDMDL
MODEL 3
REMARK VINA RESULT:      -4.6     11.950     13.768
REMARK  0 active torsions:
REMARK  status: ('A' for Active; 'I' for Inactive)
ROOT
HETATM    1  C1  UNL     1     -32.436   8.156   2.727  1.00 20.00     0.001 C 
HETATM    2  C2  UNL     1     -31.389   7.131   3.154  1.00 20.00     0.001 C 
HETATM    3  C3  UNL     1     -33.840   5.714   6.251  1.00 20.00     0.004 C 
HETATM    4  C4  UNL     1     -35.087   4.858   6.045  1.00 20.00     0.034 C 
HETATM    5  C5  UNL     1     -33.771   7.421   2.737  1.00 20.00     0.012 C 
HETATM    6  C6  UNL     1     -32.154   5.849   3.481  1.00 20.00     0.012 C 
HETATM    7  C7  UNL     1     -33.754   6.836   5.214  1.00 20.00     0.012 C 
HETATM    8  C8  UNL     1     -35.265   4.445   4.620  1.00 20.00     0.152 A 
HETATM    9  C9  UNL     1     -34.568   5.166   3.495  1.00 20.00     0.159 A 
HETATM   10  C10 UNL     1     -33.603   6.292   3.770  1.00 20.00    -0.012 C 
HETATM   11  O11 UNL     1     -35.936   5.437   3.821  1.00 20.00    -0.375 OA
ENDROOT
TORSDOF 0
ENDMDL
MODEL 4
REMARK VINA RESULT:      -4.5      2.194      4.026
REMARK  0 active torsions:
REMARK  status: ('A' for Active; 'I' for Inactive)
ROOT
HETATM    1  C1  UNL     1     -33.136  14.004  -3.762  1.00 20.00     0.001 C 
HETATM    2  C2  UNL     1     -33.024  15.517  -3.925  1.00 20.00     0.001 C 
HETATM    3  C3  UNL     1     -36.441  15.648  -6.356  1.00 20.00     0.004 C 
HETATM    4  C4  UNL     1     -37.870  15.468  -5.851  1.00 20.00     0.034 C 
HETATM    5  C5  UNL     1     -34.609  13.720  -3.493  1.00 20.00     0.012 C 
HETATM    6  C6  UNL     1     -34.447  16.065  -3.830  1.00 20.00     0.012 C 
HETATM    7  C7  UNL     1     -35.484  14.655  -5.694  1.00 20.00     0.012 C 
HETATM    8  C8  UNL     1     -37.940  15.389  -4.360  1.00 20.00     0.152 A 
HETATM    9  C9  UNL     1     -36.727  15.064  -3.527  1.00 20.00     0.159 A 
HETATM   10  C10 UNL     1     -35.373  14.877  -4.163  1.00 20.00    -0.012 C 
HETATM   11  O11 UNL     1     -37.699  14.064  -3.851  1.00 20.00    -0.375 OA
ENDROOT
TORSDOF 0
ENDMDL
MODEL 5
REMARK VINA RESULT:      -4.5      1.699      3.954
REMARK  0 active torsions:
REMARK  status: ('A' for Active; 'I' for Inactive)
ROOT
HETATM    1  C1  UNL     1     -35.564  17.389  -1.678  1.00 20.00     0.001 C 
HETATM    2  C2  UNL     1     -34.293  16.630  -1.307  1.00 20.00     0.001 C 
HETATM    3  C3  UNL     1     -35.098  13.630  -4.128  1.00 20.00     0.004 C 
HETATM    4  C4  UNL     1     -34.959  13.802  -5.638  1.00 20.00     0.034 C 
HETATM    5  C5  UNL     1     -35.622  17.389  -3.201  1.00 20.00     0.012 C 
HETATM    6  C6  UNL     1     -33.690  16.136  -2.622  1.00 20.00     0.012 C 
HETATM    7  C7  UNL     1     -35.734  14.861  -3.480  1.00 20.00     0.012 C 
HETATM    8  C8  UNL     1     -34.357  15.118  -6.007  1.00 20.00     0.152 A 
HETATM    9  C9  UNL     1     -34.332  16.276  -5.043  1.00 20.00     0.159 A 
HETATM   10  C10 UNL     1     -34.853  16.128  -3.635  1.00 20.00    -0.012 C 
HETATM   11  O11 UNL     1     -35.321  16.185  -6.074  1.00 20.00    -0.375 OA
ENDROOT
TORSDOF 0
ENDMDL
MODEL 6
REMARK VINA RESULT:      -4.5      1.567      2.420
REMARK  0 active torsions:
REMARK  status: ('A' for Active; 'I' for Inactive)
ROOT
HETATM    1  C1  UNL     1     -36.744  15.732  -7.110  1.00 20.00     0.001 C 
HETATM    2  C2  UNL     1     -35.450  15.787  -7.917  1.00 20.00     0.001 C 
HETATM    3  C3  UNL     1     -33.128  16.062  -4.432  1.00 20.00     0.004 C 
HETATM    4  C4  UNL     1     -32.875  14.906  -3.468  1.00 20.00     0.034 C 
HETATM    5  C5  UNL     1     -36.481  14.764  -5.962  1.00 20.00     0.012 C 
HETATM    6  C6  UNL     1     -34.442  14.915  -7.169  1.00 20.00     0.012 C 
HETATM    7  C7  UNL     1     -34.584  16.090  -4.903  1.00 20.00     0.012 C 
HETATM    8  C8  UNL     1     -33.422  13.612  -3.975  1.00 20.00     0.152 A 
HETATM    9  C9  UNL     1     -34.472  13.565  -5.055  1.00 20.00     0.159 A 
HETATM   10  C10 UNL     1     -34.962  14.827  -5.720  1.00 20.00    -0.012 C 
HETATM   11  O11 UNL     1     -34.818  13.428  -3.672  1.00 20.00    -0.375 OA
ENDROOT
TORSDOF 0
ENDMDL
MODEL 7
REMARK VINA RESULT:      -4.4      1.607      4.002
REMARK  0 active torsions:
REMARK  status: ('A' for Active; 'I' for Inactive)
ROOT
HETATM    1  C1  UNL     1     -34.079  17.330  -2.071  1.00 20.00     0.001 C 
HETATM    2  C2  UNL     1     -35.582  17.393  -2.330  1.00 20.00     0.001 C 
HETATM    3  C3  UNL     1     -35.161  15.481  -6.041  1.00 20.00     0.004 C 
HETATM    4  C4  UNL     1     -34.850  13.997  -6.220  1.00 20.00     0.034 C 
HETATM    5  C5  UNL     1     -33.645  15.924  -2.467  1.00 20.00     0.012 C 
HETATM    6  C6  UNL     1     -35.966  16.050  -2.950  1.00 20.00     0.012 C 
HETATM    7  C7  UNL     1     -34.330  16.096  -4.913  1.00 20.00     0.012 C 
HETATM    8  C8  UNL     1     -34.859  13.254  -4.924  1.00 20.00     0.152 A 
HETATM    9  C9  UNL     1     -34.730  13.967  -3.602  1.00 20.00     0.159 A 
HETATM   10  C10 UNL     1     -34.661  15.472  -3.532  1.00 20.00    -0.012 C 
HETATM   11  O11 UNL     1     -33.606  13.330  -4.218  1.00 20.00    -0.375 OA
ENDROOT
TORSDOF 0
ENDMDL
MODEL 8
REMARK VINA RESULT:      -4.4      1.924      4.453
REMARK  0 active torsions:
REMARK  status: ('A' for Active; 'I' for Inactive)
ROOT
HETATM    1  C1  UNL     1     -33.689  17.388  -1.023  1.00 20.00     0.001 C 
HETATM    2  C2  UNL     1     -33.804  18.527  -2.032  1.00 20.00     0.001 C 
HETATM    3  C3  UNL     1     -33.386  15.889  -5.267  1.00 20.00     0.004 C 
HETATM    4  C4  UNL     1     -34.464  14.915  -5.735  1.00 20.00     0.034 C 
HETATM    5  C5  UNL     1     -34.566  16.263  -1.561  1.00 20.00     0.012 C 
HETATM    6  C6  UNL     1     -34.677  18.004  -3.172  1.00 20.00     0.012 C 
HETATM    7  C7  UNL     1     -33.292  15.931  -3.740  1.00 20.00     0.012 C 
HETATM    8  C8  UNL     1     -35.755  15.104  -5.007  1.00 20.00     0.152 A 
HETATM    9  C9  UNL     1     -35.822  15.833  -3.690  1.00 20.00     0.159 A 
HETATM   10  C10 UNL     1     -34.593  16.466  -3.087  1.00 20.00    -0.012 C 
HETATM   11  O11 UNL     1     -35.806  14.403  -3.751  1.00 20.00    -0.375 OA
ENDROOT
TORSDOF 0
ENDMDL
MODEL 9
REMARK VINA RESULT:      -4.4      1.237      1.472
REMARK  0 active torsions:
REMARK  status: ('A' for Active; 'I' for Inactive)
ROOT
HETATM    1  C1  UNL     1     -35.770  16.729  -7.677  1.00 20.00     0.001 C 
HETATM    2  C2  UNL     1     -36.910  16.430  -6.708  1.00 20.00     0.001 C 
HETATM    3  C3  UNL     1     -34.648  13.496  -4.738  1.00 20.00     0.004 C 
HETATM    4  C4  UNL     1     -33.477  13.788  -3.803  1.00 20.00     0.034 C 
HETATM    5  C5  UNL     1     -34.505  16.793  -6.830  1.00 20.00     0.012 C 
HETATM    6  C6  UNL     1     -36.266  16.245  -5.334  1.00 20.00     0.012 C 
HETATM    7  C7  UNL     1     -34.617  14.399  -5.974  1.00 20.00     0.012 C 
HETATM    8  C8  UNL     1     -33.311  15.249  -3.540  1.00 20.00     0.152 A 
HETATM    9  C9  UNL     1     -33.922  16.291  -4.442  1.00 20.00     0.159 A 
HETATM   10  C10 UNL     1     -34.789  15.897  -5.611  1.00 20.00    -0.012 C 
HETATM   11  O11 UNL     1     -32.542  15.925  -4.552  1.00 20.00    -0.375 OA
ENDROOT
TORSDOF 0
ENDMDL
