MODEL 1
REMARK VINA RESULT:      -5.1      0.000      0.000
REMARK  2 active torsions:
REMARK  status: ('A' for Active; 'I' for Inactive)
REMARK    1  A    between atoms: C7_7  and  C10_10 
REMARK    2  A    between atoms: C9_9  and  C10_10 
ROOT
HETATM    1  C1  UNL     1     -32.254   9.517   1.459  1.00 20.00     0.012 C 
HETATM    2  C2  UNL     1     -32.262   8.376   1.830  1.00 20.00    -0.117 C 
HETATM    3  C9  UNL     1     -32.272   6.977   2.279  1.00 20.00     0.093 C 
ENDROOT
BRANCH   3   4
HETATM    4  C10 UNL     1     -32.398   6.911   3.789  1.00 20.00     0.020 C 
BRANCH   4   5
HETATM    5  C7  UNL     1     -33.825   6.588   4.198  1.00 20.00     0.023 C 
HETATM    6  C4  UNL     1     -34.361   5.359   3.439  1.00 20.00     0.008 C 
HETATM    7  C3  UNL     1     -35.423   4.786   4.373  1.00 20.00     0.004 C 
HETATM    8  C5  UNL     1     -34.788   4.924   5.756  1.00 20.00     0.041 C 
HETATM    9  C8  UNL     1     -33.983   6.186   5.646  1.00 20.00     0.086 A 
HETATM   10  C6  UNL     1     -33.166   6.725   6.799  1.00 20.00     0.207 A 
HETATM   11  O11 UNL     1     -34.458   7.253   6.487  1.00 20.00    -0.375 OA
ENDBRANCH   4   5
ENDBRANCH   3   4
TORSDOF 2
ENDMDL
MODEL 2
REMARK VINA RESULT:      -5.1     11.228     12.560
REMARK  2 active torsions:
REMARK  status: ('A' for Active; 'I' for Inactive)
REMARK    1  A    between atoms: C7_7  and  C10_10 
REMARK    2  A    between atoms: C9_9  and  C10_10 
ROOT
HETATM    1  C1  UNL     1     -34.621  17.458   0.216  1.00 20.00     0.012 C 
HETATM    2  C2  UNL     1     -34.696  16.778  -0.770  1.00 20.00    -0.117 C 
HETATM    3  C9  UNL     1     -34.792  15.944  -1.975  1.00 20.00     0.093 C 
ENDROOT
BRANCH   3   4
HETATM    4  C10 UNL     1     -33.602  16.193  -2.882  1.00 20.00     0.020 C 
BRANCH   4   5
HETATM    5  C7  UNL     1     -33.562  15.178  -4.013  1.00 20.00     0.023 C 
HETATM    6  C4  UNL     1     -34.111  13.812  -3.559  1.00 20.00     0.008 C 
HETATM    7  C3  UNL     1     -34.621  13.177  -4.849  1.00 20.00     0.004 C 
HETATM    8  C5  UNL     1     -35.285  14.343  -5.580  1.00 20.00     0.041 C 
HETATM    9  C8  UNL     1     -34.442  15.523  -5.191  1.00 20.00     0.086 A 
HETATM   10  C6  UNL     1     -34.734  16.921  -5.687  1.00 20.00     0.207 A 
HETATM   11  O11 UNL     1     -33.723  16.110  -6.291  1.00 20.00    -0.375 OA
ENDBRANCH   4   5
ENDBRANCH   3   4
TORSDOF 2
ENDMDL
MODEL 3
REMARK VINA RESULT:      -4.8     11.227     11.980
REMARK  2 active torsions:
REMARK  status: ('A' for Active; 'I' for Inactive)
REMARK    1  A    between atoms: C7_7  and  C10_10 
REMARK    2  A    between atoms: C9_9  and  C10_10 
ROOT
HETATM    1  C1  UNL     1     -35.179  17.520   1.021  1.00 20.00     0.012 C 
HETATM    2  C2  UNL     1     -34.778  17.152  -0.049  1.00 20.00    -0.117 C 
HETATM    3  C9  UNL     1     -34.283  16.703  -1.357  1.00 20.00     0.093 C 
ENDROOT
BRANCH   3   4
HETATM    4  C10 UNL     1     -35.446  16.389  -2.279  1.00 20.00     0.020 C 
BRANCH   4   5
HETATM    5  C7  UNL     1     -34.970  15.642  -3.514  1.00 20.00     0.023 C 
HETATM    6  C4  UNL     1     -33.704  14.817  -3.217  1.00 20.00     0.008 C 
HETATM    7  C3  UNL     1     -33.756  13.686  -4.240  1.00 20.00     0.004 C 
HETATM    8  C5  UNL     1     -35.234  13.299  -4.264  1.00 20.00     0.041 C 
HETATM    9  C8  UNL     1     -35.939  14.602  -4.026  1.00 20.00     0.086 A 
HETATM   10  C6  UNL     1     -37.447  14.704  -3.964  1.00 20.00     0.207 A 
HETATM   11  O11 UNL     1     -36.722  15.052  -5.147  1.00 20.00    -0.375 OA
ENDBRANCH   4   5
ENDBRANCH   3   4
TORSDOF 2
ENDMDL
MODEL 4
REMARK VINA RESULT:      -4.7     11.272     12.799
REMARK  2 active torsions:
REMARK  status: ('A' for Active; 'I' for Inactive)
REMARK    1  A    between atoms: C7_7  and  C10_10 
REMARK    2  A    between atoms: C9_9  and  C10_10 
ROOT
HETATM    1  C1  UNL     1     -33.481  18.111  -0.230  1.00 20.00     0.012 C 
HETATM    2  C2  UNL     1     -33.986  17.258  -0.907  1.00 20.00    -0.117 C 
HETATM    3  C9  UNL     1     -34.608  16.214  -1.732  1.00 20.00     0.093 C 
ENDROOT
BRANCH   3   4
HETATM    4  C10 UNL     1     -33.717  15.878  -2.913  1.00 20.00     0.020 C 
BRANCH   4   5
HETATM    5  C7  UNL     1     -34.465  16.056  -4.224  1.00 20.00     0.023 C 
HETATM    6  C4  UNL     1     -33.585  16.749  -5.281  1.00 20.00     0.008 C 
HETATM    7  C3  UNL     1     -34.159  16.264  -6.609  1.00 20.00     0.004 C 
HETATM    8  C5  UNL     1     -34.455  14.788  -6.348  1.00 20.00     0.041 C 
HETATM    9  C8  UNL     1     -34.853  14.763  -4.901  1.00 20.00     0.086 A 
HETATM   10  C6  UNL     1     -35.238  13.484  -4.192  1.00 20.00     0.207 A 
HETATM   11  O11 UNL     1     -36.227  14.392  -4.683  1.00 20.00    -0.375 OA
ENDBRANCH   4   5
ENDBRANCH   3   4
TORSDOF 2
ENDMDL
MODEL 5
REMARK VINA RESULT:      -4.6     10.935     12.567
REMARK  2 active torsions:
REMARK  status: ('A' for Active; 'I' for Inactive)
REMARK    1  A    between atoms: C7_7  and  C10_10 
REMARK    2  A    between atoms: C9_9  and  C10_10 
ROOT
HETATM    1  C1  UNL     1     -34.421  16.631  -1.173  1.00 20.00     0.012 C 
HETATM    2  C2  UNL     1     -35.183  16.562  -2.098  1.00 20.00    -0.117 C 
HETATM    3  C9  UNL     1     -36.115  16.483  -3.231  1.00 20.00     0.093 C 
ENDROOT
BRANCH   3   4
HETATM    4  C10 UNL     1     -36.691  15.084  -3.339  1.00 20.00     0.020 C 
BRANCH   4   5
HETATM    5  C7  UNL     1     -36.433  14.499  -4.718  1.00 20.00     0.023 C 
HETATM    6  C4  UNL     1     -36.683  15.541  -5.825  1.00 20.00     0.008 C 
HETATM    7  C3  UNL     1     -35.790  15.077  -6.972  1.00 20.00     0.004 C 
HETATM    8  C5  UNL     1     -34.509  14.637  -6.267  1.00 20.00     0.041 C 
HETATM    9  C8  UNL     1     -35.001  14.084  -4.961  1.00 20.00     0.086 A 
HETATM   10  C6  UNL     1     -34.062  13.522  -3.917  1.00 20.00     0.207 A 
HETATM   11  O11 UNL     1     -34.782  12.669  -4.811  1.00 20.00    -0.375 OA
ENDBRANCH   4   5
ENDBRANCH   3   4
TORSDOF 2
ENDMDL
MODEL 6
REMARK VINA RESULT:      -4.6     10.933     11.937
REMARK  2 active torsions:
REMARK  status: ('A' for Active; 'I' for Inactive)
REMARK    1  A    between atoms: C7_7  and  C10_10 
REMARK    2  A    between atoms: C9_9  and  C10_10 
ROOT
HETATM    1  C1  UNL     1     -32.965  18.636  -0.001  1.00 20.00     0.012 C 
HETATM    2  C2  UNL     1     -33.675  17.751  -0.393  1.00 20.00    -0.117 C 
HETATM    3  C9  UNL     1     -34.548  16.668  -0.868  1.00 20.00     0.093 C 
ENDROOT
BRANCH   3   4
HETATM    4  C10 UNL     1     -34.157  16.259  -2.276  1.00 20.00     0.020 C 
BRANCH   4   5
HETATM    5  C7  UNL     1     -35.191  15.319  -2.872  1.00 20.00     0.023 C 
HETATM    6  C4  UNL     1     -36.274  16.096  -3.646  1.00 20.00     0.008 C 
HETATM    7  C3  UNL     1     -36.780  15.089  -4.675  1.00 20.00     0.004 C 
HETATM    8  C5  UNL     1     -35.504  14.392  -5.144  1.00 20.00     0.041 C 
HETATM    9  C8  UNL     1     -34.645  14.371  -3.914  1.00 20.00     0.086 A 
HETATM   10  C6  UNL     1     -33.259  13.767  -3.907  1.00 20.00     0.207 A 
HETATM   11  O11 UNL     1     -34.389  13.049  -3.406  1.00 20.00    -0.375 OA
ENDBRANCH   4   5
ENDBRANCH   3   4
TORSDOF 2
ENDMDL
MODEL 7
REMARK VINA RESULT:      -4.5     11.252     12.233
REMARK  2 active torsions:
REMARK  status: ('A' for Active; 'I' for Inactive)
REMARK    1  A    between atoms: C7_7  and  C10_10 
REMARK    2  A    between atoms: C9_9  and  C10_10 
ROOT
HETATM    1  C1  UNL     1     -34.962  13.166  -4.571  1.00 20.00     0.012 C 
HETATM    2  C2  UNL     1     -34.052  13.823  -4.145  1.00 20.00    -0.117 C 
HETATM    3  C9  UNL     1     -32.935  14.622  -3.624  1.00 20.00     0.093 C 
ENDROOT
BRANCH   3   4
HETATM    4  C10 UNL     1     -33.376  16.057  -3.401  1.00 20.00     0.020 C 
BRANCH   4   5
HETATM    5  C7  UNL     1     -34.440  16.133  -2.318  1.00 20.00     0.023 C 
HETATM    6  C4  UNL     1     -33.958  16.969  -1.117  1.00 20.00     0.008 C 
HETATM    7  C3  UNL     1     -35.249  17.497  -0.498  1.00 20.00     0.004 C 
HETATM    8  C5  UNL     1     -36.098  17.867  -1.713  1.00 20.00     0.041 C 
HETATM    9  C8  UNL     1     -35.706  16.842  -2.737  1.00 20.00     0.086 A 
HETATM   10  C6  UNL     1     -36.304  16.819  -4.126  1.00 20.00     0.207 A 
HETATM   11  O11 UNL     1     -36.772  15.944  -3.097  1.00 20.00    -0.375 OA
ENDBRANCH   4   5
ENDBRANCH   3   4
TORSDOF 2
ENDMDL
MODEL 8
REMARK VINA RESULT:      -4.4      9.712     11.300
REMARK  2 active torsions:
REMARK  status: ('A' for Active; 'I' for Inactive)
REMARK    1  A    between atoms: C7_7  and  C10_10 
REMARK    2  A    between atoms: C9_9  and  C10_10 
ROOT
HETATM    1  C1  UNL     1     -41.931   0.943  -4.104  1.00 20.00     0.012 C 
HETATM    2  C2  UNL     1     -41.645   1.932  -3.488  1.00 20.00    -0.117 C 
HETATM    3  C9  UNL     1     -41.290   3.142  -2.732  1.00 20.00     0.093 C 
ENDROOT
BRANCH   3   4
HETATM    4  C10 UNL     1     -42.427   4.145  -2.784  1.00 20.00     0.020 C 
BRANCH   4   5
HETATM    5  C7  UNL     1     -42.363   5.097  -1.601  1.00 20.00     0.023 C 
HETATM    6  C4  UNL     1     -41.185   4.752  -0.669  1.00 20.00     0.008 C 
HETATM    7  C3  UNL     1     -40.853   6.080   0.006  1.00 20.00     0.004 C 
HETATM    8  C5  UNL     1     -40.982   7.095  -1.129  1.00 20.00     0.041 C 
HETATM    9  C8  UNL     1     -42.090   6.535  -1.973  1.00 20.00     0.086 A 
HETATM   10  C6  UNL     1     -42.569   7.220  -3.233  1.00 20.00     0.207 A 
HETATM   11  O11 UNL     1     -43.273   7.354  -1.995  1.00 20.00    -0.375 OA
ENDBRANCH   4   5
ENDBRANCH   3   4
TORSDOF 2
ENDMDL
MODEL 9
REMARK VINA RESULT:      -4.4     10.988     12.483
REMARK  2 active torsions:
REMARK  status: ('A' for Active; 'I' for Inactive)
REMARK    1  A    between atoms: C7_7  and  C10_10 
REMARK    2  A    between atoms: C9_9  and  C10_10 
ROOT
HETATM    1  C1  UNL     1     -37.450  14.720  -3.850  1.00 20.00     0.012 C 
HETATM    2  C2  UNL     1     -36.356  14.334  -4.156  1.00 20.00    -0.117 C 
HETATM    3  C9  UNL     1     -35.018  13.859  -4.535  1.00 20.00     0.093 C 
ENDROOT
BRANCH   3   4
HETATM    4  C10 UNL     1     -34.029  14.129  -3.416  1.00 20.00     0.020 C 
BRANCH   4   5
HETATM    5  C7  UNL     1     -33.405  15.506  -3.568  1.00 20.00     0.023 C 
HETATM    6  C4  UNL     1     -33.495  16.005  -5.023  1.00 20.00     0.008 C 
HETATM    7  C3  UNL     1     -33.478  17.525  -4.890  1.00 20.00     0.004 C 
HETATM    8  C5  UNL     1     -34.366  17.783  -3.674  1.00 20.00     0.041 C 
HETATM    9  C8  UNL     1     -34.104  16.597  -2.792  1.00 20.00     0.086 A 
HETATM   10  C6  UNL     1     -34.783  16.422  -1.452  1.00 20.00     0.207 A 
HETATM   11  O11 UNL     1     -33.450  16.928  -1.554  1.00 20.00    -0.375 OA
ENDBRANCH   4   5
ENDBRANCH   3   4
TORSDOF 2
ENDMDL
