MODEL 1
REMARK VINA RESULT:      -4.2      0.000      0.000
REMARK  1 active torsions:
REMARK  status: ('A' for Active; 'I' for Inactive)
REMARK    1  A    between atoms: C4_4  and  C9_9 
ROOT
HETATM    1  C1  UNL     1     -33.893  14.476  -3.186  1.00 20.00     0.174 C 
HETATM    2  C2  UNL     1     -36.084  15.318  -4.248  1.00 20.00     0.083 C 
HETATM    3  C3  UNL     1     -35.171  14.117  -3.959  1.00 20.00     0.015 C 
HETATM    4  C4  UNL     1     -34.183  16.861  -2.998  1.00 20.00     0.108 C 
HETATM    5  C5  UNL     1     -34.821  13.424  -5.280  1.00 20.00     0.012 C 
HETATM    6  C6  UNL     1     -33.914  18.067  -3.903  1.00 20.00     0.058 C 
HETATM    7  O10 UNL     1     -33.423  15.771  -3.548  1.00 20.00    -0.369 OA
HETATM    8  S11 UNL     1     -35.997  16.577  -2.947  1.00 20.00    -0.131 SA
ENDROOT
BRANCH   4   9
HETATM    9  C9  UNL     1     -33.687  17.164  -1.580  1.00 20.00     0.022 C 
HETATM   10  C7  UNL     1     -33.313  18.637  -1.454  1.00 20.00     0.013 C 
HETATM   11  C8  UNL     1     -34.748  16.783  -0.555  1.00 20.00     0.013 C 
ENDBRANCH   4   9
TORSDOF 1
ENDMDL
MODEL 2
REMARK VINA RESULT:      -4.2      1.883      4.191
REMARK  1 active torsions:
REMARK  status: ('A' for Active; 'I' for Inactive)
REMARK    1  A    between atoms: C4_4  and  C9_9 
ROOT
HETATM    1  C1  UNL     1     -36.013  15.961  -3.010  1.00 20.00     0.174 C 
HETATM    2  C2  UNL     1     -33.554  16.386  -2.365  1.00 20.00     0.083 C 
HETATM    3  C3  UNL     1     -35.013  16.293  -1.892  1.00 20.00     0.015 C 
HETATM    4  C4  UNL     1     -34.509  15.871  -4.891  1.00 20.00     0.108 C 
HETATM    5  C5  UNL     1     -35.400  17.604  -1.199  1.00 20.00     0.012 C 
HETATM    6  C6  UNL     1     -33.875  16.902  -5.832  1.00 20.00     0.058 C 
HETATM    7  O10 UNL     1     -35.607  16.540  -4.247  1.00 20.00    -0.369 OA
HETATM    8  S11 UNL     1     -33.207  15.266  -3.746  1.00 20.00    -0.131 SA
ENDROOT
BRANCH   4   9
HETATM    9  C9  UNL     1     -35.041  14.690  -5.710  1.00 20.00     0.022 C 
HETATM   10  C7  UNL     1     -34.589  14.806  -7.161  1.00 20.00     0.013 C 
HETATM   11  C8  UNL     1     -34.578  13.372  -5.100  1.00 20.00     0.013 C 
ENDBRANCH   4   9
TORSDOF 1
ENDMDL
MODEL 3
REMARK VINA RESULT:      -4.1      2.059      4.373
REMARK  1 active torsions:
REMARK  status: ('A' for Active; 'I' for Inactive)
REMARK    1  A    between atoms: C4_4  and  C9_9 
ROOT
HETATM    1  C1  UNL     1     -35.109  15.052  -3.090  1.00 20.00     0.174 C 
HETATM    2  C2  UNL     1     -33.732  17.215  -3.348  1.00 20.00     0.083 C 
HETATM    3  C3  UNL     1     -34.100  16.022  -2.455  1.00 20.00     0.015 C 
HETATM    4  C4  UNL     1     -35.502  16.185  -5.182  1.00 20.00     0.108 C 
HETATM    5  C5  UNL     1     -34.631  16.543  -1.115  1.00 20.00     0.012 C 
HETATM    6  C6  UNL     1     -36.395  17.340  -5.645  1.00 20.00     0.058 C 
HETATM    7  O10 UNL     1     -36.035  15.750  -3.918  1.00 20.00    -0.369 OA
HETATM    8  S11 UNL     1     -33.771  16.793  -5.110  1.00 20.00    -0.131 SA
ENDROOT
BRANCH   4   9
HETATM    9  C9  UNL     1     -35.585  15.036  -6.192  1.00 20.00     0.022 C 
HETATM   10  C7  UNL     1     -36.870  15.139  -7.007  1.00 20.00     0.013 C 
HETATM   11  C8  UNL     1     -34.362  15.042  -7.102  1.00 20.00     0.013 C 
ENDBRANCH   4   9
TORSDOF 1
ENDMDL
MODEL 4
REMARK VINA RESULT:      -4.1      1.466      4.149
REMARK  1 active torsions:
REMARK  status: ('A' for Active; 'I' for Inactive)
REMARK    1  A    between atoms: C4_4  and  C9_9 
ROOT
HETATM    1  C1  UNL     1     -33.701  16.129  -2.554  1.00 20.00     0.174 C 
HETATM    2  C2  UNL     1     -35.941  17.401  -2.485  1.00 20.00     0.083 C 
HETATM    3  C3  UNL     1     -34.544  17.218  -1.874  1.00 20.00     0.015 C 
HETATM    4  C4  UNL     1     -35.287  15.350  -4.194  1.00 20.00     0.108 C 
HETATM    5  C5  UNL     1     -34.687  16.927  -0.376  1.00 20.00     0.012 C 
HETATM    6  C6  UNL     1     -36.464  14.369  -4.194  1.00 20.00     0.058 C 
HETATM    7  O10 UNL     1     -34.523  15.058  -3.011  1.00 20.00    -0.369 OA
HETATM    8  S11 UNL     1     -35.963  17.056  -4.264  1.00 20.00    -0.131 SA
ENDROOT
BRANCH   4   9
HETATM    9  C9  UNL     1     -34.419  15.107  -5.434  1.00 20.00     0.022 C 
HETATM   10  C7  UNL     1     -35.127  14.164  -6.399  1.00 20.00     0.013 C 
HETATM   11  C8  UNL     1     -34.084  16.430  -6.113  1.00 20.00     0.013 C 
ENDBRANCH   4   9
TORSDOF 1
ENDMDL
MODEL 5
REMARK VINA RESULT:      -4.1      1.074      1.076
REMARK  1 active torsions:
REMARK  status: ('A' for Active; 'I' for Inactive)
REMARK    1  A    between atoms: C4_4  and  C9_9 
ROOT
HETATM    1  C1  UNL     1     -33.577  15.293  -4.224  1.00 20.00     0.174 C 
HETATM    2  C2  UNL     1     -35.870  16.218  -4.951  1.00 20.00     0.083 C 
HETATM    3  C3  UNL     1     -34.820  15.108  -5.109  1.00 20.00     0.015 C 
HETATM    4  C4  UNL     1     -34.138  17.384  -3.163  1.00 20.00     0.108 C 
HETATM    5  C5  UNL     1     -34.416  15.007  -6.584  1.00 20.00     0.012 C 
HETATM    6  C6  UNL     1     -34.027  18.864  -3.543  1.00 20.00     0.058 C 
HETATM    7  O10 UNL     1     -33.267  16.675  -4.062  1.00 20.00    -0.369 OA
HETATM    8  S11 UNL     1     -35.905  16.897  -3.271  1.00 20.00    -0.131 SA
ENDROOT
BRANCH   4   9
HETATM    9  C9  UNL     1     -33.654  17.187  -1.723  1.00 20.00     0.022 C 
HETATM   10  C7  UNL     1     -33.247  18.524  -1.114  1.00 20.00     0.013 C 
HETATM   11  C8  UNL     1     -34.739  16.518  -0.887  1.00 20.00     0.013 C 
ENDBRANCH   4   9
TORSDOF 1
ENDMDL
MODEL 6
REMARK VINA RESULT:      -4.0      1.572      1.645
REMARK  1 active torsions:
REMARK  status: ('A' for Active; 'I' for Inactive)
REMARK    1  A    between atoms: C4_4  and  C9_9 
ROOT
HETATM    1  C1  UNL     1     -33.268  16.298  -4.737  1.00 20.00     0.174 C 
HETATM    2  C2  UNL     1     -35.640  15.304  -4.903  1.00 20.00     0.083 C 
HETATM    3  C3  UNL     1     -34.219  15.350  -5.485  1.00 20.00     0.015 C 
HETATM    4  C4  UNL     1     -34.785  17.178  -3.083  1.00 20.00     0.108 C 
HETATM    5  C5  UNL     1     -34.297  15.729  -6.967  1.00 20.00     0.012 C 
HETATM    6  C6  UNL     1     -35.839  18.289  -3.050  1.00 20.00     0.058 C 
HETATM    7  O10 UNL     1     -33.969  17.435  -4.239  1.00 20.00    -0.369 OA
HETATM    8  S11 UNL     1     -35.657  15.562  -3.109  1.00 20.00    -0.131 SA
ENDROOT
BRANCH   4   9
HETATM    9  C9  UNL     1     -33.920  17.256  -1.821  1.00 20.00     0.022 C 
HETATM   10  C7  UNL     1     -33.419  18.680  -1.609  1.00 20.00     0.013 C 
HETATM   11  C8  UNL     1     -34.706  16.771  -0.609  1.00 20.00     0.013 C 
ENDBRANCH   4   9
TORSDOF 1
ENDMDL
MODEL 7
REMARK VINA RESULT:      -4.0      1.545      3.645
REMARK  1 active torsions:
REMARK  status: ('A' for Active; 'I' for Inactive)
REMARK    1  A    between atoms: C4_4  and  C9_9 
ROOT
HETATM    1  C1  UNL     1     -33.480  16.376  -5.390  1.00 20.00     0.174 C 
HETATM    2  C2  UNL     1     -35.623  17.710  -4.872  1.00 20.00     0.083 C 
HETATM    3  C3  UNL     1     -34.429  17.507  -5.817  1.00 20.00     0.015 C 
HETATM    4  C4  UNL     1     -34.557  15.687  -3.347  1.00 20.00     0.108 C 
HETATM    5  C5  UNL     1     -33.662  18.827  -5.947  1.00 20.00     0.012 C 
HETATM    6  C6  UNL     1     -34.552  16.172  -1.894  1.00 20.00     0.058 C 
HETATM    7  O10 UNL     1     -33.405  16.281  -3.970  1.00 20.00    -0.369 OA
HETATM    8  S11 UNL     1     -36.162  16.161  -4.102  1.00 20.00    -0.131 SA
ENDROOT
BRANCH   4   9
HETATM    9  C9  UNL     1     -34.424  14.161  -3.377  1.00 20.00     0.022 C 
HETATM   10  C7  UNL     1     -35.320  13.573  -4.462  1.00 20.00     0.013 C 
HETATM   11  C8  UNL     1     -32.970  13.760  -3.597  1.00 20.00     0.013 C 
ENDBRANCH   4   9
TORSDOF 1
ENDMDL
MODEL 8
REMARK VINA RESULT:      -4.0      1.658      4.108
REMARK  1 active torsions:
REMARK  status: ('A' for Active; 'I' for Inactive)
REMARK    1  A    between atoms: C4_4  and  C9_9 
ROOT
HETATM    1  C1  UNL     1     -34.164  17.049  -0.832  1.00 20.00     0.174 C 
HETATM    2  C2  UNL     1     -36.057  18.324  -2.030  1.00 20.00     0.083 C 
HETATM    3  C3  UNL     1     -35.145  18.231  -0.797  1.00 20.00     0.015 C 
HETATM    4  C4  UNL     1     -34.818  16.037  -2.920  1.00 20.00     0.108 C 
HETATM    5  C5  UNL     1     -36.013  18.169   0.465  1.00 20.00     0.012 C 
HETATM    6  C6  UNL     1     -35.921  15.071  -3.365  1.00 20.00     0.058 C 
HETATM    7  O10 UNL     1     -34.744  15.924  -1.488  1.00 20.00    -0.369 OA
HETATM    8  S11 UNL     1     -35.246  17.714  -3.531  1.00 20.00    -0.131 SA
ENDROOT
BRANCH   4   9
HETATM    9  C9  UNL     1     -33.483  15.608  -3.535  1.00 20.00     0.022 C 
HETATM   10  C7  UNL     1     -33.473  14.104  -3.784  1.00 20.00     0.013 C 
HETATM   11  C8  UNL     1     -33.225  16.374  -4.828  1.00 20.00     0.013 C 
ENDBRANCH   4   9
TORSDOF 1
ENDMDL
MODEL 9
REMARK VINA RESULT:      -3.9      2.384      3.521
REMARK  1 active torsions:
REMARK  status: ('A' for Active; 'I' for Inactive)
REMARK    1  A    between atoms: C4_4  and  C9_9 
ROOT
HETATM    1  C1  UNL     1     -34.107  16.604  -5.663  1.00 20.00     0.174 C 
HETATM    2  C2  UNL     1     -35.191  14.701  -7.022  1.00 20.00     0.083 C 
HETATM    3  C3  UNL     1     -34.399  16.017  -7.053  1.00 20.00     0.015 C 
HETATM    4  C4  UNL     1     -35.231  14.975  -4.287  1.00 20.00     0.108 C 
HETATM    5  C5  UNL     1     -35.151  17.034  -7.917  1.00 20.00     0.012 C 
HETATM    6  C6  UNL     1     -36.675  14.742  -3.831  1.00 20.00     0.058 C 
HETATM    7  O10 UNL     1     -35.176  16.332  -4.760  1.00 20.00    -0.369 OA
HETATM    8  S11 UNL     1     -34.819  13.709  -5.552  1.00 20.00    -0.131 SA
ENDROOT
BRANCH   4   9
HETATM    9  C9  UNL     1     -34.285  14.812  -3.093  1.00 20.00     0.022 C 
HETATM   10  C7  UNL     1     -32.965  14.198  -3.544  1.00 20.00     0.013 C 
HETATM   11  C8  UNL     1     -34.054  16.156  -2.412  1.00 20.00     0.013 C 
ENDBRANCH   4   9
TORSDOF 1
ENDMDL
