MODEL 1
REMARK VINA RESULT:      -4.8      0.000      0.000
REMARK  1 active torsions:
REMARK  status: ('A' for Active; 'I' for Inactive)
REMARK    1  A    between atoms: C5_5  and  C9_9 
ROOT
HETATM    1  C1  UNL     1     -35.792  14.619  -3.495  1.00 20.00     0.049 C 
HETATM    2  C2  UNL     1     -35.747  15.896  -3.098  1.00 20.00    -0.018 C 
HETATM    3  C3  UNL     1     -34.607  13.990  -4.127  1.00 20.00     0.182 C 
HETATM    4  C4  UNL     1     -33.640  16.296  -4.400  1.00 20.00     0.054 C 
HETATM    5  C5  UNL     1     -34.569  16.813  -3.292  1.00 20.00     0.014 C 
HETATM    6  C6  UNL     1     -33.345  14.807  -4.281  1.00 20.00     0.244 C 
HETATM    7  O10 UNL     1     -34.648  12.803  -4.445  1.00 20.00    -0.290 OA
HETATM    8  F11 UNL     1     -32.511  14.593  -3.228  1.00 20.00    -0.241 F 
ENDROOT
BRANCH   5   9
HETATM    9  C9  UNL     1     -33.838  17.026  -1.968  1.00 20.00    -0.015 C 
HETATM   10  C7  UNL     1     -33.438  18.489  -1.807  1.00 20.00     0.010 C 
HETATM   11  C8  UNL     1     -34.708  16.574  -0.798  1.00 20.00     0.010 C 
ENDBRANCH   5   9
TORSDOF 1
ENDMDL
MODEL 2
REMARK VINA RESULT:      -4.8      1.894      2.561
REMARK  1 active torsions:
REMARK  status: ('A' for Active; 'I' for Inactive)
REMARK    1  A    between atoms: C5_5  and  C9_9 
ROOT
HETATM    1  C1  UNL     1     -34.160  15.652  -5.715  1.00 20.00     0.049 C 
HETATM    2  C2  UNL     1     -33.772  16.100  -4.515  1.00 20.00    -0.018 C 
HETATM    3  C3  UNL     1     -34.845  14.343  -5.840  1.00 20.00     0.182 C 
HETATM    4  C4  UNL     1     -34.110  13.836  -3.488  1.00 20.00     0.054 C 
HETATM    5  C5  UNL     1     -33.924  15.337  -3.226  1.00 20.00     0.014 C 
HETATM    6  C6  UNL     1     -35.124  13.546  -4.586  1.00 20.00     0.244 C 
HETATM    7  O10 UNL     1     -35.236  13.965  -6.942  1.00 20.00    -0.290 OA
HETATM    8  F11 UNL     1     -36.377  13.808  -4.127  1.00 20.00    -0.241 F 
ENDROOT
BRANCH   5   9
HETATM    9  C9  UNL     1     -35.056  15.931  -2.389  1.00 20.00    -0.015 C 
HETATM   10  C7  UNL     1     -34.516  16.488  -1.076  1.00 20.00     0.010 C 
HETATM   11  C8  UNL     1     -35.790  17.016  -3.174  1.00 20.00     0.010 C 
ENDBRANCH   5   9
TORSDOF 1
ENDMDL
MODEL 3
REMARK VINA RESULT:      -4.8      1.651      2.624
REMARK  1 active torsions:
REMARK  status: ('A' for Active; 'I' for Inactive)
REMARK    1  A    between atoms: C5_5  and  C9_9 
ROOT
HETATM    1  C1  UNL     1     -33.398  14.038  -3.871  1.00 20.00     0.049 C 
HETATM    2  C2  UNL     1     -33.047  15.259  -3.451  1.00 20.00    -0.018 C 
HETATM    3  C3  UNL     1     -34.830  13.663  -3.967  1.00 20.00     0.182 C 
HETATM    4  C4  UNL     1     -35.364  15.704  -2.598  1.00 20.00     0.054 C 
HETATM    5  C5  UNL     1     -34.013  16.318  -2.992  1.00 20.00     0.014 C 
HETATM    6  C6  UNL     1     -35.877  14.695  -3.615  1.00 20.00     0.244 C 
HETATM    7  O10 UNL     1     -35.139  12.554  -4.398  1.00 20.00    -0.290 OA
HETATM    8  F11 UNL     1     -36.293  15.348  -4.732  1.00 20.00    -0.241 F 
ENDROOT
BRANCH   5   9
HETATM    9  C9  UNL     1     -34.153  17.406  -4.057  1.00 20.00    -0.015 C 
HETATM   10  C7  UNL     1     -33.699  18.754  -3.507  1.00 20.00     0.010 C 
HETATM   11  C8  UNL     1     -33.355  17.037  -5.306  1.00 20.00     0.010 C 
ENDBRANCH   5   9
TORSDOF 1
ENDMDL
MODEL 4
REMARK VINA RESULT:      -4.8      1.778      2.524
REMARK  1 active torsions:
REMARK  status: ('A' for Active; 'I' for Inactive)
REMARK    1  A    between atoms: C5_5  and  C9_9 
ROOT
HETATM    1  C1  UNL     1     -34.625  14.367  -5.967  1.00 20.00     0.049 C 
HETATM    2  C2  UNL     1     -34.155  15.610  -6.125  1.00 20.00    -0.018 C 
HETATM    3  C3  UNL     1     -34.554  13.703  -4.643  1.00 20.00     0.182 C 
HETATM    4  C4  UNL     1     -32.954  15.506  -3.924  1.00 20.00     0.054 C 
HETATM    5  C5  UNL     1     -33.478  16.413  -5.048  1.00 20.00     0.014 C 
HETATM    6  C6  UNL     1     -33.972  14.468  -3.476  1.00 20.00     0.244 C 
HETATM    7  O10 UNL     1     -35.031  12.578  -4.501  1.00 20.00    -0.290 OA
HETATM    8  F11 UNL     1     -34.962  15.079  -2.770  1.00 20.00    -0.241 F 
ENDROOT
BRANCH   5   9
HETATM    9  C9  UNL     1     -34.416  17.503  -4.530  1.00 20.00    -0.015 C 
HETATM   10  C7  UNL     1     -33.793  18.223  -3.338  1.00 20.00     0.010 C 
HETATM   11  C8  UNL     1     -34.751  18.493  -5.642  1.00 20.00     0.010 C 
ENDBRANCH   5   9
TORSDOF 1
ENDMDL
MODEL 5
REMARK VINA RESULT:      -4.4      2.241      3.646
REMARK  1 active torsions:
REMARK  status: ('A' for Active; 'I' for Inactive)
REMARK    1  A    between atoms: C5_5  and  C9_9 
ROOT
HETATM    1  C1  UNL     1     -33.028  15.170  -3.897  1.00 20.00     0.049 C 
HETATM    2  C2  UNL     1     -33.879  16.124  -4.292  1.00 20.00    -0.018 C 
HETATM    3  C3  UNL     1     -33.475  13.759  -3.808  1.00 20.00     0.182 C 
HETATM    4  C4  UNL     1     -35.842  14.591  -3.989  1.00 20.00     0.054 C 
HETATM    5  C5  UNL     1     -35.331  15.897  -4.616  1.00 20.00     0.014 C 
HETATM    6  C6  UNL     1     -34.894  13.419  -4.202  1.00 20.00     0.244 C 
HETATM    7  O10 UNL     1     -32.670  12.886  -3.487  1.00 20.00    -0.290 OA
HETATM    8  F11 UNL     1     -34.943  13.028  -5.504  1.00 20.00    -0.241 F 
ENDROOT
BRANCH   5   9
HETATM    9  C9  UNL     1     -35.551  15.945  -6.127  1.00 20.00    -0.015 C 
HETATM   10  C7  UNL     1     -37.042  15.967  -6.450  1.00 20.00     0.010 C 
HETATM   11  C8  UNL     1     -34.852  17.160  -6.731  1.00 20.00     0.010 C 
ENDBRANCH   5   9
TORSDOF 1
ENDMDL
MODEL 6
REMARK VINA RESULT:      -4.4     12.252     13.152
REMARK  1 active torsions:
REMARK  status: ('A' for Active; 'I' for Inactive)
REMARK    1  A    between atoms: C5_5  and  C9_9 
ROOT
HETATM    1  C1  UNL     1     -34.334   5.897   6.510  1.00 20.00     0.049 C 
HETATM    2  C2  UNL     1     -33.819   6.712   5.582  1.00 20.00    -0.018 C 
HETATM    3  C3  UNL     1     -35.168   4.738   6.108  1.00 20.00     0.182 C 
HETATM    4  C4  UNL     1     -35.324   5.760   3.815  1.00 20.00     0.054 C 
HETATM    5  C5  UNL     1     -34.064   6.589   4.103  1.00 20.00     0.014 C 
HETATM    6  C6  UNL     1     -35.393   4.480   4.636  1.00 20.00     0.244 C 
HETATM    7  O10 UNL     1     -35.597   3.972   6.969  1.00 20.00    -0.290 OA
HETATM    8  F11 UNL     1     -34.478   3.590   4.166  1.00 20.00    -0.241 F 
ENDROOT
BRANCH   5   9
HETATM    9  C9  UNL     1     -32.824   6.030   3.405  1.00 20.00    -0.015 C 
HETATM   10  C7  UNL     1     -33.193   5.451   2.042  1.00 20.00     0.010 C 
HETATM   11  C8  UNL     1     -31.759   7.114   3.259  1.00 20.00     0.010 C 
ENDBRANCH   5   9
TORSDOF 1
ENDMDL
MODEL 7
REMARK VINA RESULT:      -4.3      2.145      3.056
REMARK  1 active torsions:
REMARK  status: ('A' for Active; 'I' for Inactive)
REMARK    1  A    between atoms: C5_5  and  C9_9 
ROOT
HETATM    1  C1  UNL     1     -34.827  14.707  -3.539  1.00 20.00     0.049 C 
HETATM    2  C2  UNL     1     -34.913  16.028  -3.734  1.00 20.00    -0.018 C 
HETATM    3  C3  UNL     1     -35.057  13.768  -4.664  1.00 20.00     0.182 C 
HETATM    4  C4  UNL     1     -36.035  15.693  -5.954  1.00 20.00     0.054 C 
HETATM    5  C5  UNL     1     -35.295  16.678  -5.037  1.00 20.00     0.014 C 
HETATM    6  C6  UNL     1     -35.357  14.333  -6.033  1.00 20.00     0.244 C 
HETATM    7  O10 UNL     1     -34.930  12.559  -4.481  1.00 20.00    -0.290 OA
HETATM    8  F11 UNL     1     -34.213  14.438  -6.762  1.00 20.00    -0.241 F 
ENDROOT
BRANCH   5   9
HETATM    9  C9  UNL     1     -34.064  17.289  -5.706  1.00 20.00    -0.015 C 
HETATM   10  C7  UNL     1     -34.403  17.769  -7.114  1.00 20.00     0.010 C 
HETATM   11  C8  UNL     1     -33.513  18.437  -4.864  1.00 20.00     0.010 C 
ENDBRANCH   5   9
TORSDOF 1
ENDMDL
MODEL 8
REMARK VINA RESULT:      -4.3      2.073      2.830
REMARK  1 active torsions:
REMARK  status: ('A' for Active; 'I' for Inactive)
REMARK    1  A    between atoms: C5_5  and  C9_9 
ROOT
HETATM    1  C1  UNL     1     -34.518  13.283  -4.838  1.00 20.00     0.049 C 
HETATM    2  C2  UNL     1     -35.455  14.121  -5.295  1.00 20.00    -0.018 C 
HETATM    3  C3  UNL     1     -33.462  13.769  -3.917  1.00 20.00     0.182 C 
HETATM    4  C4  UNL     1     -34.140  16.115  -4.523  1.00 20.00     0.054 C 
HETATM    5  C5  UNL     1     -35.507  15.594  -4.991  1.00 20.00     0.014 C 
HETATM    6  C6  UNL     1     -33.488  15.217  -3.482  1.00 20.00     0.244 C 
HETATM    7  O10 UNL     1     -32.635  12.978  -3.469  1.00 20.00    -0.290 OA
HETATM    8  F11 UNL     1     -34.146  15.344  -2.298  1.00 20.00    -0.241 F 
ENDROOT
BRANCH   5   9
HETATM    9  C9  UNL     1     -36.620  15.889  -3.986  1.00 20.00    -0.015 C 
HETATM   10  C7  UNL     1     -37.303  17.213  -4.317  1.00 20.00     0.010 C 
HETATM   11  C8  UNL     1     -37.637  14.750  -3.964  1.00 20.00     0.010 C 
ENDBRANCH   5   9
TORSDOF 1
ENDMDL
MODEL 9
REMARK VINA RESULT:      -4.3      2.350      3.791
REMARK  1 active torsions:
REMARK  status: ('A' for Active; 'I' for Inactive)
REMARK    1  A    between atoms: C5_5  and  C9_9 
ROOT
HETATM    1  C1  UNL     1     -35.530  15.833  -2.632  1.00 20.00     0.049 C 
HETATM    2  C2  UNL     1     -36.077  15.144  -3.639  1.00 20.00    -0.018 C 
HETATM    3  C3  UNL     1     -34.063  16.049  -2.582  1.00 20.00     0.182 C 
HETATM    4  C4  UNL     1     -33.833  14.275  -4.350  1.00 20.00     0.054 C 
HETATM    5  C5  UNL     1     -35.301  14.487  -4.749  1.00 20.00     0.014 C 
HETATM    6  C6  UNL     1     -33.210  15.504  -3.704  1.00 20.00     0.244 C 
HETATM    7  O10 UNL     1     -33.580  16.723  -1.675  1.00 20.00    -0.290 OA
HETATM    8  F11 UNL     1     -33.006  16.459  -4.650  1.00 20.00    -0.241 F 
ENDROOT
BRANCH   5   9
HETATM    9  C9  UNL     1     -35.446  15.287  -6.043  1.00 20.00    -0.015 C 
HETATM   10  C7  UNL     1     -34.529  14.726  -7.125  1.00 20.00     0.010 C 
HETATM   11  C8  UNL     1     -36.898  15.285  -6.514  1.00 20.00     0.010 C 
ENDBRANCH   5   9
TORSDOF 1
ENDMDL
