MODEL 1
REMARK VINA RESULT:      -4.9      0.000      0.000
REMARK  1 active torsions:
REMARK  status: ('A' for Active; 'I' for Inactive)
REMARK    1  A    between atoms: C7_7  and  C10_10 
ROOT
HETATM    1  C1  UNL     1     -34.785  13.630  -5.120  1.00 20.00     0.003 C 
HETATM    2  C2  UNL     1     -34.603  13.607  -3.798  1.00 20.00     0.004 C 
HETATM    3  C3  UNL     1     -33.947  15.873  -5.831  1.00 20.00     0.036 C 
HETATM    4  C4  UNL     1     -33.399  16.602  -4.589  1.00 20.00     0.010 C 
HETATM    5  C5  UNL     1     -35.180  15.018  -5.508  1.00 20.00     0.145 C 
HETATM    6  C6  UNL     1     -34.871  14.979  -3.264  1.00 20.00     0.149 C 
HETATM    7  C7  UNL     1     -33.586  15.835  -3.253  1.00 20.00     0.022 C 
HETATM    8  O11 UNL     1     -35.750  15.524  -4.278  1.00 20.00    -0.373 OA
ENDROOT
BRANCH   7   9
HETATM    9  C10 UNL     1     -33.615  16.831  -2.090  1.00 20.00    -0.016 C 
HETATM   10  C8  UNL     1     -33.801  18.252  -2.613  1.00 20.00     0.010 C 
HETATM   11  C9  UNL     1     -34.721  16.467  -1.106  1.00 20.00     0.010 C 
ENDBRANCH   7   9
TORSDOF 1
ENDMDL
MODEL 2
REMARK VINA RESULT:      -4.7      1.073      2.032
REMARK  1 active torsions:
REMARK  status: ('A' for Active; 'I' for Inactive)
REMARK    1  A    between atoms: C7_7  and  C10_10 
ROOT
HETATM    1  C1  UNL     1     -34.435  14.867  -6.060  1.00 20.00     0.003 C 
HETATM    2  C2  UNL     1     -33.800  15.986  -5.706  1.00 20.00     0.004 C 
HETATM    3  C3  UNL     1     -35.686  14.177  -4.011  1.00 20.00     0.036 C 
HETATM    4  C4  UNL     1     -35.445  15.236  -2.917  1.00 20.00     0.010 C 
HETATM    5  C5  UNL     1     -34.444  13.948  -4.882  1.00 20.00     0.145 C 
HETATM    6  C6  UNL     1     -33.365  15.847  -4.281  1.00 20.00     0.149 C 
HETATM    7  C7  UNL     1     -34.453  16.361  -3.312  1.00 20.00     0.022 C 
HETATM    8  O11 UNL     1     -33.295  14.407  -4.132  1.00 20.00    -0.373 OA
ENDROOT
BRANCH   7   9
HETATM    9  C10 UNL     1     -33.814  16.947  -2.050  1.00 20.00    -0.016 C 
HETATM   10  C8  UNL     1     -33.652  18.457  -2.189  1.00 20.00     0.010 C 
HETATM   11  C9  UNL     1     -34.649  16.602  -0.822  1.00 20.00     0.010 C 
ENDBRANCH   7   9
TORSDOF 1
ENDMDL
MODEL 3
REMARK VINA RESULT:      -4.4      1.195      3.960
REMARK  1 active torsions:
REMARK  status: ('A' for Active; 'I' for Inactive)
REMARK    1  A    between atoms: C7_7  and  C10_10 
ROOT
HETATM    1  C1  UNL     1     -34.057  15.887  -2.761  1.00 20.00     0.003 C 
HETATM    2  C2  UNL     1     -33.667  16.629  -3.800  1.00 20.00     0.004 C 
HETATM    3  C3  UNL     1     -34.792  13.724  -3.773  1.00 20.00     0.036 C 
HETATM    4  C4  UNL     1     -34.552  13.794  -5.293  1.00 20.00     0.010 C 
HETATM    5  C5  UNL     1     -35.234  15.073  -3.190  1.00 20.00     0.145 C 
HETATM    6  C6  UNL     1     -34.574  16.333  -4.953  1.00 20.00     0.149 C 
HETATM    7  C7  UNL     1     -34.031  15.163  -5.804  1.00 20.00     0.022 C 
HETATM    8  O11 UNL     1     -35.767  15.863  -4.278  1.00 20.00    -0.373 OA
ENDROOT
BRANCH   7   9
HETATM    9  C10 UNL     1     -34.421  15.344  -7.274  1.00 20.00    -0.016 C 
HETATM   10  C8  UNL     1     -35.552  14.390  -7.644  1.00 20.00     0.010 C 
HETATM   11  C9  UNL     1     -34.822  16.790  -7.544  1.00 20.00     0.010 C 
ENDBRANCH   7   9
TORSDOF 1
ENDMDL
MODEL 4
REMARK VINA RESULT:      -4.4      0.720      1.284
REMARK  1 active torsions:
REMARK  status: ('A' for Active; 'I' for Inactive)
REMARK    1  A    between atoms: C7_7  and  C10_10 
ROOT
HETATM    1  C1  UNL     1     -34.205  13.961  -4.743  1.00 20.00     0.003 C 
HETATM    2  C2  UNL     1     -34.357  14.042  -3.420  1.00 20.00     0.004 C 
HETATM    3  C3  UNL     1     -33.630  16.285  -5.455  1.00 20.00     0.036 C 
HETATM    4  C4  UNL     1     -33.548  17.171  -4.196  1.00 20.00     0.010 C 
HETATM    5  C5  UNL     1     -34.731  15.222  -5.348  1.00 20.00     0.145 C 
HETATM    6  C6  UNL     1     -34.990  15.360  -3.101  1.00 20.00     0.149 C 
HETATM    7  C7  UNL     1     -33.922  16.453  -2.874  1.00 20.00     0.022 C 
HETATM    8  O11 UNL     1     -35.671  15.669  -4.343  1.00 20.00    -0.373 OA
ENDROOT
BRANCH   7   9
HETATM    9  C10 UNL     1     -34.418  17.483  -1.854  1.00 20.00    -0.016 C 
HETATM   10  C8  UNL     1     -34.642  16.822  -0.498  1.00 20.00     0.010 C 
HETATM   11  C9  UNL     1     -33.426  18.635  -1.738  1.00 20.00     0.010 C 
ENDBRANCH   7   9
TORSDOF 1
ENDMDL
MODEL 5
REMARK VINA RESULT:      -4.3      1.464      3.658
REMARK  1 active torsions:
REMARK  status: ('A' for Active; 'I' for Inactive)
REMARK    1  A    between atoms: C7_7  and  C10_10 
ROOT
HETATM    1  C1  UNL     1     -35.013  17.621  -1.555  1.00 20.00     0.003 C 
HETATM    2  C2  UNL     1     -34.544  16.404  -1.272  1.00 20.00     0.004 C 
HETATM    3  C3  UNL     1     -36.145  17.363  -3.766  1.00 20.00     0.036 C 
HETATM    4  C4  UNL     1     -36.056  15.882  -4.186  1.00 20.00     0.010 C 
HETATM    5  C5  UNL     1     -34.886  17.836  -3.028  1.00 20.00     0.145 C 
HETATM    6  C6  UNL     1     -34.089  15.769  -2.549  1.00 20.00     0.149 C 
HETATM    7  C7  UNL     1     -35.237  14.984  -3.222  1.00 20.00     0.022 C 
HETATM    8  O11 UNL     1     -33.813  16.929  -3.373  1.00 20.00    -0.373 OA
ENDROOT
BRANCH   7   9
HETATM    9  C10 UNL     1     -34.684  13.780  -3.989  1.00 20.00    -0.016 C 
HETATM   10  C8  UNL     1     -34.925  13.948  -5.486  1.00 20.00     0.010 C 
HETATM   11  C9  UNL     1     -33.199  13.598  -3.696  1.00 20.00     0.010 C 
ENDBRANCH   7   9
TORSDOF 1
ENDMDL
MODEL 6
REMARK VINA RESULT:      -4.3      1.531      2.666
REMARK  1 active torsions:
REMARK  status: ('A' for Active; 'I' for Inactive)
REMARK    1  A    between atoms: C7_7  and  C10_10 
ROOT
HETATM    1  C1  UNL     1     -33.593  13.713  -3.820  1.00 20.00     0.003 C 
HETATM    2  C2  UNL     1     -32.921  14.849  -3.625  1.00 20.00     0.004 C 
HETATM    3  C3  UNL     1     -34.854  14.084  -5.944  1.00 20.00     0.036 C 
HETATM    4  C4  UNL     1     -34.486  15.478  -6.489  1.00 20.00     0.010 C 
HETATM    5  C5  UNL     1     -34.921  14.057  -4.411  1.00 20.00     0.145 C 
HETATM    6  C6  UNL     1     -33.780  15.986  -4.080  1.00 20.00     0.149 C 
HETATM    7  C7  UNL     1     -33.544  16.303  -5.573  1.00 20.00     0.022 C 
HETATM    8  O11 UNL     1     -35.108  15.419  -3.960  1.00 20.00    -0.373 OA
ENDROOT
BRANCH   7   9
HETATM    9  C10 UNL     1     -33.746  17.797  -5.843  1.00 20.00    -0.016 C 
HETATM   10  C8  UNL     1     -35.116  18.042  -6.467  1.00 20.00     0.010 C 
HETATM   11  C9  UNL     1     -33.587  18.596  -4.555  1.00 20.00     0.010 C 
ENDBRANCH   7   9
TORSDOF 1
ENDMDL
MODEL 7
REMARK VINA RESULT:      -4.3      1.417      2.564
REMARK  1 active torsions:
REMARK  status: ('A' for Active; 'I' for Inactive)
REMARK    1  A    between atoms: C7_7  and  C10_10 
ROOT
HETATM    1  C1  UNL     1     -34.851  16.269  -7.714  1.00 20.00     0.003 C 
HETATM    2  C2  UNL     1     -34.396  15.138  -7.171  1.00 20.00     0.004 C 
HETATM    3  C3  UNL     1     -34.276  18.041  -6.050  1.00 20.00     0.036 C 
HETATM    4  C4  UNL     1     -33.512  17.383  -4.885  1.00 20.00     0.010 C 
HETATM    5  C5  UNL     1     -35.376  17.132  -6.613  1.00 20.00     0.145 C 
HETATM    6  C6  UNL     1     -34.605  15.211  -5.691  1.00 20.00     0.149 C 
HETATM    7  C7  UNL     1     -33.383  15.840  -4.985  1.00 20.00     0.022 C 
HETATM    8  O11 UNL     1     -35.698  16.157  -5.594  1.00 20.00    -0.373 OA
ENDROOT
BRANCH   7   9
HETATM    9  C10 UNL     1     -33.211  15.248  -3.583  1.00 20.00    -0.016 C 
HETATM   10  C8  UNL     1     -33.801  16.187  -2.535  1.00 20.00     0.010 C 
HETATM   11  C9  UNL     1     -33.862  13.871  -3.503  1.00 20.00     0.010 C 
ENDBRANCH   7   9
TORSDOF 1
ENDMDL
MODEL 8
REMARK VINA RESULT:      -4.3      1.162      1.775
REMARK  1 active torsions:
REMARK  status: ('A' for Active; 'I' for Inactive)
REMARK    1  A    between atoms: C7_7  and  C10_10 
ROOT
HETATM    1  C1  UNL     1     -35.520  13.832  -4.615  1.00 20.00     0.003 C 
HETATM    2  C2  UNL     1     -36.342  14.422  -3.745  1.00 20.00     0.004 C 
HETATM    3  C3  UNL     1     -33.261  14.748  -4.068  1.00 20.00     0.036 C 
HETATM    4  C4  UNL     1     -33.401  15.692  -2.858  1.00 20.00     0.010 C 
HETATM    5  C5  UNL     1     -34.473  14.822  -5.007  1.00 20.00     0.145 C 
HETATM    6  C6  UNL     1     -35.868  15.826  -3.532  1.00 20.00     0.149 C 
HETATM    7  C7  UNL     1     -34.857  15.904  -2.367  1.00 20.00     0.022 C 
HETATM    8  O11 UNL     1     -35.140  16.081  -4.759  1.00 20.00    -0.373 OA
ENDROOT
BRANCH   7   9
HETATM    9  C10 UNL     1     -34.966  17.254  -1.652  1.00 20.00    -0.016 C 
HETATM   10  C8  UNL     1     -34.797  17.072  -0.147  1.00 20.00     0.010 C 
HETATM   11  C9  UNL     1     -33.930  18.230  -2.199  1.00 20.00     0.010 C 
ENDBRANCH   7   9
TORSDOF 1
ENDMDL
MODEL 9
REMARK VINA RESULT:      -4.2      1.887      3.384
REMARK  1 active torsions:
REMARK  status: ('A' for Active; 'I' for Inactive)
REMARK    1  A    between atoms: C7_7  and  C10_10 
ROOT
HETATM    1  C1  UNL     1     -33.376  13.764  -3.757  1.00 20.00     0.003 C 
HETATM    2  C2  UNL     1     -34.463  13.317  -4.389  1.00 20.00     0.004 C 
HETATM    3  C3  UNL     1     -34.155  15.792  -2.524  1.00 20.00     0.036 C 
HETATM    4  C4  UNL     1     -35.668  15.956  -2.767  1.00 20.00     0.010 C 
HETATM    5  C5  UNL     1     -33.421  15.257  -3.761  1.00 20.00     0.145 C 
HETATM    6  C6  UNL     1     -35.266  14.499  -4.835  1.00 20.00     0.149 C 
HETATM    7  C7  UNL     1     -36.281  14.925  -3.751  1.00 20.00     0.022 C 
HETATM    8  O11 UNL     1     -34.252  15.532  -4.912  1.00 20.00    -0.373 OA
ENDROOT
BRANCH   7   9
HETATM    9  C10 UNL     1     -37.537  15.517  -4.397  1.00 20.00    -0.016 C 
HETATM   10  C8  UNL     1     -37.473  15.372  -5.914  1.00 20.00     0.010 C 
HETATM   11  C9  UNL     1     -38.788  14.846  -3.840  1.00 20.00     0.010 C 
ENDBRANCH   7   9
TORSDOF 1
ENDMDL
