MODEL 1
REMARK VINA RESULT:      -4.1      0.000      0.000
REMARK  1 active torsions:
REMARK  status: ('A' for Active; 'I' for Inactive)
REMARK    1  A    between atoms: C3_3  and  N9_9 
ROOT
HETATM    1  C1  UNL     1     -34.492  16.809  -4.596  1.00 20.00     0.079 C 
HETATM    2  C4  UNL     1     -35.131  16.180  -5.837  1.00 20.00     0.070 C 
HETATM    3  C5  UNL     1     -34.417  14.894  -6.250  1.00 20.00     0.007 C 
HETATM    4  C6  UNL     1     -34.936  13.654  -5.531  1.00 20.00     0.002 C 
HETATM    5  C7  UNL     1     -34.731  13.667  -4.019  1.00 20.00     0.020 C 
HETATM    6  C8  UNL     1     -35.406  14.845  -3.321  1.00 20.00     0.129 C 
HETATM    7  N9  UNL     1     -34.602  16.080  -3.400  1.00 20.00    -0.352 N 
HETATM    8  S10 UNL     1     -33.702  18.292  -4.802  1.00 20.00    -0.065 SA
ENDROOT
BRANCH   7   9
HETATM    9  C3  UNL     1     -33.965  16.454  -2.230  1.00 20.00     0.081 C 
HETATM   10  C2  UNL     1     -34.603  16.578  -1.063  1.00 20.00     0.030 C 
ENDBRANCH   7   9
TORSDOF 1
ENDMDL
MODEL 2
REMARK VINA RESULT:      -3.9      1.904      2.856
REMARK  1 active torsions:
REMARK  status: ('A' for Active; 'I' for Inactive)
REMARK    1  A    between atoms: C3_3  and  N9_9 
ROOT
HETATM    1  C1  UNL     1     -35.853  15.542  -4.746  1.00 20.00     0.079 C 
HETATM    2  C4  UNL     1     -35.829  14.117  -4.189  1.00 20.00     0.070 C 
HETATM    3  C5  UNL     1     -34.585  13.354  -4.641  1.00 20.00     0.007 C 
HETATM    4  C6  UNL     1     -33.376  13.575  -3.738  1.00 20.00     0.002 C 
HETATM    5  C7  UNL     1     -32.874  15.015  -3.693  1.00 20.00     0.020 C 
HETATM    6  C8  UNL     1     -33.922  16.013  -3.206  1.00 20.00     0.129 C 
HETATM    7  N9  UNL     1     -34.855  16.414  -4.278  1.00 20.00    -0.352 N 
HETATM    8  S10 UNL     1     -37.054  15.907  -5.883  1.00 20.00    -0.065 SA
ENDROOT
BRANCH   7   9
HETATM    9  C3  UNL     1     -34.669  17.687  -4.786  1.00 20.00     0.081 C 
HETATM   10  C2  UNL     1     -33.653  18.006  -5.592  1.00 20.00     0.030 C 
ENDBRANCH   7   9
TORSDOF 1
ENDMDL
MODEL 3
REMARK VINA RESULT:      -3.9      1.790      2.903
REMARK  1 active torsions:
REMARK  status: ('A' for Active; 'I' for Inactive)
REMARK    1  A    between atoms: C3_3  and  N9_9 
ROOT
HETATM    1  C1  UNL     1     -34.142  16.000  -2.963  1.00 20.00     0.079 C 
HETATM    2  C4  UNL     1     -34.068  14.497  -3.242  1.00 20.00     0.070 C 
HETATM    3  C5  UNL     1     -35.132  14.055  -4.246  1.00 20.00     0.007 C 
HETATM    4  C6  UNL     1     -34.692  14.201  -5.699  1.00 20.00     0.002 C 
HETATM    5  C7  UNL     1     -34.411  15.636  -6.134  1.00 20.00     0.020 C 
HETATM    6  C8  UNL     1     -33.319  16.321  -5.316  1.00 20.00     0.129 C 
HETATM    7  N9  UNL     1     -33.825  16.851  -4.036  1.00 20.00    -0.352 N 
HETATM    8  S10 UNL     1     -34.622  16.474  -1.410  1.00 20.00    -0.065 SA
ENDROOT
BRANCH   7   9
HETATM    9  C3  UNL     1     -33.974  18.225  -3.975  1.00 20.00     0.081 C 
HETATM   10  C2  UNL     1     -33.475  19.051  -4.897  1.00 20.00     0.030 C 
ENDBRANCH   7   9
TORSDOF 1
ENDMDL
MODEL 4
REMARK VINA RESULT:      -3.8      1.684      2.890
REMARK  1 active torsions:
REMARK  status: ('A' for Active; 'I' for Inactive)
REMARK    1  A    between atoms: C3_3  and  N9_9 
ROOT
HETATM    1  C1  UNL     1     -34.767  16.495  -5.074  1.00 20.00     0.079 C 
HETATM    2  C4  UNL     1     -33.320  16.166  -4.700  1.00 20.00     0.070 C 
HETATM    3  C5  UNL     1     -33.245  15.276  -3.460  1.00 20.00     0.007 C 
HETATM    4  C6  UNL     1     -33.352  13.787  -3.775  1.00 20.00     0.002 C 
HETATM    5  C7  UNL     1     -34.679  13.366  -4.398  1.00 20.00     0.020 C 
HETATM    6  C8  UNL     1     -34.990  14.074  -5.714  1.00 20.00     0.129 C 
HETATM    7  N9  UNL     1     -35.561  15.418  -5.505  1.00 20.00    -0.352 N 
HETATM    8  S10 UNL     1     -35.262  18.106  -4.903  1.00 20.00    -0.065 SA
ENDROOT
BRANCH   7   9
HETATM    9  C3  UNL     1     -36.918  15.536  -5.751  1.00 20.00     0.081 C 
HETATM   10  C2  UNL     1     -37.849  15.227  -4.845  1.00 20.00     0.030 C 
ENDBRANCH   7   9
TORSDOF 1
ENDMDL
MODEL 5
REMARK VINA RESULT:      -3.8      1.646      3.354
REMARK  1 active torsions:
REMARK  status: ('A' for Active; 'I' for Inactive)
REMARK    1  A    between atoms: C3_3  and  N9_9 
ROOT
HETATM    1  C1  UNL     1     -34.011  16.266  -5.685  1.00 20.00     0.079 C 
HETATM    2  C4  UNL     1     -33.518  17.632  -5.200  1.00 20.00     0.070 C 
HETATM    3  C5  UNL     1     -34.339  18.141  -4.016  1.00 20.00     0.007 C 
HETATM    4  C6  UNL     1     -33.834  17.639  -2.667  1.00 20.00     0.002 C 
HETATM    5  C7  UNL     1     -33.908  16.125  -2.487  1.00 20.00     0.020 C 
HETATM    6  C8  UNL     1     -33.108  15.346  -3.527  1.00 20.00     0.129 C 
HETATM    7  N9  UNL     1     -33.842  15.190  -4.798  1.00 20.00    -0.352 N 
HETATM    8  S10 UNL     1     -34.727  16.204  -7.219  1.00 20.00    -0.065 SA
ENDROOT
BRANCH   7   9
HETATM    9  C3  UNL     1     -34.354  13.928  -5.041  1.00 20.00     0.081 C 
HETATM   10  C2  UNL     1     -35.309  13.373  -4.290  1.00 20.00     0.030 C 
ENDBRANCH   7   9
TORSDOF 1
ENDMDL
MODEL 6
REMARK VINA RESULT:      -3.8      1.656      2.920
REMARK  1 active torsions:
REMARK  status: ('A' for Active; 'I' for Inactive)
REMARK    1  A    between atoms: C3_3  and  N9_9 
ROOT
HETATM    1  C1  UNL     1     -33.872  16.465  -4.144  1.00 20.00     0.079 C 
HETATM    2  C4  UNL     1     -33.187  15.171  -3.698  1.00 20.00     0.070 C 
HETATM    3  C5  UNL     1     -34.188  14.027  -3.539  1.00 20.00     0.007 C 
HETATM    4  C6  UNL     1     -34.455  13.271  -4.836  1.00 20.00     0.002 C 
HETATM    5  C7  UNL     1     -35.093  14.110  -5.939  1.00 20.00     0.020 C 
HETATM    6  C8  UNL     1     -34.258  15.320  -6.348  1.00 20.00     0.129 C 
HETATM    7  N9  UNL     1     -34.437  16.462  -5.431  1.00 20.00    -0.352 N 
HETATM    8  S10 UNL     1     -33.901  17.745  -3.035  1.00 20.00    -0.065 SA
ENDROOT
BRANCH   7   9
HETATM    9  C3  UNL     1     -35.200  17.507  -5.920  1.00 20.00     0.081 C 
HETATM   10  C2  UNL     1     -36.532  17.537  -5.835  1.00 20.00     0.030 C 
ENDBRANCH   7   9
TORSDOF 1
ENDMDL
MODEL 7
REMARK VINA RESULT:      -3.7      2.181      4.021
REMARK  1 active torsions:
REMARK  status: ('A' for Active; 'I' for Inactive)
REMARK    1  A    between atoms: C3_3  and  N9_9 
ROOT
HETATM    1  C1  UNL     1     -36.322  15.556  -4.128  1.00 20.00     0.079 C 
HETATM    2  C4  UNL     1     -36.043  16.607  -3.051  1.00 20.00     0.070 C 
HETATM    3  C5  UNL     1     -35.014  16.115  -2.034  1.00 20.00     0.007 C 
HETATM    4  C6  UNL     1     -33.571  16.374  -2.458  1.00 20.00     0.002 C 
HETATM    5  C7  UNL     1     -33.145  15.647  -3.730  1.00 20.00     0.020 C 
HETATM    6  C8  UNL     1     -33.989  16.004  -4.951  1.00 20.00     0.129 C 
HETATM    7  N9  UNL     1     -35.258  15.252  -4.995  1.00 20.00    -0.352 N 
HETATM    8  S10 UNL     1     -37.864  14.857  -4.144  1.00 20.00    -0.065 SA
ENDROOT
BRANCH   7   9
HETATM    9  C3  UNL     1     -35.317  14.235  -5.930  1.00 20.00     0.081 C 
HETATM   10  C2  UNL     1     -35.359  14.458  -7.246  1.00 20.00     0.030 C 
ENDBRANCH   7   9
TORSDOF 1
ENDMDL
MODEL 8
REMARK VINA RESULT:      -3.7     11.955     13.185
REMARK  1 active torsions:
REMARK  status: ('A' for Active; 'I' for Inactive)
REMARK    1  A    between atoms: C3_3  and  N9_9 
ROOT
HETATM    1  C1  UNL     1     -42.885   4.893  -2.200  1.00 20.00     0.079 C 
HETATM    2  C4  UNL     1     -42.287   4.351  -0.899  1.00 20.00     0.070 C 
HETATM    3  C5  UNL     1     -40.815   4.733  -0.751  1.00 20.00     0.007 C 
HETATM    4  C6  UNL     1     -40.606   6.101  -0.108  1.00 20.00     0.002 C 
HETATM    5  C7  UNL     1     -41.166   7.270  -0.913  1.00 20.00     0.020 C 
HETATM    6  C8  UNL     1     -42.668   7.175  -1.166  1.00 20.00     0.129 C 
HETATM    7  N9  UNL     1     -42.990   6.291  -2.303  1.00 20.00    -0.352 N 
HETATM    8  S10 UNL     1     -43.326   3.761  -3.379  1.00 20.00    -0.065 SA
ENDROOT
BRANCH   7   9
HETATM    9  C3  UNL     1     -43.386   6.931  -3.464  1.00 20.00     0.081 C 
HETATM   10  C2  UNL     1     -42.661   7.887  -4.050  1.00 20.00     0.030 C 
ENDBRANCH   7   9
TORSDOF 1
ENDMDL
MODEL 9
REMARK VINA RESULT:      -3.7      2.052      3.028
REMARK  1 active torsions:
REMARK  status: ('A' for Active; 'I' for Inactive)
REMARK    1  A    between atoms: C3_3  and  N9_9 
ROOT
HETATM    1  C1  UNL     1     -34.300  14.753  -5.231  1.00 20.00     0.079 C 
HETATM    2  C4  UNL     1     -34.435  15.048  -6.727  1.00 20.00     0.070 C 
HETATM    3  C5  UNL     1     -35.509  16.101  -7.001  1.00 20.00     0.007 C 
HETATM    4  C6  UNL     1     -34.991  17.533  -6.911  1.00 20.00     0.002 C 
HETATM    5  C7  UNL     1     -34.484  17.937  -5.530  1.00 20.00     0.020 C 
HETATM    6  C8  UNL     1     -33.339  17.066  -5.019  1.00 20.00     0.129 C 
HETATM    7  N9  UNL     1     -33.816  15.801  -4.429  1.00 20.00    -0.352 N 
HETATM    8  S10 UNL     1     -34.771  13.215  -4.702  1.00 20.00    -0.065 SA
ENDROOT
BRANCH   7   9
HETATM    9  C3  UNL     1     -33.764  15.729  -3.049  1.00 20.00     0.081 C 
HETATM   10  C2  UNL     1     -34.782  16.089  -2.263  1.00 20.00     0.030 C 
ENDBRANCH   7   9
TORSDOF 1
ENDMDL
