MODEL 1
REMARK VINA RESULT:      -3.9      0.000      0.000
REMARK  0 active torsions:
REMARK  status: ('A' for Active; 'I' for Inactive)
ROOT
HETATM    1  C1  UNL     1     -34.291  13.713  -4.861  1.00 20.00     0.154 C 
HETATM    2  C2  UNL     1     -33.323  14.004  -3.732  1.00 20.00     0.081 C 
HETATM    3  C3  UNL     1     -33.676  15.310  -3.035  1.00 20.00     0.018 C 
HETATM    4  C4  UNL     1     -33.665  16.509  -3.977  1.00 20.00     0.076 C 
HETATM    5  C5  UNL     1     -34.341  14.737  -5.976  1.00 20.00     0.212 C 
HETATM    6  O6  UNL     1     -34.944  12.669  -4.866  1.00 20.00    -0.295 OA
HETATM    7  S7  UNL     1     -34.893  16.324  -5.305  1.00 20.00    -0.141 SA
HETATM    8 CL8  UNL     1     -35.443  14.192  -7.258  1.00 20.00    -0.105 Cl
ENDROOT
TORSDOF 0
ENDMDL
MODEL 2
REMARK VINA RESULT:      -3.7      2.525      2.807
REMARK  0 active torsions:
REMARK  status: ('A' for Active; 'I' for Inactive)
ROOT
HETATM    1  C1  UNL     1     -36.029  14.452  -4.068  1.00 20.00     0.154 C 
HETATM    2  C2  UNL     1     -34.963  13.599  -4.724  1.00 20.00     0.081 C 
HETATM    3  C3  UNL     1     -33.696  13.565  -3.880  1.00 20.00     0.018 C 
HETATM    4  C4  UNL     1     -33.102  14.948  -3.642  1.00 20.00     0.076 C 
HETATM    5  C5  UNL     1     -35.675  15.911  -3.854  1.00 20.00     0.212 C 
HETATM    6  O6  UNL     1     -37.126  13.970  -3.789  1.00 20.00    -0.295 OA
HETATM    7  S7  UNL     1     -34.256  16.023  -2.737  1.00 20.00    -0.141 SA
HETATM    8 CL8  UNL     1     -37.066  16.783  -3.175  1.00 20.00    -0.105 Cl
ENDROOT
TORSDOF 0
ENDMDL
MODEL 3
REMARK VINA RESULT:      -3.7      2.363      2.749
REMARK  0 active torsions:
REMARK  status: ('A' for Active; 'I' for Inactive)
ROOT
HETATM    1  C1  UNL     1     -35.249  13.809  -4.077  1.00 20.00     0.154 C 
HETATM    2  C2  UNL     1     -36.636  14.415  -4.124  1.00 20.00     0.081 C 
HETATM    3  C3  UNL     1     -36.669  15.632  -5.039  1.00 20.00     0.018 C 
HETATM    4  C4  UNL     1     -35.698  16.726  -4.609  1.00 20.00     0.076 C 
HETATM    5  C5  UNL     1     -34.147  14.707  -3.553  1.00 20.00     0.212 C 
HETATM    6  O6  UNL     1     -35.073  12.635  -4.401  1.00 20.00    -0.295 OA
HETATM    7  S7  UNL     1     -33.976  16.141  -4.644  1.00 20.00    -0.141 SA
HETATM    8 CL8  UNL     1     -32.616  13.810  -3.468  1.00 20.00    -0.105 Cl
ENDROOT
TORSDOF 0
ENDMDL
MODEL 4
REMARK VINA RESULT:      -3.6      2.941      3.501
REMARK  0 active torsions:
REMARK  status: ('A' for Active; 'I' for Inactive)
ROOT
HETATM    1  C1  UNL     1     -33.670  14.818  -3.484  1.00 20.00     0.154 C 
HETATM    2  C2  UNL     1     -34.228  13.569  -4.136  1.00 20.00     0.081 C 
HETATM    3  C3  UNL     1     -35.479  13.887  -4.942  1.00 20.00     0.018 C 
HETATM    4  C4  UNL     1     -36.589  14.506  -4.100  1.00 20.00     0.076 C 
HETATM    5  C5  UNL     1     -34.586  15.523  -2.503  1.00 20.00     0.212 C 
HETATM    6  O6  UNL     1     -32.518  15.180  -3.719  1.00 20.00    -0.295 OA
HETATM    7  S7  UNL     1     -36.069  16.089  -3.372  1.00 20.00    -0.141 SA
HETATM    8 CL8  UNL     1     -33.743  16.898  -1.759  1.00 20.00    -0.105 Cl
ENDROOT
TORSDOF 0
ENDMDL
MODEL 5
REMARK VINA RESULT:      -3.6      2.263      2.957
REMARK  0 active torsions:
REMARK  status: ('A' for Active; 'I' for Inactive)
ROOT
HETATM    1  C1  UNL     1     -34.619  14.320  -4.439  1.00 20.00     0.154 C 
HETATM    2  C2  UNL     1     -35.135  14.088  -5.845  1.00 20.00     0.081 C 
HETATM    3  C3  UNL     1     -34.324  14.880  -6.861  1.00 20.00     0.018 C 
HETATM    4  C4  UNL     1     -34.346  16.382  -6.600  1.00 20.00     0.076 C 
HETATM    5  C5  UNL     1     -34.672  15.749  -3.937  1.00 20.00     0.212 C 
HETATM    6  O6  UNL     1     -34.236  13.372  -3.754  1.00 20.00    -0.295 OA
HETATM    7  S7  UNL     1     -33.622  16.788  -4.982  1.00 20.00    -0.141 SA
HETATM    8 CL8  UNL     1     -34.129  15.823  -2.248  1.00 20.00    -0.105 Cl
ENDROOT
TORSDOF 0
ENDMDL
MODEL 6
REMARK VINA RESULT:      -3.6      2.219      2.743
REMARK  0 active torsions:
REMARK  status: ('A' for Active; 'I' for Inactive)
ROOT
HETATM    1  C1  UNL     1     -33.733  16.052  -4.736  1.00 20.00     0.154 C 
HETATM    2  C2  UNL     1     -33.615  15.208  -3.484  1.00 20.00     0.081 C 
HETATM    3  C3  UNL     1     -33.651  13.724  -3.821  1.00 20.00     0.018 C 
HETATM    4  C4  UNL     1     -34.927  13.308  -4.543  1.00 20.00     0.076 C 
HETATM    5  C5  UNL     1     -35.005  15.875  -5.542  1.00 20.00     0.212 C 
HETATM    6  O6  UNL     1     -32.853  16.862  -5.024  1.00 20.00    -0.295 OA
HETATM    7  S7  UNL     1     -35.103  14.169  -6.135  1.00 20.00    -0.141 SA
HETATM    8 CL8  UNL     1     -35.023  17.007  -6.911  1.00 20.00    -0.105 Cl
ENDROOT
TORSDOF 0
ENDMDL
MODEL 7
REMARK VINA RESULT:      -3.5      3.224      3.923
REMARK  0 active torsions:
REMARK  status: ('A' for Active; 'I' for Inactive)
ROOT
HETATM    1  C1  UNL     1     -33.757  16.836  -3.813  1.00 20.00     0.154 C 
HETATM    2  C2  UNL     1     -33.198  16.482  -5.176  1.00 20.00     0.081 C 
HETATM    3  C3  UNL     1     -34.210  15.687  -5.990  1.00 20.00     0.018 C 
HETATM    4  C4  UNL     1     -34.634  14.390  -5.311  1.00 20.00     0.076 C 
HETATM    5  C5  UNL     1     -34.130  15.668  -2.922  1.00 20.00     0.212 C 
HETATM    6  O6  UNL     1     -33.839  18.012  -3.462  1.00 20.00    -0.295 OA
HETATM    7  S7  UNL     1     -35.443  14.708  -3.714  1.00 20.00    -0.141 SA
HETATM    8 CL8  UNL     1     -34.666  16.258  -1.335  1.00 20.00    -0.105 Cl
ENDROOT
TORSDOF 0
ENDMDL
MODEL 8
REMARK VINA RESULT:      -3.5      1.754      1.978
REMARK  0 active torsions:
REMARK  status: ('A' for Active; 'I' for Inactive)
ROOT
HETATM    1  C1  UNL     1     -35.167  14.613  -5.811  1.00 20.00     0.154 C 
HETATM    2  C2  UNL     1     -34.784  13.440  -4.930  1.00 20.00     0.081 C 
HETATM    3  C3  UNL     1     -34.221  13.919  -3.599  1.00 20.00     0.018 C 
HETATM    4  C4  UNL     1     -32.989  14.802  -3.757  1.00 20.00     0.076 C 
HETATM    5  C5  UNL     1     -34.042  15.555  -6.190  1.00 20.00     0.212 C 
HETATM    6  O6  UNL     1     -36.321  14.732  -6.219  1.00 20.00    -0.295 OA
HETATM    7  S7  UNL     1     -33.369  16.315  -4.692  1.00 20.00    -0.141 SA
HETATM    8 CL8  UNL     1     -34.641  16.805  -7.301  1.00 20.00    -0.105 Cl
ENDROOT
TORSDOF 0
ENDMDL
MODEL 9
REMARK VINA RESULT:      -3.4     12.049     12.576
REMARK  0 active torsions:
REMARK  status: ('A' for Active; 'I' for Inactive)
ROOT
HETATM    1  C1  UNL     1     -41.636   4.982  -0.638  1.00 20.00     0.154 C 
HETATM    2  C2  UNL     1     -40.876   6.277  -0.434  1.00 20.00     0.081 C 
HETATM    3  C3  UNL     1     -41.631   7.453  -1.038  1.00 20.00     0.018 C 
HETATM    4  C4  UNL     1     -41.883   7.294  -2.533  1.00 20.00     0.076 C 
HETATM    5  C5  UNL     1     -41.884   4.576  -2.077  1.00 20.00     0.212 C 
HETATM    6  O6  UNL     1     -41.970   4.298   0.328  1.00 20.00    -0.295 OA
HETATM    7  S7  UNL     1     -42.906   5.833  -2.885  1.00 20.00    -0.141 SA
HETATM    8 CL8  UNL     1     -42.690   2.994  -2.135  1.00 20.00    -0.105 Cl
ENDROOT
TORSDOF 0
ENDMDL
