MODEL 1
REMARK VINA RESULT:      -4.5      0.000      0.000
REMARK  4 active torsions:
REMARK  status: ('A' for Active; 'I' for Inactive)
REMARK    1  A    between atoms: C3_3  and  C4_4 
REMARK    2  A    between atoms: C4_4  and  C5_5 
REMARK    3  A    between atoms: C5_5  and  C6_6 
REMARK    4  A    between atoms: C6_6  and  C7_7 
ROOT
HETATM    1  C1  UNL     1     -32.168   8.734   1.833  1.00 20.00     0.087 C 
HETATM    2  C2  UNL     1     -32.174   7.571   2.649  1.00 20.00     0.089 C 
HETATM    3  C3  UNL     1     -33.307   6.905   2.915  1.00 20.00    -0.016 C 
HETATM    4  N8  UNL     1     -32.159   9.684   1.167  1.00 20.00    -0.192 NA
ENDROOT
BRANCH   3   5
HETATM    5  C4  UNL     1     -33.364   5.678   3.777  1.00 20.00     0.028 C 
BRANCH   5   6
HETATM    6  C5  UNL     1     -34.790   5.130   3.871  1.00 20.00     0.005 C 
BRANCH   6   7
HETATM    7  C6  UNL     1     -35.169   4.822   5.324  1.00 20.00     0.015 C 
BRANCH   7   8
HETATM    8  C7  UNL     1     -34.064   5.160   6.319  1.00 20.00     0.114 C 
HETATM    9 CL9  UNL     1     -34.036   6.893   6.723  1.00 20.00    -0.130 Cl
ENDBRANCH   7   8
ENDBRANCH   6   7
ENDBRANCH   5   6
ENDBRANCH   3   5
TORSDOF 4
ENDMDL
MODEL 2
REMARK VINA RESULT:      -4.5      1.367      1.750
REMARK  4 active torsions:
REMARK  status: ('A' for Active; 'I' for Inactive)
REMARK    1  A    between atoms: C3_3  and  C4_4 
REMARK    2  A    between atoms: C4_4  and  C5_5 
REMARK    3  A    between atoms: C5_5  and  C6_6 
REMARK    4  A    between atoms: C6_6  and  C7_7 
ROOT
HETATM    1  C1  UNL     1     -32.396   8.987   0.674  1.00 20.00     0.087 C 
HETATM    2  C2  UNL     1     -32.066   8.499   1.966  1.00 20.00     0.089 C 
HETATM    3  C3  UNL     1     -32.461   7.286   2.381  1.00 20.00    -0.016 C 
HETATM    4  N8  UNL     1     -32.664   9.390  -0.380  1.00 20.00    -0.192 NA
ENDROOT
BRANCH   3   5
HETATM    5  C4  UNL     1     -32.142   6.730   3.738  1.00 20.00     0.028 C 
BRANCH   5   6
HETATM    6  C5  UNL     1     -33.417   6.437   4.533  1.00 20.00     0.005 C 
BRANCH   6   7
HETATM    7  C6  UNL     1     -34.428   5.654   3.687  1.00 20.00     0.015 C 
BRANCH   7   8
HETATM    8  C7  UNL     1     -35.261   4.671   4.501  1.00 20.00     0.114 C 
HETATM    9 CL9  UNL     1     -34.967   4.831   6.249  1.00 20.00    -0.130 Cl
ENDBRANCH   7   8
ENDBRANCH   6   7
ENDBRANCH   5   6
ENDBRANCH   3   5
TORSDOF 4
ENDMDL
MODEL 3
REMARK VINA RESULT:      -4.3     11.001     11.772
REMARK  4 active torsions:
REMARK  status: ('A' for Active; 'I' for Inactive)
REMARK    1  A    between atoms: C3_3  and  C4_4 
REMARK    2  A    between atoms: C4_4  and  C5_5 
REMARK    3  A    between atoms: C5_5  and  C6_6 
REMARK    4  A    between atoms: C6_6  and  C7_7 
ROOT
HETATM    1  C1  UNL     1     -34.844  13.658  -3.999  1.00 20.00     0.087 C 
HETATM    2  C2  UNL     1     -34.883  14.814  -3.174  1.00 20.00     0.089 C 
HETATM    3  C3  UNL     1     -33.826  15.631  -3.059  1.00 20.00    -0.016 C 
HETATM    4  N8  UNL     1     -34.816  12.713  -4.670  1.00 20.00    -0.192 NA
ENDROOT
BRANCH   3   5
HETATM    5  C4  UNL     1     -33.817  16.859  -2.197  1.00 20.00     0.028 C 
BRANCH   5   6
HETATM    6  C5  UNL     1     -34.564  16.622  -0.882  1.00 20.00     0.005 C 
BRANCH   6   7
HETATM    7  C6  UNL     1     -34.299  17.755   0.116  1.00 20.00     0.015 C 
BRANCH   7   8
HETATM    8  C7  UNL     1     -33.289  18.779  -0.389  1.00 20.00     0.114 C 
HETATM    9 CL9  UNL     1     -31.786  18.762   0.562  1.00 20.00    -0.130 Cl
ENDBRANCH   7   8
ENDBRANCH   6   7
ENDBRANCH   5   6
ENDBRANCH   3   5
TORSDOF 4
ENDMDL
MODEL 4
REMARK VINA RESULT:      -4.2     10.714     11.270
REMARK  4 active torsions:
REMARK  status: ('A' for Active; 'I' for Inactive)
REMARK    1  A    between atoms: C3_3  and  C4_4 
REMARK    2  A    between atoms: C4_4  and  C5_5 
REMARK    3  A    between atoms: C5_5  and  C6_6 
REMARK    4  A    between atoms: C6_6  and  C7_7 
ROOT
HETATM    1  C1  UNL     1     -34.743  13.644  -3.955  1.00 20.00     0.087 C 
HETATM    2  C2  UNL     1     -34.740  14.733  -3.044  1.00 20.00     0.089 C 
HETATM    3  C3  UNL     1     -33.753  15.640  -3.036  1.00 20.00    -0.016 C 
HETATM    4  N8  UNL     1     -34.749  12.752  -4.697  1.00 20.00    -0.192 NA
ENDROOT
BRANCH   3   5
HETATM    5  C4  UNL     1     -33.703  16.803  -2.089  1.00 20.00     0.028 C 
BRANCH   5   6
HETATM    6  C5  UNL     1     -34.630  16.586  -0.891  1.00 20.00     0.005 C 
BRANCH   6   7
HETATM    7  C6  UNL     1     -34.438  17.683   0.162  1.00 20.00     0.015 C 
BRANCH   7   8
HETATM    8  C7  UNL     1     -35.543  17.710   1.213  1.00 20.00     0.114 C 
HETATM    9 CL9  UNL     1     -34.894  17.846   2.863  1.00 20.00    -0.130 Cl
ENDBRANCH   7   8
ENDBRANCH   6   7
ENDBRANCH   5   6
ENDBRANCH   3   5
TORSDOF 4
ENDMDL
MODEL 5
REMARK VINA RESULT:      -4.1      3.586      5.169
REMARK  4 active torsions:
REMARK  status: ('A' for Active; 'I' for Inactive)
REMARK    1  A    between atoms: C3_3  and  C4_4 
REMARK    2  A    between atoms: C4_4  and  C5_5 
REMARK    3  A    between atoms: C5_5  and  C6_6 
REMARK    4  A    between atoms: C6_6  and  C7_7 
ROOT
HETATM    1  C1  UNL     1     -34.910   4.789   6.040  1.00 20.00     0.087 C 
HETATM    2  C2  UNL     1     -34.122   5.406   5.033  1.00 20.00     0.089 C 
HETATM    3  C3  UNL     1     -34.478   5.370   3.741  1.00 20.00    -0.016 C 
HETATM    4  N8  UNL     1     -35.551   4.286   6.867  1.00 20.00    -0.192 NA
ENDROOT
BRANCH   3   5
HETATM    5  C4  UNL     1     -33.676   6.001   2.641  1.00 20.00     0.028 C 
BRANCH   5   6
HETATM    6  C5  UNL     1     -32.224   6.227   3.070  1.00 20.00     0.005 C 
BRANCH   6   7
HETATM    7  C6  UNL     1     -31.866   7.717   3.043  1.00 20.00     0.015 C 
BRANCH   7   8
HETATM    8  C7  UNL     1     -31.911   8.322   1.644  1.00 20.00     0.114 C 
HETATM    9 CL9  UNL     1     -32.635   9.947   1.641  1.00 20.00    -0.130 Cl
ENDBRANCH   7   8
ENDBRANCH   6   7
ENDBRANCH   5   6
ENDBRANCH   3   5
TORSDOF 4
ENDMDL
MODEL 6
REMARK VINA RESULT:      -4.0     11.379     12.113
REMARK  4 active torsions:
REMARK  status: ('A' for Active; 'I' for Inactive)
REMARK    1  A    between atoms: C3_3  and  C4_4 
REMARK    2  A    between atoms: C4_4  and  C5_5 
REMARK    3  A    between atoms: C5_5  and  C6_6 
REMARK    4  A    between atoms: C6_6  and  C7_7 
ROOT
HETATM    1  C1  UNL     1     -34.763  16.971  -0.393  1.00 20.00     0.087 C 
HETATM    2  C2  UNL     1     -34.745  16.218  -1.597  1.00 20.00     0.089 C 
HETATM    3  C3  UNL     1     -33.698  16.255  -2.434  1.00 20.00    -0.016 C 
HETATM    4  N8  UNL     1     -34.782  17.585   0.591  1.00 20.00    -0.192 NA
ENDROOT
BRANCH   3   5
HETATM    5  C4  UNL     1     -33.635  15.483  -3.719  1.00 20.00     0.028 C 
BRANCH   5   6
HETATM    6  C5  UNL     1     -34.142  14.050  -3.533  1.00 20.00     0.005 C 
BRANCH   6   7
HETATM    7  C6  UNL     1     -34.507  13.414  -4.879  1.00 20.00     0.015 C 
BRANCH   7   8
HETATM    8  C7  UNL     1     -35.292  14.348  -5.793  1.00 20.00     0.114 C 
HETATM    9 CL9  UNL     1     -34.352  14.829  -7.225  1.00 20.00    -0.130 Cl
ENDBRANCH   7   8
ENDBRANCH   6   7
ENDBRANCH   5   6
ENDBRANCH   3   5
TORSDOF 4
ENDMDL
MODEL 7
REMARK VINA RESULT:      -4.0      3.330      5.320
REMARK  4 active torsions:
REMARK  status: ('A' for Active; 'I' for Inactive)
REMARK    1  A    between atoms: C3_3  and  C4_4 
REMARK    2  A    between atoms: C4_4  and  C5_5 
REMARK    3  A    between atoms: C5_5  and  C6_6 
REMARK    4  A    between atoms: C6_6  and  C7_7 
ROOT
HETATM    1  C1  UNL     1     -34.862   4.990   5.315  1.00 20.00     0.087 C 
HETATM    2  C2  UNL     1     -34.429   5.402   4.026  1.00 20.00     0.089 C 
HETATM    3  C3  UNL     1     -33.259   6.030   3.845  1.00 20.00    -0.016 C 
HETATM    4  N8  UNL     1     -35.219   4.653   6.366  1.00 20.00    -0.192 NA
ENDROOT
BRANCH   3   5
HETATM    5  C4  UNL     1     -32.763   6.489   2.505  1.00 20.00     0.028 C 
BRANCH   5   6
HETATM    6  C5  UNL     1     -31.923   7.762   2.629  1.00 20.00     0.005 C 
BRANCH   6   7
HETATM    7  C6  UNL     1     -31.646   8.377   1.252  1.00 20.00     0.015 C 
BRANCH   7   8
HETATM    8  C7  UNL     1     -32.508   9.599   0.955  1.00 20.00     0.114 C 
HETATM    9 CL9  UNL     1     -32.729  10.628   2.389  1.00 20.00    -0.130 Cl
ENDBRANCH   7   8
ENDBRANCH   6   7
ENDBRANCH   5   6
ENDBRANCH   3   5
TORSDOF 4
ENDMDL
MODEL 8
REMARK VINA RESULT:      -3.7     11.616     12.113
REMARK  4 active torsions:
REMARK  status: ('A' for Active; 'I' for Inactive)
REMARK    1  A    between atoms: C3_3  and  C4_4 
REMARK    2  A    between atoms: C4_4  and  C5_5 
REMARK    3  A    between atoms: C5_5  and  C6_6 
REMARK    4  A    between atoms: C6_6  and  C7_7 
ROOT
HETATM    1  C1  UNL     1     -37.143  14.905  -3.716  1.00 20.00     0.087 C 
HETATM    2  C2  UNL     1     -35.916  15.620  -3.672  1.00 20.00     0.089 C 
HETATM    3  C3  UNL     1     -35.029  15.434  -2.685  1.00 20.00    -0.016 C 
HETATM    4  N8  UNL     1     -38.146  14.324  -3.755  1.00 20.00    -0.192 NA
ENDROOT
BRANCH   3   5
HETATM    5  C4  UNL     1     -33.724  16.170  -2.592  1.00 20.00     0.028 C 
BRANCH   5   6
HETATM    6  C5  UNL     1     -33.785  17.281  -1.541  1.00 20.00     0.005 C 
BRANCH   6   7
HETATM    7  C6  UNL     1     -34.705  16.892  -0.378  1.00 20.00     0.015 C 
BRANCH   7   8
HETATM    8  C7  UNL     1     -35.670  18.002   0.024  1.00 20.00     0.114 C 
HETATM    9 CL9  UNL     1     -36.772  18.442  -1.302  1.00 20.00    -0.130 Cl
ENDBRANCH   7   8
ENDBRANCH   6   7
ENDBRANCH   5   6
ENDBRANCH   3   5
TORSDOF 4
ENDMDL
MODEL 9
REMARK VINA RESULT:      -3.7     11.232     12.136
REMARK  4 active torsions:
REMARK  status: ('A' for Active; 'I' for Inactive)
REMARK    1  A    between atoms: C3_3  and  C4_4 
REMARK    2  A    between atoms: C4_4  and  C5_5 
REMARK    3  A    between atoms: C5_5  and  C6_6 
REMARK    4  A    between atoms: C6_6  and  C7_7 
ROOT
HETATM    1  C1  UNL     1     -32.419  18.845  -0.346  1.00 20.00     0.087 C 
HETATM    2  C2  UNL     1     -33.562  18.339  -1.020  1.00 20.00     0.089 C 
HETATM    3  C3  UNL     1     -33.792  17.022  -1.121  1.00 20.00    -0.016 C 
HETATM    4  N8  UNL     1     -31.487  19.263   0.204  1.00 20.00    -0.192 NA
ENDROOT
BRANCH   3   5
HETATM    5  C4  UNL     1     -34.980  16.439  -1.829  1.00 20.00     0.028 C 
BRANCH   5   6
HETATM    6  C5  UNL     1     -34.627  16.021  -3.258  1.00 20.00     0.005 C 
BRANCH   6   7
HETATM    7  C6  UNL     1     -33.696  14.803  -3.263  1.00 20.00     0.015 C 
BRANCH   7   8
HETATM    8  C7  UNL     1     -34.287  13.596  -3.986  1.00 20.00     0.114 C 
HETATM    9 CL9  UNL     1     -34.976  14.035  -5.566  1.00 20.00    -0.130 Cl
ENDBRANCH   7   8
ENDBRANCH   6   7
ENDBRANCH   5   6
ENDBRANCH   3   5
TORSDOF 4
ENDMDL
