MODEL 1
REMARK VINA RESULT:      -4.2      0.000      0.000
REMARK  5 active torsions:
REMARK  status: ('A' for Active; 'I' for Inactive)
REMARK    1  A    between atoms: C2_2  and  C6_6 
REMARK    2  A    between atoms: C2_2  and  C8_8 
REMARK    3  A    between atoms: C6_6  and  O11_11 
REMARK    4  A    between atoms: C7_7  and  O10_10 
REMARK    5  A    between atoms: C7_7  and  O11_11 
ROOT
HETATM    1  C1  UNL     1     -35.508   5.738   3.449  1.00 20.00     0.209 A 
HETATM    2  C2  UNL     1     -34.324   5.762   4.386  1.00 20.00     0.106 A 
HETATM    3  O9  UNL     1     -34.827   4.536   3.838  1.00 20.00    -0.372 OA
ENDROOT
BRANCH   2   4
HETATM    4  C6  UNL     1     -32.979   6.149   3.861  1.00 20.00     0.211 C 
BRANCH   4   5
HETATM    5  O11 UNL     1     -33.101   7.291   3.017  1.00 20.00    -0.364 OA
BRANCH   5   6
HETATM    6  C7  UNL     1     -31.834   7.744   2.543  1.00 20.00     0.337 C 
BRANCH   6   7
HETATM    7  O10 UNL     1     -31.897   8.482   1.322  1.00 20.00    -0.372 OA
HETATM    8  C5  UNL     1     -32.477   9.767   1.500  1.00 20.00     0.204 C 
ENDBRANCH   6   7
ENDBRANCH   5   6
ENDBRANCH   4   5
ENDBRANCH   2   4
BRANCH   2   9
HETATM    9  C8  UNL     1     -34.556   5.907   5.888  1.00 20.00     0.016 C 
HETATM   10  C3  UNL     1     -34.416   4.555   6.585  1.00 20.00     0.012 C 
HETATM   11  C4  UNL     1     -33.587   6.923   6.485  1.00 20.00     0.012 C 
ENDBRANCH   2   9
TORSDOF 5
ENDMDL
MODEL 2
REMARK VINA RESULT:      -4.2     10.682     12.711
REMARK  5 active torsions:
REMARK  status: ('A' for Active; 'I' for Inactive)
REMARK    1  A    between atoms: C2_2  and  C6_6 
REMARK    2  A    between atoms: C2_2  and  C8_8 
REMARK    3  A    between atoms: C6_6  and  O11_11 
REMARK    4  A    between atoms: C7_7  and  O10_10 
REMARK    5  A    between atoms: C7_7  and  O11_11 
ROOT
HETATM    1  C1  UNL     1     -33.710  13.417  -3.851  1.00 20.00     0.209 A 
HETATM    2  C2  UNL     1     -34.798  14.229  -4.512  1.00 20.00     0.106 A 
HETATM    3  O9  UNL     1     -34.789  12.796  -4.565  1.00 20.00    -0.372 OA
ENDROOT
BRANCH   2   4
HETATM    4  C6  UNL     1     -35.902  14.794  -3.679  1.00 20.00     0.211 C 
BRANCH   4   5
HETATM    5  O11 UNL     1     -37.085  14.017  -3.854  1.00 20.00    -0.364 OA
BRANCH   5   6
HETATM    6  C7  UNL     1     -38.220  14.829  -4.145  1.00 20.00     0.337 C 
BRANCH   6   7
HETATM    7  O10 UNL     1     -39.417  14.092  -4.394  1.00 20.00    -0.372 OA
HETATM    8  C5  UNL     1     -40.559  14.934  -4.487  1.00 20.00     0.204 C 
ENDBRANCH   6   7
ENDBRANCH   5   6
ENDBRANCH   4   5
ENDBRANCH   2   4
BRANCH   2   9
HETATM    9  C8  UNL     1     -34.526  14.897  -5.858  1.00 20.00     0.016 C 
HETATM   10  C3  UNL     1     -35.457  14.339  -6.931  1.00 20.00     0.012 C 
HETATM   11  C4  UNL     1     -34.679  16.411  -5.746  1.00 20.00     0.012 C 
ENDBRANCH   2   9
TORSDOF 5
ENDMDL
MODEL 3
REMARK VINA RESULT:      -4.1     11.433     12.418
REMARK  5 active torsions:
REMARK  status: ('A' for Active; 'I' for Inactive)
REMARK    1  A    between atoms: C2_2  and  C6_6 
REMARK    2  A    between atoms: C2_2  and  C8_8 
REMARK    3  A    between atoms: C6_6  and  O11_11 
REMARK    4  A    between atoms: C7_7  and  O10_10 
REMARK    5  A    between atoms: C7_7  and  O11_11 
ROOT
HETATM    1  C1  UNL     1     -32.782  15.020  -3.582  1.00 20.00     0.209 A 
HETATM    2  C2  UNL     1     -33.942  15.803  -3.017  1.00 20.00     0.106 A 
HETATM    3  O9  UNL     1     -33.371  16.119  -4.293  1.00 20.00    -0.372 OA
ENDROOT
BRANCH   2   4
HETATM    4  C6  UNL     1     -35.322  15.235  -3.098  1.00 20.00     0.211 C 
BRANCH   4   5
HETATM    5  O11 UNL     1     -36.014  15.807  -4.206  1.00 20.00    -0.364 OA
BRANCH   5   6
HETATM    6  C7  UNL     1     -36.957  14.900  -4.774  1.00 20.00     0.337 C 
BRANCH   6   7
HETATM    7  O10 UNL     1     -37.804  14.263  -3.818  1.00 20.00    -0.372 OA
HETATM    8  C5  UNL     1     -39.116  14.810  -3.811  1.00 20.00     0.204 C 
ENDBRANCH   6   7
ENDBRANCH   5   6
ENDBRANCH   4   5
ENDBRANCH   2   4
BRANCH   2   9
HETATM    9  C8  UNL     1     -33.685  16.863  -1.948  1.00 20.00     0.016 C 
HETATM   10  C3  UNL     1     -33.849  18.264  -2.531  1.00 20.00     0.012 C 
HETATM   11  C4  UNL     1     -34.620  16.662  -0.758  1.00 20.00     0.012 C 
ENDBRANCH   2   9
TORSDOF 5
ENDMDL
MODEL 4
REMARK VINA RESULT:      -4.0     11.619     12.581
REMARK  5 active torsions:
REMARK  status: ('A' for Active; 'I' for Inactive)
REMARK    1  A    between atoms: C2_2  and  C6_6 
REMARK    2  A    between atoms: C2_2  and  C8_8 
REMARK    3  A    between atoms: C6_6  and  O11_11 
REMARK    4  A    between atoms: C7_7  and  O10_10 
REMARK    5  A    between atoms: C7_7  and  O11_11 
ROOT
HETATM    1  C1  UNL     1     -32.756  14.953  -3.640  1.00 20.00     0.209 A 
HETATM    2  C2  UNL     1     -33.912  15.807  -3.177  1.00 20.00     0.106 A 
HETATM    3  O9  UNL     1     -33.167  16.125  -4.361  1.00 20.00    -0.372 OA
ENDROOT
BRANCH   2   4
HETATM    4  C6  UNL     1     -35.312  15.360  -3.448  1.00 20.00     0.211 C 
BRANCH   4   5
HETATM    5  O11 UNL     1     -35.830  16.055  -4.580  1.00 20.00    -0.364 OA
BRANCH   5   6
HETATM    6  C7  UNL     1     -36.369  15.164  -5.554  1.00 20.00     0.337 C 
BRANCH   6   7
HETATM    7  O10 UNL     1     -35.417  14.254  -6.104  1.00 20.00    -0.372 OA
HETATM    8  C5  UNL     1     -34.738  14.798  -7.227  1.00 20.00     0.204 C 
ENDBRANCH   6   7
ENDBRANCH   5   6
ENDBRANCH   4   5
ENDBRANCH   2   4
BRANCH   2   9
HETATM    9  C8  UNL     1     -33.704  16.799  -2.035  1.00 20.00     0.016 C 
HETATM   10  C3  UNL     1     -33.823  18.235  -2.542  1.00 20.00     0.012 C 
HETATM   11  C4  UNL     1     -34.705  16.541  -0.912  1.00 20.00     0.012 C 
ENDBRANCH   2   9
TORSDOF 5
ENDMDL
MODEL 5
REMARK VINA RESULT:      -4.0     10.961     12.370
REMARK  5 active torsions:
REMARK  status: ('A' for Active; 'I' for Inactive)
REMARK    1  A    between atoms: C2_2  and  C6_6 
REMARK    2  A    between atoms: C2_2  and  C8_8 
REMARK    3  A    between atoms: C6_6  and  O11_11 
REMARK    4  A    between atoms: C7_7  and  O10_10 
REMARK    5  A    between atoms: C7_7  and  O11_11 
ROOT
HETATM    1  C1  UNL     1     -33.869  16.714  -5.739  1.00 20.00     0.209 A 
HETATM    2  C2  UNL     1     -34.097  15.891  -4.493  1.00 20.00     0.106 A 
HETATM    3  O9  UNL     1     -32.786  16.326  -4.880  1.00 20.00    -0.372 OA
ENDROOT
BRANCH   2   4
HETATM    4  C6  UNL     1     -34.612  16.554  -3.257  1.00 20.00     0.211 C 
BRANCH   4   5
HETATM    5  O11 UNL     1     -33.601  16.551  -2.251  1.00 20.00    -0.364 OA
BRANCH   5   6
HETATM    6  C7  UNL     1     -33.955  17.365  -1.135  1.00 20.00     0.337 C 
BRANCH   6   7
HETATM    7  O10 UNL     1     -34.774  16.706  -0.169  1.00 20.00    -0.372 OA
HETATM    8  C5  UNL     1     -35.195  17.583   0.868  1.00 20.00     0.204 C 
ENDBRANCH   6   7
ENDBRANCH   5   6
ENDBRANCH   4   5
ENDBRANCH   2   4
BRANCH   2   9
HETATM    9  C8  UNL     1     -34.305  14.383  -4.615  1.00 20.00     0.016 C 
HETATM   10  C3  UNL     1     -33.271  13.629  -3.783  1.00 20.00     0.012 C 
HETATM   11  C4  UNL     1     -35.720  14.001  -4.190  1.00 20.00     0.012 C 
ENDBRANCH   2   9
TORSDOF 5
ENDMDL
MODEL 6
REMARK VINA RESULT:      -3.9     11.269     12.560
REMARK  5 active torsions:
REMARK  status: ('A' for Active; 'I' for Inactive)
REMARK    1  A    between atoms: C2_2  and  C6_6 
REMARK    2  A    between atoms: C2_2  and  C8_8 
REMARK    3  A    between atoms: C6_6  and  O11_11 
REMARK    4  A    between atoms: C7_7  and  O10_10 
REMARK    5  A    between atoms: C7_7  and  O11_11 
ROOT
HETATM    1  C1  UNL     1     -34.041  17.518  -1.821  1.00 20.00     0.209 A 
HETATM    2  C2  UNL     1     -34.345  16.520  -2.912  1.00 20.00     0.106 A 
HETATM    3  O9  UNL     1     -34.299  16.135  -1.532  1.00 20.00    -0.372 OA
ENDROOT
BRANCH   2   4
HETATM    4  C6  UNL     1     -35.716  16.473  -3.505  1.00 20.00     0.211 C 
BRANCH   4   5
HETATM    5  O11 UNL     1     -36.414  15.329  -3.016  1.00 20.00    -0.364 OA
BRANCH   5   6
HETATM    6  C7  UNL     1     -37.057  14.607  -4.064  1.00 20.00     0.337 C 
BRANCH   6   7
HETATM    7  O10 UNL     1     -38.378  14.170  -3.746  1.00 20.00    -0.372 OA
HETATM    8  C5  UNL     1     -39.353  14.715  -4.625  1.00 20.00     0.204 C 
ENDBRANCH   6   7
ENDBRANCH   5   6
ENDBRANCH   4   5
ENDBRANCH   2   4
BRANCH   2   9
HETATM    9  C8  UNL     1     -33.202  15.949  -3.749  1.00 20.00     0.016 C 
HETATM   10  C3  UNL     1     -33.188  14.424  -3.668  1.00 20.00     0.012 C 
HETATM   11  C4  UNL     1     -33.316  16.410  -5.199  1.00 20.00     0.012 C 
ENDBRANCH   2   9
TORSDOF 5
ENDMDL
MODEL 7
REMARK VINA RESULT:      -3.9     11.210     12.877
REMARK  5 active torsions:
REMARK  status: ('A' for Active; 'I' for Inactive)
REMARK    1  A    between atoms: C2_2  and  C6_6 
REMARK    2  A    between atoms: C2_2  and  C8_8 
REMARK    3  A    between atoms: C6_6  and  O11_11 
REMARK    4  A    between atoms: C7_7  and  O10_10 
REMARK    5  A    between atoms: C7_7  and  O11_11 
ROOT
HETATM    1  C1  UNL     1     -33.780  16.797  -6.043  1.00 20.00     0.209 A 
HETATM    2  C2  UNL     1     -34.255  15.772  -5.041  1.00 20.00     0.106 A 
HETATM    3  O9  UNL     1     -34.684  17.139  -4.981  1.00 20.00    -0.372 OA
ENDROOT
BRANCH   2   4
HETATM    4  C6  UNL     1     -35.339  14.817  -5.423  1.00 20.00     0.211 C 
BRANCH   4   5
HETATM    5  O11 UNL     1     -36.600  15.319  -4.987  1.00 20.00    -0.364 OA
BRANCH   5   6
HETATM    6  C7  UNL     1     -37.020  14.719  -3.763  1.00 20.00     0.337 C 
BRANCH   6   7
HETATM    7  O10 UNL     1     -38.344  14.186  -3.798  1.00 20.00    -0.372 OA
HETATM    8  C5  UNL     1     -39.336  15.204  -3.752  1.00 20.00     0.204 C 
ENDBRANCH   6   7
ENDBRANCH   5   6
ENDBRANCH   4   5
ENDBRANCH   2   4
BRANCH   2   9
HETATM    9  C8  UNL     1     -33.338  15.363  -3.891  1.00 20.00     0.016 C 
HETATM   10  C3  UNL     1     -33.762  16.052  -2.595  1.00 20.00     0.012 C 
HETATM   11  C4  UNL     1     -33.336  13.847  -3.719  1.00 20.00     0.012 C 
ENDBRANCH   2   9
TORSDOF 5
ENDMDL
MODEL 8
REMARK VINA RESULT:      -3.9     10.813     12.463
REMARK  5 active torsions:
REMARK  status: ('A' for Active; 'I' for Inactive)
REMARK    1  A    between atoms: C2_2  and  C6_6 
REMARK    2  A    between atoms: C2_2  and  C8_8 
REMARK    3  A    between atoms: C6_6  and  O11_11 
REMARK    4  A    between atoms: C7_7  and  O10_10 
REMARK    5  A    between atoms: C7_7  and  O11_11 
ROOT
HETATM    1  C1  UNL     1     -33.446  13.629  -3.865  1.00 20.00     0.209 A 
HETATM    2  C2  UNL     1     -34.066  14.849  -4.505  1.00 20.00     0.106 A 
HETATM    3  O9  UNL     1     -34.704  14.160  -3.422  1.00 20.00    -0.372 OA
ENDROOT
BRANCH   2   4
HETATM    4  C6  UNL     1     -33.560  16.208  -4.141  1.00 20.00     0.211 C 
BRANCH   4   5
HETATM    5  O11 UNL     1     -34.483  16.845  -3.261  1.00 20.00    -0.364 OA
BRANCH   5   6
HETATM    6  C7  UNL     1     -33.908  17.109  -1.983  1.00 20.00     0.337 C 
BRANCH   6   7
HETATM    7  O10 UNL     1     -34.529  16.407  -0.906  1.00 20.00    -0.372 OA
HETATM    8  C5  UNL     1     -34.898  17.273   0.159  1.00 20.00     0.204 C 
ENDBRANCH   6   7
ENDBRANCH   5   6
ENDBRANCH   4   5
ENDBRANCH   2   4
BRANCH   2   9
HETATM    9  C8  UNL     1     -34.796  14.710  -5.839  1.00 20.00     0.016 C 
HETATM   10  C3  UNL     1     -36.291  14.968  -5.662  1.00 20.00     0.012 C 
HETATM   11  C4  UNL     1     -34.205  15.660  -6.876  1.00 20.00     0.012 C 
ENDBRANCH   2   9
TORSDOF 5
ENDMDL
MODEL 9
REMARK VINA RESULT:      -3.8      0.618      1.222
REMARK  5 active torsions:
REMARK  status: ('A' for Active; 'I' for Inactive)
REMARK    1  A    between atoms: C2_2  and  C6_6 
REMARK    2  A    between atoms: C2_2  and  C8_8 
REMARK    3  A    between atoms: C6_6  and  O11_11 
REMARK    4  A    between atoms: C7_7  and  O10_10 
REMARK    5  A    between atoms: C7_7  and  O11_11 
ROOT
HETATM    1  C1  UNL     1     -35.667   5.465   3.618  1.00 20.00     0.209 A 
HETATM    2  C2  UNL     1     -34.361   5.895   4.241  1.00 20.00     0.106 A 
HETATM    3  O9  UNL     1     -34.426   4.817   3.299  1.00 20.00    -0.372 OA
ENDROOT
BRANCH   2   4
HETATM    4  C6  UNL     1     -33.662   7.109   3.720  1.00 20.00     0.211 C 
BRANCH   4   5
HETATM    5  O11 UNL     1     -32.539   6.718   2.933  1.00 20.00    -0.364 OA
BRANCH   5   6
HETATM    6  C7  UNL     1     -31.738   7.834   2.551  1.00 20.00     0.337 C 
BRANCH   6   7
HETATM    7  O10 UNL     1     -32.075   8.386   1.278  1.00 20.00    -0.372 OA
HETATM    8  C5  UNL     1     -32.397   9.768   1.359  1.00 20.00     0.204 C 
ENDBRANCH   6   7
ENDBRANCH   5   6
ENDBRANCH   4   5
ENDBRANCH   2   4
BRANCH   2   9
HETATM    9  C8  UNL     1     -34.023   5.451   5.663  1.00 20.00     0.016 C 
HETATM   10  C3  UNL     1     -33.954   6.655   6.599  1.00 20.00     0.012 C 
HETATM   11  C4  UNL     1     -35.047   4.437   6.165  1.00 20.00     0.012 C 
ENDBRANCH   2   9
TORSDOF 5
ENDMDL
