MODEL 1
REMARK VINA RESULT:      -4.4      0.000      0.000
REMARK  0 active torsions:
REMARK  status: ('A' for Active; 'I' for Inactive)
ROOT
HETATM    1  C1  UNL     1     -33.975   6.231   5.970  1.00 20.00     0.146 C 
HETATM    2  C2  UNL     1     -35.039   5.257   6.467  1.00 20.00     0.084 C 
HETATM    3  C3  UNL     1     -35.415   5.586   4.003  1.00 20.00     0.034 C 
HETATM    4  C4  UNL     1     -33.926   4.202   4.475  1.00 20.00     0.034 C 
HETATM    5  C5  UNL     1     -35.326   4.496   5.142  1.00 20.00    -0.004 C 
HETATM    6  C6  UNL     1     -33.917   5.776   4.452  1.00 20.00     0.079 C 
HETATM    7  O7  UNL     1     -33.402   7.074   6.631  1.00 20.00    -0.296 OA
HETATM    8 BR8  UNL     1     -32.708   6.699   3.340  1.00 20.00    -0.077 Br
ENDROOT
TORSDOF 0
ENDMDL
MODEL 2
REMARK VINA RESULT:      -4.2     12.390     12.992
REMARK  0 active torsions:
REMARK  status: ('A' for Active; 'I' for Inactive)
ROOT
HETATM    1  C1  UNL     1     -34.663  13.672  -4.002  1.00 20.00     0.146 C 
HETATM    2  C2  UNL     1     -33.217  14.070  -3.723  1.00 20.00     0.084 C 
HETATM    3  C3  UNL     1     -34.458  16.157  -4.374  1.00 20.00     0.034 C 
HETATM    4  C4  UNL     1     -34.690  15.598  -2.377  1.00 20.00     0.034 C 
HETATM    5  C5  UNL     1     -33.435  15.559  -3.332  1.00 20.00    -0.004 C 
HETATM    6  C6  UNL     1     -35.363  15.061  -3.695  1.00 20.00     0.079 C 
HETATM    7  O7  UNL     1     -35.056  12.578  -4.354  1.00 20.00    -0.296 OA
HETATM    8 BR8  UNL     1     -37.235  15.125  -3.896  1.00 20.00    -0.077 Br
ENDROOT
TORSDOF 0
ENDMDL
MODEL 3
REMARK VINA RESULT:      -3.9     12.959     13.630
REMARK  0 active torsions:
REMARK  status: ('A' for Active; 'I' for Inactive)
ROOT
HETATM    1  C1  UNL     1     -33.593  15.806  -4.672  1.00 20.00     0.146 C 
HETATM    2  C2  UNL     1     -33.756  15.317  -3.237  1.00 20.00     0.084 C 
HETATM    3  C3  UNL     1     -35.837  14.670  -4.490  1.00 20.00     0.034 C 
HETATM    4  C4  UNL     1     -34.227  13.368  -4.751  1.00 20.00     0.034 C 
HETATM    5  C5  UNL     1     -34.746  14.144  -3.478  1.00 20.00    -0.004 C 
HETATM    6  C6  UNL     1     -34.551  14.768  -5.394  1.00 20.00     0.079 C 
HETATM    7  O7  UNL     1     -32.904  16.733  -5.047  1.00 20.00    -0.296 OA
HETATM    8 BR8  UNL     1     -34.720  14.934  -7.263  1.00 20.00    -0.077 Br
ENDROOT
TORSDOF 0
ENDMDL
MODEL 4
REMARK VINA RESULT:      -3.9     13.038     13.798
REMARK  0 active torsions:
REMARK  status: ('A' for Active; 'I' for Inactive)
ROOT
HETATM    1  C1  UNL     1     -34.544  13.842  -4.610  1.00 20.00     0.146 C 
HETATM    2  C2  UNL     1     -34.324  14.480  -3.243  1.00 20.00     0.084 C 
HETATM    3  C3  UNL     1     -33.324  16.021  -4.959  1.00 20.00     0.034 C 
HETATM    4  C4  UNL     1     -35.388  16.214  -4.718  1.00 20.00     0.034 C 
HETATM    5  C5  UNL     1     -34.234  15.972  -3.670  1.00 20.00    -0.004 C 
HETATM    6  C6  UNL     1     -34.525  15.156  -5.499  1.00 20.00     0.079 C 
HETATM    7  O7  UNL     1     -34.682  12.658  -4.842  1.00 20.00    -0.296 OA
HETATM    8 BR8  UNL     1     -34.763  14.923  -7.353  1.00 20.00    -0.077 Br
ENDROOT
TORSDOF 0
ENDMDL
MODEL 5
REMARK VINA RESULT:      -3.9     12.905     13.671
REMARK  0 active torsions:
REMARK  status: ('A' for Active; 'I' for Inactive)
ROOT
HETATM    1  C1  UNL     1     -34.486  14.492  -5.747  1.00 20.00     0.146 C 
HETATM    2  C2  UNL     1     -34.708  13.240  -4.905  1.00 20.00     0.084 C 
HETATM    3  C3  UNL     1     -32.993  14.646  -3.721  1.00 20.00     0.034 C 
HETATM    4  C4  UNL     1     -34.970  15.224  -3.384  1.00 20.00     0.034 C 
HETATM    5  C5  UNL     1     -34.308  13.797  -3.510  1.00 20.00    -0.004 C 
HETATM    6  C6  UNL     1     -34.003  15.476  -4.601  1.00 20.00     0.079 C 
HETATM    7  O7  UNL     1     -34.659  14.597  -6.945  1.00 20.00    -0.296 OA
HETATM    8 BR8  UNL     1     -33.576  17.234  -5.122  1.00 20.00    -0.077 Br
ENDROOT
TORSDOF 0
ENDMDL
MODEL 6
REMARK VINA RESULT:      -3.8      9.626     10.314
REMARK  0 active torsions:
REMARK  status: ('A' for Active; 'I' for Inactive)
ROOT
HETATM    1  C1  UNL     1     -41.776   6.669  -2.114  1.00 20.00     0.146 C 
HETATM    2  C2  UNL     1     -41.029   7.136  -0.868  1.00 20.00     0.084 C 
HETATM    3  C3  UNL     1     -42.518   5.230  -0.181  1.00 20.00     0.034 C 
HETATM    4  C4  UNL     1     -40.710   4.649  -1.048  1.00 20.00     0.034 C 
HETATM    5  C5  UNL     1     -41.058   5.817  -0.046  1.00 20.00    -0.004 C 
HETATM    6  C6  UNL     1     -42.053   5.168  -1.685  1.00 20.00     0.079 C 
HETATM    7  O7  UNL     1     -42.032   7.337  -3.095  1.00 20.00    -0.296 OA
HETATM    8 BR8  UNL     1     -42.990   4.097  -2.919  1.00 20.00    -0.077 Br
ENDROOT
TORSDOF 0
ENDMDL
MODEL 7
REMARK VINA RESULT:      -3.8     12.743     13.536
REMARK  0 active torsions:
REMARK  status: ('A' for Active; 'I' for Inactive)
ROOT
HETATM    1  C1  UNL     1     -34.147  15.736  -5.156  1.00 20.00     0.146 C 
HETATM    2  C2  UNL     1     -34.486  14.527  -6.023  1.00 20.00     0.084 C 
HETATM    3  C3  UNL     1     -33.858  13.667  -3.746  1.00 20.00     0.034 C 
HETATM    4  C4  UNL     1     -35.829  14.334  -3.907  1.00 20.00     0.034 C 
HETATM    5  C5  UNL     1     -34.914  13.530  -4.910  1.00 20.00    -0.004 C 
HETATM    6  C6  UNL     1     -34.474  15.117  -3.733  1.00 20.00     0.079 C 
HETATM    7  O7  UNL     1     -33.750  16.816  -5.546  1.00 20.00    -0.296 OA
HETATM    8 BR8  UNL     1     -34.214  16.240  -2.244  1.00 20.00    -0.077 Br
ENDROOT
TORSDOF 0
ENDMDL
MODEL 8
REMARK VINA RESULT:      -3.8     12.336     13.056
REMARK  0 active torsions:
REMARK  status: ('A' for Active; 'I' for Inactive)
ROOT
HETATM    1  C1  UNL     1     -34.020  13.841  -4.030  1.00 20.00     0.146 C 
HETATM    2  C2  UNL     1     -34.835  13.386  -5.237  1.00 20.00     0.084 C 
HETATM    3  C3  UNL     1     -36.353  14.764  -3.783  1.00 20.00     0.034 C 
HETATM    4  C4  UNL     1     -35.112  15.876  -5.040  1.00 20.00     0.034 C 
HETATM    5  C5  UNL     1     -35.892  14.524  -5.273  1.00 20.00    -0.004 C 
HETATM    6  C6  UNL     1     -34.831  15.155  -3.669  1.00 20.00     0.079 C 
HETATM    7  O7  UNL     1     -33.047  13.283  -3.563  1.00 20.00    -0.296 OA
HETATM    8 BR8  UNL     1     -34.218  16.144  -2.188  1.00 20.00    -0.077 Br
ENDROOT
TORSDOF 0
ENDMDL
MODEL 9
REMARK VINA RESULT:      -3.7     13.212     14.056
REMARK  0 active torsions:
REMARK  status: ('A' for Active; 'I' for Inactive)
ROOT
HETATM    1  C1  UNL     1     -34.927  13.827  -5.064  1.00 20.00     0.146 C 
HETATM    2  C2  UNL     1     -35.068  14.085  -6.560  1.00 20.00     0.084 C 
HETATM    3  C3  UNL     1     -35.851  16.153  -5.365  1.00 20.00     0.034 C 
HETATM    4  C4  UNL     1     -33.780  16.010  -5.585  1.00 20.00     0.034 C 
HETATM    5  C5  UNL     1     -34.962  15.635  -6.562  1.00 20.00    -0.004 C 
HETATM    6  C6  UNL     1     -34.770  15.326  -4.570  1.00 20.00     0.079 C 
HETATM    7  O7  UNL     1     -34.943  12.745  -4.512  1.00 20.00    -0.296 OA
HETATM    8 BR8  UNL     1     -34.556  15.587  -2.718  1.00 20.00    -0.077 Br
ENDROOT
TORSDOF 0
ENDMDL
