MODEL 1
REMARK VINA RESULT:      -3.4      0.000      0.000
REMARK  1 active torsions:
REMARK  status: ('A' for Active; 'I' for Inactive)
REMARK    1  A    between atoms: C2_2  and  C4_4 
ROOT
HETATM    1  C1  UNL     1     -34.638  13.688  -5.379  1.00 20.00     0.171 A 
HETATM    2  C2  UNL     1     -34.296  13.955  -3.925  1.00 20.00     0.175 A 
HETATM    3  C3  UNL     1     -35.715  14.409  -6.107  1.00 20.00     0.044 C 
HETATM    4  O5  UNL     1     -35.096  12.830  -4.326  1.00 20.00    -0.352 OA
HETATM    5 CL6  UNL     1     -32.632  13.637  -3.422  1.00 20.00    -0.084 Cl
ENDROOT
BRANCH   2   6
HETATM    6  C4  UNL     1     -35.035  14.965  -3.110  1.00 20.00     0.172 C 
HETATM    7 CL7  UNL     1     -33.916  16.154  -2.391  1.00 20.00    -0.126 Cl
ENDBRANCH   2   6
TORSDOF 1
ENDMDL
MODEL 2
REMARK VINA RESULT:      -3.3      2.282      3.056
REMARK  1 active torsions:
REMARK  status: ('A' for Active; 'I' for Inactive)
REMARK    1  A    between atoms: C2_2  and  C4_4 
ROOT
HETATM    1  C1  UNL     1     -34.487  13.788  -3.592  1.00 20.00     0.171 A 
HETATM    2  C2  UNL     1     -35.381  14.023  -4.795  1.00 20.00     0.175 A 
HETATM    3  C3  UNL     1     -33.003  13.829  -3.660  1.00 20.00     0.044 C 
HETATM    4  O5  UNL     1     -35.091  12.703  -4.305  1.00 20.00    -0.352 OA
HETATM    5 CL6  UNL     1     -36.992  14.676  -4.481  1.00 20.00    -0.084 Cl
ENDROOT
BRANCH   2   6
HETATM    6  C4  UNL     1     -34.825  14.302  -6.152  1.00 20.00     0.172 C 
HETATM    7 CL7  UNL     1     -34.347  16.014  -6.312  1.00 20.00    -0.126 Cl
ENDBRANCH   2   6
TORSDOF 1
ENDMDL
MODEL 3
REMARK VINA RESULT:      -3.3     11.685     12.461
REMARK  1 active torsions:
REMARK  status: ('A' for Active; 'I' for Inactive)
REMARK    1  A    between atoms: C2_2  and  C4_4 
ROOT
HETATM    1  C1  UNL     1     -34.417   6.088   6.002  1.00 20.00     0.171 A 
HETATM    2  C2  UNL     1     -34.366   5.966   4.491  1.00 20.00     0.175 A 
HETATM    3  C3  UNL     1     -33.569   7.036   6.772  1.00 20.00     0.044 C 
HETATM    4  O5  UNL     1     -33.699   5.030   5.355  1.00 20.00    -0.352 OA
HETATM    5 CL6  UNL     1     -35.839   5.424   3.681  1.00 20.00    -0.084 Cl
ENDROOT
BRANCH   2   6
HETATM    6  C4  UNL     1     -33.439   6.792   3.661  1.00 20.00     0.172 C 
HETATM    7 CL7  UNL     1     -32.056   5.824   3.084  1.00 20.00    -0.126 Cl
ENDBRANCH   2   6
TORSDOF 1
ENDMDL
MODEL 4
REMARK VINA RESULT:      -3.3     10.758     11.417
REMARK  1 active torsions:
REMARK  status: ('A' for Active; 'I' for Inactive)
REMARK    1  A    between atoms: C2_2  and  C4_4 
ROOT
HETATM    1  C1  UNL     1     -32.179   7.337   3.433  1.00 20.00     0.171 A 
HETATM    2  C2  UNL     1     -33.205   6.349   3.953  1.00 20.00     0.175 A 
HETATM    3  C3  UNL     1     -32.175   7.847   2.037  1.00 20.00     0.044 C 
HETATM    4  O5  UNL     1     -31.883   5.941   3.563  1.00 20.00    -0.352 OA
HETATM    5 CL6  UNL     1     -33.567   6.404   5.682  1.00 20.00    -0.084 Cl
ENDROOT
BRANCH   2   6
HETATM    6  C4  UNL     1     -34.289   5.803   3.084  1.00 20.00     0.172 C 
HETATM    7 CL7  UNL     1     -35.615   5.118   4.063  1.00 20.00    -0.126 Cl
ENDBRANCH   2   6
TORSDOF 1
ENDMDL
MODEL 5
REMARK VINA RESULT:      -3.3      2.180      2.964
REMARK  1 active torsions:
REMARK  status: ('A' for Active; 'I' for Inactive)
REMARK    1  A    between atoms: C2_2  and  C4_4 
ROOT
HETATM    1  C1  UNL     1     -33.423  16.385  -3.954  1.00 20.00     0.171 A 
HETATM    2  C2  UNL     1     -34.390  15.625  -3.065  1.00 20.00     0.175 A 
HETATM    3  C3  UNL     1     -33.548  16.438  -5.434  1.00 20.00     0.044 C 
HETATM    4  O5  UNL     1     -33.104  15.092  -3.425  1.00 20.00    -0.352 OA
HETATM    5 CL6  UNL     1     -34.596  16.220  -1.414  1.00 20.00    -0.084 Cl
ENDROOT
BRANCH   2   6
HETATM    6  C4  UNL     1     -35.542  14.858  -3.624  1.00 20.00     0.172 C 
HETATM    7 CL7  UNL     1     -35.033  13.235  -4.165  1.00 20.00    -0.126 Cl
ENDBRANCH   2   6
TORSDOF 1
ENDMDL
MODEL 6
REMARK VINA RESULT:      -3.2     11.380     11.951
REMARK  1 active torsions:
REMARK  status: ('A' for Active; 'I' for Inactive)
REMARK    1  A    between atoms: C2_2  and  C4_4 
ROOT
HETATM    1  C1  UNL     1     -32.948   6.511   3.190  1.00 20.00     0.171 A 
HETATM    2  C2  UNL     1     -33.986   6.129   4.227  1.00 20.00     0.175 A 
HETATM    3  C3  UNL     1     -31.663   7.176   3.531  1.00 20.00     0.044 C 
HETATM    4  O5  UNL     1     -34.116   7.309   3.417  1.00 20.00    -0.352 OA
HETATM    5 CL6  UNL     1     -35.032   4.756   3.847  1.00 20.00    -0.084 Cl
ENDROOT
BRANCH   2   6
HETATM    6  C4  UNL     1     -33.794   6.409   5.681  1.00 20.00     0.172 C 
HETATM    7 CL7  UNL     1     -34.726   5.267   6.686  1.00 20.00    -0.126 Cl
ENDBRANCH   2   6
TORSDOF 1
ENDMDL
MODEL 7
REMARK VINA RESULT:      -3.1      1.964      2.508
REMARK  1 active torsions:
REMARK  status: ('A' for Active; 'I' for Inactive)
REMARK    1  A    between atoms: C2_2  and  C4_4 
ROOT
HETATM    1  C1  UNL     1     -35.168  14.150  -3.791  1.00 20.00     0.171 A 
HETATM    2  C2  UNL     1     -34.410  15.404  -3.399  1.00 20.00     0.175 A 
HETATM    3  C3  UNL     1     -34.669  13.179  -4.800  1.00 20.00     0.044 C 
HETATM    4  O5  UNL     1     -35.515  15.437  -4.316  1.00 20.00    -0.352 OA
HETATM    5 CL6  UNL     1     -34.681  16.027  -1.768  1.00 20.00    -0.084 Cl
ENDROOT
BRANCH   2   6
HETATM    6  C4  UNL     1     -33.098  15.762  -4.016  1.00 20.00     0.172 C 
HETATM    7 CL7  UNL     1     -33.302  16.991  -5.293  1.00 20.00    -0.126 Cl
ENDBRANCH   2   6
TORSDOF 1
ENDMDL
MODEL 8
REMARK VINA RESULT:      -3.1     12.298     12.414
REMARK  1 active torsions:
REMARK  status: ('A' for Active; 'I' for Inactive)
REMARK    1  A    between atoms: C2_2  and  C4_4 
ROOT
HETATM    1  C1  UNL     1     -41.684   4.550  -2.111  1.00 20.00     0.171 A 
HETATM    2  C2  UNL     1     -41.392   5.157  -0.752  1.00 20.00     0.175 A 
HETATM    3  C3  UNL     1     -42.546   3.354  -2.299  1.00 20.00     0.044 C 
HETATM    4  O5  UNL     1     -40.452   4.300  -1.422  1.00 20.00    -0.352 OA
HETATM    5 CL6  UNL     1     -41.033   6.887  -0.708  1.00 20.00    -0.084 Cl
ENDROOT
BRANCH   2   6
HETATM    6  C4  UNL     1     -41.947   4.581   0.508  1.00 20.00     0.172 C 
HETATM    7 CL7  UNL     1     -43.269   5.593   1.151  1.00 20.00    -0.126 Cl
ENDBRANCH   2   6
TORSDOF 1
ENDMDL
MODEL 9
REMARK VINA RESULT:      -3.1      2.157      2.337
REMARK  1 active torsions:
REMARK  status: ('A' for Active; 'I' for Inactive)
REMARK    1  A    between atoms: C2_2  and  C4_4 
ROOT
HETATM    1  C1  UNL     1     -33.272  16.261  -4.913  1.00 20.00     0.171 A 
HETATM    2  C2  UNL     1     -34.040  15.216  -4.126  1.00 20.00     0.175 A 
HETATM    3  C3  UNL     1     -33.585  17.713  -4.857  1.00 20.00     0.044 C 
HETATM    4  O5  UNL     1     -34.286  15.452  -5.522  1.00 20.00    -0.352 OA
HETATM    5 CL6  UNL     1     -33.168  13.743  -3.687  1.00 20.00    -0.084 Cl
ENDROOT
BRANCH   2   6
HETATM    6  C4  UNL     1     -35.185  15.576  -3.238  1.00 20.00     0.172 C 
HETATM    7 CL7  UNL     1     -34.614  16.100  -1.631  1.00 20.00    -0.126 Cl
ENDBRANCH   2   6
TORSDOF 1
ENDMDL
