MODEL 1
REMARK VINA RESULT:      -5.0      0.000      0.000
REMARK  0 active torsions:
REMARK  status: ('A' for Active; 'I' for Inactive)
ROOT
HETATM    1  C1  UNL     1     -37.453  15.423  -4.676  1.00 20.00    -0.029 C 
HETATM    2  C2  UNL     1     -36.570  14.821  -3.873  1.00 20.00    -0.013 C 
HETATM    3  C3  UNL     1     -34.469  13.558  -4.302  1.00 20.00     0.139 C 
HETATM    4  C4  UNL     1     -36.797  15.995  -5.888  1.00 20.00     0.032 C 
HETATM    5  C5  UNL     1     -33.124  13.686  -3.633  1.00 20.00     0.079 C 
HETATM    6  C6  UNL     1     -32.886  15.190  -3.659  1.00 20.00     0.009 C 
HETATM    7  C7  UNL     1     -34.276  15.808  -3.572  1.00 20.00     0.022 C 
HETATM    8  C8  UNL     1     -35.434  15.282  -5.897  1.00 20.00     0.004 C 
HETATM    9  C9  UNL     1     -35.176  14.901  -4.420  1.00 20.00     0.041 C 
HETATM   10  C10 UNL     1     -34.366  16.098  -6.614  1.00 20.00     0.011 C 
HETATM   11  O11 UNL     1     -34.932  12.487  -4.675  1.00 20.00    -0.297 OA
ENDROOT
TORSDOF 0
ENDMDL
MODEL 2
REMARK VINA RESULT:      -4.9      1.861      2.998
REMARK  0 active torsions:
REMARK  status: ('A' for Active; 'I' for Inactive)
ROOT
HETATM    1  C1  UNL     1     -34.157  17.318  -1.616  1.00 20.00    -0.029 C 
HETATM    2  C2  UNL     1     -34.580  16.058  -1.755  1.00 20.00    -0.013 C 
HETATM    3  C3  UNL     1     -35.785  14.864  -3.576  1.00 20.00     0.139 C 
HETATM    4  C4  UNL     1     -33.746  17.912  -2.922  1.00 20.00     0.032 C 
HETATM    5  C5  UNL     1     -35.486  13.524  -4.201  1.00 20.00     0.079 C 
HETATM    6  C6  UNL     1     -33.994  13.623  -4.490  1.00 20.00     0.009 C 
HETATM    7  C7  UNL     1     -33.442  14.530  -3.396  1.00 20.00     0.022 C 
HETATM    8  C8  UNL     1     -34.381  16.948  -3.939  1.00 20.00     0.004 C 
HETATM    9  C9  UNL     1     -34.515  15.604  -3.183  1.00 20.00     0.041 C 
HETATM   10  C10 UNL     1     -33.632  16.941  -5.265  1.00 20.00     0.011 C 
HETATM   11  O11 UNL     1     -36.923  15.277  -3.390  1.00 20.00    -0.297 OA
ENDROOT
TORSDOF 0
ENDMDL
MODEL 3
REMARK VINA RESULT:      -4.9      2.076      3.671
REMARK  0 active torsions:
REMARK  status: ('A' for Active; 'I' for Inactive)
ROOT
HETATM    1  C1  UNL     1     -33.334  13.653  -3.822  1.00 20.00    -0.029 C 
HETATM    2  C2  UNL     1     -32.902  14.873  -3.491  1.00 20.00    -0.013 C 
HETATM    3  C3  UNL     1     -33.736  17.164  -3.989  1.00 20.00     0.139 C 
HETATM    4  C4  UNL     1     -34.822  13.601  -3.922  1.00 20.00     0.032 C 
HETATM    5  C5  UNL     1     -33.936  18.332  -3.056  1.00 20.00     0.079 C 
HETATM    6  C6  UNL     1     -34.697  17.700  -1.898  1.00 20.00     0.009 C 
HETATM    7  C7  UNL     1     -34.205  16.259  -1.846  1.00 20.00     0.022 C 
HETATM    8  C8  UNL     1     -35.201  15.090  -4.005  1.00 20.00     0.004 C 
HETATM    9  C9  UNL     1     -34.037  15.835  -3.310  1.00 20.00     0.041 C 
HETATM   10  C10 UNL     1     -36.613  15.350  -3.496  1.00 20.00     0.011 C 
HETATM   11  O11 UNL     1     -33.351  17.289  -5.145  1.00 20.00    -0.297 OA
ENDROOT
TORSDOF 0
ENDMDL
MODEL 4
REMARK VINA RESULT:      -4.8      1.774      2.794
REMARK  0 active torsions:
REMARK  status: ('A' for Active; 'I' for Inactive)
ROOT
HETATM    1  C1  UNL     1     -35.552  14.961  -7.812  1.00 20.00    -0.029 C 
HETATM    2  C2  UNL     1     -34.432  14.835  -7.093  1.00 20.00    -0.013 C 
HETATM    3  C3  UNL     1     -33.713  15.751  -4.894  1.00 20.00     0.139 C 
HETATM    4  C4  UNL     1     -36.756  15.095  -6.940  1.00 20.00     0.032 C 
HETATM    5  C5  UNL     1     -33.069  15.043  -3.728  1.00 20.00     0.079 C 
HETATM    6  C6  UNL     1     -33.954  13.816  -3.559  1.00 20.00     0.009 C 
HETATM    7  C7  UNL     1     -34.455  13.497  -4.963  1.00 20.00     0.022 C 
HETATM    8  C8  UNL     1     -36.141  15.449  -5.575  1.00 20.00     0.004 C 
HETATM    9  C9  UNL     1     -34.710  14.859  -5.620  1.00 20.00     0.041 C 
HETATM   10  C10 UNL     1     -37.040  15.035  -4.418  1.00 20.00     0.011 C 
HETATM   11  O11 UNL     1     -33.434  16.899  -5.218  1.00 20.00    -0.297 OA
ENDROOT
TORSDOF 0
ENDMDL
MODEL 5
REMARK VINA RESULT:      -4.8      1.079      3.123
REMARK  0 active torsions:
REMARK  status: ('A' for Active; 'I' for Inactive)
ROOT
HETATM    1  C1  UNL     1     -33.632  15.906  -2.577  1.00 20.00    -0.029 C 
HETATM    2  C2  UNL     1     -33.450  15.444  -3.818  1.00 20.00    -0.013 C 
HETATM    3  C3  UNL     1     -34.748  13.882  -5.256  1.00 20.00     0.139 C 
HETATM    4  C4  UNL     1     -35.080  16.058  -2.250  1.00 20.00     0.032 C 
HETATM    5  C5  UNL     1     -35.158  14.031  -6.700  1.00 20.00     0.079 C 
HETATM    6  C6  UNL     1     -35.743  15.437  -6.732  1.00 20.00     0.009 C 
HETATM    7  C7  UNL     1     -34.965  16.209  -5.673  1.00 20.00     0.022 C 
HETATM    8  C8  UNL     1     -35.758  15.219  -3.346  1.00 20.00     0.004 C 
HETATM    9  C9  UNL     1     -34.753  15.217  -4.524  1.00 20.00     0.041 C 
HETATM   10  C10 UNL     1     -37.179  15.688  -3.630  1.00 20.00     0.011 C 
HETATM   11  O11 UNL     1     -34.427  12.811  -4.758  1.00 20.00    -0.297 OA
ENDROOT
TORSDOF 0
ENDMDL
MODEL 6
REMARK VINA RESULT:      -4.7      1.593      3.607
REMARK  0 active torsions:
REMARK  status: ('A' for Active; 'I' for Inactive)
ROOT
HETATM    1  C1  UNL     1     -34.336  13.329  -4.839  1.00 20.00    -0.029 C 
HETATM    2  C2  UNL     1     -35.429  13.967  -5.270  1.00 20.00    -0.013 C 
HETATM    3  C3  UNL     1     -37.288  15.133  -4.097  1.00 20.00     0.139 C 
HETATM    4  C4  UNL     1     -33.796  13.939  -3.589  1.00 20.00     0.032 C 
HETATM    5  C5  UNL     1     -37.896  16.485  -4.377  1.00 20.00     0.079 C 
HETATM    6  C6  UNL     1     -36.668  17.377  -4.504  1.00 20.00     0.009 C 
HETATM    7  C7  UNL     1     -35.579  16.469  -5.062  1.00 20.00     0.022 C 
HETATM    8  C8  UNL     1     -34.977  14.794  -3.099  1.00 20.00     0.004 C 
HETATM    9  C9  UNL     1     -35.791  15.115  -4.376  1.00 20.00     0.041 C 
HETATM   10  C10 UNL     1     -34.518  15.965  -2.240  1.00 20.00     0.011 C 
HETATM   11  O11 UNL     1     -37.942  14.171  -3.716  1.00 20.00    -0.297 OA
ENDROOT
TORSDOF 0
ENDMDL
MODEL 7
REMARK VINA RESULT:      -4.7      1.438      3.478
REMARK  0 active torsions:
REMARK  status: ('A' for Active; 'I' for Inactive)
ROOT
HETATM    1  C1  UNL     1     -33.447  13.654  -3.807  1.00 20.00    -0.029 C 
HETATM    2  C2  UNL     1     -34.432  13.504  -4.698  1.00 20.00    -0.013 C 
HETATM    3  C3  UNL     1     -36.277  14.993  -5.457  1.00 20.00     0.139 C 
HETATM    4  C4  UNL     1     -32.970  15.067  -3.742  1.00 20.00     0.032 C 
HETATM    5  C5  UNL     1     -36.730  15.313  -6.859  1.00 20.00     0.079 C 
HETATM    6  C6  UNL     1     -35.420  15.646  -7.560  1.00 20.00     0.009 C 
HETATM    7  C7  UNL     1     -34.371  14.790  -6.859  1.00 20.00     0.022 C 
HETATM    8  C8  UNL     1     -34.108  15.834  -4.437  1.00 20.00     0.004 C 
HETATM    9  C9  UNL     1     -34.769  14.798  -5.378  1.00 20.00     0.041 C 
HETATM   10  C10 UNL     1     -33.625  17.141  -5.052  1.00 20.00     0.011 C 
HETATM   11  O11 UNL     1     -37.049  14.880  -4.513  1.00 20.00    -0.297 OA
ENDROOT
TORSDOF 0
ENDMDL
MODEL 8
REMARK VINA RESULT:      -4.7      2.048      3.674
REMARK  0 active torsions:
REMARK  status: ('A' for Active; 'I' for Inactive)
ROOT
HETATM    1  C1  UNL     1     -33.414  18.422  -3.937  1.00 20.00    -0.029 C 
HETATM    2  C2  UNL     1     -33.537  17.238  -4.543  1.00 20.00    -0.013 C 
HETATM    3  C3  UNL     1     -33.300  14.891  -3.750  1.00 20.00     0.139 C 
HETATM    4  C4  UNL     1     -33.846  18.361  -2.510  1.00 20.00     0.032 C 
HETATM    5  C5  UNL     1     -34.211  13.710  -3.976  1.00 20.00     0.079 C 
HETATM    6  C6  UNL     1     -35.580  14.280  -3.631  1.00 20.00     0.009 C 
HETATM    7  C7  UNL     1     -35.497  15.755  -4.006  1.00 20.00     0.022 C 
HETATM    8  C8  UNL     1     -33.860  16.848  -2.231  1.00 20.00     0.004 C 
HETATM    9  C9  UNL     1     -34.080  16.192  -3.616  1.00 20.00     0.041 C 
HETATM   10  C10 UNL     1     -34.826  16.480  -1.113  1.00 20.00     0.011 C 
HETATM   11  O11 UNL     1     -32.080  14.797  -3.710  1.00 20.00    -0.297 OA
ENDROOT
TORSDOF 0
ENDMDL
MODEL 9
REMARK VINA RESULT:      -4.6      1.828      3.229
REMARK  0 active torsions:
REMARK  status: ('A' for Active; 'I' for Inactive)
ROOT
HETATM    1  C1  UNL     1     -35.332  16.618  -2.074  1.00 20.00    -0.029 C 
HETATM    2  C2  UNL     1     -35.917  16.024  -3.119  1.00 20.00    -0.013 C 
HETATM    3  C3  UNL     1     -35.166  15.556  -5.445  1.00 20.00     0.139 C 
HETATM    4  C4  UNL     1     -33.859  16.381  -2.056  1.00 20.00     0.032 C 
HETATM    5  C5  UNL     1     -35.263  14.279  -6.242  1.00 20.00     0.079 C 
HETATM    6  C6  UNL     1     -34.731  13.240  -5.263  1.00 20.00     0.009 C 
HETATM    7  C7  UNL     1     -35.113  13.767  -3.885  1.00 20.00     0.022 C 
HETATM    8  C8  UNL     1     -33.583  15.894  -3.488  1.00 20.00     0.004 C 
HETATM    9  C9  UNL     1     -34.923  15.286  -3.967  1.00 20.00     0.041 C 
HETATM   10  C10 UNL     1     -32.341  15.015  -3.565  1.00 20.00     0.011 C 
HETATM   11  O11 UNL     1     -35.296  16.667  -5.943  1.00 20.00    -0.297 OA
ENDROOT
TORSDOF 0
ENDMDL
