MODEL 1
REMARK VINA RESULT:      -5.0      0.000      0.000
REMARK  3 active torsions:
REMARK  status: ('A' for Active; 'I' for Inactive)
REMARK    1  A    between atoms: C1_1  and  C9_9 
REMARK    2  A    between atoms: C1_1  and  O11_11 
REMARK    3  A    between atoms: C8_8  and  C9_9 
ROOT
HETATM    1  C2  UNL     1     -33.679  17.628  -1.575  1.00 20.00     0.005 C 
HETATM    2  C3  UNL     1     -34.596  16.578  -0.924  1.00 20.00     0.005 C 
HETATM    3  C4  UNL     1     -35.151  17.667  -3.585  1.00 20.00     0.005 C 
HETATM    4  C5  UNL     1     -36.067  16.619  -2.935  1.00 20.00     0.005 C 
HETATM    5  C6  UNL     1     -33.754  17.268  -3.072  1.00 20.00    -0.010 C 
HETATM    6  C7  UNL     1     -35.081  15.750  -2.131  1.00 20.00    -0.010 C 
HETATM    7  C8  UNL     1     -33.817  15.736  -3.006  1.00 20.00     0.003 C 
ENDROOT
BRANCH   7   8
HETATM    8  C9  UNL     1     -33.926  15.006  -4.336  1.00 20.00     0.115 C 
BRANCH   8   9
HETATM    9  C1  UNL     1     -33.990  13.513  -4.154  1.00 20.00     0.139 C 
HETATM   10  O10 UNL     1     -34.974  12.806  -4.313  1.00 20.00    -0.650 OA
BRANCH   9  11
HETATM   11  O11 UNL     1     -32.774  13.039  -3.779  1.00 20.00    -0.776 OA
HETATM   12  H25 UNL     1     -32.808  12.590  -2.908  1.00 20.00     0.167 HD
ENDBRANCH   9  11
ENDBRANCH   8   9
ENDBRANCH   7   8
TORSDOF 3
ENDMDL
MODEL 2
REMARK VINA RESULT:      -4.6      0.992      1.167
REMARK  3 active torsions:
REMARK  status: ('A' for Active; 'I' for Inactive)
REMARK    1  A    between atoms: C1_1  and  C9_9 
REMARK    2  A    between atoms: C1_1  and  O11_11 
REMARK    3  A    between atoms: C8_8  and  C9_9 
ROOT
HETATM    1  C2  UNL     1     -33.279  18.457  -1.648  1.00 20.00     0.005 C 
HETATM    2  C3  UNL     1     -33.939  17.652  -0.515  1.00 20.00     0.005 C 
HETATM    3  C4  UNL     1     -35.285  18.087  -3.079  1.00 20.00     0.005 C 
HETATM    4  C5  UNL     1     -35.944  17.283  -1.948  1.00 20.00     0.005 C 
HETATM    5  C6  UNL     1     -33.791  17.747  -2.917  1.00 20.00    -0.010 C 
HETATM    6  C7  UNL     1     -34.746  16.582  -1.279  1.00 20.00    -0.010 C 
HETATM    7  C8  UNL     1     -33.802  16.283  -2.454  1.00 20.00     0.003 C 
ENDROOT
BRANCH   7   8
HETATM    8  C9  UNL     1     -34.288  15.258  -3.466  1.00 20.00     0.115 C 
BRANCH   8   9
HETATM    9  C1  UNL     1     -33.250  14.203  -3.741  1.00 20.00     0.139 C 
HETATM   10  O10 UNL     1     -33.463  13.024  -3.983  1.00 20.00    -0.650 OA
BRANCH   9  11
HETATM   11  O11 UNL     1     -32.008  14.749  -3.684  1.00 20.00    -0.776 OA
HETATM   12  H25 UNL     1     -31.627  14.700  -2.781  1.00 20.00     0.167 HD
ENDBRANCH   9  11
ENDBRANCH   8   9
ENDBRANCH   7   8
TORSDOF 3
ENDMDL
MODEL 3
REMARK VINA RESULT:      -4.6      2.653      4.039
REMARK  3 active torsions:
REMARK  status: ('A' for Active; 'I' for Inactive)
REMARK    1  A    between atoms: C1_1  and  C9_9 
REMARK    2  A    between atoms: C1_1  and  O11_11 
REMARK    3  A    between atoms: C8_8  and  C9_9 
ROOT
HETATM    1  C2  UNL     1     -34.781  13.486  -4.128  1.00 20.00     0.005 C 
HETATM    2  C3  UNL     1     -33.312  13.739  -3.746  1.00 20.00     0.005 C 
HETATM    3  C4  UNL     1     -34.933  15.790  -5.065  1.00 20.00     0.005 C 
HETATM    4  C5  UNL     1     -33.466  16.043  -4.685  1.00 20.00     0.005 C 
HETATM    5  C6  UNL     1     -35.429  14.872  -3.933  1.00 20.00    -0.010 C 
HETATM    6  C7  UNL     1     -33.304  15.238  -3.381  1.00 20.00    -0.010 C 
HETATM    7  C8  UNL     1     -34.673  15.381  -2.697  1.00 20.00     0.003 C 
ENDROOT
BRANCH   7   8
HETATM    8  C9  UNL     1     -35.040  16.774  -2.208  1.00 20.00     0.115 C 
BRANCH   8   9
HETATM    9  C1  UNL     1     -34.328  17.125  -0.928  1.00 20.00     0.139 C 
HETATM   10  O10 UNL     1     -33.230  17.652  -0.833  1.00 20.00    -0.650 OA
BRANCH   9  11
HETATM   11  O11 UNL     1     -35.090  16.770   0.138  1.00 20.00    -0.776 OA
HETATM   12  H25 UNL     1     -35.929  17.277   0.174  1.00 20.00     0.167 HD
ENDBRANCH   9  11
ENDBRANCH   8   9
ENDBRANCH   7   8
TORSDOF 3
ENDMDL
MODEL 4
REMARK VINA RESULT:      -4.5      1.879      3.401
REMARK  3 active torsions:
REMARK  status: ('A' for Active; 'I' for Inactive)
REMARK    1  A    between atoms: C1_1  and  C9_9 
REMARK    2  A    between atoms: C1_1  and  O11_11 
REMARK    3  A    between atoms: C8_8  and  C9_9 
ROOT
HETATM    1  C2  UNL     1     -35.895  17.222  -6.526  1.00 20.00     0.005 C 
HETATM    2  C3  UNL     1     -34.882  16.285  -7.207  1.00 20.00     0.005 C 
HETATM    3  C4  UNL     1     -34.298  17.580  -4.646  1.00 20.00     0.005 C 
HETATM    4  C5  UNL     1     -33.286  16.645  -5.327  1.00 20.00     0.005 C 
HETATM    5  C6  UNL     1     -35.654  16.955  -5.026  1.00 20.00    -0.010 C 
HETATM    6  C7  UNL     1     -34.189  15.601  -6.011  1.00 20.00    -0.010 C 
HETATM    7  C8  UNL     1     -35.367  15.447  -5.036  1.00 20.00     0.003 C 
ENDROOT
BRANCH   7   8
HETATM    8  C9  UNL     1     -35.050  14.812  -3.690  1.00 20.00     0.115 C 
BRANCH   8   9
HETATM    9  C1  UNL     1     -34.423  13.452  -3.845  1.00 20.00     0.139 C 
HETATM   10  O10 UNL     1     -33.239  13.181  -3.706  1.00 20.00    -0.650 OA
BRANCH   9  11
HETATM   11  O11 UNL     1     -35.373  12.537  -4.168  1.00 20.00    -0.776 OA
HETATM   12  H25 UNL     1     -35.195  11.664  -3.758  1.00 20.00     0.167 HD
ENDBRANCH   9  11
ENDBRANCH   8   9
ENDBRANCH   7   8
TORSDOF 3
ENDMDL
MODEL 5
REMARK VINA RESULT:      -4.4      1.828      2.719
REMARK  3 active torsions:
REMARK  status: ('A' for Active; 'I' for Inactive)
REMARK    1  A    between atoms: C1_1  and  C9_9 
REMARK    2  A    between atoms: C1_1  and  O11_11 
REMARK    3  A    between atoms: C8_8  and  C9_9 
ROOT
HETATM    1  C2  UNL     1     -33.649  17.934  -5.928  1.00 20.00     0.005 C 
HETATM    2  C3  UNL     1     -33.750  17.758  -4.403  1.00 20.00     0.005 C 
HETATM    3  C4  UNL     1     -35.903  16.903  -6.195  1.00 20.00     0.005 C 
HETATM    4  C5  UNL     1     -36.004  16.728  -4.672  1.00 20.00     0.005 C 
HETATM    5  C6  UNL     1     -34.400  16.699  -6.466  1.00 20.00    -0.010 C 
HETATM    6  C7  UNL     1     -34.546  16.445  -4.260  1.00 20.00    -0.010 C 
HETATM    7  C8  UNL     1     -33.990  15.633  -5.440  1.00 20.00     0.003 C 
ENDROOT
BRANCH   7   8
HETATM    8  C9  UNL     1     -34.576  14.243  -5.639  1.00 20.00     0.115 C 
BRANCH   8   9
HETATM    9  C1  UNL     1     -34.293  13.341  -4.467  1.00 20.00     0.139 C 
HETATM   10  O10 UNL     1     -33.239  13.261  -3.854  1.00 20.00    -0.650 OA
BRANCH   9  11
HETATM   11  O11 UNL     1     -35.396  12.608  -4.170  1.00 20.00    -0.776 OA
HETATM   12  H25 UNL     1     -35.263  12.053  -3.371  1.00 20.00     0.167 HD
ENDBRANCH   9  11
ENDBRANCH   8   9
ENDBRANCH   7   8
TORSDOF 3
ENDMDL
MODEL 6
REMARK VINA RESULT:      -4.4      2.584      4.098
REMARK  3 active torsions:
REMARK  status: ('A' for Active; 'I' for Inactive)
REMARK    1  A    between atoms: C1_1  and  C9_9 
REMARK    2  A    between atoms: C1_1  and  O11_11 
REMARK    3  A    between atoms: C8_8  and  C9_9 
ROOT
HETATM    1  C2  UNL     1     -37.153  15.975  -7.027  1.00 20.00     0.005 C 
HETATM    2  C3  UNL     1     -36.407  14.801  -7.686  1.00 20.00     0.005 C 
HETATM    3  C4  UNL     1     -34.977  16.959  -6.316  1.00 20.00     0.005 C 
HETATM    4  C5  UNL     1     -34.231  15.788  -6.974  1.00 20.00     0.005 C 
HETATM    5  C6  UNL     1     -36.271  16.299  -5.805  1.00 20.00    -0.010 C 
HETATM    6  C7  UNL     1     -35.192  14.602  -6.757  1.00 20.00    -0.010 C 
HETATM    7  C8  UNL     1     -35.819  14.894  -5.384  1.00 20.00     0.003 C 
ENDROOT
BRANCH   7   8
HETATM    8  C9  UNL     1     -34.886  14.815  -4.186  1.00 20.00     0.115 C 
BRANCH   8   9
HETATM    9  C1  UNL     1     -34.357  13.421  -3.975  1.00 20.00     0.139 C 
HETATM   10  O10 UNL     1     -33.194  13.113  -3.760  1.00 20.00    -0.650 OA
BRANCH   9  11
HETATM   11  O11 UNL     1     -35.372  12.523  -4.058  1.00 20.00    -0.776 OA
HETATM   12  H25 UNL     1     -35.636  12.186  -3.175  1.00 20.00     0.167 HD
ENDBRANCH   9  11
ENDBRANCH   8   9
ENDBRANCH   7   8
TORSDOF 3
ENDMDL
MODEL 7
REMARK VINA RESULT:      -4.4      1.152      2.017
REMARK  3 active torsions:
REMARK  status: ('A' for Active; 'I' for Inactive)
REMARK    1  A    between atoms: C1_1  and  C9_9 
REMARK    2  A    between atoms: C1_1  and  O11_11 
REMARK    3  A    between atoms: C8_8  and  C9_9 
ROOT
HETATM    1  C2  UNL     1     -35.044  17.779  -4.103  1.00 20.00     0.005 C 
HETATM    2  C3  UNL     1     -33.824  17.970  -3.186  1.00 20.00     0.005 C 
HETATM    3  C4  UNL     1     -35.918  16.017  -2.573  1.00 20.00     0.005 C 
HETATM    4  C5  UNL     1     -34.700  16.208  -1.656  1.00 20.00     0.005 C 
HETATM    5  C6  UNL     1     -35.336  16.270  -3.977  1.00 20.00    -0.010 C 
HETATM    6  C7  UNL     1     -33.571  16.546  -2.649  1.00 20.00    -0.010 C 
HETATM    7  C8  UNL     1     -33.913  15.700  -3.885  1.00 20.00     0.003 C 
ENDROOT
BRANCH   7   8
HETATM    8  C9  UNL     1     -33.799  14.192  -3.724  1.00 20.00     0.115 C 
BRANCH   8   9
HETATM    9  C1  UNL     1     -34.628  13.454  -4.741  1.00 20.00     0.139 C 
HETATM   10  O10 UNL     1     -34.635  13.648  -5.947  1.00 20.00    -0.650 OA
BRANCH   9  11
HETATM   11  O11 UNL     1     -35.389  12.513  -4.124  1.00 20.00    -0.776 OA
HETATM   12  H25 UNL     1     -35.932  12.004  -4.764  1.00 20.00     0.167 HD
ENDBRANCH   9  11
ENDBRANCH   8   9
ENDBRANCH   7   8
TORSDOF 3
ENDMDL
MODEL 8
REMARK VINA RESULT:      -4.4      2.769      3.926
REMARK  3 active torsions:
REMARK  status: ('A' for Active; 'I' for Inactive)
REMARK    1  A    between atoms: C1_1  and  C9_9 
REMARK    2  A    between atoms: C1_1  and  O11_11 
REMARK    3  A    between atoms: C8_8  and  C9_9 
ROOT
HETATM    1  C2  UNL     1     -33.638  13.691  -3.702  1.00 20.00     0.005 C 
HETATM    2  C3  UNL     1     -33.032  15.105  -3.687  1.00 20.00     0.005 C 
HETATM    3  C4  UNL     1     -34.739  14.187  -5.882  1.00 20.00     0.005 C 
HETATM    4  C5  UNL     1     -34.133  15.599  -5.868  1.00 20.00     0.005 C 
HETATM    5  C6  UNL     1     -35.001  13.910  -4.390  1.00 20.00    -0.010 C 
HETATM    6  C7  UNL     1     -34.124  15.954  -4.368  1.00 20.00    -0.010 C 
HETATM    7  C8  UNL     1     -35.397  15.283  -3.831  1.00 20.00     0.003 C 
ENDROOT
BRANCH   7   8
HETATM    8  C9  UNL     1     -36.719  15.855  -4.320  1.00 20.00     0.115 C 
BRANCH   8   9
HETATM    9  C1  UNL     1     -37.896  15.229  -3.620  1.00 20.00     0.139 C 
HETATM   10  O10 UNL     1     -38.357  14.118  -3.834  1.00 20.00    -0.650 OA
BRANCH   9  11
HETATM   11  O11 UNL     1     -38.392  16.085  -2.691  1.00 20.00    -0.776 OA
HETATM   12  H25 UNL     1     -37.698  16.677  -2.329  1.00 20.00     0.167 HD
ENDBRANCH   9  11
ENDBRANCH   8   9
ENDBRANCH   7   8
TORSDOF 3
ENDMDL
MODEL 9
REMARK VINA RESULT:      -4.3      1.038      2.166
REMARK  3 active torsions:
REMARK  status: ('A' for Active; 'I' for Inactive)
REMARK    1  A    between atoms: C1_1  and  C9_9 
REMARK    2  A    between atoms: C1_1  and  O11_11 
REMARK    3  A    between atoms: C8_8  and  C9_9 
ROOT
HETATM    1  C2  UNL     1     -35.931  17.949  -3.002  1.00 20.00     0.005 C 
HETATM    2  C3  UNL     1     -34.533  18.316  -3.531  1.00 20.00     0.005 C 
HETATM    3  C4  UNL     1     -34.888  16.592  -1.191  1.00 20.00     0.005 C 
HETATM    4  C5  UNL     1     -33.492  16.959  -1.718  1.00 20.00     0.005 C 
HETATM    5  C6  UNL     1     -35.732  16.513  -2.477  1.00 20.00    -0.010 C 
HETATM    6  C7  UNL     1     -33.711  17.044  -3.241  1.00 20.00    -0.010 C 
HETATM    7  C8  UNL     1     -34.754  15.949  -3.517  1.00 20.00     0.003 C 
ENDROOT
BRANCH   7   8
HETATM    8  C9  UNL     1     -34.298  14.514  -3.307  1.00 20.00     0.115 C 
BRANCH   8   9
HETATM    9  C1  UNL     1     -34.453  13.686  -4.555  1.00 20.00     0.139 C 
HETATM   10  O10 UNL     1     -34.945  12.570  -4.627  1.00 20.00    -0.650 OA
BRANCH   9  11
HETATM   11  O11 UNL     1     -33.961  14.363  -5.624  1.00 20.00    -0.776 OA
HETATM   12  H25 UNL     1     -34.158  13.907  -6.470  1.00 20.00     0.167 HD
ENDBRANCH   9  11
ENDBRANCH   8   9
ENDBRANCH   7   8
TORSDOF 3
ENDMDL
