MODEL 1
REMARK VINA RESULT:      -5.3      0.000      0.000
REMARK  0 active torsions:
REMARK  status: ('A' for Active; 'I' for Inactive)
ROOT
HETATM    1  C1  UNL     1     -33.685  17.747  -5.767  1.00 20.00     0.154 A 
HETATM    2  C2  UNL     1     -33.922  16.499  -5.243  1.00 20.00     0.005 A 
HETATM    3  C3  UNL     1     -33.779  16.621  -3.868  1.00 20.00     0.013 A 
HETATM    4  C4  UNL     1     -33.597  17.940  -3.586  1.00 20.00     0.062 A 
HETATM    5  C5  UNL     1     -34.802  14.332  -4.840  1.00 20.00     0.143 C 
HETATM    6  C6  UNL     1     -34.366  15.247  -5.738  1.00 20.00    -0.027 C 
HETATM    7  C7  UNL     1     -33.690  18.557  -2.249  1.00 20.00     0.066 C 
HETATM    8  C8  UNL     1     -33.827  17.432  -1.176  1.00 20.00     0.009 C 
HETATM    9  C9  UNL     1     -34.633  16.178  -1.637  1.00 20.00     0.038 C 
HETATM   10  C10 UNL     1     -34.013  15.540  -2.902  1.00 20.00     0.164 C 
HETATM   11  C11 UNL     1     -34.382  15.058  -7.218  1.00 20.00     0.051 C 
HETATM   12  O12 UNL     1     -33.498  18.656  -4.740  1.00 20.00    -0.326 OA
HETATM   13  O13 UNL     1     -34.831  14.476  -3.452  1.00 20.00    -0.352 OA
ENDROOT
TORSDOF 0
ENDMDL
MODEL 2
REMARK VINA RESULT:      -5.0      4.482      7.107
REMARK  0 active torsions:
REMARK  status: ('A' for Active; 'I' for Inactive)
ROOT
HETATM    1  C1  UNL     1     -31.194  19.263   1.705  1.00 20.00     0.154 A 
HETATM    2  C2  UNL     1     -32.358  18.932   2.356  1.00 20.00     0.005 A 
HETATM    3  C3  UNL     1     -33.305  18.703   1.368  1.00 20.00     0.013 A 
HETATM    4  C4  UNL     1     -32.673  18.767   0.165  1.00 20.00     0.062 A 
HETATM    5  C5  UNL     1     -33.925  18.040   3.900  1.00 20.00     0.143 C 
HETATM    6  C6  UNL     1     -32.744  18.671   3.695  1.00 20.00    -0.027 C 
HETATM    7  C7  UNL     1     -33.223  18.306  -1.124  1.00 20.00     0.066 C 
HETATM    8  C8  UNL     1     -34.723  17.923  -0.932  1.00 20.00     0.009 C 
HETATM    9  C9  UNL     1     -35.071  17.303   0.458  1.00 20.00     0.038 C 
HETATM   10  C10 UNL     1     -34.681  18.254   1.615  1.00 20.00     0.164 C 
HETATM   11  C11 UNL     1     -31.787  19.051   4.775  1.00 20.00     0.051 C 
HETATM   12  O12 UNL     1     -31.376  19.146   0.338  1.00 20.00    -0.326 OA
HETATM   13  O13 UNL     1     -34.836  17.641   2.920  1.00 20.00    -0.352 OA
ENDROOT
TORSDOF 0
ENDMDL
MODEL 3
REMARK VINA RESULT:      -5.0      1.944      3.694
REMARK  0 active torsions:
REMARK  status: ('A' for Active; 'I' for Inactive)
ROOT
HETATM    1  C1  UNL     1     -35.157  15.507  -7.644  1.00 20.00     0.154 A 
HETATM    2  C2  UNL     1     -34.741  16.416  -6.702  1.00 20.00     0.005 A 
HETATM    3  C3  UNL     1     -34.595  15.709  -5.517  1.00 20.00     0.013 A 
HETATM    4  C4  UNL     1     -34.791  14.391  -5.794  1.00 20.00     0.062 A 
HETATM    5  C5  UNL     1     -33.669  18.232  -5.612  1.00 20.00     0.143 C 
HETATM    6  C6  UNL     1     -34.339  17.775  -6.697  1.00 20.00    -0.027 C 
HETATM    7  C7  UNL     1     -34.453  13.263  -4.906  1.00 20.00     0.066 C 
HETATM    8  C8  UNL     1     -34.024  13.821  -3.512  1.00 20.00     0.009 C 
HETATM    9  C9  UNL     1     -33.262  15.182  -3.555  1.00 20.00     0.038 C 
HETATM   10  C10 UNL     1     -34.098  16.277  -4.258  1.00 20.00     0.164 C 
HETATM   11  C11 UNL     1     -34.626  18.583  -7.918  1.00 20.00     0.051 C 
HETATM   12  O12 UNL     1     -35.175  14.238  -7.092  1.00 20.00    -0.326 OA
HETATM   13  O13 UNL     1     -33.354  17.505  -4.462  1.00 20.00    -0.352 OA
ENDROOT
TORSDOF 0
ENDMDL
MODEL 4
REMARK VINA RESULT:      -4.9      0.951      4.611
REMARK  0 active torsions:
REMARK  status: ('A' for Active; 'I' for Inactive)
ROOT
HETATM    1  C1  UNL     1     -34.829  14.415  -3.055  1.00 20.00     0.154 A 
HETATM    2  C2  UNL     1     -34.286  15.621  -3.428  1.00 20.00     0.005 A 
HETATM    3  C3  UNL     1     -34.154  15.578  -4.808  1.00 20.00     0.013 A 
HETATM    4  C4  UNL     1     -34.732  14.427  -5.244  1.00 20.00     0.062 A 
HETATM    5  C5  UNL     1     -33.760  17.931  -3.566  1.00 20.00     0.143 C 
HETATM    6  C6  UNL     1     -33.974  16.845  -2.785  1.00 20.00    -0.027 C 
HETATM    7  C7  UNL     1     -35.076  14.111  -6.644  1.00 20.00     0.066 C 
HETATM    8  C8  UNL     1     -34.487  15.215  -7.577  1.00 20.00     0.009 C 
HETATM    9  C9  UNL     1     -34.469  16.651  -6.966  1.00 20.00     0.038 C 
HETATM   10  C10 UNL     1     -33.676  16.691  -5.638  1.00 20.00     0.164 C 
HETATM   11  C11 UNL     1     -33.971  16.860  -1.293  1.00 20.00     0.051 C 
HETATM   12  O12 UNL     1     -35.126  13.670  -4.183  1.00 20.00    -0.326 OA
HETATM   13  O13 UNL     1     -33.781  17.970  -4.962  1.00 20.00    -0.352 OA
ENDROOT
TORSDOF 0
ENDMDL
MODEL 5
REMARK VINA RESULT:      -4.9      2.086      2.953
REMARK  0 active torsions:
REMARK  status: ('A' for Active; 'I' for Inactive)
ROOT
HETATM    1  C1  UNL     1     -33.672  17.835  -5.649  1.00 20.00     0.154 A 
HETATM    2  C2  UNL     1     -34.480  16.884  -6.222  1.00 20.00     0.005 A 
HETATM    3  C3  UNL     1     -34.166  15.682  -5.604  1.00 20.00     0.013 A 
HETATM    4  C4  UNL     1     -33.291  15.951  -4.598  1.00 20.00     0.062 A 
HETATM    5  C5  UNL     1     -36.328  15.761  -7.202  1.00 20.00     0.143 C 
HETATM    6  C6  UNL     1     -35.561  16.876  -7.139  1.00 20.00    -0.027 C 
HETATM    7  C7  UNL     1     -32.918  15.027  -3.509  1.00 20.00     0.066 C 
HETATM    8  C8  UNL     1     -33.526  13.620  -3.802  1.00 20.00     0.009 C 
HETATM    9  C9  UNL     1     -34.911  13.639  -4.521  1.00 20.00     0.038 C 
HETATM   10  C10 UNL     1     -34.842  14.405  -5.863  1.00 20.00     0.164 C 
HETATM   11  C11 UNL     1     -35.814  18.123  -7.918  1.00 20.00     0.051 C 
HETATM   12  O12 UNL     1     -32.939  17.266  -4.622  1.00 20.00    -0.326 OA
HETATM   13  O13 UNL     1     -36.146  14.584  -6.473  1.00 20.00    -0.352 OA
ENDROOT
TORSDOF 0
ENDMDL
MODEL 6
REMARK VINA RESULT:      -4.9      2.167      4.319
REMARK  0 active torsions:
REMARK  status: ('A' for Active; 'I' for Inactive)
ROOT
HETATM    1  C1  UNL     1     -37.529  15.450  -3.658  1.00 20.00     0.154 A 
HETATM    2  C2  UNL     1     -36.514  16.222  -3.145  1.00 20.00     0.005 A 
HETATM    3  C3  UNL     1     -35.376  15.427  -3.160  1.00 20.00     0.013 A 
HETATM    4  C4  UNL     1     -35.691  14.265  -3.793  1.00 20.00     0.062 A 
HETATM    5  C5  UNL     1     -35.090  18.045  -2.613  1.00 20.00     0.143 C 
HETATM    6  C6  UNL     1     -36.352  17.574  -2.754  1.00 20.00    -0.027 C 
HETATM    7  C7  UNL     1     -34.727  13.263  -4.287  1.00 20.00     0.066 C 
HETATM    8  C8  UNL     1     -33.297  13.641  -3.789  1.00 20.00     0.009 C 
HETATM    9  C9  UNL     1     -33.019  15.174  -3.692  1.00 20.00     0.038 C 
HETATM   10  C10 UNL     1     -34.036  15.876  -2.762  1.00 20.00     0.164 C 
HETATM   11  C11 UNL     1     -37.587  18.397  -2.593  1.00 20.00     0.051 C 
HETATM   12  O12 UNL     1     -37.022  14.234  -4.081  1.00 20.00    -0.326 OA
HETATM   13  O13 UNL     1     -33.909  17.320  -2.781  1.00 20.00    -0.352 OA
ENDROOT
TORSDOF 0
ENDMDL
MODEL 7
REMARK VINA RESULT:      -4.8      1.843      4.562
REMARK  0 active torsions:
REMARK  status: ('A' for Active; 'I' for Inactive)
ROOT
HETATM    1  C1  UNL     1     -37.056  15.813  -3.357  1.00 20.00     0.154 A 
HETATM    2  C2  UNL     1     -35.696  15.670  -3.491  1.00 20.00     0.005 A 
HETATM    3  C3  UNL     1     -35.479  15.194  -4.776  1.00 20.00     0.013 A 
HETATM    4  C4  UNL     1     -36.676  15.189  -5.423  1.00 20.00     0.062 A 
HETATM    5  C5  UNL     1     -33.350  15.999  -3.343  1.00 20.00     0.143 C 
HETATM    6  C6  UNL     1     -34.552  15.990  -2.718  1.00 20.00    -0.027 C 
HETATM    7  C7  UNL     1     -36.869  15.038  -6.879  1.00 20.00     0.066 C 
HETATM    8  C8  UNL     1     -35.502  14.678  -7.540  1.00 20.00     0.009 C 
HETATM    9  C9  UNL     1     -34.254  15.333  -6.870  1.00 20.00     0.038 C 
HETATM   10  C10 UNL     1     -34.157  14.962  -5.371  1.00 20.00     0.164 C 
HETATM   11  C11 UNL     1     -34.767  16.361  -1.289  1.00 20.00     0.051 C 
HETATM   12  O12 UNL     1     -37.675  15.532  -4.564  1.00 20.00    -0.326 OA
HETATM   13  O13 UNL     1     -33.107  15.686  -4.682  1.00 20.00    -0.352 OA
ENDROOT
TORSDOF 0
ENDMDL
MODEL 8
REMARK VINA RESULT:      -4.8      4.345      6.645
REMARK  0 active torsions:
REMARK  status: ('A' for Active; 'I' for Inactive)
ROOT
HETATM    1  C1  UNL     1     -35.326  17.535   1.336  1.00 20.00     0.154 A 
HETATM    2  C2  UNL     1     -34.180  18.136   0.874  1.00 20.00     0.005 A 
HETATM    3  C3  UNL     1     -33.509  18.609   1.993  1.00 20.00     0.013 A 
HETATM    4  C4  UNL     1     -34.182  18.175   3.093  1.00 20.00     0.062 A 
HETATM    5  C5  UNL     1     -32.223  18.647  -0.369  1.00 20.00     0.143 C 
HETATM    6  C6  UNL     1     -33.521  18.261  -0.375  1.00 20.00    -0.027 C 
HETATM    7  C7  UNL     1     -33.674  18.195   4.478  1.00 20.00     0.066 C 
HETATM    8  C8  UNL     1     -32.327  18.982   4.517  1.00 20.00     0.009 C 
HETATM    9  C9  UNL     1     -31.438  18.826   3.244  1.00 20.00     0.038 C 
HETATM   10  C10 UNL     1     -32.195  19.263   1.968  1.00 20.00     0.164 C 
HETATM   11  C11 UNL     1     -34.290  17.892  -1.600  1.00 20.00     0.051 C 
HETATM   12  O12 UNL     1     -35.327  17.539   2.720  1.00 20.00    -0.326 OA
HETATM   13  O13 UNL     1     -31.458  18.974   0.752  1.00 20.00    -0.352 OA
ENDROOT
TORSDOF 0
ENDMDL
MODEL 9
REMARK VINA RESULT:      -4.7      0.973      3.679
REMARK  0 active torsions:
REMARK  status: ('A' for Active; 'I' for Inactive)
ROOT
HETATM    1  C1  UNL     1     -33.498  18.371  -4.864  1.00 20.00     0.154 A 
HETATM    2  C2  UNL     1     -33.992  17.476  -3.947  1.00 20.00     0.005 A 
HETATM    3  C3  UNL     1     -34.509  16.416  -4.677  1.00 20.00     0.013 A 
HETATM    4  C4  UNL     1     -34.201  16.625  -5.985  1.00 20.00     0.062 A 
HETATM    5  C5  UNL     1     -34.289  16.134  -2.011  1.00 20.00     0.143 C 
HETATM    6  C6  UNL     1     -33.982  17.345  -2.535  1.00 20.00    -0.027 C 
HETATM    7  C7  UNL     1     -34.298  15.624  -7.065  1.00 20.00     0.066 C 
HETATM    8  C8  UNL     1     -35.004  14.345  -6.515  1.00 20.00     0.009 C 
HETATM    9  C9  UNL     1     -34.699  14.018  -5.020  1.00 20.00     0.038 C 
HETATM   10  C10 UNL     1     -35.080  15.196  -4.093  1.00 20.00     0.164 C 
HETATM   11  C11 UNL     1     -33.566  18.534  -1.736  1.00 20.00     0.051 C 
HETATM   12  O12 UNL     1     -33.608  17.841  -6.138  1.00 20.00    -0.326 OA
HETATM   13  O13 UNL     1     -34.656  14.989  -2.722  1.00 20.00    -0.352 OA
ENDROOT
TORSDOF 0
ENDMDL
