MODEL 1
REMARK VINA RESULT:      -4.8      0.000      0.000
REMARK  1 active torsions:
REMARK  status: ('A' for Active; 'I' for Inactive)
REMARK    1  A    between atoms: C7_7  and  C10_10 
ROOT
HETATM    1  C1  UNL     1     -35.709  15.791  -5.176  1.00 20.00    -0.017 C 
HETATM    2  C2  UNL     1     -34.656  16.601  -4.954  1.00 20.00    -0.019 C 
HETATM    3  C3  UNL     1     -34.859  13.687  -4.024  1.00 20.00     0.135 C 
HETATM    4  C4  UNL     1     -33.363  13.896  -3.944  1.00 20.00     0.080 C 
HETATM    5  C5  UNL     1     -33.207  15.252  -3.237  1.00 20.00     0.022 C 
HETATM    6  C6  UNL     1     -35.560  15.070  -3.851  1.00 20.00     0.090 C 
HETATM    7  C7  UNL     1     -34.456  16.111  -3.524  1.00 20.00    -0.006 C 
HETATM    8  O11 UNL     1     -35.374  12.596  -4.242  1.00 20.00    -0.297 OA
ENDROOT
BRANCH   7   9
HETATM    9  C10 UNL     1     -34.746  17.141  -2.444  1.00 20.00    -0.009 C 
HETATM   10  C8  UNL     1     -34.652  16.511  -1.053  1.00 20.00     0.011 C 
HETATM   11  C9  UNL     1     -33.790  18.329  -2.555  1.00 20.00     0.011 C 
ENDBRANCH   7   9
TORSDOF 1
ENDMDL
MODEL 2
REMARK VINA RESULT:      -4.6      1.081      1.234
REMARK  1 active torsions:
REMARK  status: ('A' for Active; 'I' for Inactive)
REMARK    1  A    between atoms: C7_7  and  C10_10 
ROOT
HETATM    1  C1  UNL     1     -34.398  15.407  -6.370  1.00 20.00    -0.017 C 
HETATM    2  C2  UNL     1     -33.576  16.290  -5.770  1.00 20.00    -0.019 C 
HETATM    3  C3  UNL     1     -34.482  13.624  -4.556  1.00 20.00     0.135 C 
HETATM    4  C4  UNL     1     -33.261  13.909  -3.710  1.00 20.00     0.080 C 
HETATM    5  C5  UNL     1     -33.410  15.387  -3.315  1.00 20.00     0.022 C 
HETATM    6  C6  UNL     1     -35.053  14.982  -5.071  1.00 20.00     0.090 C 
HETATM    7  C7  UNL     1     -34.227  16.115  -4.403  1.00 20.00    -0.006 C 
HETATM    8  O11 UNL     1     -34.878  12.491  -4.802  1.00 20.00    -0.297 OA
ENDROOT
BRANCH   7   9
HETATM    9  C10 UNL     1     -34.978  17.332  -3.886  1.00 20.00    -0.009 C 
HETATM   10  C8  UNL     1     -35.972  16.935  -2.793  1.00 20.00     0.011 C 
HETATM   11  C9  UNL     1     -34.004  18.388  -3.361  1.00 20.00     0.011 C 
ENDBRANCH   7   9
TORSDOF 1
ENDMDL
MODEL 3
REMARK VINA RESULT:      -4.5      1.430      2.983
REMARK  1 active torsions:
REMARK  status: ('A' for Active; 'I' for Inactive)
REMARK    1  A    between atoms: C7_7  and  C10_10 
ROOT
HETATM    1  C1  UNL     1     -34.055  15.872  -2.516  1.00 20.00    -0.017 C 
HETATM    2  C2  UNL     1     -35.305  16.181  -2.917  1.00 20.00    -0.019 C 
HETATM    3  C3  UNL     1     -33.684  13.774  -3.908  1.00 20.00     0.135 C 
HETATM    4  C4  UNL     1     -35.082  13.337  -4.287  1.00 20.00     0.080 C 
HETATM    5  C5  UNL     1     -35.699  14.578  -4.952  1.00 20.00     0.022 C 
HETATM    6  C6  UNL     1     -33.647  15.334  -3.873  1.00 20.00     0.090 C 
HETATM    7  C7  UNL     1     -35.026  15.841  -4.376  1.00 20.00    -0.006 C 
HETATM    8  O11 UNL     1     -32.786  12.987  -3.635  1.00 20.00    -0.297 OA
ENDROOT
BRANCH   7   9
HETATM    9  C10 UNL     1     -35.044  17.025  -5.328  1.00 20.00    -0.009 C 
HETATM   10  C8  UNL     1     -34.376  16.667  -6.657  1.00 20.00     0.011 C 
HETATM   11  C9  UNL     1     -36.475  17.510  -5.566  1.00 20.00     0.011 C 
ENDBRANCH   7   9
TORSDOF 1
ENDMDL
MODEL 4
REMARK VINA RESULT:      -4.5      1.501      2.098
REMARK  1 active torsions:
REMARK  status: ('A' for Active; 'I' for Inactive)
REMARK    1  A    between atoms: C7_7  and  C10_10 
ROOT
HETATM    1  C1  UNL     1     -33.445  16.333  -5.600  1.00 20.00    -0.017 C 
HETATM    2  C2  UNL     1     -33.075  16.064  -4.332  1.00 20.00    -0.019 C 
HETATM    3  C3  UNL     1     -35.026  14.377  -5.990  1.00 20.00     0.135 C 
HETATM    4  C4  UNL     1     -34.635  13.376  -4.925  1.00 20.00     0.080 C 
HETATM    5  C5  UNL     1     -34.731  14.166  -3.610  1.00 20.00     0.022 C 
HETATM    6  C6  UNL     1     -34.855  15.813  -5.403  1.00 20.00     0.090 C 
HETATM    7  C7  UNL     1     -34.481  15.660  -3.904  1.00 20.00    -0.006 C 
HETATM    8  O11 UNL     1     -35.362  14.055  -7.123  1.00 20.00    -0.297 OA
ENDROOT
BRANCH   7   9
HETATM    9  C10 UNL     1     -35.145  16.594  -2.906  1.00 20.00    -0.009 C 
HETATM   10  C8  UNL     1     -36.669  16.486  -2.990  1.00 20.00     0.011 C 
HETATM   11  C9  UNL     1     -34.668  16.299  -1.484  1.00 20.00     0.011 C 
ENDBRANCH   7   9
TORSDOF 1
ENDMDL
MODEL 5
REMARK VINA RESULT:      -4.5      1.309      2.930
REMARK  1 active torsions:
REMARK  status: ('A' for Active; 'I' for Inactive)
REMARK    1  A    between atoms: C7_7  and  C10_10 
ROOT
HETATM    1  C1  UNL     1     -33.019  15.013  -3.475  1.00 20.00    -0.017 C 
HETATM    2  C2  UNL     1     -33.536  16.252  -3.349  1.00 20.00    -0.019 C 
HETATM    3  C3  UNL     1     -35.070  13.802  -4.371  1.00 20.00     0.135 C 
HETATM    4  C4  UNL     1     -36.221  14.707  -3.992  1.00 20.00     0.080 C 
HETATM    5  C5  UNL     1     -35.840  16.073  -4.584  1.00 20.00     0.022 C 
HETATM    6  C6  UNL     1     -33.835  14.692  -4.712  1.00 20.00     0.090 C 
HETATM    7  C7  UNL     1     -34.302  16.172  -4.664  1.00 20.00    -0.006 C 
HETATM    8  O11 UNL     1     -35.142  12.579  -4.346  1.00 20.00    -0.297 OA
ENDROOT
BRANCH   7   9
HETATM    9  C10 UNL     1     -33.810  17.109  -5.755  1.00 20.00    -0.009 C 
HETATM   10  C8  UNL     1     -34.531  16.834  -7.075  1.00 20.00     0.011 C 
HETATM   11  C9  UNL     1     -33.996  18.570  -5.342  1.00 20.00     0.011 C 
ENDBRANCH   7   9
TORSDOF 1
ENDMDL
MODEL 6
REMARK VINA RESULT:      -4.4      1.701      3.023
REMARK  1 active torsions:
REMARK  status: ('A' for Active; 'I' for Inactive)
REMARK    1  A    between atoms: C7_7  and  C10_10 
ROOT
HETATM    1  C1  UNL     1     -34.529  13.135  -4.958  1.00 20.00    -0.017 C 
HETATM    2  C2  UNL     1     -35.052  13.710  -3.857  1.00 20.00    -0.019 C 
HETATM    3  C3  UNL     1     -35.586  14.618  -6.736  1.00 20.00     0.135 C 
HETATM    4  C4  UNL     1     -36.758  15.258  -6.026  1.00 20.00     0.080 C 
HETATM    5  C5  UNL     1     -36.136  15.910  -4.780  1.00 20.00     0.022 C 
HETATM    6  C6  UNL     1     -34.422  14.447  -5.711  1.00 20.00     0.090 C 
HETATM    7  C7  UNL     1     -34.866  15.126  -4.388  1.00 20.00    -0.006 C 
HETATM    8  O11 UNL     1     -35.623  14.267  -7.910  1.00 20.00    -0.297 OA
ENDROOT
BRANCH   7   9
HETATM    9  C10 UNL     1     -33.842  15.965  -3.640  1.00 20.00    -0.009 C 
HETATM   10  C8  UNL     1     -33.600  17.294  -4.357  1.00 20.00     0.011 C 
HETATM   11  C9  UNL     1     -34.289  16.212  -2.199  1.00 20.00     0.011 C 
ENDBRANCH   7   9
TORSDOF 1
ENDMDL
MODEL 7
REMARK VINA RESULT:      -4.4      1.144      1.523
REMARK  1 active torsions:
REMARK  status: ('A' for Active; 'I' for Inactive)
REMARK    1  A    between atoms: C7_7  and  C10_10 
ROOT
HETATM    1  C1  UNL     1     -37.115  14.808  -3.914  1.00 20.00    -0.017 C 
HETATM    2  C2  UNL     1     -36.922  16.060  -4.375  1.00 20.00    -0.019 C 
HETATM    3  C3  UNL     1     -34.953  13.736  -4.722  1.00 20.00     0.135 C 
HETATM    4  C4  UNL     1     -34.467  14.670  -5.808  1.00 20.00     0.080 C 
HETATM    5  C5  UNL     1     -34.412  16.047  -5.126  1.00 20.00     0.022 C 
HETATM    6  C6  UNL     1     -35.646  14.587  -3.612  1.00 20.00     0.090 C 
HETATM    7  C7  UNL     1     -35.449  16.082  -3.985  1.00 20.00    -0.006 C 
HETATM    8  O11 UNL     1     -34.838  12.517  -4.783  1.00 20.00    -0.297 OA
ENDROOT
BRANCH   7   9
HETATM    9  C10 UNL     1     -35.092  17.051  -2.870  1.00 20.00    -0.009 C 
HETATM   10  C8  UNL     1     -34.431  16.318  -1.701  1.00 20.00     0.011 C 
HETATM   11  C9  UNL     1     -34.176  18.161  -3.387  1.00 20.00     0.011 C 
ENDBRANCH   7   9
TORSDOF 1
ENDMDL
MODEL 8
REMARK VINA RESULT:      -4.4      1.586      2.765
REMARK  1 active torsions:
REMARK  status: ('A' for Active; 'I' for Inactive)
REMARK    1  A    between atoms: C7_7  and  C10_10 
ROOT
HETATM    1  C1  UNL     1     -33.597  14.161  -4.027  1.00 20.00    -0.017 C 
HETATM    2  C2  UNL     1     -34.513  14.426  -3.075  1.00 20.00    -0.019 C 
HETATM    3  C3  UNL     1     -34.335  15.844  -5.788  1.00 20.00     0.135 C 
HETATM    4  C4  UNL     1     -35.758  16.176  -5.399  1.00 20.00     0.080 C 
HETATM    5  C5  UNL     1     -35.655  16.624  -3.932  1.00 20.00     0.022 C 
HETATM    6  C6  UNL     1     -33.510  15.604  -4.485  1.00 20.00     0.090 C 
HETATM    7  C7  UNL     1     -34.436  15.934  -3.283  1.00 20.00    -0.006 C 
HETATM    8  O11 UNL     1     -33.963  15.743  -6.951  1.00 20.00    -0.297 OA
ENDROOT
BRANCH   7   9
HETATM    9  C10 UNL     1     -33.843  16.716  -2.122  1.00 20.00    -0.009 C 
HETATM   10  C8  UNL     1     -33.693  18.195  -2.482  1.00 20.00     0.011 C 
HETATM   11  C9  UNL     1     -34.701  16.558  -0.866  1.00 20.00     0.011 C 
ENDBRANCH   7   9
TORSDOF 1
ENDMDL
MODEL 9
REMARK VINA RESULT:      -4.3      1.896      3.773
REMARK  1 active torsions:
REMARK  status: ('A' for Active; 'I' for Inactive)
REMARK    1  A    between atoms: C7_7  and  C10_10 
ROOT
HETATM    1  C1  UNL     1     -35.065  13.327  -3.971  1.00 20.00    -0.017 C 
HETATM    2  C2  UNL     1     -34.461  13.400  -5.173  1.00 20.00    -0.019 C 
HETATM    3  C3  UNL     1     -34.524  15.655  -3.097  1.00 20.00     0.135 C 
HETATM    4  C4  UNL     1     -33.357  16.101  -3.950  1.00 20.00     0.080 C 
HETATM    5  C5  UNL     1     -33.860  15.941  -5.394  1.00 20.00     0.022 C 
HETATM    6  C6  UNL     1     -35.475  14.786  -3.978  1.00 20.00     0.090 C 
HETATM    7  C7  UNL     1     -34.928  14.828  -5.430  1.00 20.00    -0.006 C 
HETATM    8  O11 UNL     1     -34.624  15.921  -1.905  1.00 20.00    -0.297 OA
ENDROOT
BRANCH   7   9
HETATM    9  C10 UNL     1     -35.929  14.984  -6.563  1.00 20.00    -0.009 C 
HETATM   10  C8  UNL     1     -36.588  16.364  -6.520  1.00 20.00     0.011 C 
HETATM   11  C9  UNL     1     -35.257  14.758  -7.918  1.00 20.00     0.011 C 
ENDBRANCH   7   9
TORSDOF 1
ENDMDL
