MODEL 1
REMARK VINA RESULT:      -5.4      0.000      0.000
REMARK  1 active torsions:
REMARK  status: ('A' for Active; 'I' for Inactive)
REMARK    1  A    between atoms: C9_9  and  C12_12 
ROOT
HETATM    1  C1  UNL     1     -32.732  14.936  -3.661  1.00 20.00     0.012 C 
HETATM    2  C2  UNL     1     -33.103  13.654  -3.606  1.00 20.00     0.052 C 
HETATM    3  C3  UNL     1     -35.393  16.353  -6.527  1.00 20.00    -0.025 C 
HETATM    4  C4  UNL     1     -35.640  15.227  -5.836  1.00 20.00    -0.008 C 
HETATM    5  C5  UNL     1     -33.430  16.880  -5.033  1.00 20.00    -0.014 C 
HETATM    6  C6  UNL     1     -33.689  15.743  -4.371  1.00 20.00    -0.041 C 
HETATM    7  C7  UNL     1     -34.423  13.597  -4.279  1.00 20.00     0.166 C 
HETATM    8  C8  UNL     1     -34.398  17.395  -6.068  1.00 20.00     0.054 C 
HETATM    9  C9  UNL     1     -34.990  14.987  -4.506  1.00 20.00     0.071 C 
HETATM   10  O13 UNL     1     -34.982  12.544  -4.549  1.00 20.00    -0.292 OA
ENDROOT
BRANCH   9  11
HETATM   11  C12 UNL     1     -35.969  15.312  -3.369  1.00 20.00     0.002 C 
HETATM   12  C10 UNL     1     -35.823  16.770  -2.947  1.00 20.00     0.011 C 
HETATM   13  C11 UNL     1     -37.399  15.012  -3.800  1.00 20.00     0.011 C 
ENDBRANCH   9  11
TORSDOF 1
ENDMDL
MODEL 2
REMARK VINA RESULT:      -5.2      1.239      3.231
REMARK  1 active torsions:
REMARK  status: ('A' for Active; 'I' for Inactive)
REMARK    1  A    between atoms: C9_9  and  C12_12 
ROOT
HETATM    1  C1  UNL     1     -35.865  16.855  -2.953  1.00 20.00     0.012 C 
HETATM    2  C2  UNL     1     -37.079  16.308  -3.062  1.00 20.00     0.052 C 
HETATM    3  C3  UNL     1     -33.489  13.569  -3.880  1.00 20.00    -0.025 C 
HETATM    4  C4  UNL     1     -34.780  13.629  -4.253  1.00 20.00    -0.008 C 
HETATM    5  C5  UNL     1     -33.553  15.981  -3.146  1.00 20.00    -0.014 C 
HETATM    6  C6  UNL     1     -34.843  16.009  -3.511  1.00 20.00    -0.041 C 
HETATM    7  C7  UNL     1     -36.873  15.031  -3.786  1.00 20.00     0.166 C 
HETATM    8  C8  UNL     1     -32.692  14.792  -3.487  1.00 20.00     0.054 C 
HETATM    9  C9  UNL     1     -35.478  14.950  -4.381  1.00 20.00     0.071 C 
HETATM   10  O13 UNL     1     -37.755  14.196  -3.917  1.00 20.00    -0.292 OA
ENDROOT
BRANCH   9  11
HETATM   11  C12 UNL     1     -35.546  15.377  -5.854  1.00 20.00     0.002 C 
HETATM   12  C10 UNL     1     -34.481  16.427  -6.150  1.00 20.00     0.011 C 
HETATM   13  C11 UNL     1     -35.380  14.164  -6.763  1.00 20.00     0.011 C 
ENDBRANCH   9  11
TORSDOF 1
ENDMDL
MODEL 3
REMARK VINA RESULT:      -5.1      1.382      1.800
REMARK  1 active torsions:
REMARK  status: ('A' for Active; 'I' for Inactive)
REMARK    1  A    between atoms: C9_9  and  C12_12 
ROOT
HETATM    1  C1  UNL     1     -33.680  14.033  -4.105  1.00 20.00     0.012 C 
HETATM    2  C2  UNL     1     -34.824  13.374  -3.909  1.00 20.00     0.052 C 
HETATM    3  C3  UNL     1     -35.151  17.701  -5.401  1.00 20.00    -0.025 C 
HETATM    4  C4  UNL     1     -35.914  16.849  -4.694  1.00 20.00    -0.008 C 
HETATM    5  C5  UNL     1     -33.109  16.286  -4.967  1.00 20.00    -0.014 C 
HETATM    6  C6  UNL     1     -33.895  15.445  -4.281  1.00 20.00    -0.041 C 
HETATM    7  C7  UNL     1     -35.881  14.414  -3.900  1.00 20.00     0.166 C 
HETATM    8  C8  UNL     1     -33.642  17.618  -5.432  1.00 20.00     0.054 C 
HETATM    9  C9  UNL     1     -35.286  15.808  -3.816  1.00 20.00     0.071 C 
HETATM   10  O13 UNL     1     -37.073  14.145  -3.902  1.00 20.00    -0.292 OA
ENDROOT
BRANCH   9  11
HETATM   11  C12 UNL     1     -35.305  16.265  -2.350  1.00 20.00     0.002 C 
HETATM   12  C10 UNL     1     -33.906  16.681  -1.909  1.00 20.00     0.011 C 
HETATM   13  C11 UNL     1     -36.296  17.408  -2.166  1.00 20.00     0.011 C 
ENDBRANCH   9  11
TORSDOF 1
ENDMDL
MODEL 4
REMARK VINA RESULT:      -5.0      1.869      3.583
REMARK  1 active torsions:
REMARK  status: ('A' for Active; 'I' for Inactive)
REMARK    1  A    between atoms: C9_9  and  C12_12 
ROOT
HETATM    1  C1  UNL     1     -35.281  14.312  -7.009  1.00 20.00     0.012 C 
HETATM    2  C2  UNL     1     -35.134  15.457  -7.680  1.00 20.00     0.052 C 
HETATM    3  C3  UNL     1     -32.902  15.090  -3.687  1.00 20.00    -0.025 C 
HETATM    4  C4  UNL     1     -33.398  16.085  -4.443  1.00 20.00    -0.008 C 
HETATM    5  C5  UNL     1     -34.326  13.404  -4.909  1.00 20.00    -0.014 C 
HETATM    6  C6  UNL     1     -34.793  14.412  -5.659  1.00 20.00    -0.041 C 
HETATM    7  C7  UNL     1     -34.555  16.413  -6.705  1.00 20.00     0.166 C 
HETATM    8  C8  UNL     1     -33.468  13.688  -3.702  1.00 20.00     0.054 C 
HETATM    9  C9  UNL     1     -34.616  15.867  -5.290  1.00 20.00     0.071 C 
HETATM   10  O13 UNL     1     -34.142  17.517  -7.028  1.00 20.00    -0.292 OA
ENDROOT
BRANCH   9  11
HETATM   11  C12 UNL     1     -35.859  16.441  -4.594  1.00 20.00     0.002 C 
HETATM   12  C10 UNL     1     -36.546  15.362  -3.765  1.00 20.00     0.011 C 
HETATM   13  C11 UNL     1     -35.473  17.632  -3.723  1.00 20.00     0.011 C 
ENDBRANCH   9  11
TORSDOF 1
ENDMDL
MODEL 5
REMARK VINA RESULT:      -5.0      1.784      3.597
REMARK  1 active torsions:
REMARK  status: ('A' for Active; 'I' for Inactive)
REMARK    1  A    between atoms: C9_9  and  C12_12 
ROOT
HETATM    1  C1  UNL     1     -35.162  16.332  -6.558  1.00 20.00     0.012 C 
HETATM    2  C2  UNL     1     -34.510  17.467  -6.296  1.00 20.00     0.052 C 
HETATM    3  C3  UNL     1     -33.362  13.790  -3.803  1.00 20.00    -0.025 C 
HETATM    4  C4  UNL     1     -33.335  15.125  -3.647  1.00 20.00    -0.008 C 
HETATM    5  C5  UNL     1     -35.001  14.009  -5.707  1.00 20.00    -0.014 C 
HETATM    6  C6  UNL     1     -34.944  15.338  -5.541  1.00 20.00    -0.041 C 
HETATM    7  C7  UNL     1     -33.846  17.247  -4.989  1.00 20.00     0.166 C 
HETATM    8  C8  UNL     1     -34.353  13.089  -4.704  1.00 20.00     0.054 C 
HETATM    9  C9  UNL     1     -34.364  15.993  -4.309  1.00 20.00     0.071 C 
HETATM   10  O13 UNL     1     -33.031  18.028  -4.522  1.00 20.00    -0.292 OA
ENDROOT
BRANCH   9  11
HETATM   11  C12 UNL     1     -35.451  16.393  -3.300  1.00 20.00     0.002 C 
HETATM   12  C10 UNL     1     -36.659  15.472  -3.433  1.00 20.00     0.011 C 
HETATM   13  C11 UNL     1     -34.895  16.358  -1.882  1.00 20.00     0.011 C 
ENDBRANCH   9  11
TORSDOF 1
ENDMDL
MODEL 6
REMARK VINA RESULT:      -4.9      1.688      3.479
REMARK  1 active torsions:
REMARK  status: ('A' for Active; 'I' for Inactive)
REMARK    1  A    between atoms: C9_9  and  C12_12 
ROOT
HETATM    1  C1  UNL     1     -37.112  17.014  -5.378  1.00 20.00     0.012 C 
HETATM    2  C2  UNL     1     -38.037  16.100  -5.072  1.00 20.00     0.052 C 
HETATM    3  C3  UNL     1     -34.096  15.934  -2.726  1.00 20.00    -0.025 C 
HETATM    4  C4  UNL     1     -35.060  15.068  -3.082  1.00 20.00    -0.008 C 
HETATM    5  C5  UNL     1     -34.868  17.569  -4.484  1.00 20.00    -0.014 C 
HETATM    6  C6  UNL     1     -35.830  16.694  -4.809  1.00 20.00    -0.041 C 
HETATM    7  C7  UNL     1     -37.323  15.067  -4.284  1.00 20.00     0.166 C 
HETATM    8  C8  UNL     1     -33.772  17.175  -3.526  1.00 20.00     0.054 C 
HETATM    9  C9  UNL     1     -35.818  15.251  -4.363  1.00 20.00     0.071 C 
HETATM   10  O13 UNL     1     -37.902  14.161  -3.704  1.00 20.00    -0.292 OA
ENDROOT
BRANCH   9  11
HETATM   11  C12 UNL     1     -35.263  14.315  -5.448  1.00 20.00     0.002 C 
HETATM   12  C10 UNL     1     -34.358  15.089  -6.399  1.00 20.00     0.011 C 
HETATM   13  C11 UNL     1     -34.514  13.152  -4.809  1.00 20.00     0.011 C 
ENDBRANCH   9  11
TORSDOF 1
ENDMDL
MODEL 7
REMARK VINA RESULT:      -4.8      1.824      3.377
REMARK  1 active torsions:
REMARK  status: ('A' for Active; 'I' for Inactive)
REMARK    1  A    between atoms: C9_9  and  C12_12 
ROOT
HETATM    1  C1  UNL     1     -33.706  14.146  -3.777  1.00 20.00     0.012 C 
HETATM    2  C2  UNL     1     -32.797  15.122  -3.828  1.00 20.00     0.052 C 
HETATM    3  C3  UNL     1     -37.136  16.273  -4.781  1.00 20.00    -0.025 C 
HETATM    4  C4  UNL     1     -35.910  16.727  -5.098  1.00 20.00    -0.008 C 
HETATM    5  C5  UNL     1     -36.167  14.058  -4.063  1.00 20.00    -0.014 C 
HETATM    6  C6  UNL     1     -34.955  14.541  -4.371  1.00 20.00    -0.041 C 
HETATM    7  C7  UNL     1     -33.456  16.236  -4.551  1.00 20.00     0.166 C 
HETATM    8  C8  UNL     1     -37.410  14.828  -4.432  1.00 20.00     0.054 C 
HETATM    9  C9  UNL     1     -34.749  15.784  -5.205  1.00 20.00     0.071 C 
HETATM   10  O13 UNL     1     -32.964  17.351  -4.637  1.00 20.00    -0.292 OA
ENDROOT
BRANCH   9  11
HETATM   11  C12 UNL     1     -34.467  15.453  -6.678  1.00 20.00     0.002 C 
HETATM   12  C10 UNL     1     -35.343  14.292  -7.135  1.00 20.00     0.011 C 
HETATM   13  C11 UNL     1     -34.695  16.682  -7.549  1.00 20.00     0.011 C 
ENDBRANCH   9  11
TORSDOF 1
ENDMDL
MODEL 8
REMARK VINA RESULT:      -4.8      1.802      3.265
REMARK  1 active torsions:
REMARK  status: ('A' for Active; 'I' for Inactive)
REMARK    1  A    between atoms: C9_9  and  C12_12 
ROOT
HETATM    1  C1  UNL     1     -33.697  16.562  -2.255  1.00 20.00     0.012 C 
HETATM    2  C2  UNL     1     -34.841  17.175  -1.939  1.00 20.00     0.052 C 
HETATM    3  C3  UNL     1     -35.168  13.291  -4.361  1.00 20.00    -0.025 C 
HETATM    4  C4  UNL     1     -35.901  14.406  -4.196  1.00 20.00    -0.008 C 
HETATM    5  C5  UNL     1     -33.134  14.446  -3.417  1.00 20.00    -0.014 C 
HETATM    6  C6  UNL     1     -33.891  15.539  -3.248  1.00 20.00    -0.041 C 
HETATM    7  C7  UNL     1     -35.870  16.563  -2.813  1.00 20.00     0.166 C 
HETATM    8  C8  UNL     1     -33.667  13.263  -4.185  1.00 20.00     0.054 C 
HETATM    9  C9  UNL     1     -35.239  15.721  -3.907  1.00 20.00     0.071 C 
HETATM   10  O13 UNL     1     -37.066  16.777  -2.676  1.00 20.00    -0.292 OA
ENDROOT
BRANCH   9  11
HETATM   11  C12 UNL     1     -35.148  16.564  -5.187  1.00 20.00     0.002 C 
HETATM   12  C10 UNL     1     -33.781  16.388  -5.839  1.00 20.00     0.011 C 
HETATM   13  C11 UNL     1     -36.263  16.181  -6.153  1.00 20.00     0.011 C 
ENDBRANCH   9  11
TORSDOF 1
ENDMDL
MODEL 9
REMARK VINA RESULT:      -4.7      1.587      2.431
REMARK  1 active torsions:
REMARK  status: ('A' for Active; 'I' for Inactive)
REMARK    1  A    between atoms: C9_9  and  C12_12 
ROOT
HETATM    1  C1  UNL     1     -34.476  13.730  -3.600  1.00 20.00     0.012 C 
HETATM    2  C2  UNL     1     -34.425  13.367  -4.884  1.00 20.00     0.052 C 
HETATM    3  C3  UNL     1     -33.795  17.817  -3.960  1.00 20.00    -0.025 C 
HETATM    4  C4  UNL     1     -34.242  17.087  -4.997  1.00 20.00    -0.008 C 
HETATM    5  C5  UNL     1     -34.138  15.870  -2.395  1.00 20.00    -0.014 C 
HETATM    6  C6  UNL     1     -34.564  15.158  -3.448  1.00 20.00    -0.041 C 
HETATM    7  C7  UNL     1     -34.537  14.628  -5.655  1.00 20.00     0.166 C 
HETATM    8  C8  UNL     1     -33.897  17.353  -2.525  1.00 20.00     0.054 C 
HETATM    9  C9  UNL     1     -34.953  15.786  -4.766  1.00 20.00     0.071 C 
HETATM   10  O13 UNL     1     -34.365  14.681  -6.864  1.00 20.00    -0.292 OA
ENDROOT
BRANCH   9  11
HETATM   11  C12 UNL     1     -36.471  15.981  -4.888  1.00 20.00     0.002 C 
HETATM   12  C10 UNL     1     -37.084  16.230  -3.515  1.00 20.00     0.011 C 
HETATM   13  C11 UNL     1     -36.781  17.131  -5.839  1.00 20.00     0.011 C 
ENDBRANCH   9  11
TORSDOF 1
ENDMDL
