MODEL 1
REMARK VINA RESULT:      -4.4      0.000      0.000
REMARK  3 active torsions:
REMARK  status: ('A' for Active; 'I' for Inactive)
REMARK    1  A    between atoms: C1_1  and  C5_5 
REMARK    2  A    between atoms: C1_1  and  C6_6 
REMARK    3  A    between atoms: C4_4  and  C5_5 
ROOT
HETATM    1  C1  UNL     1     -33.081   6.317   3.589  1.00 20.00     0.137 C 
HETATM    2  O7  UNL     1     -33.585   5.736   2.628  1.00 20.00    -0.297 OA
ENDROOT
BRANCH   1   3
HETATM    3  C5  UNL     1     -33.656   6.226   4.990  1.00 20.00     0.083 C 
BRANCH   3   4
HETATM    4  C4  UNL     1     -34.839   5.317   5.097  1.00 20.00    -0.008 A 
HETATM    5  C2  UNL     1     -34.650   3.859   5.410  1.00 20.00     0.005 A 
HETATM    6  C3  UNL     1     -35.259   4.775   6.434  1.00 20.00     0.005 A 
ENDBRANCH   3   4
ENDBRANCH   1   3
BRANCH   1   7
HETATM    7  C6  UNL     1     -31.831   7.139   3.425  1.00 20.00     0.163 C 
HETATM    8 BR8  UNL     1     -32.129   8.309   1.914  1.00 20.00    -0.089 Br
ENDBRANCH   1   7
TORSDOF 3
ENDMDL
MODEL 2
REMARK VINA RESULT:      -4.4      2.385      4.133
REMARK  3 active torsions:
REMARK  status: ('A' for Active; 'I' for Inactive)
REMARK    1  A    between atoms: C1_1  and  C5_5 
REMARK    2  A    between atoms: C1_1  and  C6_6 
REMARK    3  A    between atoms: C4_4  and  C5_5 
ROOT
HETATM    1  C1  UNL     1     -34.445   5.443   3.524  1.00 20.00     0.137 C 
HETATM    2  O7  UNL     1     -34.421   5.051   2.357  1.00 20.00    -0.297 OA
ENDROOT
BRANCH   1   3
HETATM    3  C5  UNL     1     -33.542   6.552   4.030  1.00 20.00     0.083 C 
BRANCH   3   4
HETATM    4  C4  UNL     1     -32.287   6.717   3.233  1.00 20.00    -0.008 A 
HETATM    5  C2  UNL     1     -32.106   7.913   2.341  1.00 20.00     0.005 A 
HETATM    6  C3  UNL     1     -31.293   7.783   3.598  1.00 20.00     0.005 A 
ENDBRANCH   3   4
ENDBRANCH   1   3
BRANCH   1   7
HETATM    7  C6  UNL     1     -35.407   4.850   4.518  1.00 20.00     0.163 C 
HETATM    8 BR8  UNL     1     -34.638   5.125   6.270  1.00 20.00    -0.089 Br
ENDBRANCH   1   7
TORSDOF 3
ENDMDL
MODEL 3
REMARK VINA RESULT:      -4.2      1.623      2.082
REMARK  3 active torsions:
REMARK  status: ('A' for Active; 'I' for Inactive)
REMARK    1  A    between atoms: C1_1  and  C5_5 
REMARK    2  A    between atoms: C1_1  and  C6_6 
REMARK    3  A    between atoms: C4_4  and  C5_5 
ROOT
HETATM    1  C1  UNL     1     -31.980   7.366   3.018  1.00 20.00     0.137 C 
HETATM    2  O7  UNL     1     -31.379   7.874   3.965  1.00 20.00    -0.297 OA
ENDROOT
BRANCH   1   3
HETATM    3  C5  UNL     1     -32.840   6.126   3.170  1.00 20.00     0.083 C 
BRANCH   3   4
HETATM    4  C4  UNL     1     -34.076   6.347   3.982  1.00 20.00    -0.008 A 
HETATM    5  C2  UNL     1     -35.212   5.364   3.918  1.00 20.00     0.005 A 
HETATM    6  C3  UNL     1     -34.375   5.465   5.162  1.00 20.00     0.005 A 
ENDBRANCH   3   4
ENDBRANCH   1   3
BRANCH   1   7
HETATM    7  C6  UNL     1     -31.911   7.976   1.644  1.00 20.00     0.163 C 
HETATM    8 BR8  UNL     1     -32.624   9.767   1.794  1.00 20.00    -0.089 Br
ENDBRANCH   1   7
TORSDOF 3
ENDMDL
MODEL 4
REMARK VINA RESULT:      -4.2      2.802      4.192
REMARK  3 active torsions:
REMARK  status: ('A' for Active; 'I' for Inactive)
REMARK    1  A    between atoms: C1_1  and  C5_5 
REMARK    2  A    between atoms: C1_1  and  C6_6 
REMARK    3  A    between atoms: C4_4  and  C5_5 
ROOT
HETATM    1  C1  UNL     1     -33.966   6.404   5.991  1.00 20.00     0.137 C 
HETATM    2  O7  UNL     1     -33.390   7.173   6.760  1.00 20.00    -0.297 OA
ENDROOT
BRANCH   1   3
HETATM    3  C5  UNL     1     -33.942   6.587   4.485  1.00 20.00     0.083 C 
BRANCH   3   4
HETATM    4  C4  UNL     1     -32.563   6.684   3.913  1.00 20.00    -0.008 A 
HETATM    5  C2  UNL     1     -32.217   5.962   2.641  1.00 20.00     0.005 A 
HETATM    6  C3  UNL     1     -32.321   7.461   2.650  1.00 20.00     0.005 A 
ENDBRANCH   3   4
ENDBRANCH   1   3
BRANCH   1   7
HETATM    7  C6  UNL     1     -34.715   5.208   6.514  1.00 20.00     0.163 C 
HETATM    8 BR8  UNL     1     -35.073   4.067   4.994  1.00 20.00    -0.089 Br
ENDBRANCH   1   7
TORSDOF 3
ENDMDL
MODEL 5
REMARK VINA RESULT:      -4.1      2.564      4.680
REMARK  3 active torsions:
REMARK  status: ('A' for Active; 'I' for Inactive)
REMARK    1  A    between atoms: C1_1  and  C5_5 
REMARK    2  A    between atoms: C1_1  and  C6_6 
REMARK    3  A    between atoms: C4_4  and  C5_5 
ROOT
HETATM    1  C1  UNL     1     -33.333   6.272   3.531  1.00 20.00     0.137 C 
HETATM    2  O7  UNL     1     -33.872   5.478   2.760  1.00 20.00    -0.297 OA
ENDROOT
BRANCH   1   3
HETATM    3  C5  UNL     1     -32.262   7.247   3.078  1.00 20.00     0.083 C 
BRANCH   3   4
HETATM    4  C4  UNL     1     -32.645   8.045   1.873  1.00 20.00    -0.008 A 
HETATM    5  C2  UNL     1     -32.457   9.537   1.860  1.00 20.00     0.005 A 
HETATM    6  C3  UNL     1     -31.585   8.662   1.005  1.00 20.00     0.005 A 
ENDBRANCH   3   4
ENDBRANCH   1   3
BRANCH   1   7
HETATM    7  C6  UNL     1     -33.736   6.336   4.979  1.00 20.00     0.163 C 
HETATM    8 BR8  UNL     1     -34.883   4.814   5.306  1.00 20.00    -0.089 Br
ENDBRANCH   1   7
TORSDOF 3
ENDMDL
MODEL 6
REMARK VINA RESULT:      -4.0     11.760     12.431
REMARK  3 active torsions:
REMARK  status: ('A' for Active; 'I' for Inactive)
REMARK    1  A    between atoms: C1_1  and  C5_5 
REMARK    2  A    between atoms: C1_1  and  C6_6 
REMARK    3  A    between atoms: C4_4  and  C5_5 
ROOT
HETATM    1  C1  UNL     1     -35.015  13.780  -4.335  1.00 20.00     0.137 C 
HETATM    2  O7  UNL     1     -35.040  12.557  -4.473  1.00 20.00    -0.297 OA
ENDROOT
BRANCH   1   3
HETATM    3  C5  UNL     1     -34.243  14.458  -3.219  1.00 20.00     0.083 C 
BRANCH   3   4
HETATM    4  C4  UNL     1     -34.814  15.778  -2.808  1.00 20.00    -0.008 A 
HETATM    5  C2  UNL     1     -34.590  16.302  -1.417  1.00 20.00     0.005 A 
HETATM    6  C3  UNL     1     -33.910  16.958  -2.586  1.00 20.00     0.005 A 
ENDBRANCH   3   4
ENDBRANCH   1   3
BRANCH   1   7
HETATM    7  C6  UNL     1     -35.739  14.681  -5.300  1.00 20.00     0.163 C 
HETATM    8 BR8  UNL     1     -34.453  15.203  -6.646  1.00 20.00    -0.089 Br
ENDBRANCH   1   7
TORSDOF 3
ENDMDL
MODEL 7
REMARK VINA RESULT:      -4.0     12.056     12.408
REMARK  3 active torsions:
REMARK  status: ('A' for Active; 'I' for Inactive)
REMARK    1  A    between atoms: C1_1  and  C5_5 
REMARK    2  A    between atoms: C1_1  and  C6_6 
REMARK    3  A    between atoms: C4_4  and  C5_5 
ROOT
HETATM    1  C1  UNL     1     -36.446  14.551  -3.782  1.00 20.00     0.137 C 
HETATM    2  O7  UNL     1     -37.627  14.208  -3.840  1.00 20.00    -0.297 OA
ENDROOT
BRANCH   1   3
HETATM    3  C5  UNL     1     -36.004  15.842  -3.119  1.00 20.00     0.083 C 
BRANCH   3   4
HETATM    4  C4  UNL     1     -34.816  15.683  -2.225  1.00 20.00    -0.008 A 
HETATM    5  C2  UNL     1     -33.727  16.720  -2.218  1.00 20.00     0.005 A 
HETATM    6  C3  UNL     1     -34.640  16.581  -1.033  1.00 20.00     0.005 A 
ENDBRANCH   3   4
ENDBRANCH   1   3
BRANCH   1   7
HETATM    7  C6  UNL     1     -35.360  13.680  -4.353  1.00 20.00     0.163 C 
HETATM    8 BR8  UNL     1     -34.730  14.555  -5.958  1.00 20.00    -0.089 Br
ENDBRANCH   1   7
TORSDOF 3
ENDMDL
MODEL 8
REMARK VINA RESULT:      -3.9     12.233     12.746
REMARK  3 active torsions:
REMARK  status: ('A' for Active; 'I' for Inactive)
REMARK    1  A    between atoms: C1_1  and  C5_5 
REMARK    2  A    between atoms: C1_1  and  C6_6 
REMARK    3  A    between atoms: C4_4  and  C5_5 
ROOT
HETATM    1  C1  UNL     1     -33.293  16.150  -4.068  1.00 20.00     0.137 C 
HETATM    2  O7  UNL     1     -32.926  16.605  -5.152  1.00 20.00    -0.297 OA
ENDROOT
BRANCH   1   3
HETATM    3  C5  UNL     1     -34.119  16.956  -3.084  1.00 20.00     0.083 C 
BRANCH   3   4
HETATM    4  C4  UNL     1     -33.799  16.667  -1.652  1.00 20.00    -0.008 A 
HETATM    5  C2  UNL     1     -33.598  17.794  -0.677  1.00 20.00     0.005 A 
HETATM    6  C3  UNL     1     -34.821  16.926  -0.581  1.00 20.00     0.005 A 
ENDBRANCH   3   4
ENDBRANCH   1   3
BRANCH   1   7
HETATM    7  C6  UNL     1     -32.958  14.737  -3.671  1.00 20.00     0.163 C 
HETATM    8 BR8  UNL     1     -34.505  13.658  -4.098  1.00 20.00    -0.089 Br
ENDBRANCH   1   7
TORSDOF 3
ENDMDL
MODEL 9
REMARK VINA RESULT:      -3.8     12.189     12.802
REMARK  3 active torsions:
REMARK  status: ('A' for Active; 'I' for Inactive)
REMARK    1  A    between atoms: C1_1  and  C5_5 
REMARK    2  A    between atoms: C1_1  and  C6_6 
REMARK    3  A    between atoms: C4_4  and  C5_5 
ROOT
HETATM    1  C1  UNL     1     -33.612  15.834  -4.447  1.00 20.00     0.137 C 
HETATM    2  O7  UNL     1     -32.887  16.721  -4.898  1.00 20.00    -0.297 OA
ENDROOT
BRANCH   1   3
HETATM    3  C5  UNL     1     -33.763  15.584  -2.958  1.00 20.00     0.083 C 
BRANCH   3   4
HETATM    4  C4  UNL     1     -34.409  16.713  -2.221  1.00 20.00    -0.008 A 
HETATM    5  C2  UNL     1     -34.663  16.607  -0.743  1.00 20.00     0.005 A 
HETATM    6  C3  UNL     1     -33.609  17.546  -1.260  1.00 20.00     0.005 A 
ENDBRANCH   3   4
ENDBRANCH   1   3
BRANCH   1   7
HETATM    7  C6  UNL     1     -34.421  14.957  -5.365  1.00 20.00     0.163 C 
HETATM    8 BR8  UNL     1     -34.962  13.417  -4.328  1.00 20.00    -0.089 Br
ENDBRANCH   1   7
TORSDOF 3
ENDMDL
