MODEL 1
REMARK VINA RESULT:      -4.6      0.000      0.000
REMARK  2 active torsions:
REMARK  status: ('A' for Active; 'I' for Inactive)
REMARK    1  A    between atoms: C5_5  and  O12_12 
REMARK    2  A    between atoms: C6_6  and  C11_11 
ROOT
HETATM    1  C1  UNL     1     -33.904  17.640  -5.035  1.00 20.00    -0.021 C 
HETATM    2  C2  UNL     1     -33.989  16.355  -5.422  1.00 20.00    -0.059 C 
HETATM    3  C3  UNL     1     -33.777  18.076  -3.605  1.00 20.00     0.032 C 
HETATM    4  C4  UNL     1     -33.436  15.647  -3.037  1.00 20.00     0.042 C 
HETATM    5  C5  UNL     1     -33.920  15.218  -4.429  1.00 20.00     0.149 C 
HETATM    6  C6  UNL     1     -34.098  16.960  -2.598  1.00 20.00    -0.005 C 
HETATM    7  C7  UNL     1     -34.133  15.980  -6.869  1.00 20.00     0.046 C 
ENDROOT
BRANCH   6   8
HETATM    8  C11 UNL     1     -33.655  17.357  -1.192  1.00 20.00    -0.018 C 
HETATM    9  C8  UNL     1     -33.242  18.827  -1.155  1.00 20.00     0.010 C 
HETATM   10  C9  UNL     1     -34.769  17.088  -0.183  1.00 20.00     0.010 C 
ENDBRANCH   6   8
BRANCH   5  11
HETATM   11  O12 UNL     1     -35.215  14.633  -4.292  1.00 20.00    -0.386 OA
HETATM   12  C10 UNL     1     -35.154  13.218  -4.378  1.00 20.00     0.202 C 
ENDBRANCH   5  11
TORSDOF 2
ENDMDL
MODEL 2
REMARK VINA RESULT:      -4.6      1.656      4.522
REMARK  2 active torsions:
REMARK  status: ('A' for Active; 'I' for Inactive)
REMARK    1  A    between atoms: C5_5  and  O12_12 
REMARK    2  A    between atoms: C6_6  and  C11_11 
ROOT
HETATM    1  C1  UNL     1     -33.443  16.068  -3.156  1.00 20.00    -0.021 C 
HETATM    2  C2  UNL     1     -34.652  16.188  -2.581  1.00 20.00    -0.059 C 
HETATM    3  C3  UNL     1     -33.234  15.825  -4.622  1.00 20.00     0.032 C 
HETATM    4  C4  UNL     1     -35.702  16.242  -4.902  1.00 20.00     0.042 C 
HETATM    5  C5  UNL     1     -35.928  16.130  -3.389  1.00 20.00     0.149 C 
HETATM    6  C6  UNL     1     -34.513  15.383  -5.353  1.00 20.00    -0.005 C 
HETATM    7  C7  UNL     1     -34.798  16.412  -1.103  1.00 20.00     0.046 C 
ENDROOT
BRANCH   6   8
HETATM    8  C11 UNL     1     -34.322  15.456  -6.866  1.00 20.00    -0.018 C 
HETATM    9  C8  UNL     1     -35.281  14.501  -7.573  1.00 20.00     0.010 C 
HETATM   10  C9  UNL     1     -34.525  16.885  -7.365  1.00 20.00     0.010 C 
ENDBRANCH   6   8
BRANCH   5  11
HETATM   11  O12 UNL     1     -36.595  14.894  -3.126  1.00 20.00    -0.386 OA
HETATM   12  C10 UNL     1     -37.816  14.805  -3.844  1.00 20.00     0.202 C 
ENDBRANCH   5  11
TORSDOF 2
ENDMDL
MODEL 3
REMARK VINA RESULT:      -4.5      1.578      1.712
REMARK  2 active torsions:
REMARK  status: ('A' for Active; 'I' for Inactive)
REMARK    1  A    between atoms: C5_5  and  O12_12 
REMARK    2  A    between atoms: C6_6  and  C11_11 
ROOT
HETATM    1  C1  UNL     1     -33.734  15.896  -5.632  1.00 20.00    -0.021 C 
HETATM    2  C2  UNL     1     -34.806  15.089  -5.723  1.00 20.00    -0.059 C 
HETATM    3  C3  UNL     1     -33.304  16.577  -4.366  1.00 20.00     0.032 C 
HETATM    4  C4  UNL     1     -35.019  15.161  -3.185  1.00 20.00     0.042 C 
HETATM    5  C5  UNL     1     -35.660  14.761  -4.520  1.00 20.00     0.149 C 
HETATM    6  C6  UNL     1     -34.380  16.554  -3.268  1.00 20.00    -0.005 C 
HETATM    7  C7  UNL     1     -35.197  14.449  -7.024  1.00 20.00     0.046 C 
ENDROOT
BRANCH   6   8
HETATM    8  C11 UNL     1     -33.789  16.971  -1.924  1.00 20.00    -0.018 C 
HETATM    9  C8  UNL     1     -33.519  18.473  -1.899  1.00 20.00     0.010 C 
HETATM   10  C9  UNL     1     -34.722  16.575  -0.781  1.00 20.00     0.010 C 
ENDBRANCH   6   8
BRANCH   5  11
HETATM   11  O12 UNL     1     -36.913  15.437  -4.635  1.00 20.00    -0.386 OA
HETATM   12  C10 UNL     1     -37.916  14.799  -3.859  1.00 20.00     0.202 C 
ENDBRANCH   5  11
TORSDOF 2
ENDMDL
MODEL 4
REMARK VINA RESULT:      -4.4      1.662      4.661
REMARK  2 active torsions:
REMARK  status: ('A' for Active; 'I' for Inactive)
REMARK    1  A    between atoms: C5_5  and  O12_12 
REMARK    2  A    between atoms: C6_6  and  C11_11 
ROOT
HETATM    1  C1  UNL     1     -34.777  15.898  -1.921  1.00 20.00    -0.021 C 
HETATM    2  C2  UNL     1     -34.038  17.012  -2.072  1.00 20.00    -0.059 C 
HETATM    3  C3  UNL     1     -35.203  15.017  -3.059  1.00 20.00     0.032 C 
HETATM    4  C4  UNL     1     -33.658  16.376  -4.510  1.00 20.00     0.042 C 
HETATM    5  C5  UNL     1     -33.528  17.453  -3.425  1.00 20.00     0.149 C 
HETATM    6  C6  UNL     1     -35.020  15.672  -4.437  1.00 20.00    -0.005 C 
HETATM    7  C7  UNL     1     -33.657  17.865  -0.896  1.00 20.00     0.046 C 
ENDROOT
BRANCH   6   8
HETATM    8  C11 UNL     1     -35.166  14.638  -5.551  1.00 20.00    -0.018 C 
HETATM    9  C8  UNL     1     -34.355  15.052  -6.777  1.00 20.00     0.010 C 
HETATM   10  C9  UNL     1     -34.734  13.258  -5.062  1.00 20.00     0.010 C 
ENDBRANCH   6   8
BRANCH   5  11
HETATM   11  O12 UNL     1     -34.257  18.605  -3.849  1.00 20.00    -0.386 OA
HETATM   12  C10 UNL     1     -33.655  19.206  -4.985  1.00 20.00     0.202 C 
ENDBRANCH   5  11
TORSDOF 2
ENDMDL
MODEL 5
REMARK VINA RESULT:      -4.4      1.467      2.634
REMARK  2 active torsions:
REMARK  status: ('A' for Active; 'I' for Inactive)
REMARK    1  A    between atoms: C5_5  and  O12_12 
REMARK    2  A    between atoms: C6_6  and  C11_11 
ROOT
HETATM    1  C1  UNL     1     -34.451  14.353  -4.307  1.00 20.00    -0.021 C 
HETATM    2  C2  UNL     1     -34.787  15.073  -5.393  1.00 20.00    -0.059 C 
HETATM    3  C3  UNL     1     -34.049  14.957  -2.994  1.00 20.00     0.032 C 
HETATM    4  C4  UNL     1     -34.773  17.172  -3.949  1.00 20.00     0.042 C 
HETATM    5  C5  UNL     1     -34.830  16.583  -5.364  1.00 20.00     0.149 C 
HETATM    6  C6  UNL     1     -33.722  16.456  -3.089  1.00 20.00    -0.005 C 
HETATM    7  C7  UNL     1     -35.163  14.411  -6.687  1.00 20.00     0.046 C 
ENDROOT
BRANCH   6   8
HETATM    8  C11 UNL     1     -33.630  17.078  -1.698  1.00 20.00    -0.018 C 
HETATM    9  C8  UNL     1     -33.644  18.603  -1.791  1.00 20.00     0.010 C 
HETATM   10  C9  UNL     1     -34.771  16.584  -0.812  1.00 20.00     0.010 C 
ENDBRANCH   6   8
BRANCH   5  11
HETATM   11  O12 UNL     1     -33.727  17.099  -6.109  1.00 20.00    -0.386 OA
HETATM   12  C10 UNL     1     -33.787  18.514  -6.207  1.00 20.00     0.202 C 
ENDBRANCH   5  11
TORSDOF 2
ENDMDL
MODEL 6
REMARK VINA RESULT:      -4.3      1.519      1.665
REMARK  2 active torsions:
REMARK  status: ('A' for Active; 'I' for Inactive)
REMARK    1  A    between atoms: C5_5  and  O12_12 
REMARK    2  A    between atoms: C6_6  and  C11_11 
ROOT
HETATM    1  C1  UNL     1     -36.418  17.291  -3.696  1.00 20.00    -0.021 C 
HETATM    2  C2  UNL     1     -35.863  16.340  -4.469  1.00 20.00    -0.059 C 
HETATM    3  C3  UNL     1     -35.973  17.596  -2.297  1.00 20.00     0.032 C 
HETATM    4  C4  UNL     1     -34.021  16.066  -2.730  1.00 20.00     0.042 C 
HETATM    5  C5  UNL     1     -34.690  15.514  -3.996  1.00 20.00     0.149 C 
HETATM    6  C6  UNL     1     -35.064  16.511  -1.697  1.00 20.00    -0.005 C 
HETATM    7  C7  UNL     1     -36.365  16.068  -5.858  1.00 20.00     0.046 C 
ENDROOT
BRANCH   6   8
HETATM    8  C11 UNL     1     -34.396  17.011  -0.419  1.00 20.00    -0.018 C 
HETATM    9  C8  UNL     1     -33.273  17.991  -0.749  1.00 20.00     0.010 C 
HETATM   10  C9  UNL     1     -35.423  17.663   0.504  1.00 20.00     0.010 C 
ENDBRANCH   6   8
BRANCH   5  11
HETATM   11  O12 UNL     1     -35.132  14.183  -3.724  1.00 20.00    -0.386 OA
HETATM   12  C10 UNL     1     -34.470  13.241  -4.554  1.00 20.00     0.202 C 
ENDBRANCH   5  11
TORSDOF 2
ENDMDL
MODEL 7
REMARK VINA RESULT:      -4.3      1.210      4.260
REMARK  2 active torsions:
REMARK  status: ('A' for Active; 'I' for Inactive)
REMARK    1  A    between atoms: C5_5  and  O12_12 
REMARK    2  A    between atoms: C6_6  and  C11_11 
ROOT
HETATM    1  C1  UNL     1     -33.741  17.358  -3.524  1.00 20.00    -0.021 C 
HETATM    2  C2  UNL     1     -34.431  16.436  -2.829  1.00 20.00    -0.059 C 
HETATM    3  C3  UNL     1     -33.647  17.380  -5.021  1.00 20.00     0.032 C 
HETATM    4  C4  UNL     1     -35.416  15.587  -5.021  1.00 20.00     0.042 C 
HETATM    5  C5  UNL     1     -35.223  15.348  -3.517  1.00 20.00     0.149 C 
HETATM    6  C6  UNL     1     -34.116  16.072  -5.679  1.00 20.00    -0.005 C 
HETATM    7  C7  UNL     1     -34.474  16.455  -1.328  1.00 20.00     0.046 C 
ENDROOT
BRANCH   6   8
HETATM    8  C11 UNL     1     -34.296  16.259  -7.183  1.00 20.00    -0.018 C 
HETATM    9  C8  UNL     1     -34.957  15.028  -7.801  1.00 20.00     0.010 C 
HETATM   10  C9  UNL     1     -35.120  17.511  -7.474  1.00 20.00     0.010 C 
ENDBRANCH   6   8
BRANCH   5  11
HETATM   11  O12 UNL     1     -34.554  14.099  -3.345  1.00 20.00    -0.386 OA
HETATM   12  C10 UNL     1     -35.020  13.132  -4.272  1.00 20.00     0.202 C 
ENDBRANCH   5  11
TORSDOF 2
ENDMDL
MODEL 8
REMARK VINA RESULT:      -4.0      2.451      4.171
REMARK  2 active torsions:
REMARK  status: ('A' for Active; 'I' for Inactive)
REMARK    1  A    between atoms: C5_5  and  O12_12 
REMARK    2  A    between atoms: C6_6  and  C11_11 
ROOT
HETATM    1  C1  UNL     1     -35.463  17.160  -1.978  1.00 20.00    -0.021 C 
HETATM    2  C2  UNL     1     -36.611  17.351  -2.653  1.00 20.00    -0.059 C 
HETATM    3  C3  UNL     1     -34.529  16.012  -2.224  1.00 20.00     0.032 C 
HETATM    4  C4  UNL     1     -35.930  15.486  -4.250  1.00 20.00     0.042 C 
HETATM    5  C5  UNL     1     -37.041  16.428  -3.770  1.00 20.00     0.149 C 
HETATM    6  C6  UNL     1     -35.155  14.889  -3.067  1.00 20.00    -0.005 C 
HETATM    7  C7  UNL     1     -37.515  18.511  -2.349  1.00 20.00     0.046 C 
ENDROOT
BRANCH   6   8
HETATM    8  C11 UNL     1     -34.084  13.912  -3.545  1.00 20.00    -0.018 C 
HETATM    9  C8  UNL     1     -34.490  13.282  -4.876  1.00 20.00     0.010 C 
HETATM   10  C9  UNL     1     -32.735  14.615  -3.674  1.00 20.00     0.010 C 
ENDBRANCH   6   8
BRANCH   5  11
HETATM   11  O12 UNL     1     -38.141  15.633  -3.324  1.00 20.00    -0.386 OA
HETATM   12  C10 UNL     1     -38.625  14.796  -4.363  1.00 20.00     0.202 C 
ENDBRANCH   5  11
TORSDOF 2
ENDMDL
MODEL 9
REMARK VINA RESULT:      -3.9      2.649      4.390
REMARK  2 active torsions:
REMARK  status: ('A' for Active; 'I' for Inactive)
REMARK    1  A    between atoms: C5_5  and  O12_12 
REMARK    2  A    between atoms: C6_6  and  C11_11 
ROOT
HETATM    1  C1  UNL     1     -34.933  13.942  -4.128  1.00 20.00    -0.021 C 
HETATM    2  C2  UNL     1     -34.047  14.778  -3.557  1.00 20.00    -0.059 C 
HETATM    3  C3  UNL     1     -36.406  14.214  -4.209  1.00 20.00     0.032 C 
HETATM    4  C4  UNL     1     -35.885  16.533  -3.378  1.00 20.00     0.042 C 
HETATM    5  C5  UNL     1     -34.466  16.109  -2.976  1.00 20.00     0.149 C 
HETATM    6  C6  UNL     1     -36.866  15.356  -3.289  1.00 20.00    -0.005 C 
HETATM    7  C7  UNL     1     -32.584  14.443  -3.489  1.00 20.00     0.046 C 
ENDROOT
BRANCH   6   8
HETATM    8  C11 UNL     1     -38.286  15.793  -3.638  1.00 20.00    -0.018 C 
HETATM    9  C8  UNL     1     -38.261  17.019  -4.548  1.00 20.00     0.010 C 
HETATM   10  C9  UNL     1     -39.052  14.650  -4.300  1.00 20.00     0.010 C 
ENDBRANCH   6   8
BRANCH   5  11
HETATM   11  O12 UNL     1     -34.407  16.040  -1.551  1.00 20.00    -0.386 OA
HETATM   12  C10 UNL     1     -33.983  17.274  -0.993  1.00 20.00     0.202 C 
ENDBRANCH   5  11
TORSDOF 2
ENDMDL
