MODEL 1
REMARK VINA RESULT:      -5.0      0.000      0.000
REMARK  0 active torsions:
REMARK  status: ('A' for Active; 'I' for Inactive)
ROOT
HETATM    1  C1  UNL     1     -34.666  13.694  -4.688  1.00 20.00     0.145 C 
HETATM    2  C2  UNL     1     -34.145  14.151  -3.342  1.00 20.00     0.089 C 
HETATM    3  C3  UNL     1     -34.700  16.387  -1.351  1.00 20.00     0.002 C 
HETATM    4  C4  UNL     1     -33.560  16.532  -2.378  1.00 20.00     0.010 C 
HETATM    5  C5  UNL     1     -35.651  16.122  -2.535  1.00 20.00     0.010 C 
HETATM    6  C6  UNL     1     -34.412  16.052  -4.831  1.00 20.00     0.037 C 
HETATM    7  C7  UNL     1     -35.102  14.874  -5.524  1.00 20.00     0.152 C 
HETATM    8  C8  UNL     1     -34.403  15.663  -3.351  1.00 20.00    -0.032 C 
HETATM    9  O9  UNL     1     -34.732  12.520  -5.029  1.00 20.00    -0.296 OA
HETATM   10 CL10 UNL     1     -34.574  14.676  -7.192  1.00 20.00    -0.117 Cl
ENDROOT
TORSDOF 0
ENDMDL
MODEL 2
REMARK VINA RESULT:      -4.6      2.298      3.886
REMARK  0 active torsions:
REMARK  status: ('A' for Active; 'I' for Inactive)
ROOT
HETATM    1  C1  UNL     1     -33.752  14.030  -4.096  1.00 20.00     0.145 C 
HETATM    2  C2  UNL     1     -34.713  13.576  -5.173  1.00 20.00     0.089 C 
HETATM    3  C3  UNL     1     -35.634  14.519  -7.918  1.00 20.00     0.002 C 
HETATM    4  C4  UNL     1     -36.456  14.873  -6.663  1.00 20.00     0.010 C 
HETATM    5  C5  UNL     1     -34.414  15.158  -7.225  1.00 20.00     0.010 C 
HETATM    6  C6  UNL     1     -34.938  15.966  -4.799  1.00 20.00     0.037 C 
HETATM    7  C7  UNL     1     -33.675  15.538  -4.046  1.00 20.00     0.152 C 
HETATM    8  C8  UNL     1     -35.124  14.882  -5.863  1.00 20.00    -0.032 C 
HETATM    9  O9  UNL     1     -33.119  13.264  -3.381  1.00 20.00    -0.296 OA
HETATM   10 CL10 UNL     1     -33.667  16.101  -2.378  1.00 20.00    -0.117 Cl
ENDROOT
TORSDOF 0
ENDMDL
MODEL 3
REMARK VINA RESULT:      -4.4      1.315      1.495
REMARK  0 active torsions:
REMARK  status: ('A' for Active; 'I' for Inactive)
ROOT
HETATM    1  C1  UNL     1     -34.035  14.318  -3.869  1.00 20.00     0.145 C 
HETATM    2  C2  UNL     1     -33.216  15.358  -3.134  1.00 20.00     0.089 C 
HETATM    3  C3  UNL     1     -33.663  17.482  -0.999  1.00 20.00     0.002 C 
HETATM    4  C4  UNL     1     -33.695  17.867  -2.491  1.00 20.00     0.010 C 
HETATM    5  C5  UNL     1     -34.744  16.427  -1.310  1.00 20.00     0.010 C 
HETATM    6  C6  UNL     1     -35.336  16.306  -3.850  1.00 20.00     0.037 C 
HETATM    7  C7  UNL     1     -35.453  14.796  -4.073  1.00 20.00     0.152 C 
HETATM    8  C8  UNL     1     -34.242  16.444  -2.788  1.00 20.00    -0.032 C 
HETATM    9  O9  UNL     1     -33.594  13.234  -4.229  1.00 20.00    -0.296 OA
HETATM   10 CL10 UNL     1     -36.011  14.401  -5.695  1.00 20.00    -0.117 Cl
ENDROOT
TORSDOF 0
ENDMDL
MODEL 4
REMARK VINA RESULT:      -4.4      3.065      4.003
REMARK  0 active torsions:
REMARK  status: ('A' for Active; 'I' for Inactive)
ROOT
HETATM    1  C1  UNL     1     -33.606  17.528  -4.376  1.00 20.00     0.145 C 
HETATM    2  C2  UNL     1     -33.372  16.124  -4.894  1.00 20.00     0.089 C 
HETATM    3  C3  UNL     1     -34.619  13.365  -4.574  1.00 20.00     0.002 C 
HETATM    4  C4  UNL     1     -33.403  13.768  -3.717  1.00 20.00     0.010 C 
HETATM    5  C5  UNL     1     -35.332  14.627  -4.047  1.00 20.00     0.010 C 
HETATM    6  C6  UNL     1     -33.808  16.078  -2.503  1.00 20.00     0.037 C 
HETATM    7  C7  UNL     1     -34.152  17.496  -2.968  1.00 20.00     0.152 C 
HETATM    8  C8  UNL     1     -33.920  15.232  -3.773  1.00 20.00    -0.032 C 
HETATM    9  O9  UNL     1     -33.393  18.539  -5.031  1.00 20.00    -0.296 OA
HETATM   10 CL10 UNL     1     -33.376  18.730  -1.979  1.00 20.00    -0.117 Cl
ENDROOT
TORSDOF 0
ENDMDL
MODEL 5
REMARK VINA RESULT:      -4.2      1.944      2.685
REMARK  0 active torsions:
REMARK  status: ('A' for Active; 'I' for Inactive)
ROOT
HETATM    1  C1  UNL     1     -33.479  16.046  -3.901  1.00 20.00     0.145 C 
HETATM    2  C2  UNL     1     -34.016  17.290  -3.227  1.00 20.00     0.089 C 
HETATM    3  C3  UNL     1     -35.210  18.059  -0.533  1.00 20.00     0.002 C 
HETATM    4  C4  UNL     1     -36.134  17.722  -1.720  1.00 20.00     0.010 C 
HETATM    5  C5  UNL     1     -34.539  16.687  -0.744  1.00 20.00     0.010 C 
HETATM    6  C6  UNL     1     -35.489  15.403  -2.808  1.00 20.00     0.037 C 
HETATM    7  C7  UNL     1     -34.216  14.816  -3.425  1.00 20.00     0.152 C 
HETATM    8  C8  UNL     1     -35.037  16.742  -2.222  1.00 20.00    -0.032 C 
HETATM    9  O9  UNL     1     -32.559  16.052  -4.708  1.00 20.00    -0.296 OA
HETATM   10 CL10 UNL     1     -34.563  13.743  -4.778  1.00 20.00    -0.117 Cl
ENDROOT
TORSDOF 0
ENDMDL
MODEL 6
REMARK VINA RESULT:      -4.2      2.924      4.051
REMARK  0 active torsions:
REMARK  status: ('A' for Active; 'I' for Inactive)
ROOT
HETATM    1  C1  UNL     1     -34.563  16.347  -1.629  1.00 20.00     0.145 C 
HETATM    2  C2  UNL     1     -35.254  15.301  -2.478  1.00 20.00     0.089 C 
HETATM    3  C3  UNL     1     -34.505  13.307  -4.653  1.00 20.00     0.002 C 
HETATM    4  C4  UNL     1     -35.078  14.686  -5.033  1.00 20.00     0.010 C 
HETATM    5  C5  UNL     1     -33.421  14.048  -3.844  1.00 20.00     0.010 C 
HETATM    6  C6  UNL     1     -33.753  16.637  -3.844  1.00 20.00     0.037 C 
HETATM    7  C7  UNL     1     -33.430  16.994  -2.390  1.00 20.00     0.152 C 
HETATM    8  C8  UNL     1     -34.405  15.255  -3.753  1.00 20.00    -0.032 C 
HETATM    9  O9  UNL     1     -34.883  16.608  -0.477  1.00 20.00    -0.296 OA
HETATM   10 CL10 UNL     1     -33.416  18.733  -2.116  1.00 20.00    -0.117 Cl
ENDROOT
TORSDOF 0
ENDMDL
MODEL 7
REMARK VINA RESULT:      -4.1      2.666      4.229
REMARK  0 active torsions:
REMARK  status: ('A' for Active; 'I' for Inactive)
ROOT
HETATM    1  C1  UNL     1     -33.674  15.776  -5.076  1.00 20.00     0.145 C 
HETATM    2  C2  UNL     1     -34.284  15.946  -6.451  1.00 20.00     0.089 C 
HETATM    3  C3  UNL     1     -36.957  15.426  -7.812  1.00 20.00     0.002 C 
HETATM    4  C4  UNL     1     -35.822  14.390  -7.918  1.00 20.00     0.010 C 
HETATM    5  C5  UNL     1     -36.814  15.337  -6.280  1.00 20.00     0.010 C 
HETATM    6  C6  UNL     1     -34.863  13.771  -5.536  1.00 20.00     0.037 C 
HETATM    7  C7  UNL     1     -34.247  14.564  -4.380  1.00 20.00     0.152 C 
HETATM    8  C8  UNL     1     -35.351  14.846  -6.509  1.00 20.00    -0.032 C 
HETATM    9  O9  UNL     1     -32.842  16.538  -4.601  1.00 20.00    -0.296 OA
HETATM   10 CL10 UNL     1     -32.975  13.667  -3.556  1.00 20.00    -0.117 Cl
ENDROOT
TORSDOF 0
ENDMDL
MODEL 8
REMARK VINA RESULT:      -4.1      1.714      2.276
REMARK  0 active torsions:
REMARK  status: ('A' for Active; 'I' for Inactive)
ROOT
HETATM    1  C1  UNL     1     -35.919  15.534  -4.428  1.00 20.00     0.145 C 
HETATM    2  C2  UNL     1     -36.075  16.346  -3.160  1.00 20.00     0.089 C 
HETATM    3  C3  UNL     1     -34.301  17.951  -1.277  1.00 20.00     0.002 C 
HETATM    4  C4  UNL     1     -34.646  16.485  -0.951  1.00 20.00     0.010 C 
HETATM    5  C5  UNL     1     -33.776  17.461  -2.641  1.00 20.00     0.010 C 
HETATM    6  C6  UNL     1     -34.129  14.900  -3.000  1.00 20.00     0.037 C 
HETATM    7  C7  UNL     1     -34.574  14.847  -4.464  1.00 20.00     0.152 C 
HETATM    8  C8  UNL     1     -34.706  16.219  -2.481  1.00 20.00    -0.032 C 
HETATM    9  O9  UNL     1     -36.772  15.469  -5.304  1.00 20.00    -0.296 OA
HETATM   10 CL10 UNL     1     -34.741  13.196  -5.053  1.00 20.00    -0.117 Cl
ENDROOT
TORSDOF 0
ENDMDL
MODEL 9
REMARK VINA RESULT:      -4.1      3.088      4.202
REMARK  0 active torsions:
REMARK  status: ('A' for Active; 'I' for Inactive)
ROOT
HETATM    1  C1  UNL     1     -35.762  16.852  -2.489  1.00 20.00     0.145 C 
HETATM    2  C2  UNL     1     -35.798  16.391  -3.930  1.00 20.00     0.089 C 
HETATM    3  C3  UNL     1     -35.067  13.900  -5.520  1.00 20.00     0.002 C 
HETATM    4  C4  UNL     1     -34.071  15.072  -5.418  1.00 20.00     0.010 C 
HETATM    5  C5  UNL     1     -35.105  13.878  -3.979  1.00 20.00     0.010 C 
HETATM    6  C6  UNL     1     -33.681  15.783  -2.905  1.00 20.00     0.037 C 
HETATM    7  C7  UNL     1     -34.587  16.244  -1.760  1.00 20.00     0.152 C 
HETATM    8  C8  UNL     1     -34.656  15.372  -4.010  1.00 20.00    -0.032 C 
HETATM    9  O9  UNL     1     -36.591  17.604  -1.993  1.00 20.00    -0.296 OA
HETATM   10 CL10 UNL     1     -33.809  17.446  -0.734  1.00 20.00    -0.117 Cl
ENDROOT
TORSDOF 0
ENDMDL
