MODEL 1
REMARK VINA RESULT:      -5.4      0.000      0.000
REMARK  0 active torsions:
REMARK  status: ('A' for Active; 'I' for Inactive)
ROOT
HETATM    1  C1  UNL     1     -32.916   6.960   4.496  1.00 20.00     0.086 C 
HETATM    2  C2  UNL     1     -33.880   6.161   4.964  1.00 20.00    -0.064 C 
HETATM    3  C3  UNL     1     -32.651   7.008   3.044  1.00 20.00     0.283 C 
HETATM    4  C4  UNL     1     -34.204   5.924   6.409  1.00 20.00     0.035 C 
HETATM    5  C5  UNL     1     -35.217   4.778   6.371  1.00 20.00     0.005 C 
HETATM    6  C6  UNL     1     -34.989   4.090   5.025  1.00 20.00     0.016 C 
HETATM    7  C7  UNL     1     -33.744   4.833   2.922  1.00 20.00     0.192 C 
HETATM    8  C8  UNL     1     -34.659   5.241   4.069  1.00 20.00     0.002 C 
HETATM    9  C9  UNL     1     -35.931   5.927   3.546  1.00 20.00     0.022 C 
HETATM   10  O10 UNL     1     -31.987   7.916   2.558  1.00 20.00    -0.260 OA
HETATM   11  O11 UNL     1     -33.180   6.006   2.286  1.00 20.00    -0.317 OA
ENDROOT
TORSDOF 0
ENDMDL
MODEL 2
REMARK VINA RESULT:      -4.9     11.309     12.505
REMARK  0 active torsions:
REMARK  status: ('A' for Active; 'I' for Inactive)
ROOT
HETATM    1  C1  UNL     1     -34.908  13.925  -3.814  1.00 20.00     0.086 C 
HETATM    2  C2  UNL     1     -35.588  15.021  -3.465  1.00 20.00    -0.064 C 
HETATM    3  C3  UNL     1     -33.435  13.920  -3.711  1.00 20.00     0.283 C 
HETATM    4  C4  UNL     1     -37.068  15.221  -3.606  1.00 20.00     0.035 C 
HETATM    5  C5  UNL     1     -37.267  16.701  -3.272  1.00 20.00     0.005 C 
HETATM    6  C6  UNL     1     -35.903  17.350  -3.509  1.00 20.00     0.016 C 
HETATM    7  C7  UNL     1     -33.568  16.352  -3.779  1.00 20.00     0.192 C 
HETATM    8  C8  UNL     1     -34.901  16.288  -3.045  1.00 20.00     0.002 C 
HETATM    9  C9  UNL     1     -34.697  16.326  -1.522  1.00 20.00     0.022 C 
HETATM   10  O10 UNL     1     -32.808  12.867  -3.748  1.00 20.00    -0.260 OA
HETATM   11  O11 UNL     1     -32.820  15.128  -3.573  1.00 20.00    -0.317 OA
ENDROOT
TORSDOF 0
ENDMDL
MODEL 3
REMARK VINA RESULT:      -4.8     11.428     13.111
REMARK  0 active torsions:
REMARK  status: ('A' for Active; 'I' for Inactive)
ROOT
HETATM    1  C1  UNL     1     -34.526  14.312  -3.299  1.00 20.00     0.086 C 
HETATM    2  C2  UNL     1     -34.346  15.633  -3.203  1.00 20.00    -0.064 C 
HETATM    3  C3  UNL     1     -34.913  13.723  -4.597  1.00 20.00     0.283 C 
HETATM    4  C4  UNL     1     -34.054  16.394  -1.944  1.00 20.00     0.035 C 
HETATM    5  C5  UNL     1     -34.165  17.858  -2.370  1.00 20.00     0.005 C 
HETATM    6  C6  UNL     1     -35.027  17.841  -3.633  1.00 20.00     0.016 C 
HETATM    7  C7  UNL     1     -35.708  15.945  -5.203  1.00 20.00     0.192 C 
HETATM    8  C8  UNL     1     -34.600  16.560  -4.357  1.00 20.00     0.002 C 
HETATM    9  C9  UNL     1     -33.323  16.773  -5.185  1.00 20.00     0.022 C 
HETATM   10  O10 UNL     1     -34.812  12.517  -4.792  1.00 20.00    -0.260 OA
HETATM   11  O11 UNL     1     -35.376  14.578  -5.551  1.00 20.00    -0.317 OA
ENDROOT
TORSDOF 0
ENDMDL
MODEL 4
REMARK VINA RESULT:      -4.8     11.587     13.118
REMARK  0 active torsions:
REMARK  status: ('A' for Active; 'I' for Inactive)
ROOT
HETATM    1  C1  UNL     1     -35.481  14.787  -4.751  1.00 20.00     0.086 C 
HETATM    2  C2  UNL     1     -35.236  16.006  -4.261  1.00 20.00    -0.064 C 
HETATM    3  C3  UNL     1     -34.661  13.644  -4.304  1.00 20.00     0.283 C 
HETATM    4  C4  UNL     1     -35.907  17.279  -4.686  1.00 20.00     0.035 C 
HETATM    5  C5  UNL     1     -35.101  18.369  -3.978  1.00 20.00     0.005 C 
HETATM    6  C6  UNL     1     -33.748  17.727  -3.670  1.00 20.00     0.016 C 
HETATM    7  C7  UNL     1     -32.983  15.290  -3.660  1.00 20.00     0.192 C 
HETATM    8  C8  UNL     1     -34.094  16.276  -3.323  1.00 20.00     0.002 C 
HETATM    9  C9  UNL     1     -34.538  16.131  -1.859  1.00 20.00     0.022 C 
HETATM   10  O10 UNL     1     -35.027  12.492  -4.506  1.00 20.00    -0.260 OA
HETATM   11  O11 UNL     1     -33.494  13.935  -3.661  1.00 20.00    -0.317 OA
ENDROOT
TORSDOF 0
ENDMDL
MODEL 5
REMARK VINA RESULT:      -4.7     12.081     14.000
REMARK  0 active torsions:
REMARK  status: ('A' for Active; 'I' for Inactive)
ROOT
HETATM    1  C1  UNL     1     -34.627  14.433  -5.889  1.00 20.00     0.086 C 
HETATM    2  C2  UNL     1     -34.519  15.765  -5.917  1.00 20.00    -0.064 C 
HETATM    3  C3  UNL     1     -34.548  13.723  -4.596  1.00 20.00     0.283 C 
HETATM    4  C4  UNL     1     -34.477  16.619  -7.149  1.00 20.00     0.035 C 
HETATM    5  C5  UNL     1     -34.127  18.009  -6.614  1.00 20.00     0.005 C 
HETATM    6  C6  UNL     1     -33.466  17.760  -5.258  1.00 20.00     0.016 C 
HETATM    7  C7  UNL     1     -33.406  15.701  -3.747  1.00 20.00     0.192 C 
HETATM    8  C8  UNL     1     -34.239  16.570  -4.681  1.00 20.00     0.002 C 
HETATM    9  C9  UNL     1     -35.546  17.015  -4.005  1.00 20.00     0.022 C 
HETATM   10  O10 UNL     1     -34.919  12.559  -4.497  1.00 20.00    -0.260 OA
HETATM   11  O11 UNL     1     -34.054  14.423  -3.536  1.00 20.00    -0.317 OA
ENDROOT
TORSDOF 0
ENDMDL
MODEL 6
REMARK VINA RESULT:      -4.6     11.400     13.083
REMARK  0 active torsions:
REMARK  status: ('A' for Active; 'I' for Inactive)
ROOT
HETATM    1  C1  UNL     1     -33.470  14.986  -4.088  1.00 20.00     0.086 C 
HETATM    2  C2  UNL     1     -34.396  15.624  -4.810  1.00 20.00    -0.064 C 
HETATM    3  C3  UNL     1     -33.582  13.528  -3.884  1.00 20.00     0.283 C 
HETATM    4  C4  UNL     1     -34.481  17.106  -5.024  1.00 20.00     0.035 C 
HETATM    5  C5  UNL     1     -35.829  17.296  -5.720  1.00 20.00     0.005 C 
HETATM    6  C6  UNL     1     -36.640  16.050  -5.366  1.00 20.00     0.016 C 
HETATM    7  C7  UNL     1     -35.949  13.786  -4.404  1.00 20.00     0.192 C 
HETATM    8  C8  UNL     1     -35.604  14.921  -5.360  1.00 20.00     0.002 C 
HETATM    9  C9  UNL     1     -35.334  14.390  -6.777  1.00 20.00     0.022 C 
HETATM   10  O10 UNL     1     -32.626  12.876  -3.481  1.00 20.00    -0.260 OA
HETATM   11  O11 UNL     1     -34.786  12.955  -4.168  1.00 20.00    -0.317 OA
ENDROOT
TORSDOF 0
ENDMDL
MODEL 7
REMARK VINA RESULT:      -4.6     11.817     13.395
REMARK  0 active torsions:
REMARK  status: ('A' for Active; 'I' for Inactive)
ROOT
HETATM    1  C1  UNL     1     -34.035  16.822  -5.557  1.00 20.00     0.086 C 
HETATM    2  C2  UNL     1     -34.110  15.540  -5.189  1.00 20.00    -0.064 C 
HETATM    3  C3  UNL     1     -33.608  17.838  -4.575  1.00 20.00     0.283 C 
HETATM    4  C4  UNL     1     -34.619  14.408  -6.032  1.00 20.00     0.035 C 
HETATM    5  C5  UNL     1     -34.689  13.232  -5.057  1.00 20.00     0.005 C 
HETATM    6  C6  UNL     1     -34.758  13.868  -3.668  1.00 20.00     0.016 C 
HETATM    7  C7  UNL     1     -34.262  16.239  -2.857  1.00 20.00     0.192 C 
HETATM    8  C8  UNL     1     -33.850  15.098  -3.777  1.00 20.00     0.002 C 
HETATM    9  C9  UNL     1     -32.371  14.731  -3.578  1.00 20.00     0.022 C 
HETATM   10  O10 UNL     1     -33.260  18.956  -4.940  1.00 20.00    -0.260 OA
HETATM   11  O11 UNL     1     -33.618  17.472  -3.262  1.00 20.00    -0.317 OA
ENDROOT
TORSDOF 0
ENDMDL
MODEL 8
REMARK VINA RESULT:      -4.5     11.569     13.145
REMARK  0 active torsions:
REMARK  status: ('A' for Active; 'I' for Inactive)
ROOT
HETATM    1  C1  UNL     1     -33.657  16.868  -3.775  1.00 20.00     0.086 C 
HETATM    2  C2  UNL     1     -33.979  15.988  -4.728  1.00 20.00    -0.064 C 
HETATM    3  C3  UNL     1     -34.028  16.590  -2.373  1.00 20.00     0.283 C 
HETATM    4  C4  UNL     1     -33.765  16.167  -6.202  1.00 20.00     0.035 C 
HETATM    5  C5  UNL     1     -34.504  14.982  -6.823  1.00 20.00     0.005 C 
HETATM    6  C6  UNL     1     -35.517  14.544  -5.764  1.00 20.00     0.016 C 
HETATM    7  C7  UNL     1     -35.709  15.073  -3.273  1.00 20.00     0.192 C 
HETATM    8  C8  UNL     1     -34.781  14.752  -4.437  1.00 20.00     0.002 C 
HETATM    9  C9  UNL     1     -33.863  13.565  -4.105  1.00 20.00     0.022 C 
HETATM   10  O10 UNL     1     -33.515  17.217  -1.453  1.00 20.00    -0.260 OA
HETATM   11  O11 UNL     1     -34.954  15.613  -2.161  1.00 20.00    -0.317 OA
ENDROOT
TORSDOF 0
ENDMDL
MODEL 9
REMARK VINA RESULT:      -4.5     12.140     13.593
REMARK  0 active torsions:
REMARK  status: ('A' for Active; 'I' for Inactive)
ROOT
HETATM    1  C1  UNL     1     -36.715  15.983  -4.523  1.00 20.00     0.086 C 
HETATM    2  C2  UNL     1     -35.490  16.515  -4.564  1.00 20.00    -0.064 C 
HETATM    3  C3  UNL     1     -36.889  14.590  -4.066  1.00 20.00     0.283 C 
HETATM    4  C4  UNL     1     -35.135  17.872  -5.096  1.00 20.00     0.035 C 
HETATM    5  C5  UNL     1     -33.606  17.870  -5.107  1.00 20.00     0.005 C 
HETATM    6  C6  UNL     1     -33.210  16.393  -5.123  1.00 20.00     0.016 C 
HETATM    7  C7  UNL     1     -34.538  14.269  -4.623  1.00 20.00     0.192 C 
HETATM    8  C8  UNL     1     -34.261  15.716  -4.237  1.00 20.00     0.002 C 
HETATM    9  C9  UNL     1     -33.908  15.835  -2.746  1.00 20.00     0.022 C 
HETATM   10  O10 UNL     1     -37.995  14.167  -3.749  1.00 20.00    -0.260 OA
HETATM   11  O11 UNL     1     -35.770  13.812  -4.013  1.00 20.00    -0.317 OA
ENDROOT
TORSDOF 0
ENDMDL
