MODEL 1
REMARK VINA RESULT:      -4.8      0.000      0.000
REMARK  1 active torsions:
REMARK  status: ('A' for Active; 'I' for Inactive)
REMARK    1  A    between atoms: C5_5  and  C10_10 
ROOT
HETATM    1  C1  UNL     1     -33.695  14.356  -3.645  1.00 20.00     0.046 C 
HETATM    2  C2  UNL     1     -33.683  15.642  -3.279  1.00 20.00    -0.018 C 
HETATM    3  C3  UNL     1     -34.958  13.726  -4.092  1.00 20.00     0.149 C 
HETATM    4  C4  UNL     1     -36.181  14.602  -4.239  1.00 20.00     0.088 C 
HETATM    5  C5  UNL     1     -34.901  16.532  -3.211  1.00 20.00     0.015 C 
HETATM    6  C6  UNL     1     -36.208  15.702  -3.174  1.00 20.00    -0.003 C 
HETATM    7  C7  UNL     1     -37.455  16.571  -3.362  1.00 20.00     0.011 C 
HETATM    8  O11 UNL     1     -34.974  12.535  -4.396  1.00 20.00    -0.293 OA
ENDROOT
BRANCH   5   9
HETATM    9  C10 UNL     1     -34.789  17.459  -1.996  1.00 20.00    -0.015 C 
HETATM   10  C8  UNL     1     -34.606  16.644  -0.719  1.00 20.00     0.010 C 
HETATM   11  C9  UNL     1     -33.636  18.441  -2.180  1.00 20.00     0.010 C 
ENDBRANCH   5   9
TORSDOF 1
ENDMDL
MODEL 2
REMARK VINA RESULT:      -4.6      2.523      4.308
REMARK  1 active torsions:
REMARK  status: ('A' for Active; 'I' for Inactive)
REMARK    1  A    between atoms: C5_5  and  C10_10 
ROOT
HETATM    1  C1  UNL     1     -34.456  16.544  -1.258  1.00 20.00     0.046 C 
HETATM    2  C2  UNL     1     -34.846  15.669  -2.192  1.00 20.00    -0.018 C 
HETATM    3  C3  UNL     1     -33.842  17.830  -1.659  1.00 20.00     0.149 C 
HETATM    4  C4  UNL     1     -33.790  18.169  -3.131  1.00 20.00     0.088 C 
HETATM    5  C5  UNL     1     -34.649  15.849  -3.678  1.00 20.00     0.015 C 
HETATM    6  C6  UNL     1     -33.567  16.914  -3.982  1.00 20.00    -0.003 C 
HETATM    7  C7  UNL     1     -33.528  17.298  -5.464  1.00 20.00     0.011 C 
HETATM    8  O11 UNL     1     -33.455  18.618  -0.798  1.00 20.00    -0.293 OA
ENDROOT
BRANCH   5   9
HETATM    9  C10 UNL     1     -34.300  14.498  -4.314  1.00 20.00    -0.015 C 
HETATM   10  C8  UNL     1     -33.080  13.886  -3.630  1.00 20.00     0.010 C 
HETATM   11  C9  UNL     1     -35.493  13.550  -4.239  1.00 20.00     0.010 C 
ENDBRANCH   5   9
TORSDOF 1
ENDMDL
MODEL 3
REMARK VINA RESULT:      -4.5      1.492      2.854
REMARK  1 active torsions:
REMARK  status: ('A' for Active; 'I' for Inactive)
REMARK    1  A    between atoms: C5_5  and  C10_10 
ROOT
HETATM    1  C1  UNL     1     -36.447  15.831  -4.880  1.00 20.00     0.046 C 
HETATM    2  C2  UNL     1     -35.991  16.042  -3.640  1.00 20.00    -0.018 C 
HETATM    3  C3  UNL     1     -35.817  14.801  -5.735  1.00 20.00     0.149 C 
HETATM    4  C4  UNL     1     -34.745  13.925  -5.127  1.00 20.00     0.088 C 
HETATM    5  C5  UNL     1     -34.799  15.345  -3.029  1.00 20.00     0.015 C 
HETATM    6  C6  UNL     1     -33.899  14.704  -4.114  1.00 20.00    -0.003 C 
HETATM    7  C7  UNL     1     -32.833  13.782  -3.517  1.00 20.00     0.011 C 
HETATM    8  O11 UNL     1     -36.216  14.632  -6.886  1.00 20.00    -0.293 OA
ENDROOT
BRANCH   5   9
HETATM    9  C10 UNL     1     -34.014  16.339  -2.164  1.00 20.00    -0.015 C 
HETATM   10  C8  UNL     1     -33.809  17.652  -2.914  1.00 20.00     0.010 C 
HETATM   11  C9  UNL     1     -34.736  16.579  -0.842  1.00 20.00     0.010 C 
ENDBRANCH   5   9
TORSDOF 1
ENDMDL
MODEL 4
REMARK VINA RESULT:      -4.4     11.859     12.898
REMARK  1 active torsions:
REMARK  status: ('A' for Active; 'I' for Inactive)
REMARK    1  A    between atoms: C5_5  and  C10_10 
ROOT
HETATM    1  C1  UNL     1     -35.020   4.492   4.215  1.00 20.00     0.046 C 
HETATM    2  C2  UNL     1     -34.384   5.505   3.615  1.00 20.00    -0.018 C 
HETATM    3  C3  UNL     1     -35.176   4.485   5.687  1.00 20.00     0.149 C 
HETATM    4  C4  UNL     1     -34.716   5.700   6.460  1.00 20.00     0.088 C 
HETATM    5  C5  UNL     1     -33.725   6.657   4.333  1.00 20.00     0.015 C 
HETATM    6  C6  UNL     1     -33.470   6.324   5.824  1.00 20.00    -0.003 C 
HETATM    7  C7  UNL     1     -33.041   7.553   6.630  1.00 20.00     0.011 C 
HETATM    8  O11 UNL     1     -35.731   3.537   6.239  1.00 20.00    -0.293 OA
ENDROOT
BRANCH   5   9
HETATM    9  C10 UNL     1     -32.426   7.033   3.611  1.00 20.00    -0.015 C 
HETATM   10  C8  UNL     1     -31.820   5.808   2.933  1.00 20.00     0.010 C 
HETATM   11  C9  UNL     1     -32.683   8.142   2.595  1.00 20.00     0.010 C 
ENDBRANCH   5   9
TORSDOF 1
ENDMDL
MODEL 5
REMARK VINA RESULT:      -4.4      2.470      4.135
REMARK  1 active torsions:
REMARK  status: ('A' for Active; 'I' for Inactive)
REMARK    1  A    between atoms: C5_5  and  C10_10 
ROOT
HETATM    1  C1  UNL     1     -34.803  13.260  -4.502  1.00 20.00     0.046 C 
HETATM    2  C2  UNL     1     -35.626  14.121  -5.112  1.00 20.00    -0.018 C 
HETATM    3  C3  UNL     1     -33.507  13.730  -3.965  1.00 20.00     0.149 C 
HETATM    4  C4  UNL     1     -33.208  15.211  -4.013  1.00 20.00     0.088 C 
HETATM    5  C5  UNL     1     -35.314  15.575  -5.374  1.00 20.00     0.015 C 
HETATM    6  C6  UNL     1     -33.795  15.855  -5.273  1.00 20.00    -0.003 C 
HETATM    7  C7  UNL     1     -33.478  17.354  -5.281  1.00 20.00     0.011 C 
HETATM    8  O11 UNL     1     -32.738  12.931  -3.435  1.00 20.00    -0.293 OA
ENDROOT
BRANCH   5   9
HETATM    9  C10 UNL     1     -35.870  15.977  -6.745  1.00 20.00    -0.015 C 
HETATM   10  C8  UNL     1     -35.161  15.206  -7.855  1.00 20.00     0.010 C 
HETATM   11  C9  UNL     1     -37.376  15.740  -6.799  1.00 20.00     0.010 C 
ENDBRANCH   5   9
TORSDOF 1
ENDMDL
MODEL 6
REMARK VINA RESULT:      -4.4      1.794      2.617
REMARK  1 active torsions:
REMARK  status: ('A' for Active; 'I' for Inactive)
REMARK    1  A    between atoms: C5_5  and  C10_10 
ROOT
HETATM    1  C1  UNL     1     -34.762  14.704  -5.857  1.00 20.00     0.046 C 
HETATM    2  C2  UNL     1     -34.860  16.021  -5.645  1.00 20.00    -0.018 C 
HETATM    3  C3  UNL     1     -34.673  13.774  -4.709  1.00 20.00     0.149 C 
HETATM    4  C4  UNL     1     -34.822  14.343  -3.315  1.00 20.00     0.088 C 
HETATM    5  C5  UNL     1     -34.818  16.682  -4.288  1.00 20.00     0.015 C 
HETATM    6  C6  UNL     1     -34.209  15.743  -3.218  1.00 20.00    -0.003 C 
HETATM    7  C7  UNL     1     -34.387  16.286  -1.797  1.00 20.00     0.011 C 
HETATM    8  O11 UNL     1     -34.549  12.567  -4.906  1.00 20.00    -0.293 OA
ENDROOT
BRANCH   5   9
HETATM    9  C10 UNL     1     -34.042  18.001  -4.386  1.00 20.00    -0.015 C 
HETATM   10  C8  UNL     1     -33.574  18.238  -5.819  1.00 20.00     0.010 C 
HETATM   11  C9  UNL     1     -34.902  19.163  -3.899  1.00 20.00     0.010 C 
ENDBRANCH   5   9
TORSDOF 1
ENDMDL
MODEL 7
REMARK VINA RESULT:      -4.4      1.686      2.171
REMARK  1 active torsions:
REMARK  status: ('A' for Active; 'I' for Inactive)
REMARK    1  A    between atoms: C5_5  and  C10_10 
ROOT
HETATM    1  C1  UNL     1     -34.235  14.227  -3.362  1.00 20.00     0.046 C 
HETATM    2  C2  UNL     1     -33.925  15.518  -3.199  1.00 20.00    -0.018 C 
HETATM    3  C3  UNL     1     -34.533  13.702  -4.713  1.00 20.00     0.149 C 
HETATM    4  C4  UNL     1     -34.353  14.628  -5.895  1.00 20.00     0.088 C 
HETATM    5  C5  UNL     1     -33.916  16.549  -4.302  1.00 20.00     0.015 C 
HETATM    6  C6  UNL     1     -34.723  16.070  -5.533  1.00 20.00    -0.003 C 
HETATM    7  C7  UNL     1     -34.520  16.975  -6.751  1.00 20.00     0.011 C 
HETATM    8  O11 UNL     1     -34.851  12.523  -4.856  1.00 20.00    -0.293 OA
ENDROOT
BRANCH   5   9
HETATM    9  C10 UNL     1     -34.452  17.880  -3.762  1.00 20.00    -0.015 C 
HETATM   10  C8  UNL     1     -35.946  17.772  -3.468  1.00 20.00     0.010 C 
HETATM   11  C9  UNL     1     -33.684  18.295  -2.511  1.00 20.00     0.010 C 
ENDBRANCH   5   9
TORSDOF 1
ENDMDL
MODEL 8
REMARK VINA RESULT:      -4.3      2.556      3.371
REMARK  1 active torsions:
REMARK  status: ('A' for Active; 'I' for Inactive)
REMARK    1  A    between atoms: C5_5  and  C10_10 
ROOT
HETATM    1  C1  UNL     1     -33.362  15.282  -3.962  1.00 20.00     0.046 C 
HETATM    2  C2  UNL     1     -33.391  16.227  -4.909  1.00 20.00    -0.018 C 
HETATM    3  C3  UNL     1     -34.015  13.976  -4.200  1.00 20.00     0.149 C 
HETATM    4  C4  UNL     1     -34.593  13.705  -5.571  1.00 20.00     0.088 C 
HETATM    5  C5  UNL     1     -34.117  16.105  -6.228  1.00 20.00     0.015 C 
HETATM    6  C6  UNL     1     -35.178  14.979  -6.189  1.00 20.00    -0.003 C 
HETATM    7  C7  UNL     1     -35.745  14.665  -7.576  1.00 20.00     0.011 C 
HETATM    8  O11 UNL     1     -34.016  13.121  -3.316  1.00 20.00    -0.293 OA
ENDROOT
BRANCH   5   9
HETATM    9  C10 UNL     1     -34.743  17.456  -6.592  1.00 20.00    -0.015 C 
HETATM   10  C8  UNL     1     -35.929  17.756  -5.680  1.00 20.00     0.010 C 
HETATM   11  C9  UNL     1     -33.701  18.567  -6.507  1.00 20.00     0.010 C 
ENDBRANCH   5   9
TORSDOF 1
ENDMDL
MODEL 9
REMARK VINA RESULT:      -4.2      1.607      2.338
REMARK  1 active torsions:
REMARK  status: ('A' for Active; 'I' for Inactive)
REMARK    1  A    between atoms: C5_5  and  C10_10 
ROOT
HETATM    1  C1  UNL     1     -35.061  14.140  -4.059  1.00 20.00     0.046 C 
HETATM    2  C2  UNL     1     -34.748  14.950  -3.041  1.00 20.00    -0.018 C 
HETATM    3  C3  UNL     1     -34.766  14.552  -5.449  1.00 20.00     0.149 C 
HETATM    4  C4  UNL     1     -34.000  15.837  -5.667  1.00 20.00     0.088 C 
HETATM    5  C5  UNL     1     -34.159  16.332  -3.187  1.00 20.00     0.015 C 
HETATM    6  C6  UNL     1     -34.369  16.889  -4.616  1.00 20.00    -0.003 C 
HETATM    7  C7  UNL     1     -33.567  18.170  -4.866  1.00 20.00     0.011 C 
HETATM    8  O11 UNL     1     -35.085  13.822  -6.385  1.00 20.00    -0.293 OA
ENDROOT
BRANCH   5   9
HETATM    9  C10 UNL     1     -34.766  17.260  -2.128  1.00 20.00    -0.015 C 
HETATM   10  C8  UNL     1     -36.245  17.501  -2.415  1.00 20.00     0.010 C 
HETATM   11  C9  UNL     1     -34.575  16.673  -0.733  1.00 20.00     0.010 C 
ENDBRANCH   5   9
TORSDOF 1
ENDMDL
