MODEL 1
REMARK VINA RESULT:      -3.9      0.000      0.000
REMARK  0 active torsions:
REMARK  status: ('A' for Active; 'I' for Inactive)
ROOT
HETATM    1  C1  UNL     1     -33.323  13.749  -3.718  1.00 20.00     0.001 C 
HETATM    2  C2  UNL     1     -34.813  13.520  -3.961  1.00 20.00     0.001 C 
HETATM    3  C3  UNL     1     -33.110  15.261  -3.752  1.00 20.00     0.011 C 
HETATM    4  C4  UNL     1     -35.407  14.899  -4.222  1.00 20.00     0.011 C 
HETATM    5  C5  UNL     1     -34.835  15.882  -1.952  1.00 20.00     0.096 C 
HETATM    6  C6  UNL     1     -34.654  17.305  -3.993  1.00 20.00     0.096 C 
HETATM    7  C7  UNL     1     -34.495  15.874  -3.458  1.00 20.00    -0.022 C 
HETATM    8  S8  UNL     1     -33.995  17.293  -1.178  1.00 20.00    -0.097 SA
HETATM    9  S9  UNL     1     -33.782  18.426  -2.870  1.00 20.00    -0.097 SA
ENDROOT
TORSDOF 0
ENDMDL
MODEL 2
REMARK VINA RESULT:      -3.8      2.540      3.542
REMARK  0 active torsions:
REMARK  status: ('A' for Active; 'I' for Inactive)
ROOT
HETATM    1  C1  UNL     1     -34.652  16.530  -1.018  1.00 20.00     0.001 C 
HETATM    2  C2  UNL     1     -33.594  17.505  -1.530  1.00 20.00     0.001 C 
HETATM    3  C3  UNL     1     -35.384  16.005  -2.253  1.00 20.00     0.011 C 
HETATM    4  C4  UNL     1     -33.802  17.590  -3.038  1.00 20.00     0.011 C 
HETATM    5  C5  UNL     1     -33.322  15.145  -3.522  1.00 20.00     0.096 C 
HETATM    6  C6  UNL     1     -35.115  16.323  -4.792  1.00 20.00     0.096 C 
HETATM    7  C7  UNL     1     -34.412  16.233  -3.429  1.00 20.00    -0.022 C 
HETATM    8  S8  UNL     1     -34.031  13.682  -4.331  1.00 20.00    -0.097 SA
HETATM    9  S9  UNL     1     -35.549  14.643  -5.313  1.00 20.00    -0.097 SA
ENDROOT
TORSDOF 0
ENDMDL
MODEL 3
REMARK VINA RESULT:      -3.8      1.126      2.302
REMARK  0 active torsions:
REMARK  status: ('A' for Active; 'I' for Inactive)
ROOT
HETATM    1  C1  UNL     1     -35.589  13.998  -4.774  1.00 20.00     0.001 C 
HETATM    2  C2  UNL     1     -34.247  13.283  -4.646  1.00 20.00     0.001 C 
HETATM    3  C3  UNL     1     -35.498  15.242  -3.890  1.00 20.00     0.011 C 
HETATM    4  C4  UNL     1     -33.448  14.079  -3.621  1.00 20.00     0.011 C 
HETATM    5  C5  UNL     1     -33.380  16.245  -4.943  1.00 20.00     0.096 C 
HETATM    6  C6  UNL     1     -33.649  16.322  -2.465  1.00 20.00     0.096 C 
HETATM    7  C7  UNL     1     -33.989  15.515  -3.727  1.00 20.00    -0.022 C 
HETATM    8  S8  UNL     1     -33.762  18.015  -4.806  1.00 20.00    -0.097 SA
HETATM    9  S9  UNL     1     -34.056  18.059  -2.780  1.00 20.00    -0.097 SA
ENDROOT
TORSDOF 0
ENDMDL
MODEL 4
REMARK VINA RESULT:      -3.8      1.655      1.794
REMARK  0 active torsions:
REMARK  status: ('A' for Active; 'I' for Inactive)
ROOT
HETATM    1  C1  UNL     1     -33.807  13.671  -3.666  1.00 20.00     0.001 C 
HETATM    2  C2  UNL     1     -34.670  13.275  -4.861  1.00 20.00     0.001 C 
HETATM    3  C3  UNL     1     -33.323  15.095  -3.940  1.00 20.00     0.011 C 
HETATM    4  C4  UNL     1     -34.588  14.442  -5.838  1.00 20.00     0.011 C 
HETATM    5  C5  UNL     1     -35.629  16.170  -4.296  1.00 20.00     0.096 C 
HETATM    6  C6  UNL     1     -33.747  16.829  -5.792  1.00 20.00     0.096 C 
HETATM    7  C7  UNL     1     -34.325  15.676  -4.958  1.00 20.00    -0.022 C 
HETATM    8  S8  UNL     1     -35.330  17.811  -3.582  1.00 20.00    -0.097 SA
HETATM    9  S9  UNL     1     -33.737  18.319  -4.763  1.00 20.00    -0.097 SA
ENDROOT
TORSDOF 0
ENDMDL
MODEL 5
REMARK VINA RESULT:      -3.7      3.143      3.838
REMARK  0 active torsions:
REMARK  status: ('A' for Active; 'I' for Inactive)
ROOT
HETATM    1  C1  UNL     1     -33.719  13.658  -3.786  1.00 20.00     0.001 C 
HETATM    2  C2  UNL     1     -32.948  14.975  -3.719  1.00 20.00     0.001 C 
HETATM    3  C3  UNL     1     -35.089  13.993  -4.373  1.00 20.00     0.011 C 
HETATM    4  C4  UNL     1     -33.923  16.051  -4.182  1.00 20.00     0.011 C 
HETATM    5  C5  UNL     1     -34.261  15.131  -6.523  1.00 20.00     0.096 C 
HETATM    6  C6  UNL     1     -36.194  16.125  -5.299  1.00 20.00     0.096 C 
HETATM    7  C7  UNL     1     -34.893  15.324  -5.128  1.00 20.00    -0.022 C 
HETATM    8  S8  UNL     1     -35.560  14.612  -7.680  1.00 20.00    -0.097 SA
HETATM    9  S9  UNL     1     -37.152  15.364  -6.634  1.00 20.00    -0.097 SA
ENDROOT
TORSDOF 0
ENDMDL
MODEL 6
REMARK VINA RESULT:      -3.7      2.440      2.972
REMARK  0 active torsions:
REMARK  status: ('A' for Active; 'I' for Inactive)
ROOT
HETATM    1  C1  UNL     1     -33.079  15.147  -3.716  1.00 20.00     0.001 C 
HETATM    2  C2  UNL     1     -33.345  13.643  -3.712  1.00 20.00     0.001 C 
HETATM    3  C3  UNL     1     -34.049  15.751  -4.731  1.00 20.00     0.011 C 
HETATM    4  C4  UNL     1     -34.396  13.404  -4.790  1.00 20.00     0.011 C 
HETATM    5  C5  UNL     1     -36.217  14.813  -3.720  1.00 20.00     0.096 C 
HETATM    6  C6  UNL     1     -35.947  14.824  -6.199  1.00 20.00     0.096 C 
HETATM    7  C7  UNL     1     -35.189  14.720  -4.867  1.00 20.00    -0.022 C 
HETATM    8  S8  UNL     1     -37.352  16.185  -4.071  1.00 20.00    -0.097 SA
HETATM    9  S9  UNL     1     -37.072  16.240  -6.098  1.00 20.00    -0.097 SA
ENDROOT
TORSDOF 0
ENDMDL
MODEL 7
REMARK VINA RESULT:      -3.6      1.668      2.364
REMARK  0 active torsions:
REMARK  status: ('A' for Active; 'I' for Inactive)
ROOT
HETATM    1  C1  UNL     1     -34.954  13.856  -5.757  1.00 20.00     0.001 C 
HETATM    2  C2  UNL     1     -34.163  13.335  -4.560  1.00 20.00     0.001 C 
HETATM    3  C3  UNL     1     -35.521  15.213  -5.339  1.00 20.00     0.011 C 
HETATM    4  C4  UNL     1     -34.369  14.358  -3.449  1.00 20.00     0.011 C 
HETATM    5  C5  UNL     1     -33.297  16.310  -4.667  1.00 20.00     0.096 C 
HETATM    6  C6  UNL     1     -35.311  16.699  -3.249  1.00 20.00     0.096 C 
HETATM    7  C7  UNL     1     -34.622  15.688  -4.178  1.00 20.00    -0.022 C 
HETATM    8  S8  UNL     1     -33.616  18.021  -5.183  1.00 20.00    -0.097 SA
HETATM    9  S9  UNL     1     -35.313  18.311  -4.074  1.00 20.00    -0.097 SA
ENDROOT
TORSDOF 0
ENDMDL
MODEL 8
REMARK VINA RESULT:      -3.5      2.815      3.365
REMARK  0 active torsions:
REMARK  status: ('A' for Active; 'I' for Inactive)
ROOT
HETATM    1  C1  UNL     1     -34.895  14.916  -7.918  1.00 20.00     0.001 C 
HETATM    2  C2  UNL     1     -36.386  14.804  -7.610  1.00 20.00     0.001 C 
HETATM    3  C3  UNL     1     -34.246  15.529  -6.678  1.00 20.00     0.011 C 
HETATM    4  C4  UNL     1     -36.575  15.440  -6.238  1.00 20.00     0.011 C 
HETATM    5  C5  UNL     1     -35.099  13.809  -4.970  1.00 20.00     0.096 C 
HETATM    6  C6  UNL     1     -35.085  16.224  -4.347  1.00 20.00     0.096 C 
HETATM    7  C7  UNL     1     -35.228  15.245  -5.522  1.00 20.00    -0.022 C 
HETATM    8  S8  UNL     1     -33.680  13.749  -3.840  1.00 20.00    -0.097 SA
HETATM    9  S9  UNL     1     -33.625  15.746  -3.389  1.00 20.00    -0.097 SA
ENDROOT
TORSDOF 0
ENDMDL
MODEL 9
REMARK VINA RESULT:      -3.5      2.666      3.689
REMARK  0 active torsions:
REMARK  status: ('A' for Active; 'I' for Inactive)
ROOT
HETATM    1  C1  UNL     1     -33.759  17.966  -3.488  1.00 20.00     0.001 C 
HETATM    2  C2  UNL     1     -34.287  17.731  -2.075  1.00 20.00     0.001 C 
HETATM    3  C3  UNL     1     -33.624  16.585  -4.130  1.00 20.00     0.011 C 
HETATM    4  C4  UNL     1     -34.355  16.219  -1.903  1.00 20.00     0.011 C 
HETATM    5  C5  UNL     1     -36.043  15.804  -3.753  1.00 20.00     0.096 C 
HETATM    6  C6  UNL     1     -34.182  14.183  -3.398  1.00 20.00     0.096 C 
HETATM    7  C7  UNL     1     -34.567  15.668  -3.323  1.00 20.00    -0.022 C 
HETATM    8  S8  UNL     1     -36.300  14.823  -5.259  1.00 20.00    -0.097 SA
HETATM    9  S9  UNL     1     -34.725  13.540  -5.001  1.00 20.00    -0.097 SA
ENDROOT
TORSDOF 0
ENDMDL
