MODEL 1
REMARK VINA RESULT:      -4.1      0.000      0.000
REMARK  0 active torsions:
REMARK  status: ('A' for Active; 'I' for Inactive)
ROOT
HETATM    1  C1  UNL     1     -34.252   5.453   3.225  1.00 20.00     0.098 A 
HETATM    2  C2  UNL     1     -33.358   6.361   3.753  1.00 20.00     0.136 A 
HETATM    3  C3  UNL     1     -34.405   5.815   5.601  1.00 20.00     0.253 A 
HETATM    4  N4  UNL     1     -33.445   6.570   5.116  1.00 20.00    -0.201 NA
HETATM    5  F5  UNL     1     -34.711   5.814   6.906  1.00 20.00    -0.176 F 
HETATM    6  S6  UNL     1     -35.244   4.827   4.475  1.00 20.00    -0.048 SA
HETATM    7 CL7  UNL     1     -32.193   7.208   2.823  1.00 20.00    -0.062 Cl
ENDROOT
TORSDOF 0
ENDMDL
MODEL 2
REMARK VINA RESULT:      -4.0      2.428      2.825
REMARK  0 active torsions:
REMARK  status: ('A' for Active; 'I' for Inactive)
ROOT
HETATM    1  C1  UNL     1     -34.713   5.234   6.288  1.00 20.00     0.098 A 
HETATM    2  C2  UNL     1     -33.964   6.315   5.874  1.00 20.00     0.136 A 
HETATM    3  C3  UNL     1     -34.373   5.427   3.911  1.00 20.00     0.253 A 
HETATM    4  N4  UNL     1     -33.768   6.427   4.512  1.00 20.00    -0.201 NA
HETATM    5  F5  UNL     1     -34.349   5.284   2.579  1.00 20.00    -0.176 F 
HETATM    6  S6  UNL     1     -35.199   4.314   4.925  1.00 20.00    -0.048 SA
HETATM    7 CL7  UNL     1     -33.292   7.478   6.941  1.00 20.00    -0.062 Cl
ENDROOT
TORSDOF 0
ENDMDL
MODEL 3
REMARK VINA RESULT:      -3.6      2.035      2.160
REMARK  0 active torsions:
REMARK  status: ('A' for Active; 'I' for Inactive)
ROOT
HETATM    1  C1  UNL     1     -33.753   6.400   4.641  1.00 20.00     0.098 A 
HETATM    2  C2  UNL     1     -34.357   5.404   3.903  1.00 20.00     0.136 A 
HETATM    3  C3  UNL     1     -35.047   4.802   5.895  1.00 20.00     0.253 A 
HETATM    4  N4  UNL     1     -35.099   4.487   4.620  1.00 20.00    -0.201 NA
HETATM    5  F5  UNL     1     -35.681   4.078   6.828  1.00 20.00    -0.176 F 
HETATM    6  S6  UNL     1     -34.124   6.191   6.302  1.00 20.00    -0.048 SA
HETATM    7 CL7  UNL     1     -34.227   5.265   2.198  1.00 20.00    -0.062 Cl
ENDROOT
TORSDOF 0
ENDMDL
MODEL 4
REMARK VINA RESULT:      -3.6      2.345      2.493
REMARK  0 active torsions:
REMARK  status: ('A' for Active; 'I' for Inactive)
ROOT
HETATM    1  C1  UNL     1     -33.804   6.661   4.443  1.00 20.00     0.098 A 
HETATM    2  C2  UNL     1     -33.892   6.418   5.798  1.00 20.00     0.136 A 
HETATM    3  C3  UNL     1     -34.875   4.597   5.074  1.00 20.00     0.253 A 
HETATM    4  N4  UNL     1     -34.506   5.236   6.162  1.00 20.00    -0.201 NA
HETATM    5  F5  UNL     1     -35.499   3.412   5.127  1.00 20.00    -0.176 F 
HETATM    6  S6  UNL     1     -34.514   5.361   3.579  1.00 20.00    -0.048 SA
HETATM    7 CL7  UNL     1     -33.295   7.485   7.001  1.00 20.00    -0.062 Cl
ENDROOT
TORSDOF 0
ENDMDL
MODEL 5
REMARK VINA RESULT:      -3.5      1.799      1.978
REMARK  0 active torsions:
REMARK  status: ('A' for Active; 'I' for Inactive)
ROOT
HETATM    1  C1  UNL     1     -33.430   6.710   5.379  1.00 20.00     0.098 A 
HETATM    2  C2  UNL     1     -33.436   6.397   4.036  1.00 20.00     0.136 A 
HETATM    3  C3  UNL     1     -34.833   4.860   4.739  1.00 20.00     0.253 A 
HETATM    4  N4  UNL     1     -34.239   5.336   3.667  1.00 20.00    -0.201 NA
HETATM    5  F5  UNL     1     -35.677   3.821   4.676  1.00 20.00    -0.176 F 
HETATM    6  S6  UNL     1     -34.471   5.642   6.224  1.00 20.00    -0.048 SA
HETATM    7 CL7  UNL     1     -32.520   7.237   2.854  1.00 20.00    -0.062 Cl
ENDROOT
TORSDOF 0
ENDMDL
MODEL 6
REMARK VINA RESULT:      -3.5      9.403      9.725
REMARK  0 active torsions:
REMARK  status: ('A' for Active; 'I' for Inactive)
ROOT
HETATM    1  C1  UNL     1     -42.214   5.722  -2.436  1.00 20.00     0.098 A 
HETATM    2  C2  UNL     1     -41.562   4.580  -2.019  1.00 20.00     0.136 A 
HETATM    3  C3  UNL     1     -40.822   5.960  -0.484  1.00 20.00     0.253 A 
HETATM    4  N4  UNL     1     -40.763   4.714  -0.901  1.00 20.00    -0.201 NA
HETATM    5  F5  UNL     1     -40.140   6.377   0.591  1.00 20.00    -0.176 F 
HETATM    6  S6  UNL     1     -41.819   7.023  -1.390  1.00 20.00    -0.048 SA
HETATM    7 CL7  UNL     1     -41.698   3.061  -2.805  1.00 20.00    -0.062 Cl
ENDROOT
TORSDOF 0
ENDMDL
MODEL 7
REMARK VINA RESULT:      -3.4      2.870      3.099
REMARK  0 active torsions:
REMARK  status: ('A' for Active; 'I' for Inactive)
ROOT
HETATM    1  C1  UNL     1     -34.930   5.146   4.089  1.00 20.00     0.098 A 
HETATM    2  C2  UNL     1     -34.185   5.831   5.025  1.00 20.00     0.136 A 
HETATM    3  C3  UNL     1     -33.016   6.335   3.239  1.00 20.00     0.253 A 
HETATM    4  N4  UNL     1     -33.087   6.514   4.540  1.00 20.00    -0.201 NA
HETATM    5  F5  UNL     1     -32.043   6.888   2.503  1.00 20.00    -0.176 F 
HETATM    6  S6  UNL     1     -34.240   5.359   2.534  1.00 20.00    -0.048 SA
HETATM    7 CL7  UNL     1     -34.551   5.866   6.700  1.00 20.00    -0.062 Cl
ENDROOT
TORSDOF 0
ENDMDL
MODEL 8
REMARK VINA RESULT:      -3.4      3.236      3.528
REMARK  0 active torsions:
REMARK  status: ('A' for Active; 'I' for Inactive)
ROOT
HETATM    1  C1  UNL     1     -33.366   6.379   5.019  1.00 20.00     0.098 A 
HETATM    2  C2  UNL     1     -34.413   5.488   5.132  1.00 20.00     0.136 A 
HETATM    3  C3  UNL     1     -34.164   5.429   2.954  1.00 20.00     0.253 A 
HETATM    4  N4  UNL     1     -34.871   4.942   3.949  1.00 20.00    -0.201 NA
HETATM    5  F5  UNL     1     -34.392   5.071   1.683  1.00 20.00    -0.176 F 
HETATM    6  S6  UNL     1     -32.929   6.547   3.370  1.00 20.00    -0.048 SA
HETATM    7 CL7  UNL     1     -35.138   5.049   6.623  1.00 20.00    -0.062 Cl
ENDROOT
TORSDOF 0
ENDMDL
MODEL 9
REMARK VINA RESULT:      -3.3      9.444      9.742
REMARK  0 active torsions:
REMARK  status: ('A' for Active; 'I' for Inactive)
ROOT
HETATM    1  C1  UNL     1     -42.038   5.284  -2.343  1.00 20.00     0.098 A 
HETATM    2  C2  UNL     1     -41.917   6.657  -2.319  1.00 20.00     0.136 A 
HETATM    3  C3  UNL     1     -40.828   6.198  -0.472  1.00 20.00     0.253 A 
HETATM    4  N4  UNL     1     -41.224   7.183  -1.247  1.00 20.00    -0.201 NA
HETATM    5  F5  UNL     1     -40.128   6.418   0.649  1.00 20.00    -0.176 F 
HETATM    6  S6  UNL     1     -41.255   4.612  -0.974  1.00 20.00    -0.048 SA
HETATM    7 CL7  UNL     1     -42.568   7.696  -3.519  1.00 20.00    -0.062 Cl
ENDROOT
TORSDOF 0
ENDMDL
