MODEL 1
REMARK VINA RESULT:      -5.1      0.000      0.000
REMARK  1 active torsions:
REMARK  status: ('A' for Active; 'I' for Inactive)
REMARK    1  A    between atoms: C7_7  and  C11_11 
ROOT
HETATM    1  C1  UNL     1     -33.879  15.983  -5.939  1.00 20.00    -0.023 C 
HETATM    2  C2  UNL     1     -33.485  16.559  -4.792  1.00 20.00     0.007 C 
HETATM    3  C3  UNL     1     -35.135  15.166  -3.527  1.00 20.00     0.050 C 
HETATM    4  C4  UNL     1     -33.421  13.635  -3.925  1.00 20.00     0.174 C 
HETATM    5  C5  UNL     1     -34.617  14.659  -5.945  1.00 20.00     0.010 C 
HETATM    6  C6  UNL     1     -34.773  14.065  -4.512  1.00 20.00     0.020 C 
HETATM    7  C7  UNL     1     -33.787  15.887  -3.470  1.00 20.00     0.082 C 
HETATM    8  C8  UNL     1     -35.981  14.831  -6.619  1.00 20.00     0.015 C 
HETATM    9  O12 UNL     1     -32.831  14.813  -3.330  1.00 20.00    -0.375 OA
ENDROOT
BRANCH   7  10
HETATM   10  C11 UNL     1     -33.675  16.840  -2.291  1.00 20.00     0.016 C 
HETATM   11  C9  UNL     1     -33.909  18.285  -2.736  1.00 20.00     0.013 C 
HETATM   12  C10 UNL     1     -34.663  16.458  -1.188  1.00 20.00     0.013 C 
ENDBRANCH   7  10
TORSDOF 1
ENDMDL
MODEL 2
REMARK VINA RESULT:      -5.1      1.230      3.862
REMARK  1 active torsions:
REMARK  status: ('A' for Active; 'I' for Inactive)
REMARK    1  A    between atoms: C7_7  and  C11_11 
ROOT
HETATM    1  C1  UNL     1     -35.881  15.636  -3.442  1.00 20.00    -0.023 C 
HETATM    2  C2  UNL     1     -35.768  15.443  -4.766  1.00 20.00     0.007 C 
HETATM    3  C3  UNL     1     -33.308  15.873  -4.619  1.00 20.00     0.050 C 
HETATM    4  C4  UNL     1     -33.461  13.690  -3.812  1.00 20.00     0.174 C 
HETATM    5  C5  UNL     1     -34.678  15.540  -2.525  1.00 20.00     0.010 C 
HETATM    6  C6  UNL     1     -33.383  15.133  -3.293  1.00 20.00     0.020 C 
HETATM    7  C7  UNL     1     -34.416  15.132  -5.369  1.00 20.00     0.082 C 
HETATM    8  C8  UNL     1     -34.485  16.867  -1.787  1.00 20.00     0.015 C 
HETATM    9  O12 UNL     1     -34.151  13.741  -5.082  1.00 20.00    -0.375 OA
ENDROOT
BRANCH   7  10
HETATM   10  C11 UNL     1     -34.376  15.371  -6.870  1.00 20.00     0.016 C 
HETATM   11  C9  UNL     1     -35.426  14.520  -7.584  1.00 20.00     0.013 C 
HETATM   12  C10 UNL     1     -34.585  16.852  -7.190  1.00 20.00     0.013 C 
ENDBRANCH   7  10
TORSDOF 1
ENDMDL
MODEL 3
REMARK VINA RESULT:      -4.9      1.453      2.286
REMARK  1 active torsions:
REMARK  status: ('A' for Active; 'I' for Inactive)
REMARK    1  A    between atoms: C7_7  and  C11_11 
ROOT
HETATM    1  C1  UNL     1     -35.897  15.095  -3.639  1.00 20.00    -0.023 C 
HETATM    2  C2  UNL     1     -35.509  15.960  -2.688  1.00 20.00     0.007 C 
HETATM    3  C3  UNL     1     -33.116  15.552  -3.291  1.00 20.00     0.050 C 
HETATM    4  C4  UNL     1     -33.805  16.977  -5.004  1.00 20.00     0.174 C 
HETATM    5  C5  UNL     1     -34.974  14.710  -4.778  1.00 20.00     0.010 C 
HETATM    6  C6  UNL     1     -33.618  15.479  -4.724  1.00 20.00     0.020 C 
HETATM    7  C7  UNL     1     -34.122  16.561  -2.736  1.00 20.00     0.082 C 
HETATM    8  C8  UNL     1     -34.746  13.196  -4.768  1.00 20.00     0.015 C 
HETATM    9  O12 UNL     1     -34.160  17.595  -3.745  1.00 20.00    -0.375 OA
ENDROOT
BRANCH   7  10
HETATM   10  C11 UNL     1     -33.694  17.151  -1.402  1.00 20.00     0.016 C 
HETATM   11  C9  UNL     1     -33.410  18.648  -1.536  1.00 20.00     0.013 C 
HETATM   12  C10 UNL     1     -34.759  16.907  -0.332  1.00 20.00     0.013 C 
ENDBRANCH   7  10
TORSDOF 1
ENDMDL
MODEL 4
REMARK VINA RESULT:      -4.8      1.372      1.982
REMARK  1 active torsions:
REMARK  status: ('A' for Active; 'I' for Inactive)
REMARK    1  A    between atoms: C7_7  and  C11_11 
ROOT
HETATM    1  C1  UNL     1     -34.162  13.880  -4.764  1.00 20.00    -0.023 C 
HETATM    2  C2  UNL     1     -33.878  14.518  -3.616  1.00 20.00     0.007 C 
HETATM    3  C3  UNL     1     -34.948  16.597  -4.506  1.00 20.00     0.050 C 
HETATM    4  C4  UNL     1     -36.806  15.319  -3.914  1.00 20.00     0.174 C 
HETATM    5  C5  UNL     1     -35.230  14.396  -5.709  1.00 20.00     0.010 C 
HETATM    6  C6  UNL     1     -35.956  15.656  -5.146  1.00 20.00     0.020 C 
HETATM    7  C7  UNL     1     -34.624  15.782  -3.252  1.00 20.00     0.082 C 
HETATM    8  C8  UNL     1     -34.610  14.685  -7.078  1.00 20.00     0.015 C 
HETATM    9  O12 UNL     1     -35.921  15.367  -2.771  1.00 20.00    -0.375 OA
ENDROOT
BRANCH   7  10
HETATM   10  C11 UNL     1     -33.909  16.596  -2.186  1.00 20.00     0.016 C 
HETATM   11  C9  UNL     1     -33.747  18.051  -2.629  1.00 20.00     0.013 C 
HETATM   12  C10 UNL     1     -34.660  16.528  -0.855  1.00 20.00     0.013 C 
ENDBRANCH   7  10
TORSDOF 1
ENDMDL
MODEL 5
REMARK VINA RESULT:      -4.8      1.026      1.392
REMARK  1 active torsions:
REMARK  status: ('A' for Active; 'I' for Inactive)
REMARK    1  A    between atoms: C7_7  and  C11_11 
ROOT
HETATM    1  C1  UNL     1     -34.309  16.053  -6.016  1.00 20.00    -0.023 C 
HETATM    2  C2  UNL     1     -34.503  16.536  -4.778  1.00 20.00     0.007 C 
HETATM    3  C3  UNL     1     -35.951  14.568  -4.237  1.00 20.00     0.050 C 
HETATM    4  C4  UNL     1     -33.814  13.648  -4.079  1.00 20.00     0.174 C 
HETATM    5  C5  UNL     1     -34.555  14.593  -6.341  1.00 20.00     0.010 C 
HETATM    6  C6  UNL     1     -34.969  13.771  -5.082  1.00 20.00     0.020 C 
HETATM    7  C7  UNL     1     -34.987  15.617  -3.678  1.00 20.00     0.082 C 
HETATM    8  C8  UNL     1     -35.613  14.481  -7.442  1.00 20.00     0.015 C 
HETATM    9  O12 UNL     1     -33.842  14.841  -3.261  1.00 20.00    -0.375 OA
ENDROOT
BRANCH   7  10
HETATM   10  C11 UNL     1     -35.562  16.376  -2.493  1.00 20.00     0.016 C 
HETATM   11  C9  UNL     1     -34.577  16.383  -1.323  1.00 20.00     0.013 C 
HETATM   12  C10 UNL     1     -35.925  17.808  -2.889  1.00 20.00     0.013 C 
ENDBRANCH   7  10
TORSDOF 1
ENDMDL
MODEL 6
REMARK VINA RESULT:      -4.7      1.339      4.131
REMARK  1 active torsions:
REMARK  status: ('A' for Active; 'I' for Inactive)
REMARK    1  A    between atoms: C7_7  and  C11_11 
ROOT
HETATM    1  C1  UNL     1     -33.873  14.602  -3.281  1.00 20.00    -0.023 C 
HETATM    2  C2  UNL     1     -34.346  14.231  -4.482  1.00 20.00     0.007 C 
HETATM    3  C3  UNL     1     -35.570  16.405  -4.671  1.00 20.00     0.050 C 
HETATM    4  C4  UNL     1     -33.384  17.041  -5.177  1.00 20.00     0.174 C 
HETATM    5  C5  UNL     1     -33.848  16.057  -2.858  1.00 20.00     0.010 C 
HETATM    6  C6  UNL     1     -34.353  17.008  -3.987  1.00 20.00     0.020 C 
HETATM    7  C7  UNL     1     -34.878  15.276  -5.438  1.00 20.00     0.082 C 
HETATM    8  C8  UNL     1     -34.671  16.237  -1.580  1.00 20.00     0.015 C 
HETATM    9  O12 UNL     1     -33.724  15.919  -6.024  1.00 20.00    -0.375 OA
ENDROOT
BRANCH   7  10
HETATM   10  C11 UNL     1     -35.752  14.680  -6.529  1.00 20.00     0.016 C 
HETATM   11  C9  UNL     1     -37.126  15.352  -6.554  1.00 20.00     0.013 C 
HETATM   12  C10 UNL     1     -35.076  14.804  -7.896  1.00 20.00     0.013 C 
ENDBRANCH   7  10
TORSDOF 1
ENDMDL
MODEL 7
REMARK VINA RESULT:      -4.6      1.688      4.074
REMARK  1 active torsions:
REMARK  status: ('A' for Active; 'I' for Inactive)
REMARK    1  A    between atoms: C7_7  and  C11_11 
ROOT
HETATM    1  C1  UNL     1     -33.592  16.695  -2.952  1.00 20.00    -0.023 C 
HETATM    2  C2  UNL     1     -33.782  15.956  -4.057  1.00 20.00     0.007 C 
HETATM    3  C3  UNL     1     -36.088  15.380  -3.275  1.00 20.00     0.050 C 
HETATM    4  C4  UNL     1     -36.382  17.551  -4.077  1.00 20.00     0.174 C 
HETATM    5  C5  UNL     1     -34.761  17.195  -2.127  1.00 20.00     0.010 C 
HETATM    6  C6  UNL     1     -36.135  16.809  -2.756  1.00 20.00     0.020 C 
HETATM    7  C7  UNL     1     -35.186  15.598  -4.492  1.00 20.00     0.082 C 
HETATM    8  C8  UNL     1     -34.645  16.665  -0.695  1.00 20.00     0.015 C 
HETATM    9  O12 UNL     1     -35.734  16.780  -5.116  1.00 20.00    -0.375 OA
ENDROOT
BRANCH   7  10
HETATM   10  C11 UNL     1     -35.217  14.432  -5.467  1.00 20.00     0.016 C 
HETATM   11  C9  UNL     1     -34.536  14.807  -6.784  1.00 20.00     0.013 C 
HETATM   12  C10 UNL     1     -34.551  13.196  -4.859  1.00 20.00     0.013 C 
ENDBRANCH   7  10
TORSDOF 1
ENDMDL
MODEL 8
REMARK VINA RESULT:      -4.5      1.348      4.019
REMARK  1 active torsions:
REMARK  status: ('A' for Active; 'I' for Inactive)
REMARK    1  A    between atoms: C7_7  and  C11_11 
ROOT
HETATM    1  C1  UNL     1     -33.951  16.492  -2.101  1.00 20.00    -0.023 C 
HETATM    2  C2  UNL     1     -33.741  15.494  -2.974  1.00 20.00     0.007 C 
HETATM    3  C3  UNL     1     -35.334  16.563  -4.580  1.00 20.00     0.050 C 
HETATM    4  C4  UNL     1     -33.425  17.873  -4.857  1.00 20.00     0.174 C 
HETATM    5  C5  UNL     1     -34.527  17.822  -2.546  1.00 20.00     0.010 C 
HETATM    6  C6  UNL     1     -34.753  17.880  -4.088  1.00 20.00     0.020 C 
HETATM    7  C7  UNL     1     -34.091  15.684  -4.433  1.00 20.00     0.082 C 
HETATM    8  C8  UNL     1     -35.829  18.100  -1.790  1.00 20.00     0.015 C 
HETATM    9  O12 UNL     1     -33.035  16.488  -5.005  1.00 20.00    -0.375 OA
ENDROOT
BRANCH   7  10
HETATM   10  C11 UNL     1     -34.206  14.367  -5.183  1.00 20.00     0.016 C 
HETATM   11  C9  UNL     1     -35.005  13.346  -4.370  1.00 20.00     0.013 C 
HETATM   12  C10 UNL     1     -34.853  14.576  -6.554  1.00 20.00     0.013 C 
ENDBRANCH   7  10
TORSDOF 1
ENDMDL
MODEL 9
REMARK VINA RESULT:      -4.4      1.680      2.679
REMARK  1 active torsions:
REMARK  status: ('A' for Active; 'I' for Inactive)
REMARK    1  A    between atoms: C7_7  and  C11_11 
ROOT
HETATM    1  C1  UNL     1     -33.193  14.802  -4.122  1.00 20.00    -0.023 C 
HETATM    2  C2  UNL     1     -33.032  16.119  -4.327  1.00 20.00     0.007 C 
HETATM    3  C3  UNL     1     -35.473  16.481  -3.917  1.00 20.00     0.050 C 
HETATM    4  C4  UNL     1     -34.658  16.216  -1.748  1.00 20.00     0.174 C 
HETATM    5  C5  UNL     1     -34.400  14.260  -3.381  1.00 20.00     0.010 C 
HETATM    6  C6  UNL     1     -35.330  15.398  -2.859  1.00 20.00     0.020 C 
HETATM    7  C7  UNL     1     -34.074  17.093  -3.824  1.00 20.00     0.082 C 
HETATM    8  C8  UNL     1     -35.169  13.294  -4.285  1.00 20.00     0.015 C 
HETATM    9  O12 UNL     1     -33.854  17.226  -2.402  1.00 20.00    -0.375 OA
ENDROOT
BRANCH   7  10
HETATM   10  C11 UNL     1     -33.977  18.453  -4.495  1.00 20.00     0.016 C 
HETATM   11  C9  UNL     1     -33.701  18.301  -5.992  1.00 20.00     0.013 C 
HETATM   12  C10 UNL     1     -35.255  19.263  -4.270  1.00 20.00     0.013 C 
ENDBRANCH   7  10
TORSDOF 1
ENDMDL
