MODEL 1
REMARK VINA RESULT:      -5.2      0.000      0.000
REMARK  0 active torsions:
REMARK  status: ('A' for Active; 'I' for Inactive)
ROOT
HETATM    1  C1  UNL     1     -33.444  13.941  -3.752  1.00 20.00     0.050 C 
HETATM    2  C2  UNL     1     -33.052  15.133  -3.288  1.00 20.00    -0.014 C 
HETATM    3  C3  UNL     1     -34.851  13.712  -4.162  1.00 20.00     0.188 C 
HETATM    4  C4  UNL     1     -35.442  15.888  -3.061  1.00 20.00     0.064 C 
HETATM    5  C5  UNL     1     -33.957  16.326  -3.078  1.00 20.00    -0.026 C 
HETATM    6  C6  UNL     1     -35.801  14.901  -4.177  1.00 20.00     0.164 C 
HETATM    7  C7  UNL     1     -33.687  17.355  -4.190  1.00 20.00     0.019 C 
HETATM    8  C8  UNL     1     -33.630  16.979  -1.722  1.00 20.00     0.019 C 
HETATM    9  C9  UNL     1     -37.249  14.440  -4.031  1.00 20.00     0.060 C 
HETATM   10  O10 UNL     1     -35.184  12.592  -4.546  1.00 20.00    -0.290 OA
HETATM   11  F11 UNL     1     -35.710  15.544  -5.377  1.00 20.00    -0.235 F 
ENDROOT
TORSDOF 0
ENDMDL
MODEL 2
REMARK VINA RESULT:      -4.6      1.794      2.858
REMARK  0 active torsions:
REMARK  status: ('A' for Active; 'I' for Inactive)
ROOT
HETATM    1  C1  UNL     1     -35.549  14.540  -5.753  1.00 20.00     0.050 C 
HETATM    2  C2  UNL     1     -35.461  15.872  -5.842  1.00 20.00    -0.014 C 
HETATM    3  C3  UNL     1     -34.700  13.786  -4.799  1.00 20.00     0.188 C 
HETATM    4  C4  UNL     1     -33.348  15.875  -4.475  1.00 20.00     0.064 C 
HETATM    5  C5  UNL     1     -34.494  16.734  -5.063  1.00 20.00    -0.026 C 
HETATM    6  C6  UNL     1     -33.831  14.573  -3.828  1.00 20.00     0.164 C 
HETATM    7  C7  UNL     1     -35.267  17.473  -3.957  1.00 20.00     0.019 C 
HETATM    8  C8  UNL     1     -33.876  17.784  -6.007  1.00 20.00     0.019 C 
HETATM    9  C9  UNL     1     -32.641  13.737  -3.366  1.00 20.00     0.060 C 
HETATM   10  O10 UNL     1     -34.779  12.559  -4.774  1.00 20.00    -0.290 OA
HETATM   11  F11 UNL     1     -34.556  14.879  -2.713  1.00 20.00    -0.235 F 
ENDROOT
TORSDOF 0
ENDMDL
MODEL 3
REMARK VINA RESULT:      -4.6      1.570      1.880
REMARK  0 active torsions:
REMARK  status: ('A' for Active; 'I' for Inactive)
ROOT
HETATM    1  C1  UNL     1     -34.426  14.115  -3.388  1.00 20.00     0.050 C 
HETATM    2  C2  UNL     1     -34.522  15.390  -2.994  1.00 20.00    -0.014 C 
HETATM    3  C3  UNL     1     -34.642  13.740  -4.806  1.00 20.00     0.188 C 
HETATM    4  C4  UNL     1     -35.565  16.042  -5.190  1.00 20.00     0.064 C 
HETATM    5  C5  UNL     1     -34.900  16.550  -3.887  1.00 20.00    -0.026 C 
HETATM    6  C6  UNL     1     -34.835  14.855  -5.826  1.00 20.00     0.164 C 
HETATM    7  C7  UNL     1     -33.638  17.378  -4.186  1.00 20.00     0.019 C 
HETATM    8  C8  UNL     1     -35.908  17.451  -3.149  1.00 20.00     0.019 C 
HETATM    9  C9  UNL     1     -35.605  14.349  -7.042  1.00 20.00     0.060 C 
HETATM   10  O10 UNL     1     -34.586  12.553  -5.124  1.00 20.00    -0.290 OA
HETATM   11  F11 UNL     1     -33.618  15.277  -6.275  1.00 20.00    -0.235 F 
ENDROOT
TORSDOF 0
ENDMDL
MODEL 4
REMARK VINA RESULT:      -4.4      2.171      3.817
REMARK  0 active torsions:
REMARK  status: ('A' for Active; 'I' for Inactive)
ROOT
HETATM    1  C1  UNL     1     -34.592  16.517  -5.519  1.00 20.00     0.050 C 
HETATM    2  C2  UNL     1     -35.447  15.493  -5.419  1.00 20.00    -0.014 C 
HETATM    3  C3  UNL     1     -33.836  16.992  -4.335  1.00 20.00     0.188 C 
HETATM    4  C4  UNL     1     -35.347  15.588  -2.906  1.00 20.00     0.064 C 
HETATM    5  C5  UNL     1     -35.780  14.758  -4.140  1.00 20.00    -0.026 C 
HETATM    6  C6  UNL     1     -33.948  16.198  -3.041  1.00 20.00     0.164 C 
HETATM    7  C7  UNL     1     -35.090  13.383  -4.164  1.00 20.00     0.019 C 
HETATM    8  C8  UNL     1     -37.302  14.537  -4.064  1.00 20.00     0.019 C 
HETATM    9  C9  UNL     1     -33.638  17.081  -1.835  1.00 20.00     0.060 C 
HETATM   10  O10 UNL     1     -33.089  17.962  -4.455  1.00 20.00    -0.290 OA
HETATM   11  F11 UNL     1     -33.028  15.191  -3.042  1.00 20.00    -0.235 F 
ENDROOT
TORSDOF 0
ENDMDL
MODEL 5
REMARK VINA RESULT:      -4.4      2.489      3.317
REMARK  0 active torsions:
REMARK  status: ('A' for Active; 'I' for Inactive)
ROOT
HETATM    1  C1  UNL     1     -33.502  16.799  -5.567  1.00 20.00     0.050 C 
HETATM    2  C2  UNL     1     -33.416  16.043  -4.467  1.00 20.00    -0.014 C 
HETATM    3  C3  UNL     1     -34.370  16.396  -6.699  1.00 20.00     0.188 C 
HETATM    4  C4  UNL     1     -34.591  14.140  -5.622  1.00 20.00     0.064 C 
HETATM    5  C5  UNL     1     -34.113  14.717  -4.266  1.00 20.00    -0.026 C 
HETATM    6  C6  UNL     1     -35.267  15.178  -6.523  1.00 20.00     0.164 C 
HETATM    7  C7  UNL     1     -35.290  14.916  -3.295  1.00 20.00     0.019 C 
HETATM    8  C8  UNL     1     -33.127  13.716  -3.635  1.00 20.00     0.019 C 
HETATM    9  C9  UNL     1     -35.615  14.561  -7.874  1.00 20.00     0.060 C 
HETATM   10  O10 UNL     1     -34.393  17.095  -7.711  1.00 20.00    -0.290 OA
HETATM   11  F11 UNL     1     -36.444  15.558  -5.947  1.00 20.00    -0.235 F 
ENDROOT
TORSDOF 0
ENDMDL
MODEL 6
REMARK VINA RESULT:      -4.4      2.105      2.705
REMARK  0 active torsions:
REMARK  status: ('A' for Active; 'I' for Inactive)
ROOT
HETATM    1  C1  UNL     1     -35.643  13.971  -4.038  1.00 20.00     0.050 C 
HETATM    2  C2  UNL     1     -34.545  14.426  -4.652  1.00 20.00    -0.014 C 
HETATM    3  C3  UNL     1     -36.969  14.580  -4.305  1.00 20.00     0.188 C 
HETATM    4  C4  UNL     1     -35.782  16.460  -5.467  1.00 20.00     0.064 C 
HETATM    5  C5  UNL     1     -34.504  15.597  -5.607  1.00 20.00    -0.026 C 
HETATM    6  C6  UNL     1     -37.071  15.636  -5.396  1.00 20.00     0.164 C 
HETATM    7  C7  UNL     1     -34.341  15.063  -7.040  1.00 20.00     0.019 C 
HETATM    8  C8  UNL     1     -33.285  16.479  -5.276  1.00 20.00     0.019 C 
HETATM    9  C9  UNL     1     -38.271  16.549  -5.156  1.00 20.00     0.060 C 
HETATM   10  O10 UNL     1     -37.950  14.163  -3.691  1.00 20.00    -0.290 OA
HETATM   11  F11 UNL     1     -37.271  15.029  -6.601  1.00 20.00    -0.235 F 
ENDROOT
TORSDOF 0
ENDMDL
MODEL 7
REMARK VINA RESULT:      -4.4      1.978      3.110
REMARK  0 active torsions:
REMARK  status: ('A' for Active; 'I' for Inactive)
ROOT
HETATM    1  C1  UNL     1     -34.627  13.453  -5.518  1.00 20.00     0.050 C 
HETATM    2  C2  UNL     1     -35.089  14.305  -6.440  1.00 20.00    -0.014 C 
HETATM    3  C3  UNL     1     -34.539  13.852  -4.092  1.00 20.00     0.188 C 
HETATM    4  C4  UNL     1     -34.952  16.220  -4.812  1.00 20.00     0.064 C 
HETATM    5  C5  UNL     1     -35.509  15.732  -6.172  1.00 20.00    -0.026 C 
HETATM    6  C6  UNL     1     -35.119  15.198  -3.683  1.00 20.00     0.164 C 
HETATM    7  C7  UNL     1     -37.045  15.813  -6.212  1.00 20.00     0.019 C 
HETATM    8  C8  UNL     1     -34.946  16.643  -7.280  1.00 20.00     0.019 C 
HETATM    9  C9  UNL     1     -34.457  15.708  -2.406  1.00 20.00     0.060 C 
HETATM   10  O10 UNL     1     -34.070  13.056  -3.279  1.00 20.00    -0.290 OA
HETATM   11  F11 UNL     1     -36.449  15.058  -3.410  1.00 20.00    -0.235 F 
ENDROOT
TORSDOF 0
ENDMDL
MODEL 8
REMARK VINA RESULT:      -4.4      2.088      2.954
REMARK  0 active torsions:
REMARK  status: ('A' for Active; 'I' for Inactive)
ROOT
HETATM    1  C1  UNL     1     -36.646  14.793  -4.542  1.00 20.00     0.050 C 
HETATM    2  C2  UNL     1     -35.733  14.763  -3.565  1.00 20.00    -0.014 C 
HETATM    3  C3  UNL     1     -36.276  15.218  -5.914  1.00 20.00     0.188 C 
HETATM    4  C4  UNL     1     -34.100  16.050  -4.983  1.00 20.00     0.064 C 
HETATM    5  C5  UNL     1     -34.289  15.190  -3.710  1.00 20.00    -0.026 C 
HETATM    6  C6  UNL     1     -34.807  15.481  -6.216  1.00 20.00     0.164 C 
HETATM    7  C7  UNL     1     -33.401  13.933  -3.743  1.00 20.00     0.019 C 
HETATM    8  C8  UNL     1     -33.886  16.037  -2.488  1.00 20.00     0.019 C 
HETATM    9  C9  UNL     1     -34.660  16.434  -7.399  1.00 20.00     0.060 C 
HETATM   10  O10 UNL     1     -37.151  15.272  -6.777  1.00 20.00    -0.290 OA
HETATM   11  F11 UNL     1     -34.198  14.313  -6.572  1.00 20.00    -0.235 F 
ENDROOT
TORSDOF 0
ENDMDL
MODEL 9
REMARK VINA RESULT:      -4.4      2.526      3.739
REMARK  0 active torsions:
REMARK  status: ('A' for Active; 'I' for Inactive)
ROOT
HETATM    1  C1  UNL     1     -33.948  16.782  -5.101  1.00 20.00     0.050 C 
HETATM    2  C2  UNL     1     -33.952  15.448  -5.196  1.00 20.00    -0.014 C 
HETATM    3  C3  UNL     1     -34.246  17.451  -3.811  1.00 20.00     0.188 C 
HETATM    4  C4  UNL     1     -35.047  15.239  -2.940  1.00 20.00     0.064 C 
HETATM    5  C5  UNL     1     -34.299  14.496  -4.074  1.00 20.00    -0.026 C 
HETATM    6  C6  UNL     1     -34.416  16.585  -2.571  1.00 20.00     0.164 C 
HETATM    7  C7  UNL     1     -33.004  13.844  -3.559  1.00 20.00     0.019 C 
HETATM    8  C8  UNL     1     -35.220  13.386  -4.615  1.00 20.00     0.019 C 
HETATM    9  C9  UNL     1     -35.266  17.299  -1.524  1.00 20.00     0.060 C 
HETATM   10  O10 UNL     1     -34.274  18.681  -3.771  1.00 20.00    -0.290 OA
HETATM   11  F11 UNL     1     -33.197  16.358  -2.003  1.00 20.00    -0.235 F 
ENDROOT
TORSDOF 0
ENDMDL
