MODEL 1
REMARK VINA RESULT:      -4.4      0.000      0.000
REMARK  2 active torsions:
REMARK  status: ('A' for Active; 'I' for Inactive)
REMARK    1  A    between atoms: C3_3  and  C5_5 
REMARK    2  A    between atoms: C3_3  and  O9_9 
ROOT
HETATM    1  C1  UNL     1     -34.521   5.298   5.910  1.00 20.00    -0.002 A 
HETATM    2  C2  UNL     1     -33.884   6.386   5.485  1.00 20.00     0.013 A 
HETATM    3  C4  UNL     1     -35.103   4.574   4.755  1.00 20.00     0.196 A 
HETATM    4  C5  UNL     1     -33.989   6.480   4.011  1.00 20.00     0.244 A 
HETATM    5  O8  UNL     1     -34.767   5.352   3.590  1.00 20.00    -0.368 OA
ENDROOT
BRANCH   4   6
HETATM    6  C3  UNL     1     -32.628   6.349   3.408  1.00 20.00     0.291 C 
HETATM    7  O7  UNL     1     -32.145   5.290   3.031  1.00 20.00    -0.262 OA
BRANCH   6   8
HETATM    8  O9  UNL     1     -32.034   7.575   3.352  1.00 20.00    -0.324 OA
HETATM    9  C6  UNL     1     -32.063   8.215   2.073  1.00 20.00     0.213 C 
ENDBRANCH   6   8
ENDBRANCH   4   6
TORSDOF 2
ENDMDL
MODEL 2
REMARK VINA RESULT:      -3.8     11.271     12.417
REMARK  2 active torsions:
REMARK  status: ('A' for Active; 'I' for Inactive)
REMARK    1  A    between atoms: C3_3  and  C5_5 
REMARK    2  A    between atoms: C3_3  and  O9_9 
ROOT
HETATM    1  C1  UNL     1     -34.567  16.593  -2.942  1.00 20.00    -0.002 A 
HETATM    2  C2  UNL     1     -34.593  15.275  -2.757  1.00 20.00     0.013 A 
HETATM    3  C4  UNL     1     -33.606  16.928  -4.020  1.00 20.00     0.196 A 
HETATM    4  C5  UNL     1     -33.650  14.622  -3.694  1.00 20.00     0.244 A 
HETATM    5  O8  UNL     1     -33.040  15.675  -4.450  1.00 20.00    -0.368 OA
ENDROOT
BRANCH   4   6
HETATM    6  C3  UNL     1     -34.415  13.758  -4.644  1.00 20.00     0.291 C 
HETATM    7  O7  UNL     1     -35.027  12.752  -4.314  1.00 20.00    -0.262 OA
BRANCH   6   8
HETATM    8  O9  UNL     1     -34.316  14.269  -5.904  1.00 20.00    -0.324 OA
HETATM    9  C6  UNL     1     -35.552  14.408  -6.610  1.00 20.00     0.213 C 
ENDBRANCH   6   8
ENDBRANCH   4   6
TORSDOF 2
ENDMDL
MODEL 3
REMARK VINA RESULT:      -3.7     11.162     11.998
REMARK  2 active torsions:
REMARK  status: ('A' for Active; 'I' for Inactive)
REMARK    1  A    between atoms: C3_3  and  C5_5 
REMARK    2  A    between atoms: C3_3  and  O9_9 
ROOT
HETATM    1  C1  UNL     1     -33.598  16.423  -2.461  1.00 20.00    -0.002 A 
HETATM    2  C2  UNL     1     -33.396  15.980  -3.700  1.00 20.00     0.013 A 
HETATM    3  C4  UNL     1     -34.928  15.977  -1.981  1.00 20.00     0.196 A 
HETATM    4  C5  UNL     1     -34.574  15.205  -4.150  1.00 20.00     0.244 A 
HETATM    5  O8  UNL     1     -35.514  15.237  -3.069  1.00 20.00    -0.368 OA
ENDROOT
BRANCH   4   6
HETATM    6  C3  UNL     1     -34.176  13.782  -4.369  1.00 20.00     0.291 C 
HETATM    7  O7  UNL     1     -33.346  13.190  -3.692  1.00 20.00    -0.262 OA
BRANCH   6   8
HETATM    8  O9  UNL     1     -34.874  13.270  -5.422  1.00 20.00    -0.324 OA
HETATM    9  C6  UNL     1     -35.192  14.202  -6.460  1.00 20.00     0.213 C 
ENDBRANCH   6   8
ENDBRANCH   4   6
TORSDOF 2
ENDMDL
MODEL 4
REMARK VINA RESULT:      -3.7     11.211     11.990
REMARK  2 active torsions:
REMARK  status: ('A' for Active; 'I' for Inactive)
REMARK    1  A    between atoms: C3_3  and  C5_5 
REMARK    2  A    between atoms: C3_3  and  O9_9 
ROOT
HETATM    1  C1  UNL     1     -34.526  14.321  -5.740  1.00 20.00    -0.002 A 
HETATM    2  C2  UNL     1     -34.015  15.306  -5.005  1.00 20.00     0.013 A 
HETATM    3  C4  UNL     1     -34.702  13.111  -4.902  1.00 20.00     0.196 A 
HETATM    4  C5  UNL     1     -33.806  14.835  -3.617  1.00 20.00     0.244 A 
HETATM    5  O8  UNL     1     -34.224  13.465  -3.589  1.00 20.00    -0.368 OA
ENDROOT
BRANCH   4   6
HETATM    6  C3  UNL     1     -34.695  15.604  -2.694  1.00 20.00     0.291 C 
HETATM    7  O7  UNL     1     -35.917  15.603  -2.761  1.00 20.00    -0.262 OA
BRANCH   6   8
HETATM    8  O9  UNL     1     -33.934  16.287  -1.793  1.00 20.00    -0.324 OA
HETATM    9  C6  UNL     1     -34.638  16.803  -0.659  1.00 20.00     0.213 C 
ENDBRANCH   6   8
ENDBRANCH   4   6
TORSDOF 2
ENDMDL
MODEL 5
REMARK VINA RESULT:      -3.7     10.832     12.027
REMARK  2 active torsions:
REMARK  status: ('A' for Active; 'I' for Inactive)
REMARK    1  A    between atoms: C3_3  and  C5_5 
REMARK    2  A    between atoms: C3_3  and  O9_9 
ROOT
HETATM    1  C1  UNL     1     -35.840  14.885  -6.239  1.00 20.00    -0.002 A 
HETATM    2  C2  UNL     1     -34.926  13.955  -5.972  1.00 20.00     0.013 A 
HETATM    3  C4  UNL     1     -36.766  15.021  -5.088  1.00 20.00     0.196 A 
HETATM    4  C5  UNL     1     -35.167  13.391  -4.625  1.00 20.00     0.244 A 
HETATM    5  O8  UNL     1     -36.326  14.060  -4.110  1.00 20.00    -0.368 OA
ENDROOT
BRANCH   4   6
HETATM    6  C3  UNL     1     -34.013  13.724  -3.736  1.00 20.00     0.291 C 
HETATM    7  O7  UNL     1     -32.943  13.131  -3.752  1.00 20.00    -0.262 OA
BRANCH   6   8
HETATM    8  O9  UNL     1     -34.347  14.769  -2.927  1.00 20.00    -0.324 OA
HETATM    9  C6  UNL     1     -33.564  15.954  -3.098  1.00 20.00     0.213 C 
ENDBRANCH   6   8
ENDBRANCH   4   6
TORSDOF 2
ENDMDL
MODEL 6
REMARK VINA RESULT:      -3.7     11.410     12.076
REMARK  2 active torsions:
REMARK  status: ('A' for Active; 'I' for Inactive)
REMARK    1  A    between atoms: C3_3  and  C5_5 
REMARK    2  A    between atoms: C3_3  and  O9_9 
ROOT
HETATM    1  C1  UNL     1     -35.035  13.355  -4.334  1.00 20.00    -0.002 A 
HETATM    2  C2  UNL     1     -34.006  13.838  -3.641  1.00 20.00     0.013 A 
HETATM    3  C4  UNL     1     -36.198  14.265  -4.204  1.00 20.00     0.196 A 
HETATM    4  C5  UNL     1     -34.398  15.110  -2.991  1.00 20.00     0.244 A 
HETATM    5  O8  UNL     1     -35.767  15.338  -3.344  1.00 20.00    -0.368 OA
ENDROOT
BRANCH   4   6
HETATM    6  C3  UNL     1     -33.585  16.227  -3.560  1.00 20.00     0.291 C 
HETATM    7  O7  UNL     1     -32.829  16.108  -4.514  1.00 20.00    -0.262 OA
BRANCH   6   8
HETATM    8  O9  UNL     1     -33.825  17.369  -2.855  1.00 20.00    -0.324 OA
HETATM    9  C6  UNL     1     -33.713  17.250  -1.434  1.00 20.00     0.213 C 
ENDBRANCH   6   8
ENDBRANCH   4   6
TORSDOF 2
ENDMDL
MODEL 7
REMARK VINA RESULT:      -3.7     11.502     12.952
REMARK  2 active torsions:
REMARK  status: ('A' for Active; 'I' for Inactive)
REMARK    1  A    between atoms: C3_3  and  C5_5 
REMARK    2  A    between atoms: C3_3  and  O9_9 
ROOT
HETATM    1  C1  UNL     1     -36.448  14.866  -6.987  1.00 20.00    -0.002 A 
HETATM    2  C2  UNL     1     -36.147  14.957  -5.694  1.00 20.00     0.013 A 
HETATM    3  C4  UNL     1     -35.204  14.735  -7.783  1.00 20.00     0.196 A 
HETATM    4  C5  UNL     1     -34.678  14.895  -5.519  1.00 20.00     0.244 A 
HETATM    5  O8  UNL     1     -34.121  14.776  -6.834  1.00 20.00    -0.368 OA
ENDROOT
BRANCH   4   6
HETATM    6  C3  UNL     1     -34.322  13.661  -4.757  1.00 20.00     0.291 C 
HETATM    7  O7  UNL     1     -34.909  12.593  -4.868  1.00 20.00    -0.262 OA
BRANCH   6   8
HETATM    8  O9  UNL     1     -33.261  13.920  -3.940  1.00 20.00    -0.324 OA
HETATM    9  C6  UNL     1     -33.099  15.289  -3.559  1.00 20.00     0.213 C 
ENDBRANCH   6   8
ENDBRANCH   4   6
TORSDOF 2
ENDMDL
MODEL 8
REMARK VINA RESULT:      -3.6     11.302     12.264
REMARK  2 active torsions:
REMARK  status: ('A' for Active; 'I' for Inactive)
REMARK    1  A    between atoms: C3_3  and  C5_5 
REMARK    2  A    between atoms: C3_3  and  O9_9 
ROOT
HETATM    1  C1  UNL     1     -33.665  16.103  -2.922  1.00 20.00    -0.002 A 
HETATM    2  C2  UNL     1     -34.832  15.525  -2.650  1.00 20.00     0.013 A 
HETATM    3  C4  UNL     1     -32.916  15.281  -3.903  1.00 20.00     0.196 A 
HETATM    4  C5  UNL     1     -34.959  14.269  -3.425  1.00 20.00     0.244 A 
HETATM    5  O8  UNL     1     -33.746  14.137  -4.178  1.00 20.00    -0.368 OA
ENDROOT
BRANCH   4   6
HETATM    6  C3  UNL     1     -36.088  14.397  -4.394  1.00 20.00     0.291 C 
HETATM    7  O7  UNL     1     -35.962  14.790  -5.546  1.00 20.00    -0.262 OA
BRANCH   6   8
HETATM    8  O9  UNL     1     -37.250  14.013  -3.793  1.00 20.00    -0.324 OA
HETATM    9  C6  UNL     1     -38.407  14.776  -4.147  1.00 20.00     0.213 C 
ENDBRANCH   6   8
ENDBRANCH   4   6
TORSDOF 2
ENDMDL
MODEL 9
REMARK VINA RESULT:      -3.5     11.396     12.389
REMARK  2 active torsions:
REMARK  status: ('A' for Active; 'I' for Inactive)
REMARK    1  A    between atoms: C3_3  and  C5_5 
REMARK    2  A    between atoms: C3_3  and  O9_9 
ROOT
HETATM    1  C1  UNL     1     -33.586  13.686  -3.808  1.00 20.00    -0.002 A 
HETATM    2  C2  UNL     1     -34.802  13.404  -4.272  1.00 20.00     0.013 A 
HETATM    3  C4  UNL     1     -33.352  15.148  -3.874  1.00 20.00     0.196 A 
HETATM    4  C5  UNL     1     -35.478  14.653  -4.687  1.00 20.00     0.244 A 
HETATM    5  O8  UNL     1     -34.547  15.715  -4.445  1.00 20.00    -0.368 OA
ENDROOT
BRANCH   4   6
HETATM    6  C3  UNL     1     -36.671  14.883  -3.817  1.00 20.00     0.291 C 
HETATM    7  O7  UNL     1     -37.628  14.123  -3.752  1.00 20.00    -0.262 OA
BRANCH   6   8
HETATM    8  O9  UNL     1     -36.515  16.048  -3.127  1.00 20.00    -0.324 OA
HETATM    9  C6  UNL     1     -37.619  16.956  -3.196  1.00 20.00     0.213 C 
ENDBRANCH   6   8
ENDBRANCH   4   6
TORSDOF 2
ENDMDL
