MODEL 1
REMARK VINA RESULT:      -5.0      0.000      0.000
REMARK  3 active torsions:
REMARK  status: ('A' for Active; 'I' for Inactive)
REMARK    1  A    between atoms: C4_4  and  C8_8 
REMARK    2  A    between atoms: C7_7  and  C11_11 
REMARK    3  A    between atoms: C8_8  and  O12_12 
ROOT
HETATM    1  C1  UNL     1     -33.155  16.010  -3.477  1.00 20.00    -0.022 C 
HETATM    2  C2  UNL     1     -33.307  14.863  -4.155  1.00 20.00     0.011 C 
HETATM    3  C5  UNL     1     -35.449  15.712  -2.459  1.00 20.00     0.012 C 
HETATM    4  C6  UNL     1     -35.803  14.958  -3.742  1.00 20.00     0.047 C 
HETATM    5  C7  UNL     1     -34.260  16.662  -2.687  1.00 20.00     0.011 C 
HETATM    6  C8  UNL     1     -34.612  14.115  -4.245  1.00 20.00     0.092 C 
ENDROOT
BRANCH   6   7
HETATM    7  C4  UNL     1     -34.867  13.649  -5.649  1.00 20.00     0.004 C 
HETATM    8  C3  UNL     1     -35.177  14.464  -6.663  1.00 20.00     0.010 C 
ENDBRANCH   6   7
BRANCH   6   9
HETATM    9  O12 UNL     1     -34.479  12.960  -3.411  1.00 20.00    -0.382 OA
HETATM   10  H30 UNL     1     -33.919  12.338  -3.899  1.00 20.00     0.211 HD
ENDBRANCH   6   9
BRANCH   5  11
HETATM   11  C11 UNL     1     -33.739  17.178  -1.345  1.00 20.00    -0.015 C 
HETATM   12  C9  UNL     1     -33.367  18.654  -1.447  1.00 20.00     0.010 C 
HETATM   13  C10 UNL     1     -34.778  16.959  -0.248  1.00 20.00     0.010 C 
ENDBRANCH   5  11
TORSDOF 3
ENDMDL
MODEL 2
REMARK VINA RESULT:      -4.9      1.683      2.016
REMARK  3 active torsions:
REMARK  status: ('A' for Active; 'I' for Inactive)
REMARK    1  A    between atoms: C4_4  and  C8_8 
REMARK    2  A    between atoms: C7_7  and  C11_11 
REMARK    3  A    between atoms: C8_8  and  O12_12 
ROOT
HETATM    1  C1  UNL     1     -34.041  18.023  -3.054  1.00 20.00    -0.022 C 
HETATM    2  C2  UNL     1     -33.629  17.697  -4.288  1.00 20.00     0.011 C 
HETATM    3  C5  UNL     1     -34.286  15.572  -2.489  1.00 20.00     0.012 C 
HETATM    4  C6  UNL     1     -34.567  15.366  -3.980  1.00 20.00     0.047 C 
HETATM    5  C7  UNL     1     -34.581  17.021  -2.066  1.00 20.00     0.011 C 
HETATM    6  C8  UNL     1     -33.699  16.301  -4.848  1.00 20.00     0.092 C 
ENDROOT
BRANCH   6   7
HETATM    7  C4  UNL     1     -34.211  16.314  -6.259  1.00 20.00     0.004 C 
HETATM    8  C3  UNL     1     -34.388  15.216  -7.002  1.00 20.00     0.010 C 
ENDBRANCH   6   7
BRANCH   6   9
HETATM    9  O12 UNL     1     -32.358  15.800  -4.868  1.00 20.00    -0.382 OA
HETATM   10  H30 UNL     1     -31.878  16.338  -5.513  1.00 20.00     0.211 HD
ENDBRANCH   6   9
BRANCH   5  11
HETATM   11  C11 UNL     1     -34.022  17.280  -0.666  1.00 20.00    -0.015 C 
HETATM   12  C9  UNL     1     -33.102  18.497  -0.675  1.00 20.00     0.010 C 
HETATM   13  C10 UNL     1     -35.157  17.470   0.336  1.00 20.00     0.010 C 
ENDBRANCH   5  11
TORSDOF 3
ENDMDL
MODEL 3
REMARK VINA RESULT:      -4.9      1.645      4.645
REMARK  3 active torsions:
REMARK  status: ('A' for Active; 'I' for Inactive)
REMARK    1  A    between atoms: C4_4  and  C8_8 
REMARK    2  A    between atoms: C7_7  and  C11_11 
REMARK    3  A    between atoms: C8_8  and  O12_12 
ROOT
HETATM    1  C1  UNL     1     -34.494  16.876  -5.030  1.00 20.00    -0.022 C 
HETATM    2  C2  UNL     1     -35.039  16.970  -3.809  1.00 20.00     0.011 C 
HETATM    3  C5  UNL     1     -34.334  14.368  -4.766  1.00 20.00     0.012 C 
HETATM    4  C6  UNL     1     -34.208  14.642  -3.266  1.00 20.00     0.047 C 
HETATM    5  C7  UNL     1     -33.920  15.600  -5.589  1.00 20.00     0.011 C 
HETATM    6  C8  UNL     1     -35.100  15.824  -2.833  1.00 20.00     0.092 C 
ENDROOT
BRANCH   6   7
HETATM    7  C4  UNL     1     -34.724  16.274  -1.452  1.00 20.00     0.004 C 
HETATM    8  C3  UNL     1     -33.825  17.230  -1.195  1.00 20.00     0.010 C 
ENDBRANCH   6   7
BRANCH   6   9
HETATM    9  O12 UNL     1     -36.463  15.387  -2.802  1.00 20.00    -0.382 OA
HETATM   10  H30 UNL     1     -36.785  15.572  -1.908  1.00 20.00     0.211 HD
ENDBRANCH   6   9
BRANCH   5  11
HETATM   11  C11 UNL     1     -34.329  15.413  -7.051  1.00 20.00    -0.015 C 
HETATM   12  C9  UNL     1     -35.451  14.385  -7.165  1.00 20.00     0.010 C 
HETATM   13  C10 UNL     1     -34.754  16.745  -7.662  1.00 20.00     0.010 C 
ENDBRANCH   5  11
TORSDOF 3
ENDMDL
MODEL 4
REMARK VINA RESULT:      -4.7      1.587      2.361
REMARK  3 active torsions:
REMARK  status: ('A' for Active; 'I' for Inactive)
REMARK    1  A    between atoms: C4_4  and  C8_8 
REMARK    2  A    between atoms: C7_7  and  C11_11 
REMARK    3  A    between atoms: C8_8  and  O12_12 
ROOT
HETATM    1  C1  UNL     1     -34.774  15.807  -1.937  1.00 20.00    -0.022 C 
HETATM    2  C2  UNL     1     -35.285  15.285  -3.061  1.00 20.00     0.011 C 
HETATM    3  C5  UNL     1     -33.657  17.626  -3.289  1.00 20.00     0.012 C 
HETATM    4  C6  UNL     1     -33.611  16.605  -4.427  1.00 20.00     0.047 C 
HETATM    5  C7  UNL     1     -33.766  16.928  -1.923  1.00 20.00     0.011 C 
HETATM    6  C8  UNL     1     -34.879  15.725  -4.443  1.00 20.00     0.092 C 
ENDROOT
BRANCH   6   7
HETATM    7  C4  UNL     1     -34.673  14.543  -5.344  1.00 20.00     0.004 C 
HETATM    8  C3  UNL     1     -34.581  13.280  -4.912  1.00 20.00     0.010 C 
ENDBRANCH   6   7
BRANCH   6   9
HETATM    9  O12 UNL     1     -35.968  16.496  -4.963  1.00 20.00    -0.382 OA
HETATM   10  H30 UNL     1     -35.595  17.054  -5.661  1.00 20.00     0.211 HD
ENDBRANCH   6   9
BRANCH   5  11
HETATM   11  C11 UNL     1     -34.105  17.952  -0.838  1.00 20.00    -0.015 C 
HETATM   12  C9  UNL     1     -34.940  17.307   0.264  1.00 20.00     0.010 C 
HETATM   13  C10 UNL     1     -32.830  18.560  -0.261  1.00 20.00     0.010 C 
ENDBRANCH   5  11
TORSDOF 3
ENDMDL
MODEL 5
REMARK VINA RESULT:      -4.6      2.245      4.494
REMARK  3 active torsions:
REMARK  status: ('A' for Active; 'I' for Inactive)
REMARK    1  A    between atoms: C4_4  and  C8_8 
REMARK    2  A    between atoms: C7_7  and  C11_11 
REMARK    3  A    between atoms: C8_8  and  O12_12 
ROOT
HETATM    1  C1  UNL     1     -36.601  15.564  -4.114  1.00 20.00    -0.022 C 
HETATM    2  C2  UNL     1     -35.734  14.716  -3.541  1.00 20.00     0.011 C 
HETATM    3  C5  UNL     1     -36.073  14.572  -6.378  1.00 20.00     0.012 C 
HETATM    4  C6  UNL     1     -34.688  14.266  -5.802  1.00 20.00     0.047 C 
HETATM    5  C7  UNL     1     -36.752  15.716  -5.606  1.00 20.00     0.011 C 
HETATM    6  C8  UNL     1     -34.777  13.851  -4.318  1.00 20.00     0.092 C 
ENDROOT
BRANCH   6   7
HETATM    7  C4  UNL     1     -33.411  13.869  -3.696  1.00 20.00     0.004 C 
HETATM    8  C3  UNL     1     -32.648  14.963  -3.598  1.00 20.00     0.010 C 
ENDBRANCH   6   7
BRANCH   6   9
HETATM    9  O12 UNL     1     -35.281  12.514  -4.242  1.00 20.00    -0.382 OA
HETATM   10  H30 UNL     1     -36.241  12.592  -4.138  1.00 20.00     0.211 HD
ENDBRANCH   6   9
BRANCH   5  11
HETATM   11  C11 UNL     1     -38.227  15.807  -5.998  1.00 20.00    -0.015 C 
HETATM   12  C9  UNL     1     -38.438  15.281  -7.414  1.00 20.00     0.010 C 
HETATM   13  C10 UNL     1     -39.093  15.039  -5.003  1.00 20.00     0.010 C 
ENDBRANCH   5  11
TORSDOF 3
ENDMDL
MODEL 6
REMARK VINA RESULT:      -4.5      1.426      1.636
REMARK  3 active torsions:
REMARK  status: ('A' for Active; 'I' for Inactive)
REMARK    1  A    between atoms: C4_4  and  C8_8 
REMARK    2  A    between atoms: C7_7  and  C11_11 
REMARK    3  A    between atoms: C8_8  and  O12_12 
ROOT
HETATM    1  C1  UNL     1     -33.910  15.640  -2.684  1.00 20.00    -0.022 C 
HETATM    2  C2  UNL     1     -34.799  14.887  -3.348  1.00 20.00     0.011 C 
HETATM    3  C5  UNL     1     -35.593  17.522  -2.566  1.00 20.00     0.012 C 
HETATM    4  C6  UNL     1     -36.153  16.961  -3.875  1.00 20.00     0.047 C 
HETATM    5  C7  UNL     1     -34.129  17.096  -2.363  1.00 20.00     0.011 C 
HETATM    6  C8  UNL     1     -36.099  15.419  -3.892  1.00 20.00     0.092 C 
ENDROOT
BRANCH   6   7
HETATM    7  C4  UNL     1     -36.346  14.911  -5.283  1.00 20.00     0.004 C 
HETATM    8  C3  UNL     1     -35.385  14.459  -6.096  1.00 20.00     0.010 C 
ENDBRANCH   6   7
BRANCH   6   9
HETATM    9  O12 UNL     1     -37.135  14.911  -3.045  1.00 20.00    -0.382 OA
HETATM   10  H30 UNL     1     -37.126  15.461  -2.248  1.00 20.00     0.211 HD
ENDBRANCH   6   9
BRANCH   5  11
HETATM   11  C11 UNL     1     -33.686  17.412  -0.934  1.00 20.00    -0.015 C 
HETATM   12  C9  UNL     1     -33.145  18.836  -0.844  1.00 20.00     0.010 C 
HETATM   13  C10 UNL     1     -34.843  17.213   0.041  1.00 20.00     0.010 C 
ENDBRANCH   5  11
TORSDOF 3
ENDMDL
MODEL 7
REMARK VINA RESULT:      -4.5      1.906      4.801
REMARK  3 active torsions:
REMARK  status: ('A' for Active; 'I' for Inactive)
REMARK    1  A    between atoms: C4_4  and  C8_8 
REMARK    2  A    between atoms: C7_7  and  C11_11 
REMARK    3  A    between atoms: C8_8  and  O12_12 
ROOT
HETATM    1  C1  UNL     1     -33.368  16.572  -4.764  1.00 20.00    -0.022 C 
HETATM    2  C2  UNL     1     -33.649  17.778  -4.250  1.00 20.00     0.011 C 
HETATM    3  C5  UNL     1     -34.346  15.469  -2.712  1.00 20.00     0.012 C 
HETATM    4  C6  UNL     1     -33.919  16.732  -1.961  1.00 20.00     0.047 C 
HETATM    5  C7  UNL     1     -33.521  15.284  -3.997  1.00 20.00     0.011 C 
HETATM    6  C8  UNL     1     -34.105  17.993  -2.831  1.00 20.00     0.092 C 
ENDROOT
BRANCH   6   7
HETATM    7  C4  UNL     1     -33.392  19.157  -2.208  1.00 20.00     0.004 C 
HETATM    8  C3  UNL     1     -32.923  19.165  -0.956  1.00 20.00     0.010 C 
ENDBRANCH   6   7
BRANCH   6   9
HETATM    9  O12 UNL     1     -35.500  18.308  -2.893  1.00 20.00    -0.382 OA
HETATM   10  H30 UNL     1     -35.912  17.861  -2.140  1.00 20.00     0.211 HD
ENDBRANCH   6   9
BRANCH   5  11
HETATM   11  C11 UNL     1     -34.152  14.200  -4.872  1.00 20.00    -0.015 C 
HETATM   12  C9  UNL     1     -35.374  13.601  -4.182  1.00 20.00     0.010 C 
HETATM   13  C10 UNL     1     -34.529  14.767  -6.238  1.00 20.00     0.010 C 
ENDBRANCH   5  11
TORSDOF 3
ENDMDL
MODEL 8
REMARK VINA RESULT:      -4.4      1.552      4.886
REMARK  3 active torsions:
REMARK  status: ('A' for Active; 'I' for Inactive)
REMARK    1  A    between atoms: C4_4  and  C8_8 
REMARK    2  A    between atoms: C7_7  and  C11_11 
REMARK    3  A    between atoms: C8_8  and  O12_12 
ROOT
HETATM    1  C1  UNL     1     -35.945  14.916  -4.325  1.00 20.00    -0.022 C 
HETATM    2  C2  UNL     1     -35.094  15.018  -3.294  1.00 20.00     0.011 C 
HETATM    3  C5  UNL     1     -34.362  16.262  -5.764  1.00 20.00     0.012 C 
HETATM    4  C6  UNL     1     -33.918  16.932  -4.462  1.00 20.00     0.047 C 
HETATM    5  C7  UNL     1     -35.771  15.661  -5.624  1.00 20.00     0.011 C 
HETATM    6  C8  UNL     1     -33.890  15.923  -3.294  1.00 20.00     0.092 C 
ENDROOT
BRANCH   6   7
HETATM    7  C4  UNL     1     -33.768  16.653  -1.988  1.00 20.00     0.004 C 
HETATM    8  C3  UNL     1     -34.645  16.541  -0.983  1.00 20.00     0.010 C 
ENDBRANCH   6   7
BRANCH   6   9
HETATM    9  O12 UNL     1     -32.743  15.079  -3.439  1.00 20.00    -0.382 OA
HETATM   10  H30 UNL     1     -32.944  14.265  -2.956  1.00 20.00     0.211 HD
ENDBRANCH   6   9
BRANCH   5  11
HETATM   11  C11 UNL     1     -36.073  14.755  -6.818  1.00 20.00    -0.015 C 
HETATM   12  C9  UNL     1     -37.356  15.198  -7.514  1.00 20.00     0.010 C 
HETATM   13  C10 UNL     1     -34.903  14.751  -7.797  1.00 20.00     0.010 C 
ENDBRANCH   5  11
TORSDOF 3
ENDMDL
MODEL 9
REMARK VINA RESULT:      -4.3      1.736      4.743
REMARK  3 active torsions:
REMARK  status: ('A' for Active; 'I' for Inactive)
REMARK    1  A    between atoms: C4_4  and  C8_8 
REMARK    2  A    between atoms: C7_7  and  C11_11 
REMARK    3  A    between atoms: C8_8  and  O12_12 
ROOT
HETATM    1  C1  UNL     1     -34.008  14.697  -4.089  1.00 20.00    -0.022 C 
HETATM    2  C2  UNL     1     -33.711  15.487  -3.047  1.00 20.00     0.011 C 
HETATM    3  C5  UNL     1     -36.083  16.068  -4.537  1.00 20.00     0.012 C 
HETATM    4  C6  UNL     1     -36.090  16.352  -3.033  1.00 20.00     0.047 C 
HETATM    5  C7  UNL     1     -35.305  14.779  -4.852  1.00 20.00     0.011 C 
HETATM    6  C8  UNL     1     -34.656  16.517  -2.486  1.00 20.00     0.092 C 
ENDROOT
BRANCH   6   7
HETATM    7  C4  UNL     1     -34.670  16.473  -0.986  1.00 20.00     0.004 C 
HETATM    8  C3  UNL     1     -34.334  17.505  -0.204  1.00 20.00     0.010 C 
ENDBRANCH   6   7
BRANCH   6   9
HETATM    9  O12 UNL     1     -34.153  17.795  -2.888  1.00 20.00    -0.382 OA
HETATM   10  H30 UNL     1     -34.797  18.154  -3.516  1.00 20.00     0.211 HD
ENDBRANCH   6   9
BRANCH   5  11
HETATM   11  C11 UNL     1     -35.059  14.672  -6.358  1.00 20.00    -0.015 C 
HETATM   12  C9  UNL     1     -36.376  14.766  -7.123  1.00 20.00     0.010 C 
HETATM   13  C10 UNL     1     -34.090  15.757  -6.819  1.00 20.00     0.010 C 
ENDBRANCH   5  11
TORSDOF 3
ENDMDL
