MODEL 1
REMARK VINA RESULT:      -4.4      0.000      0.000
REMARK  3 active torsions:
REMARK  status: ('A' for Active; 'I' for Inactive)
REMARK    1  A    between atoms: C1_1  and  C7_7 
REMARK    2  A    between atoms: C2_2  and  C8_8 
REMARK    3  A    between atoms: C7_7  and  C9_9 
ROOT
HETATM    1  C1  UNL     1     -33.732   6.313   3.807  1.00 20.00     0.062 A 
HETATM    2  C2  UNL     1     -33.909   5.094   4.665  1.00 20.00     0.064 A 
HETATM    3  S10 UNL     1     -35.261   5.518   3.677  1.00 20.00    -0.157 SA
ENDROOT
BRANCH   1   4
HETATM    4  C7  UNL     1     -32.800   6.277   2.605  1.00 20.00     0.020 C 
BRANCH   4   5
HETATM    5  C9  UNL     1     -31.751   7.403   2.605  1.00 20.00    -0.022 C 
HETATM    6  C5  UNL     1     -32.210   8.626   1.809  1.00 20.00     0.009 C 
HETATM    7  C6  UNL     1     -31.430   7.815   4.045  1.00 20.00     0.009 C 
ENDBRANCH   4   5
ENDBRANCH   1   4
BRANCH   2   8
HETATM    8  C8  UNL     1     -34.048   5.229   6.142  1.00 20.00    -0.008 C 
HETATM    9  C3  UNL     1     -34.029   6.703   6.589  1.00 20.00     0.011 C 
HETATM   10  C4  UNL     1     -35.335   4.561   6.663  1.00 20.00     0.011 C 
ENDBRANCH   2   8
TORSDOF 3
ENDMDL
MODEL 2
REMARK VINA RESULT:      -4.4      1.043      1.968
REMARK  3 active torsions:
REMARK  status: ('A' for Active; 'I' for Inactive)
REMARK    1  A    between atoms: C1_1  and  C7_7 
REMARK    2  A    between atoms: C2_2  and  C8_8 
REMARK    3  A    between atoms: C7_7  and  C9_9 
ROOT
HETATM    1  C1  UNL     1     -33.490   6.976   3.254  1.00 20.00     0.062 A 
HETATM    2  C2  UNL     1     -33.391   5.950   4.346  1.00 20.00     0.064 A 
HETATM    3  S10 UNL     1     -33.946   5.368   2.818  1.00 20.00    -0.157 SA
ENDROOT
BRANCH   1   4
HETATM    4  C7  UNL     1     -32.229   7.559   2.633  1.00 20.00     0.020 C 
BRANCH   4   5
HETATM    5  C9  UNL     1     -32.508   8.599   1.534  1.00 20.00    -0.022 C 
HETATM    6  C5  UNL     1     -32.674  10.012   2.098  1.00 20.00     0.009 C 
HETATM    7  C6  UNL     1     -31.377   8.584   0.503  1.00 20.00     0.009 C 
ENDBRANCH   4   5
ENDBRANCH   1   4
BRANCH   2   8
HETATM    8  C8  UNL     1     -34.354   5.968   5.483  1.00 20.00    -0.008 C 
HETATM    9  C3  UNL     1     -34.671   4.549   5.990  1.00 20.00     0.011 C 
HETATM   10  C4  UNL     1     -33.839   6.821   6.659  1.00 20.00     0.011 C 
ENDBRANCH   2   8
TORSDOF 3
ENDMDL
MODEL 3
REMARK VINA RESULT:      -4.2      1.815      4.981
REMARK  3 active torsions:
REMARK  status: ('A' for Active; 'I' for Inactive)
REMARK    1  A    between atoms: C1_1  and  C7_7 
REMARK    2  A    between atoms: C2_2  and  C8_8 
REMARK    3  A    between atoms: C7_7  and  C9_9 
ROOT
HETATM    1  C1  UNL     1     -32.883   7.356   3.231  1.00 20.00     0.062 A 
HETATM    2  C2  UNL     1     -31.915   7.617   2.113  1.00 20.00     0.064 A 
HETATM    3  S10 UNL     1     -31.245   7.631   3.704  1.00 20.00    -0.157 SA
ENDROOT
BRANCH   1   4
HETATM    4  C7  UNL     1     -33.466   5.965   3.433  1.00 20.00     0.020 C 
BRANCH   4   5
HETATM    5  C9  UNL     1     -34.555   5.905   4.518  1.00 20.00    -0.022 C 
HETATM    6  C5  UNL     1     -35.180   4.514   4.639  1.00 20.00     0.009 C 
HETATM    7  C6  UNL     1     -33.968   6.327   5.868  1.00 20.00     0.009 C 
ENDBRANCH   4   5
ENDBRANCH   1   4
BRANCH   2   8
HETATM    8  C8  UNL     1     -31.966   8.901   1.360  1.00 20.00    -0.008 C 
HETATM    9  C3  UNL     1     -32.507   8.708  -0.070  1.00 20.00     0.011 C 
HETATM   10  C4  UNL     1     -32.821   9.959   2.083  1.00 20.00     0.011 C 
ENDBRANCH   2   8
TORSDOF 3
ENDMDL
MODEL 4
REMARK VINA RESULT:      -4.1     11.701     13.257
REMARK  3 active torsions:
REMARK  status: ('A' for Active; 'I' for Inactive)
REMARK    1  A    between atoms: C1_1  and  C7_7 
REMARK    2  A    between atoms: C2_2  and  C8_8 
REMARK    3  A    between atoms: C7_7  and  C9_9 
ROOT
HETATM    1  C1  UNL     1     -33.887  15.633  -3.079  1.00 20.00     0.062 A 
HETATM    2  C2  UNL     1     -34.494  15.613  -4.452  1.00 20.00     0.064 A 
HETATM    3  S10 UNL     1     -34.129  14.069  -3.772  1.00 20.00    -0.157 SA
ENDROOT
BRANCH   1   4
HETATM    4  C7  UNL     1     -34.728  16.022  -1.872  1.00 20.00     0.020 C 
BRANCH   4   5
HETATM    5  C9  UNL     1     -34.045  17.047  -0.950  1.00 20.00    -0.022 C 
HETATM    6  C5  UNL     1     -33.724  18.356  -1.672  1.00 20.00     0.009 C 
HETATM    7  C6  UNL     1     -34.935  17.330   0.263  1.00 20.00     0.009 C 
ENDBRANCH   4   5
ENDBRANCH   1   4
BRANCH   2   8
HETATM    8  C8  UNL     1     -33.704  16.068  -5.630  1.00 20.00    -0.008 C 
HETATM    9  C3  UNL     1     -34.270  15.512  -6.951  1.00 20.00     0.011 C 
HETATM   10  C4  UNL     1     -33.635  17.605  -5.718  1.00 20.00     0.011 C 
ENDBRANCH   2   8
TORSDOF 3
ENDMDL
MODEL 5
REMARK VINA RESULT:      -4.1     11.368     12.085
REMARK  3 active torsions:
REMARK  status: ('A' for Active; 'I' for Inactive)
REMARK    1  A    between atoms: C1_1  and  C7_7 
REMARK    2  A    between atoms: C2_2  and  C8_8 
REMARK    3  A    between atoms: C7_7  and  C9_9 
ROOT
HETATM    1  C1  UNL     1     -34.507  15.735  -2.554  1.00 20.00     0.062 A 
HETATM    2  C2  UNL     1     -35.059  16.815  -1.669  1.00 20.00     0.064 A 
HETATM    3  S10 UNL     1     -34.262  17.355  -3.102  1.00 20.00    -0.157 SA
ENDROOT
BRANCH   1   4
HETATM    4  C7  UNL     1     -35.445  14.841  -3.352  1.00 20.00     0.020 C 
BRANCH   4   5
HETATM    5  C9  UNL     1     -34.737  13.656  -4.031  1.00 20.00    -0.022 C 
HETATM    6  C5  UNL     1     -34.931  13.655  -5.549  1.00 20.00     0.009 C 
HETATM    7  C6  UNL     1     -33.243  13.684  -3.701  1.00 20.00     0.009 C 
ENDBRANCH   4   5
ENDBRANCH   1   4
BRANCH   2   8
HETATM    8  C8  UNL     1     -34.421  17.109  -0.356  1.00 20.00    -0.008 C 
HETATM    9  C3  UNL     1     -33.227  18.073  -0.500  1.00 20.00     0.011 C 
HETATM   10  C4  UNL     1     -35.425  17.698   0.653  1.00 20.00     0.011 C 
ENDBRANCH   2   8
TORSDOF 3
ENDMDL
MODEL 6
REMARK VINA RESULT:      -4.1     11.660     12.563
REMARK  3 active torsions:
REMARK  status: ('A' for Active; 'I' for Inactive)
REMARK    1  A    between atoms: C1_1  and  C7_7 
REMARK    2  A    between atoms: C2_2  and  C8_8 
REMARK    3  A    between atoms: C7_7  and  C9_9 
ROOT
HETATM    1  C1  UNL     1     -34.341  16.819  -3.412  1.00 20.00     0.062 A 
HETATM    2  C2  UNL     1     -33.789  15.426  -3.319  1.00 20.00     0.064 A 
HETATM    3  S10 UNL     1     -33.333  16.321  -4.724  1.00 20.00    -0.157 SA
ENDROOT
BRANCH   1   4
HETATM    4  C7  UNL     1     -33.828  17.913  -2.486  1.00 20.00     0.020 C 
BRANCH   4   5
HETATM    5  C9  UNL     1     -33.569  17.431  -1.048  1.00 20.00    -0.022 C 
HETATM    6  C5  UNL     1     -32.837  18.477  -0.206  1.00 20.00     0.009 C 
HETATM    7  C6  UNL     1     -34.895  17.063  -0.376  1.00 20.00     0.009 C 
ENDBRANCH   4   5
ENDBRANCH   1   4
BRANCH   2   8
HETATM    8  C8  UNL     1     -34.684  14.250  -3.495  1.00 20.00    -0.008 C 
HETATM    9  C3  UNL     1     -36.155  14.670  -3.681  1.00 20.00     0.011 C 
HETATM   10  C4  UNL     1     -34.255  13.373  -4.687  1.00 20.00     0.011 C 
ENDBRANCH   2   8
TORSDOF 3
ENDMDL
MODEL 7
REMARK VINA RESULT:      -4.0      1.318      4.649
REMARK  3 active torsions:
REMARK  status: ('A' for Active; 'I' for Inactive)
REMARK    1  A    between atoms: C1_1  and  C7_7 
REMARK    2  A    between atoms: C2_2  and  C8_8 
REMARK    3  A    between atoms: C7_7  and  C9_9 
ROOT
HETATM    1  C1  UNL     1     -33.438   6.299   3.909  1.00 20.00     0.062 A 
HETATM    2  C2  UNL     1     -33.067   6.962   2.614  1.00 20.00     0.064 A 
HETATM    3  S10 UNL     1     -32.244   5.484   2.963  1.00 20.00    -0.157 SA
ENDROOT
BRANCH   1   4
HETATM    4  C7  UNL     1     -34.800   5.639   4.071  1.00 20.00     0.020 C 
BRANCH   4   5
HETATM    5  C9  UNL     1     -35.103   5.199   5.514  1.00 20.00    -0.022 C 
HETATM    6  C5  UNL     1     -34.766   3.727   5.756  1.00 20.00     0.009 C 
HETATM    7  C6  UNL     1     -34.326   6.076   6.500  1.00 20.00     0.009 C 
ENDBRANCH   4   5
ENDBRANCH   1   4
BRANCH   2   8
HETATM    8  C8  UNL     1     -32.276   8.224   2.615  1.00 20.00    -0.008 C 
HETATM    9  C3  UNL     1     -31.054   8.135   3.550  1.00 20.00     0.011 C 
HETATM   10  C4  UNL     1     -31.802   8.607   1.200  1.00 20.00     0.011 C 
ENDBRANCH   2   8
TORSDOF 3
ENDMDL
MODEL 8
REMARK VINA RESULT:      -4.0      1.715      4.953
REMARK  3 active torsions:
REMARK  status: ('A' for Active; 'I' for Inactive)
REMARK    1  A    between atoms: C1_1  and  C7_7 
REMARK    2  A    between atoms: C2_2  and  C8_8 
REMARK    3  A    between atoms: C7_7  and  C9_9 
ROOT
HETATM    1  C1  UNL     1     -33.071   7.161   3.584  1.00 20.00     0.062 A 
HETATM    2  C2  UNL     1     -32.221   7.390   2.368  1.00 20.00     0.064 A 
HETATM    3  S10 UNL     1     -31.471   7.738   3.884  1.00 20.00    -0.157 SA
ENDROOT
BRANCH   1   4
HETATM    4  C7  UNL     1     -33.419   5.746   4.022  1.00 20.00     0.020 C 
BRANCH   4   5
HETATM    5  C9  UNL     1     -34.500   5.688   5.115  1.00 20.00    -0.022 C 
HETATM    6  C5  UNL     1     -34.859   4.252   5.504  1.00 20.00     0.009 C 
HETATM    7  C6  UNL     1     -34.031   6.456   6.353  1.00 20.00     0.009 C 
ENDBRANCH   4   5
ENDBRANCH   1   4
BRANCH   2   8
HETATM    8  C8  UNL     1     -32.512   8.527   1.451  1.00 20.00    -0.008 C 
HETATM    9  C3  UNL     1     -32.637   9.861   2.211  1.00 20.00     0.011 C 
HETATM   10  C4  UNL     1     -31.440   8.670   0.354  1.00 20.00     0.011 C 
ENDBRANCH   2   8
TORSDOF 3
ENDMDL
MODEL 9
REMARK VINA RESULT:      -4.0     11.614     13.062
REMARK  3 active torsions:
REMARK  status: ('A' for Active; 'I' for Inactive)
REMARK    1  A    between atoms: C1_1  and  C7_7 
REMARK    2  A    between atoms: C2_2  and  C8_8 
REMARK    3  A    between atoms: C7_7  and  C9_9 
ROOT
HETATM    1  C1  UNL     1     -34.247  15.626  -3.160  1.00 20.00     0.062 A 
HETATM    2  C2  UNL     1     -35.138  15.523  -4.364  1.00 20.00     0.064 A 
HETATM    3  S10 UNL     1     -34.443  14.040  -3.817  1.00 20.00    -0.157 SA
ENDROOT
BRANCH   1   4
HETATM    4  C7  UNL     1     -34.840  15.913  -1.788  1.00 20.00     0.020 C 
BRANCH   4   5
HETATM    5  C9  UNL     1     -34.068  16.982  -0.995  1.00 20.00    -0.022 C 
HETATM    6  C5  UNL     1     -33.747  18.215  -1.840  1.00 20.00     0.009 C 
HETATM    7  C6  UNL     1     -34.872  17.396   0.240  1.00 20.00     0.009 C 
ENDBRANCH   4   5
ENDBRANCH   1   4
BRANCH   2   8
HETATM    8  C8  UNL     1     -34.693  16.066  -5.677  1.00 20.00    -0.008 C 
HETATM    9  C3  UNL     1     -33.445  16.958  -5.536  1.00 20.00     0.011 C 
HETATM   10  C4  UNL     1     -34.400  14.947  -6.694  1.00 20.00     0.011 C 
ENDBRANCH   2   8
TORSDOF 3
ENDMDL
