MODEL 1
REMARK VINA RESULT:      -4.3      0.000      0.000
REMARK  1 active torsions:
REMARK  status: ('A' for Active; 'I' for Inactive)
REMARK    1  A    between atoms: C6_6  and  C7_7 
ROOT
HETATM    1  C1  UNL     1     -34.791  13.852  -4.043  1.00 20.00     0.146 C 
HETATM    2  C2  UNL     1     -35.551  14.775  -3.083  1.00 20.00     0.091 C 
HETATM    3  C5  UNL     1     -33.577  14.799  -4.112  1.00 20.00     0.160 C 
HETATM    4  C7  UNL     1     -34.465  15.875  -3.366  1.00 20.00    -0.010 C 
HETATM    5  C8  UNL     1     -34.994  16.919  -4.371  1.00 20.00     0.018 C 
HETATM    6  O9  UNL     1     -35.051  12.782  -4.552  1.00 20.00    -0.296 OA
HETATM    7 CL10 UNL     1     -32.111  14.114  -3.341  1.00 20.00    -0.116 Cl
ENDROOT
BRANCH   4   8
HETATM    8  C6  UNL     1     -33.874  16.563  -2.135  1.00 20.00    -0.004 A 
HETATM    9  C3  UNL     1     -34.322  17.915  -1.653  1.00 20.00     0.006 A 
HETATM   10  C4  UNL     1     -34.612  16.690  -0.830  1.00 20.00     0.006 A 
ENDBRANCH   4   8
TORSDOF 1
ENDMDL
MODEL 2
REMARK VINA RESULT:      -4.2      2.684      3.909
REMARK  1 active torsions:
REMARK  status: ('A' for Active; 'I' for Inactive)
REMARK    1  A    between atoms: C6_6  and  C7_7 
ROOT
HETATM    1  C1  UNL     1     -33.877  17.793  -3.242  1.00 20.00     0.146 C 
HETATM    2  C2  UNL     1     -33.517  16.661  -4.211  1.00 20.00     0.091 C 
HETATM    3  C5  UNL     1     -34.985  16.962  -2.566  1.00 20.00     0.160 C 
HETATM    4  C7  UNL     1     -34.816  15.915  -3.739  1.00 20.00    -0.010 C 
HETATM    5  C8  UNL     1     -35.949  16.084  -4.772  1.00 20.00     0.018 C 
HETATM    6  O9  UNL     1     -33.449  18.915  -3.074  1.00 20.00    -0.296 OA
HETATM    7 CL10 UNL     1     -34.594  16.524  -0.872  1.00 20.00    -0.116 Cl
ENDROOT
BRANCH   4   8
HETATM    8  C6  UNL     1     -34.642  14.442  -3.366  1.00 20.00    -0.004 A 
HETATM    9  C3  UNL     1     -34.921  13.314  -4.320  1.00 20.00     0.006 A 
HETATM   10  C4  UNL     1     -33.511  13.592  -3.877  1.00 20.00     0.006 A 
ENDBRANCH   4   8
TORSDOF 1
ENDMDL
MODEL 3
REMARK VINA RESULT:      -4.2      2.395      3.149
REMARK  1 active torsions:
REMARK  status: ('A' for Active; 'I' for Inactive)
REMARK    1  A    between atoms: C6_6  and  C7_7 
ROOT
HETATM    1  C1  UNL     1     -33.657  13.637  -3.936  1.00 20.00     0.146 C 
HETATM    2  C2  UNL     1     -35.083  13.285  -4.375  1.00 20.00     0.091 C 
HETATM    3  C5  UNL     1     -33.892  15.148  -4.125  1.00 20.00     0.160 C 
HETATM    4  C7  UNL     1     -35.247  14.774  -4.848  1.00 20.00    -0.010 C 
HETATM    5  C8  UNL     1     -35.084  14.884  -6.377  1.00 20.00     0.018 C 
HETATM    6  O9  UNL     1     -32.708  12.974  -3.575  1.00 20.00    -0.296 OA
HETATM    7 CL10 UNL     1     -33.886  16.055  -2.578  1.00 20.00    -0.116 Cl
ENDROOT
BRANCH   4   8
HETATM    8  C6  UNL     1     -36.523  15.483  -4.389  1.00 20.00    -0.004 A 
HETATM    9  C3  UNL     1     -37.744  15.621  -5.255  1.00 20.00     0.006 A 
HETATM   10  C4  UNL     1     -37.787  14.751  -4.030  1.00 20.00     0.006 A 
ENDBRANCH   4   8
TORSDOF 1
ENDMDL
MODEL 4
REMARK VINA RESULT:      -4.2      1.955      2.733
REMARK  1 active torsions:
REMARK  status: ('A' for Active; 'I' for Inactive)
REMARK    1  A    between atoms: C6_6  and  C7_7 
ROOT
HETATM    1  C1  UNL     1     -34.941  13.803  -4.090  1.00 20.00     0.146 C 
HETATM    2  C2  UNL     1     -33.764  14.785  -4.040  1.00 20.00     0.091 C 
HETATM    3  C5  UNL     1     -35.974  14.911  -3.807  1.00 20.00     0.160 C 
HETATM    4  C7  UNL     1     -34.756  15.861  -3.469  1.00 20.00    -0.010 C 
HETATM    5  C8  UNL     1     -34.594  15.997  -1.941  1.00 20.00     0.018 C 
HETATM    6  O9  UNL     1     -35.022  12.608  -4.282  1.00 20.00    -0.296 OA
HETATM    7 CL10 UNL     1     -37.045  15.241  -5.206  1.00 20.00    -0.116 Cl
ENDROOT
BRANCH   4   8
HETATM    8  C6  UNL     1     -34.711  17.234  -4.141  1.00 20.00    -0.004 A 
HETATM    9  C3  UNL     1     -33.881  18.376  -3.622  1.00 20.00     0.006 A 
HETATM   10  C4  UNL     1     -33.528  17.725  -4.930  1.00 20.00     0.006 A 
ENDBRANCH   4   8
TORSDOF 1
ENDMDL
MODEL 5
REMARK VINA RESULT:      -4.1      1.300      1.344
REMARK  1 active torsions:
REMARK  status: ('A' for Active; 'I' for Inactive)
REMARK    1  A    between atoms: C6_6  and  C7_7 
ROOT
HETATM    1  C1  UNL     1     -35.312  15.255  -4.974  1.00 20.00     0.146 C 
HETATM    2  C2  UNL     1     -35.736  16.231  -3.870  1.00 20.00     0.091 C 
HETATM    3  C5  UNL     1     -33.844  15.250  -4.509  1.00 20.00     0.160 C 
HETATM    4  C7  UNL     1     -34.213  16.465  -3.566  1.00 20.00    -0.010 C 
HETATM    5  C8  UNL     1     -33.728  17.790  -4.188  1.00 20.00     0.018 C 
HETATM    6  O9  UNL     1     -35.911  14.699  -5.870  1.00 20.00    -0.296 OA
HETATM    7 CL10 UNL     1     -33.331  13.673  -3.828  1.00 20.00    -0.116 Cl
ENDROOT
BRANCH   4   8
HETATM    8  C6  UNL     1     -33.805  16.379  -2.094  1.00 20.00    -0.004 A 
HETATM    9  C3  UNL     1     -33.656  17.586  -1.210  1.00 20.00     0.006 A 
HETATM   10  C4  UNL     1     -34.768  16.605  -0.960  1.00 20.00     0.006 A 
ENDBRANCH   4   8
TORSDOF 1
ENDMDL
MODEL 6
REMARK VINA RESULT:      -4.0      2.547      3.882
REMARK  1 active torsions:
REMARK  status: ('A' for Active; 'I' for Inactive)
REMARK    1  A    between atoms: C6_6  and  C7_7 
ROOT
HETATM    1  C1  UNL     1     -34.682  15.997  -2.135  1.00 20.00     0.146 C 
HETATM    2  C2  UNL     1     -35.640  15.216  -3.042  1.00 20.00     0.091 C 
HETATM    3  C5  UNL     1     -33.664  16.214  -3.272  1.00 20.00     0.160 C 
HETATM    4  C7  UNL     1     -34.499  15.174  -4.121  1.00 20.00    -0.010 C 
HETATM    5  C8  UNL     1     -33.798  13.800  -4.122  1.00 20.00     0.018 C 
HETATM    6  O9  UNL     1     -34.717  16.320  -0.967  1.00 20.00    -0.296 OA
HETATM    7 CL10 UNL     1     -33.534  17.929  -3.775  1.00 20.00    -0.116 Cl
ENDROOT
BRANCH   4   8
HETATM    8  C6  UNL     1     -34.907  15.572  -5.541  1.00 20.00    -0.004 A 
HETATM    9  C3  UNL     1     -34.526  14.778  -6.759  1.00 20.00     0.006 A 
HETATM   10  C4  UNL     1     -35.964  14.845  -6.327  1.00 20.00     0.006 A 
ENDBRANCH   4   8
TORSDOF 1
ENDMDL
MODEL 7
REMARK VINA RESULT:      -4.0      2.367      3.876
REMARK  1 active torsions:
REMARK  status: ('A' for Active; 'I' for Inactive)
REMARK    1  A    between atoms: C6_6  and  C7_7 
ROOT
HETATM    1  C1  UNL     1     -34.618  15.683  -2.849  1.00 20.00     0.146 C 
HETATM    2  C2  UNL     1     -34.902  16.450  -4.146  1.00 20.00     0.091 C 
HETATM    3  C5  UNL     1     -34.647  14.318  -3.562  1.00 20.00     0.160 C 
HETATM    4  C7  UNL     1     -35.222  15.072  -4.828  1.00 20.00    -0.010 C 
HETATM    5  C8  UNL     1     -36.746  14.854  -4.931  1.00 20.00     0.018 C 
HETATM    6  O9  UNL     1     -34.437  16.027  -1.700  1.00 20.00    -0.296 OA
HETATM    7 CL10 UNL     1     -33.043  13.520  -3.610  1.00 20.00    -0.116 Cl
ENDROOT
BRANCH   4   8
HETATM    8  C6  UNL     1     -34.549  14.822  -6.178  1.00 20.00    -0.004 A 
HETATM    9  C3  UNL     1     -35.316  14.562  -7.445  1.00 20.00     0.006 A 
HETATM   10  C4  UNL     1     -34.533  15.836  -7.289  1.00 20.00     0.006 A 
ENDBRANCH   4   8
TORSDOF 1
ENDMDL
MODEL 8
REMARK VINA RESULT:      -4.0      2.114      2.608
REMARK  1 active torsions:
REMARK  status: ('A' for Active; 'I' for Inactive)
REMARK    1  A    between atoms: C6_6  and  C7_7 
ROOT
HETATM    1  C1  UNL     1     -35.097  14.584  -5.874  1.00 20.00     0.146 C 
HETATM    2  C2  UNL     1     -34.283  15.817  -5.466  1.00 20.00     0.091 C 
HETATM    3  C5  UNL     1     -35.452  14.242  -4.414  1.00 20.00     0.160 C 
HETATM    4  C7  UNL     1     -34.387  15.326  -3.978  1.00 20.00    -0.010 C 
HETATM    5  C8  UNL     1     -33.079  14.640  -3.535  1.00 20.00     0.018 C 
HETATM    6  O9  UNL     1     -35.361  14.075  -6.943  1.00 20.00    -0.296 OA
HETATM    7 CL10 UNL     1     -37.194  14.457  -4.050  1.00 20.00    -0.116 Cl
ENDROOT
BRANCH   4   8
HETATM    8  C6  UNL     1     -34.815  16.381  -2.956  1.00 20.00    -0.004 A 
HETATM    9  C3  UNL     1     -34.504  16.278  -1.488  1.00 20.00     0.006 A 
HETATM   10  C4  UNL     1     -33.854  17.348  -2.320  1.00 20.00     0.006 A 
ENDBRANCH   4   8
TORSDOF 1
ENDMDL
MODEL 9
REMARK VINA RESULT:      -3.9      1.776      2.092
REMARK  1 active torsions:
REMARK  status: ('A' for Active; 'I' for Inactive)
REMARK    1  A    between atoms: C6_6  and  C7_7 
ROOT
HETATM    1  C1  UNL     1     -34.820  13.647  -4.590  1.00 20.00     0.146 C 
HETATM    2  C2  UNL     1     -34.450  14.490  -3.365  1.00 20.00     0.091 C 
HETATM    3  C5  UNL     1     -35.300  14.877  -5.385  1.00 20.00     0.160 C 
HETATM    4  C7  UNL     1     -35.195  15.698  -4.037  1.00 20.00    -0.010 C 
HETATM    5  C8  UNL     1     -36.594  15.890  -3.419  1.00 20.00     0.018 C 
HETATM    6  O9  UNL     1     -34.757  12.461  -4.836  1.00 20.00    -0.296 OA
HETATM    7 CL10 UNL     1     -34.249  15.257  -6.786  1.00 20.00    -0.116 Cl
ENDROOT
BRANCH   4   8
HETATM    8  C6  UNL     1     -34.431  17.023  -4.064  1.00 20.00    -0.004 A 
HETATM    9  C3  UNL     1     -34.992  18.308  -3.521  1.00 20.00     0.006 A 
HETATM   10  C4  UNL     1     -33.826  17.649  -2.837  1.00 20.00     0.006 A 
ENDBRANCH   4   8
TORSDOF 1
ENDMDL
