MODEL 1
REMARK VINA RESULT:      -4.9      0.000      0.000
REMARK  0 active torsions:
REMARK  status: ('A' for Active; 'I' for Inactive)
ROOT
HETATM    1  C1  UNL     1     -34.538  14.619  -5.948  1.00 20.00     0.082 C 
HETATM    2  C2  UNL     1     -33.920  15.735  -5.576  1.00 20.00    -0.050 C 
HETATM    3  C3  UNL     1     -34.408  13.701  -4.803  1.00 20.00     0.171 C 
HETATM    4  C4  UNL     1     -33.971  17.128  -6.102  1.00 20.00     0.036 C 
HETATM    5  C5  UNL     1     -33.771  14.390  -3.618  1.00 20.00     0.094 C 
HETATM    6  C6  UNL     1     -33.602  17.957  -4.862  1.00 20.00     0.005 C 
HETATM    7  C7  UNL     1     -33.722  17.005  -3.662  1.00 20.00     0.010 C 
HETATM    8  C8  UNL     1     -33.257  15.680  -4.238  1.00 20.00     0.023 C 
HETATM    9  O9  UNL     1     -34.813  12.547  -4.801  1.00 20.00    -0.291 OA
HETATM   10 CL10 UNL     1     -35.498  14.315  -7.296  1.00 20.00    -0.080 Cl
ENDROOT
TORSDOF 0
ENDMDL
MODEL 2
REMARK VINA RESULT:      -4.8     12.737     13.880
REMARK  0 active torsions:
REMARK  status: ('A' for Active; 'I' for Inactive)
ROOT
HETATM    1  C1  UNL     1     -33.997   6.372   5.698  1.00 20.00     0.082 C 
HETATM    2  C2  UNL     1     -33.730   6.477   4.400  1.00 20.00    -0.050 C 
HETATM    3  C3  UNL     1     -34.924   5.232   5.815  1.00 20.00     0.171 C 
HETATM    4  C4  UNL     1     -32.643   7.172   3.657  1.00 20.00     0.036 C 
HETATM    5  C5  UNL     1     -35.109   4.538   4.485  1.00 20.00     0.094 C 
HETATM    6  C6  UNL     1     -32.552   6.346   2.364  1.00 20.00     0.005 C 
HETATM    7  C7  UNL     1     -33.337   5.052   2.630  1.00 20.00     0.010 C 
HETATM    8  C8  UNL     1     -34.473   5.525   3.519  1.00 20.00     0.023 C 
HETATM    9  O9  UNL     1     -35.433   4.869   6.865  1.00 20.00    -0.291 OA
HETATM   10 CL10 UNL     1     -33.290   7.151   7.011  1.00 20.00    -0.080 Cl
ENDROOT
TORSDOF 0
ENDMDL
MODEL 3
REMARK VINA RESULT:      -4.8     12.190     13.710
REMARK  0 active torsions:
REMARK  status: ('A' for Active; 'I' for Inactive)
ROOT
HETATM    1  C1  UNL     1     -33.883   5.705   3.103  1.00 20.00     0.082 C 
HETATM    2  C2  UNL     1     -34.521   5.475   4.246  1.00 20.00    -0.050 C 
HETATM    3  C3  UNL     1     -32.914   6.775   3.405  1.00 20.00     0.171 C 
HETATM    4  C4  UNL     1     -35.353   4.331   4.713  1.00 20.00     0.036 C 
HETATM    5  C5  UNL     1     -32.903   7.102   4.881  1.00 20.00     0.094 C 
HETATM    6  C6  UNL     1     -35.177   4.402   6.238  1.00 20.00     0.005 C 
HETATM    7  C7  UNL     1     -33.990   5.345   6.486  1.00 20.00     0.010 C 
HETATM    8  C8  UNL     1     -34.141   6.373   5.379  1.00 20.00     0.023 C 
HETATM    9  O9  UNL     1     -32.181   7.290   2.573  1.00 20.00    -0.291 OA
HETATM   10 CL10 UNL     1     -33.923   4.851   1.654  1.00 20.00    -0.080 Cl
ENDROOT
TORSDOF 0
ENDMDL
MODEL 4
REMARK VINA RESULT:      -4.7      2.542      2.986
REMARK  0 active torsions:
REMARK  status: ('A' for Active; 'I' for Inactive)
ROOT
HETATM    1  C1  UNL     1     -34.028  14.317  -3.381  1.00 20.00     0.082 C 
HETATM    2  C2  UNL     1     -34.658  15.339  -2.811  1.00 20.00    -0.050 C 
HETATM    3  C3  UNL     1     -35.054  13.620  -4.177  1.00 20.00     0.171 C 
HETATM    4  C4  UNL     1     -34.160  16.592  -2.178  1.00 20.00     0.036 C 
HETATM    5  C5  UNL     1     -36.361  14.379  -4.168  1.00 20.00     0.094 C 
HETATM    6  C6  UNL     1     -35.347  17.549  -2.372  1.00 20.00     0.005 C 
HETATM    7  C7  UNL     1     -36.269  16.879  -3.402  1.00 20.00     0.010 C 
HETATM    8  C8  UNL     1     -36.129  15.404  -3.070  1.00 20.00     0.023 C 
HETATM    9  O9  UNL     1     -34.853  12.590  -4.803  1.00 20.00    -0.291 OA
HETATM   10 CL10 UNL     1     -32.384  13.962  -3.444  1.00 20.00    -0.080 Cl
ENDROOT
TORSDOF 0
ENDMDL
MODEL 5
REMARK VINA RESULT:      -4.7      3.036      4.247
REMARK  0 active torsions:
REMARK  status: ('A' for Active; 'I' for Inactive)
ROOT
HETATM    1  C1  UNL     1     -34.021  16.387  -2.593  1.00 20.00     0.082 C 
HETATM    2  C2  UNL     1     -33.868  15.390  -3.459  1.00 20.00    -0.050 C 
HETATM    3  C3  UNL     1     -33.765  17.617  -3.364  1.00 20.00     0.171 C 
HETATM    4  C4  UNL     1     -34.298  13.965  -3.427  1.00 20.00     0.036 C 
HETATM    5  C5  UNL     1     -33.572  17.313  -4.831  1.00 20.00     0.094 C 
HETATM    6  C6  UNL     1     -34.410  13.626  -4.922  1.00 20.00     0.005 C 
HETATM    7  C7  UNL     1     -34.383  14.969  -5.666  1.00 20.00     0.010 C 
HETATM    8  C8  UNL     1     -33.427  15.799  -4.828  1.00 20.00     0.023 C 
HETATM    9  O9  UNL     1     -33.762  18.740  -2.880  1.00 20.00    -0.291 OA
HETATM   10 CL10 UNL     1     -34.619  16.367  -1.020  1.00 20.00    -0.080 Cl
ENDROOT
TORSDOF 0
ENDMDL
MODEL 6
REMARK VINA RESULT:      -4.4      2.289      2.645
REMARK  0 active torsions:
REMARK  status: ('A' for Active; 'I' for Inactive)
ROOT
HETATM    1  C1  UNL     1     -36.190  14.844  -3.797  1.00 20.00     0.082 C 
HETATM    2  C2  UNL     1     -35.652  15.939  -3.270  1.00 20.00    -0.050 C 
HETATM    3  C3  UNL     1     -35.086  13.871  -3.887  1.00 20.00     0.171 C 
HETATM    4  C4  UNL     1     -36.257  17.134  -2.618  1.00 20.00     0.036 C 
HETATM    5  C5  UNL     1     -33.830  14.408  -3.239  1.00 20.00     0.094 C 
HETATM    6  C6  UNL     1     -35.124  17.608  -1.694  1.00 20.00     0.005 C 
HETATM    7  C7  UNL     1     -34.114  16.452  -1.631  1.00 20.00     0.010 C 
HETATM    8  C8  UNL     1     -34.178  15.874  -3.033  1.00 20.00     0.023 C 
HETATM    9  O9  UNL     1     -35.193  12.757  -4.379  1.00 20.00    -0.291 OA
HETATM   10 CL10 UNL     1     -37.804  14.468  -4.091  1.00 20.00    -0.080 Cl
ENDROOT
TORSDOF 0
ENDMDL
MODEL 7
REMARK VINA RESULT:      -4.4      1.775      2.518
REMARK  0 active torsions:
REMARK  status: ('A' for Active; 'I' for Inactive)
ROOT
HETATM    1  C1  UNL     1     -33.897  14.838  -4.587  1.00 20.00     0.082 C 
HETATM    2  C2  UNL     1     -34.213  15.966  -5.215  1.00 20.00    -0.050 C 
HETATM    3  C3  UNL     1     -34.739  13.798  -5.206  1.00 20.00     0.171 C 
HETATM    4  C4  UNL     1     -33.521  17.281  -5.315  1.00 20.00     0.036 C 
HETATM    5  C5  UNL     1     -35.517  14.349  -6.378  1.00 20.00     0.094 C 
HETATM    6  C6  UNL     1     -34.041  17.821  -6.657  1.00 20.00     0.005 C 
HETATM    7  C7  UNL     1     -34.698  16.628  -7.369  1.00 20.00     0.010 C 
HETATM    8  C8  UNL     1     -35.312  15.848  -6.221  1.00 20.00     0.023 C 
HETATM    9  O9  UNL     1     -34.762  12.630  -4.844  1.00 20.00    -0.291 OA
HETATM   10 CL10 UNL     1     -32.653  14.520  -3.500  1.00 20.00    -0.080 Cl
ENDROOT
TORSDOF 0
ENDMDL
MODEL 8
REMARK VINA RESULT:      -4.4      2.592      3.618
REMARK  0 active torsions:
REMARK  status: ('A' for Active; 'I' for Inactive)
ROOT
HETATM    1  C1  UNL     1     -34.061  16.969  -4.572  1.00 20.00     0.082 C 
HETATM    2  C2  UNL     1     -34.511  15.720  -4.630  1.00 20.00    -0.050 C 
HETATM    3  C3  UNL     1     -33.905  17.262  -3.136  1.00 20.00     0.171 C 
HETATM    4  C4  UNL     1     -34.555  14.725  -5.737  1.00 20.00     0.036 C 
HETATM    5  C5  UNL     1     -34.167  16.034  -2.295  1.00 20.00     0.094 C 
HETATM    6  C6  UNL     1     -34.539  13.390  -4.974  1.00 20.00     0.005 C 
HETATM    7  C7  UNL     1     -34.130  13.728  -3.533  1.00 20.00     0.010 C 
HETATM    8  C8  UNL     1     -34.783  15.080  -3.307  1.00 20.00     0.023 C 
HETATM    9  O9  UNL     1     -33.559  18.347  -2.692  1.00 20.00    -0.291 OA
HETATM   10 CL10 UNL     1     -33.519  17.979  -5.804  1.00 20.00    -0.080 Cl
ENDROOT
TORSDOF 0
ENDMDL
MODEL 9
REMARK VINA RESULT:      -4.3      6.775      7.864
REMARK  0 active torsions:
REMARK  status: ('A' for Active; 'I' for Inactive)
ROOT
HETATM    1  C1  UNL     1     -33.258  18.628   2.301  1.00 20.00     0.082 C 
HETATM    2  C2  UNL     1     -33.597  18.494   1.023  1.00 20.00    -0.050 C 
HETATM    3  C3  UNL     1     -34.420  18.140   3.066  1.00 20.00     0.171 C 
HETATM    4  C4  UNL     1     -32.789  18.477  -0.228  1.00 20.00     0.036 C 
HETATM    5  C5  UNL     1     -35.471  17.555   2.152  1.00 20.00     0.094 C 
HETATM    6  C6  UNL     1     -33.667  17.638  -1.171  1.00 20.00     0.005 C 
HETATM    7  C7  UNL     1     -34.716  16.955  -0.280  1.00 20.00     0.010 C 
HETATM    8  C8  UNL     1     -34.989  18.005   0.782  1.00 20.00     0.023 C 
HETATM    9  O9  UNL     1     -34.494  18.164   4.286  1.00 20.00    -0.291 OA
HETATM   10 CL10 UNL     1     -31.772  19.018   2.988  1.00 20.00    -0.080 Cl
ENDROOT
TORSDOF 0
ENDMDL
