MODEL 1
REMARK VINA RESULT:      -4.8      0.000      0.000
REMARK  1 active torsions:
REMARK  status: ('A' for Active; 'I' for Inactive)
REMARK    1  A    between atoms: C8_8  and  C11_11 
ROOT
HETATM    1  C1  UNL     1     -34.777  15.644  -2.853  1.00 20.00    -0.081 C 
HETATM    2  C2  UNL     1     -34.606  16.521  -1.853  1.00 20.00     0.015 C 
HETATM    3  C3  UNL     1     -36.123  15.022  -3.155  1.00 20.00     0.061 C 
HETATM    4  C4  UNL     1     -33.481  13.706  -3.812  1.00 20.00     0.039 C 
HETATM    5  C5  UNL     1     -36.392  14.847  -4.656  1.00 20.00     0.239 C 
HETATM    6  C6  UNL     1     -34.480  13.218  -4.871  1.00 20.00     0.236 C 
HETATM    7  C7  UNL     1     -33.638  15.238  -3.775  1.00 20.00     0.046 C 
HETATM    8  C8  UNL     1     -34.016  15.529  -5.224  1.00 20.00     0.199 C 
HETATM    9  N12 UNL     1     -35.117  14.499  -5.405  1.00 20.00    -0.066 N 
HETATM   10  H32 UNL     1     -35.339  14.386  -6.404  1.00 20.00     0.280 HD
ENDROOT
BRANCH   8  11
HETATM   11  C11 UNL     1     -34.441  16.942  -5.589  1.00 20.00     0.009 C 
HETATM   12  C9  UNL     1     -33.407  17.962  -5.113  1.00 20.00     0.011 C 
HETATM   13  C10 UNL     1     -34.660  17.071  -7.097  1.00 20.00     0.011 C 
ENDBRANCH   8  11
TORSDOF 1
ENDMDL
MODEL 2
REMARK VINA RESULT:      -4.5      1.552      3.556
REMARK  1 active torsions:
REMARK  status: ('A' for Active; 'I' for Inactive)
REMARK    1  A    between atoms: C8_8  and  C11_11 
ROOT
HETATM    1  C1  UNL     1     -33.793  15.040  -3.603  1.00 20.00    -0.081 C 
HETATM    2  C2  UNL     1     -33.611  13.721  -3.762  1.00 20.00     0.015 C 
HETATM    3  C3  UNL     1     -33.071  16.059  -4.458  1.00 20.00     0.061 C 
HETATM    4  C4  UNL     1     -34.059  16.617  -1.655  1.00 20.00     0.039 C 
HETATM    5  C5  UNL     1     -33.938  17.273  -4.824  1.00 20.00     0.239 C 
HETATM    6  C6  UNL     1     -34.111  17.956  -2.404  1.00 20.00     0.236 C 
HETATM    7  C7  UNL     1     -34.763  15.603  -2.578  1.00 20.00     0.046 C 
HETATM    8  C8  UNL     1     -35.787  16.499  -3.269  1.00 20.00     0.199 C 
HETATM    9  N12 UNL     1     -34.875  17.640  -3.687  1.00 20.00    -0.066 N 
HETATM   10  H32 UNL     1     -35.435  18.457  -3.968  1.00 20.00     0.280 HD
ENDROOT
BRANCH   8  11
HETATM   11  C11 UNL     1     -36.596  15.918  -4.417  1.00 20.00     0.009 C 
HETATM   12  C9  UNL     1     -37.381  14.687  -3.962  1.00 20.00     0.011 C 
HETATM   13  C10 UNL     1     -37.543  16.966  -5.001  1.00 20.00     0.011 C 
ENDBRANCH   8  11
TORSDOF 1
ENDMDL
MODEL 3
REMARK VINA RESULT:      -4.5      1.439      3.311
REMARK  1 active torsions:
REMARK  status: ('A' for Active; 'I' for Inactive)
REMARK    1  A    between atoms: C8_8  and  C11_11 
ROOT
HETATM    1  C1  UNL     1     -34.995  14.898  -6.131  1.00 20.00    -0.081 C 
HETATM    2  C2  UNL     1     -34.286  15.163  -7.238  1.00 20.00     0.015 C 
HETATM    3  C3  UNL     1     -34.931  13.554  -5.438  1.00 20.00     0.061 C 
HETATM    4  C4  UNL     1     -37.321  15.401  -5.300  1.00 20.00     0.039 C 
HETATM    5  C5  UNL     1     -34.977  13.655  -3.907  1.00 20.00     0.239 C 
HETATM    6  C6  UNL     1     -37.305  14.619  -3.979  1.00 20.00     0.236 C 
HETATM    7  C7  UNL     1     -35.888  15.939  -5.476  1.00 20.00     0.046 C 
HETATM    8  C8  UNL     1     -35.470  16.140  -4.023  1.00 20.00     0.199 C 
HETATM    9  N12 UNL     1     -35.880  14.790  -3.458  1.00 20.00    -0.066 N 
HETATM   10  H32 UNL     1     -35.887  14.823  -2.429  1.00 20.00     0.280 HD
ENDROOT
BRANCH   8  11
HETATM   11  C11 UNL     1     -34.024  16.505  -3.731  1.00 20.00     0.009 C 
HETATM   12  C9  UNL     1     -33.640  17.809  -4.431  1.00 20.00     0.011 C 
HETATM   13  C10 UNL     1     -33.784  16.619  -2.226  1.00 20.00     0.011 C 
ENDBRANCH   8  11
TORSDOF 1
ENDMDL
MODEL 4
REMARK VINA RESULT:      -4.5      1.467      2.847
REMARK  1 active torsions:
REMARK  status: ('A' for Active; 'I' for Inactive)
REMARK    1  A    between atoms: C8_8  and  C11_11 
ROOT
HETATM    1  C1  UNL     1     -34.147  14.669  -3.687  1.00 20.00    -0.081 C 
HETATM    2  C2  UNL     1     -33.406  13.556  -3.784  1.00 20.00     0.015 C 
HETATM    3  C3  UNL     1     -33.683  15.878  -2.903  1.00 20.00     0.061 C 
HETATM    4  C4  UNL     1     -36.591  15.205  -3.383  1.00 20.00     0.039 C 
HETATM    5  C5  UNL     1     -34.057  17.213  -3.562  1.00 20.00     0.239 C 
HETATM    6  C6  UNL     1     -36.515  16.734  -3.275  1.00 20.00     0.236 C 
HETATM    7  C7  UNL     1     -35.490  14.808  -4.385  1.00 20.00     0.046 C 
HETATM    8  C8  UNL     1     -35.475  16.029  -5.300  1.00 20.00     0.199 C 
HETATM    9  N12 UNL     1     -35.408  17.125  -4.251  1.00 20.00    -0.066 N 
HETATM   10  H32 UNL     1     -35.625  18.038  -4.676  1.00 20.00     0.280 HD
ENDROOT
BRANCH   8  11
HETATM   11  C11 UNL     1     -34.382  16.129  -6.352  1.00 20.00     0.009 C 
HETATM   12  C9  UNL     1     -34.433  14.934  -7.306  1.00 20.00     0.011 C 
HETATM   13  C10 UNL     1     -34.497  17.438  -7.133  1.00 20.00     0.011 C 
ENDBRANCH   8  11
TORSDOF 1
ENDMDL
MODEL 5
REMARK VINA RESULT:      -4.5      1.312      2.891
REMARK  1 active torsions:
REMARK  status: ('A' for Active; 'I' for Inactive)
REMARK    1  A    between atoms: C8_8  and  C11_11 
ROOT
HETATM    1  C1  UNL     1     -33.958  14.180  -4.115  1.00 20.00    -0.081 C 
HETATM    2  C2  UNL     1     -32.935  13.584  -3.487  1.00 20.00     0.015 C 
HETATM    3  C3  UNL     1     -35.286  13.485  -4.326  1.00 20.00     0.061 C 
HETATM    4  C4  UNL     1     -34.234  15.675  -6.126  1.00 20.00     0.039 C 
HETATM    5  C5  UNL     1     -36.495  14.420  -4.176  1.00 20.00     0.239 C 
HETATM    6  C6  UNL     1     -35.765  15.781  -6.168  1.00 20.00     0.236 C 
HETATM    7  C7  UNL     1     -33.868  15.607  -4.630  1.00 20.00     0.046 C 
HETATM    8  C8  UNL     1     -34.983  16.450  -4.018  1.00 20.00     0.199 C 
HETATM    9  N12 UNL     1     -36.181  15.811  -4.699  1.00 20.00    -0.066 N 
HETATM   10  H32 UNL     1     -37.014  16.404  -4.585  1.00 20.00     0.280 HD
ENDROOT
BRANCH   8  11
HETATM   11  C11 UNL     1     -35.102  16.499  -2.503  1.00 20.00     0.009 C 
HETATM   12  C9  UNL     1     -33.765  16.878  -1.865  1.00 20.00     0.011 C 
HETATM   13  C10 UNL     1     -36.193  17.481  -2.075  1.00 20.00     0.011 C 
ENDBRANCH   8  11
TORSDOF 1
ENDMDL
MODEL 6
REMARK VINA RESULT:      -4.5      1.292      2.857
REMARK  1 active torsions:
REMARK  status: ('A' for Active; 'I' for Inactive)
REMARK    1  A    between atoms: C8_8  and  C11_11 
ROOT
HETATM    1  C1  UNL     1     -34.131  15.601  -3.482  1.00 20.00    -0.081 C 
HETATM    2  C2  UNL     1     -33.746  16.287  -2.396  1.00 20.00     0.015 C 
HETATM    3  C3  UNL     1     -33.915  14.108  -3.608  1.00 20.00     0.061 C 
HETATM    4  C4  UNL     1     -34.109  15.981  -5.974  1.00 20.00     0.039 C 
HETATM    5  C5  UNL     1     -35.075  13.381  -4.303  1.00 20.00     0.239 C 
HETATM    6  C6  UNL     1     -34.647  14.626  -6.453  1.00 20.00     0.236 C 
HETATM    7  C7  UNL     1     -34.841  16.269  -4.648  1.00 20.00     0.046 C 
HETATM    8  C8  UNL     1     -36.181  15.584  -4.900  1.00 20.00     0.199 C 
HETATM    9  N12 UNL     1     -35.682  14.239  -5.400  1.00 20.00    -0.066 N 
HETATM   10  H32 UNL     1     -36.451  13.717  -5.843  1.00 20.00     0.280 HD
ENDROOT
BRANCH   8  11
HETATM   11  C11 UNL     1     -37.164  15.475  -3.746  1.00 20.00     0.009 C 
HETATM   12  C9  UNL     1     -37.520  16.860  -3.203  1.00 20.00     0.011 C 
HETATM   13  C10 UNL     1     -38.429  14.733  -4.178  1.00 20.00     0.011 C 
ENDBRANCH   8  11
TORSDOF 1
ENDMDL
MODEL 7
REMARK VINA RESULT:      -4.5      1.325      1.697
REMARK  1 active torsions:
REMARK  status: ('A' for Active; 'I' for Inactive)
REMARK    1  A    between atoms: C8_8  and  C11_11 
ROOT
HETATM    1  C1  UNL     1     -35.019  16.484  -3.811  1.00 20.00    -0.081 C 
HETATM    2  C2  UNL     1     -35.317  17.784  -3.672  1.00 20.00     0.015 C 
HETATM    3  C3  UNL     1     -35.915  15.391  -3.269  1.00 20.00     0.061 C 
HETATM    4  C4  UNL     1     -32.935  15.072  -3.671  1.00 20.00     0.039 C 
HETATM    5  C5  UNL     1     -36.000  14.161  -4.184  1.00 20.00     0.239 C 
HETATM    6  C6  UNL     1     -33.548  13.677  -3.863  1.00 20.00     0.236 C 
HETATM    7  C7  UNL     1     -33.777  16.015  -4.552  1.00 20.00     0.046 C 
HETATM    8  C8  UNL     1     -34.174  15.077  -5.687  1.00 20.00     0.199 C 
HETATM    9  N12 UNL     1     -34.672  13.896  -4.872  1.00 20.00    -0.066 N 
HETATM   10  H32 UNL     1     -34.769  13.065  -5.471  1.00 20.00     0.280 HD
ENDROOT
BRANCH   8  11
HETATM   11  C11 UNL     1     -35.180  15.572  -6.714  1.00 20.00     0.009 C 
HETATM   12  C9  UNL     1     -34.670  16.833  -7.412  1.00 20.00     0.011 C 
HETATM   13  C10 UNL     1     -35.488  14.483  -7.743  1.00 20.00     0.011 C 
ENDBRANCH   8  11
TORSDOF 1
ENDMDL
MODEL 8
REMARK VINA RESULT:      -4.4      1.365      3.330
REMARK  1 active torsions:
REMARK  status: ('A' for Active; 'I' for Inactive)
REMARK    1  A    between atoms: C8_8  and  C11_11 
ROOT
HETATM    1  C1  UNL     1     -35.505  15.854  -5.131  1.00 20.00    -0.081 C 
HETATM    2  C2  UNL     1     -36.556  16.492  -5.665  1.00 20.00     0.015 C 
HETATM    3  C3  UNL     1     -34.118  15.950  -5.729  1.00 20.00     0.061 C 
HETATM    4  C4  UNL     1     -35.083  13.593  -4.099  1.00 20.00     0.039 C 
HETATM    5  C5  UNL     1     -33.002  16.005  -4.677  1.00 20.00     0.239 C 
HETATM    6  C6  UNL     1     -33.569  13.688  -3.864  1.00 20.00     0.236 C 
HETATM    7  C7  UNL     1     -35.625  15.017  -3.868  1.00 20.00     0.046 C 
HETATM    8  C8  UNL     1     -34.652  15.531  -2.811  1.00 20.00     0.199 C 
HETATM    9  N12 UNL     1     -33.341  15.145  -3.472  1.00 20.00    -0.066 N 
HETATM   10  H32 UNL     1     -32.569  15.206  -2.793  1.00 20.00     0.280 HD
ENDROOT
BRANCH   8  11
HETATM   11  C11 UNL     1     -34.725  16.997  -2.416  1.00 20.00     0.009 C 
HETATM   12  C9  UNL     1     -36.152  17.387  -2.029  1.00 20.00     0.011 C 
HETATM   13  C10 UNL     1     -33.762  17.299  -1.268  1.00 20.00     0.011 C 
ENDBRANCH   8  11
TORSDOF 1
ENDMDL
MODEL 9
REMARK VINA RESULT:      -4.4      1.170      2.188
REMARK  1 active torsions:
REMARK  status: ('A' for Active; 'I' for Inactive)
REMARK    1  A    between atoms: C8_8  and  C11_11 
ROOT
HETATM    1  C1  UNL     1     -36.181  14.940  -3.756  1.00 20.00    -0.081 C 
HETATM    2  C2  UNL     1     -37.491  15.024  -3.481  1.00 20.00     0.015 C 
HETATM    3  C3  UNL     1     -35.537  13.648  -4.210  1.00 20.00     0.061 C 
HETATM    4  C4  UNL     1     -34.052  15.842  -2.753  1.00 20.00     0.039 C 
HETATM    5  C5  UNL     1     -34.449  13.850  -5.274  1.00 20.00     0.239 C 
HETATM    6  C6  UNL     1     -33.021  15.150  -3.655  1.00 20.00     0.236 C 
HETATM    7  C7  UNL     1     -35.258  16.144  -3.663  1.00 20.00     0.046 C 
HETATM    8  C8  UNL     1     -34.563  16.369  -5.003  1.00 20.00     0.199 C 
HETATM    9  N12 UNL     1     -33.677  15.135  -5.033  1.00 20.00    -0.066 N 
HETATM   10  H32 UNL     1     -32.957  15.233  -5.763  1.00 20.00     0.280 HD
ENDROOT
BRANCH   8  11
HETATM   11  C11 UNL     1     -35.425  16.527  -6.245  1.00 20.00     0.009 C 
HETATM   12  C9  UNL     1     -36.430  17.667  -6.069  1.00 20.00     0.011 C 
HETATM   13  C10 UNL     1     -34.559  16.769  -7.481  1.00 20.00     0.011 C 
ENDBRANCH   8  11
TORSDOF 1
ENDMDL
