MODEL 1
REMARK VINA RESULT:      -3.9      0.000      0.000
REMARK  4 active torsions:
REMARK  status: ('A' for Active; 'I' for Inactive)
REMARK    1  A    between atoms: C1_1  and  C5_5 
REMARK       I    between atoms: C1_1  and  N9_9 
REMARK    2  A    between atoms: C6_6  and  C8_8 
REMARK    3  A    between atoms: C7_7  and  N9_9 
REMARK    4  A    between atoms: C8_8  and  N9_9 
ROOT
HETATM    1  C1  UNL     1     -35.468  14.089  -3.898  1.00 20.00     0.219 C 
HETATM    2  N9  UNL     1     -34.693  15.100  -3.322  1.00 20.00    -0.353 N 
HETATM    3  O10 UNL     1     -35.015  12.987  -4.221  1.00 20.00    -0.273 OA
ENDROOT
BRANCH   2   4
HETATM    4  C7  UNL     1     -33.271  15.252  -3.604  1.00 20.00     0.121 C 
HETATM    5  C4  UNL     1     -33.049  16.102  -4.808  1.00 20.00     0.026 C 
ENDBRANCH   2   4
BRANCH   2   6
HETATM    6  C8  UNL     1     -35.250  16.081  -2.393  1.00 20.00     0.125 C 
BRANCH   6   7
HETATM    7  C6  UNL     1     -34.206  16.620  -1.423  1.00 20.00     0.015 C 
HETATM    8  C3  UNL     1     -34.815  17.107  -0.114  1.00 20.00     0.006 C 
ENDBRANCH   6   7
ENDBRANCH   2   6
BRANCH   1   9
HETATM    9  C5  UNL     1     -36.938  14.412  -4.119  1.00 20.00     0.098 C 
HETATM   10  C2  UNL     1     -37.178  15.220  -5.385  1.00 20.00     0.014 C 
ENDBRANCH   1   9
TORSDOF 4
ENDMDL
MODEL 2
REMARK VINA RESULT:      -3.8      1.928      2.686
REMARK  4 active torsions:
REMARK  status: ('A' for Active; 'I' for Inactive)
REMARK    1  A    between atoms: C1_1  and  C5_5 
REMARK       I    between atoms: C1_1  and  N9_9 
REMARK    2  A    between atoms: C6_6  and  C8_8 
REMARK    3  A    between atoms: C7_7  and  N9_9 
REMARK    4  A    between atoms: C8_8  and  N9_9 
ROOT
HETATM    1  C1  UNL     1     -33.414  15.759  -4.000  1.00 20.00     0.219 C 
HETATM    2  N9  UNL     1     -34.227  16.532  -3.165  1.00 20.00    -0.353 N 
HETATM    3  O10 UNL     1     -32.745  16.232  -4.923  1.00 20.00    -0.273 OA
ENDROOT
BRANCH   2   4
HETATM    4  C7  UNL     1     -34.872  17.758  -3.619  1.00 20.00     0.121 C 
HETATM    5  C4  UNL     1     -36.170  17.466  -4.290  1.00 20.00     0.026 C 
ENDBRANCH   2   4
BRANCH   2   6
HETATM    6  C8  UNL     1     -34.492  16.169  -1.775  1.00 20.00     0.125 C 
BRANCH   6   7
HETATM    7  C6  UNL     1     -34.076  17.263  -0.799  1.00 20.00     0.015 C 
HETATM    8  C3  UNL     1     -34.989  17.345   0.417  1.00 20.00     0.006 C 
ENDBRANCH   6   7
ENDBRANCH   2   6
BRANCH   1   9
HETATM    9  C5  UNL     1     -33.386  14.265  -3.715  1.00 20.00     0.098 C 
HETATM   10  C2  UNL     1     -34.503  13.511  -4.420  1.00 20.00     0.014 C 
ENDBRANCH   1   9
TORSDOF 4
ENDMDL
MODEL 3
REMARK VINA RESULT:      -3.8      2.361      4.048
REMARK  4 active torsions:
REMARK  status: ('A' for Active; 'I' for Inactive)
REMARK    1  A    between atoms: C1_1  and  C5_5 
REMARK       I    between atoms: C1_1  and  N9_9 
REMARK    2  A    between atoms: C6_6  and  C8_8 
REMARK    3  A    between atoms: C7_7  and  N9_9 
REMARK    4  A    between atoms: C8_8  and  N9_9 
ROOT
HETATM    1  C1  UNL     1     -34.103  17.326  -3.038  1.00 20.00     0.219 C 
HETATM    2  N9  UNL     1     -33.543  16.484  -4.005  1.00 20.00    -0.353 N 
HETATM    3  O10 UNL     1     -34.939  18.196  -3.299  1.00 20.00    -0.273 OA
ENDROOT
BRANCH   2   4
HETATM    4  C7  UNL     1     -33.360  16.898  -5.390  1.00 20.00     0.121 C 
HETATM    5  C4  UNL     1     -34.544  16.539  -6.221  1.00 20.00     0.026 C 
ENDBRANCH   2   4
BRANCH   2   6
HETATM    6  C8  UNL     1     -33.099  15.126  -3.699  1.00 20.00     0.125 C 
BRANCH   6   7
HETATM    7  C6  UNL     1     -34.264  14.162  -3.514  1.00 20.00     0.015 C 
HETATM    8  C3  UNL     1     -34.449  13.227  -4.701  1.00 20.00     0.006 C 
ENDBRANCH   6   7
ENDBRANCH   2   6
BRANCH   1   9
HETATM    9  C5  UNL     1     -33.626  17.118  -1.609  1.00 20.00     0.098 C 
HETATM   10  C2  UNL     1     -34.747  16.698  -0.671  1.00 20.00     0.014 C 
ENDBRANCH   1   9
TORSDOF 4
ENDMDL
MODEL 4
REMARK VINA RESULT:      -3.7      1.531      1.887
REMARK  4 active torsions:
REMARK  status: ('A' for Active; 'I' for Inactive)
REMARK    1  A    between atoms: C1_1  and  C5_5 
REMARK       I    between atoms: C1_1  and  N9_9 
REMARK    2  A    between atoms: C6_6  and  C8_8 
REMARK    3  A    between atoms: C7_7  and  N9_9 
REMARK    4  A    between atoms: C8_8  and  N9_9 
ROOT
HETATM    1  C1  UNL     1     -36.947  15.055  -4.015  1.00 20.00     0.219 C 
HETATM    2  N9  UNL     1     -35.584  15.124  -3.708  1.00 20.00    -0.353 N 
HETATM    3  O10 UNL     1     -37.663  14.097  -3.711  1.00 20.00    -0.273 OA
ENDROOT
BRANCH   2   4
HETATM    4  C7  UNL     1     -34.745  13.938  -3.604  1.00 20.00     0.121 C 
HETATM    5  C4  UNL     1     -34.545  13.301  -4.937  1.00 20.00     0.026 C 
ENDBRANCH   2   4
BRANCH   2   6
HETATM    6  C8  UNL     1     -34.900  16.393  -3.469  1.00 20.00     0.125 C 
BRANCH   6   7
HETATM    7  C6  UNL     1     -33.937  16.319  -2.290  1.00 20.00     0.015 C 
HETATM    8  C3  UNL     1     -34.615  16.605  -0.957  1.00 20.00     0.006 C 
ENDBRANCH   6   7
ENDBRANCH   2   6
BRANCH   1   9
HETATM    9  C5  UNL     1     -37.529  16.245  -4.763  1.00 20.00     0.098 C 
HETATM   10  C2  UNL     1     -37.681  15.984  -6.254  1.00 20.00     0.014 C 
ENDBRANCH   1   9
TORSDOF 4
ENDMDL
MODEL 5
REMARK VINA RESULT:      -3.7      1.547      3.283
REMARK  4 active torsions:
REMARK  status: ('A' for Active; 'I' for Inactive)
REMARK    1  A    between atoms: C1_1  and  C5_5 
REMARK       I    between atoms: C1_1  and  N9_9 
REMARK    2  A    between atoms: C6_6  and  C8_8 
REMARK    3  A    between atoms: C7_7  and  N9_9 
REMARK    4  A    between atoms: C8_8  and  N9_9 
ROOT
HETATM    1  C1  UNL     1     -35.397  14.858  -3.353  1.00 20.00     0.219 C 
HETATM    2  N9  UNL     1     -34.691  16.036  -3.087  1.00 20.00    -0.353 N 
HETATM    3  O10 UNL     1     -36.624  14.765  -3.254  1.00 20.00    -0.273 OA
ENDROOT
BRANCH   2   4
HETATM    4  C7  UNL     1     -35.150  17.020  -2.115  1.00 20.00     0.121 C 
HETATM    5  C4  UNL     1     -34.639  16.707  -0.750  1.00 20.00     0.026 C 
ENDBRANCH   2   4
BRANCH   2   6
HETATM    6  C8  UNL     1     -33.440  16.369  -3.764  1.00 20.00     0.125 C 
BRANCH   6   7
HETATM    7  C6  UNL     1     -33.625  17.438  -4.834  1.00 20.00     0.015 C 
HETATM    8  C3  UNL     1     -34.065  16.861  -6.173  1.00 20.00     0.006 C 
ENDBRANCH   6   7
ENDBRANCH   2   6
BRANCH   1   9
HETATM    9  C5  UNL     1     -34.565  13.659  -3.781  1.00 20.00     0.098 C 
HETATM   10  C2  UNL     1     -34.790  13.278  -5.237  1.00 20.00     0.014 C 
ENDBRANCH   1   9
TORSDOF 4
ENDMDL
MODEL 6
REMARK VINA RESULT:      -3.7      1.812      3.667
REMARK  4 active torsions:
REMARK  status: ('A' for Active; 'I' for Inactive)
REMARK    1  A    between atoms: C1_1  and  C5_5 
REMARK       I    between atoms: C1_1  and  N9_9 
REMARK    2  A    between atoms: C6_6  and  C8_8 
REMARK    3  A    between atoms: C7_7  and  N9_9 
REMARK    4  A    between atoms: C8_8  and  N9_9 
ROOT
HETATM    1  C1  UNL     1     -34.495  13.953  -4.629  1.00 20.00     0.219 C 
HETATM    2  N9  UNL     1     -34.781  14.794  -5.710  1.00 20.00    -0.353 N 
HETATM    3  O10 UNL     1     -34.905  12.792  -4.546  1.00 20.00    -0.273 OA
ENDROOT
BRANCH   2   4
HETATM    4  C7  UNL     1     -36.013  14.685  -6.480  1.00 20.00     0.121 C 
HETATM    5  C4  UNL     1     -35.727  14.413  -7.917  1.00 20.00     0.026 C 
ENDBRANCH   2   4
BRANCH   2   6
HETATM    6  C8  UNL     1     -33.866  15.846  -6.148  1.00 20.00     0.125 C 
BRANCH   6   7
HETATM    7  C6  UNL     1     -34.445  17.241  -5.946  1.00 20.00     0.015 C 
HETATM    8  C3  UNL     1     -33.553  18.131  -5.091  1.00 20.00     0.006 C 
ENDBRANCH   6   7
ENDBRANCH   2   6
BRANCH   1   9
HETATM    9  C5  UNL     1     -33.631  14.547  -3.526  1.00 20.00     0.098 C 
HETATM   10  C2  UNL     1     -34.416  15.449  -2.587  1.00 20.00     0.014 C 
ENDBRANCH   1   9
TORSDOF 4
ENDMDL
MODEL 7
REMARK VINA RESULT:      -3.7      2.338      3.924
REMARK  4 active torsions:
REMARK  status: ('A' for Active; 'I' for Inactive)
REMARK    1  A    between atoms: C1_1  and  C5_5 
REMARK       I    between atoms: C1_1  and  N9_9 
REMARK    2  A    between atoms: C6_6  and  C8_8 
REMARK    3  A    between atoms: C7_7  and  N9_9 
REMARK    4  A    between atoms: C8_8  and  N9_9 
ROOT
HETATM    1  C1  UNL     1     -34.056  17.294  -4.297  1.00 20.00     0.219 C 
HETATM    2  N9  UNL     1     -34.167  16.190  -3.445  1.00 20.00    -0.353 N 
HETATM    3  O10 UNL     1     -34.352  18.444  -3.960  1.00 20.00    -0.273 OA
ENDROOT
BRANCH   2   4
HETATM    4  C7  UNL     1     -35.167  16.117  -2.387  1.00 20.00     0.121 C 
HETATM    5  C4  UNL     1     -34.583  16.492  -1.068  1.00 20.00     0.026 C 
ENDBRANCH   2   4
BRANCH   2   6
HETATM    6  C8  UNL     1     -33.288  15.028  -3.550  1.00 20.00     0.125 C 
BRANCH   6   7
HETATM    7  C6  UNL     1     -34.061  13.715  -3.563  1.00 20.00     0.015 C 
HETATM    8  C3  UNL     1     -34.631  13.381  -4.936  1.00 20.00     0.006 C 
ENDBRANCH   6   7
ENDBRANCH   2   6
BRANCH   1   9
HETATM    9  C5  UNL     1     -33.540  17.010  -5.700  1.00 20.00     0.098 C 
HETATM   10  C2  UNL     1     -34.655  16.676  -6.679  1.00 20.00     0.014 C 
ENDBRANCH   1   9
TORSDOF 4
ENDMDL
MODEL 8
REMARK VINA RESULT:      -3.7      1.930      3.892
REMARK  4 active torsions:
REMARK  status: ('A' for Active; 'I' for Inactive)
REMARK    1  A    between atoms: C1_1  and  C5_5 
REMARK       I    between atoms: C1_1  and  N9_9 
REMARK    2  A    between atoms: C6_6  and  C8_8 
REMARK    3  A    between atoms: C7_7  and  N9_9 
REMARK    4  A    between atoms: C8_8  and  N9_9 
ROOT
HETATM    1  C1  UNL     1     -33.335  15.563  -3.647  1.00 20.00     0.219 C 
HETATM    2  N9  UNL     1     -34.238  15.415  -4.705  1.00 20.00    -0.353 N 
HETATM    3  O10 UNL     1     -32.336  14.853  -3.504  1.00 20.00    -0.273 OA
ENDROOT
BRANCH   2   4
HETATM    4  C7  UNL     1     -34.494  14.129  -5.341  1.00 20.00     0.121 C 
HETATM    5  C4  UNL     1     -35.192  13.197  -4.410  1.00 20.00     0.026 C 
ENDBRANCH   2   4
BRANCH   2   6
HETATM    6  C8  UNL     1     -34.994  16.539  -5.252  1.00 20.00     0.125 C 
BRANCH   6   7
HETATM    7  C6  UNL     1     -34.276  17.210  -6.416  1.00 20.00     0.015 C 
HETATM    8  C3  UNL     1     -33.670  18.555  -6.038  1.00 20.00     0.006 C 
ENDBRANCH   6   7
ENDBRANCH   2   6
BRANCH   1   9
HETATM    9  C5  UNL     1     -33.644  16.670  -2.650  1.00 20.00     0.098 C 
HETATM   10  C2  UNL     1     -34.631  16.236  -1.578  1.00 20.00     0.014 C 
ENDBRANCH   1   9
TORSDOF 4
ENDMDL
MODEL 9
REMARK VINA RESULT:      -3.6      1.554      2.935
REMARK  4 active torsions:
REMARK  status: ('A' for Active; 'I' for Inactive)
REMARK    1  A    between atoms: C1_1  and  C5_5 
REMARK       I    between atoms: C1_1  and  N9_9 
REMARK    2  A    between atoms: C6_6  and  C8_8 
REMARK    3  A    between atoms: C7_7  and  N9_9 
REMARK    4  A    between atoms: C8_8  and  N9_9 
ROOT
HETATM    1  C1  UNL     1     -34.259  14.016  -3.986  1.00 20.00     0.219 C 
HETATM    2  N9  UNL     1     -34.799  15.118  -3.313  1.00 20.00    -0.353 N 
HETATM    3  O10 UNL     1     -33.237  13.430  -3.618  1.00 20.00    -0.273 OA
ENDROOT
BRANCH   2   4
HETATM    4  C7  UNL     1     -33.973  16.058  -2.567  1.00 20.00     0.121 C 
HETATM    5  C4  UNL     1     -34.584  16.380  -1.246  1.00 20.00     0.026 C 
ENDBRANCH   2   4
BRANCH   2   6
HETATM    6  C8  UNL     1     -36.230  15.409  -3.309  1.00 20.00     0.125 C 
BRANCH   6   7
HETATM    7  C6  UNL     1     -36.577  16.631  -4.150  1.00 20.00     0.015 C 
HETATM    8  C3  UNL     1     -37.636  16.339  -5.204  1.00 20.00     0.006 C 
ENDBRANCH   6   7
ENDBRANCH   2   6
BRANCH   1   9
HETATM    9  C5  UNL     1     -35.008  13.555  -5.228  1.00 20.00     0.098 C 
HETATM   10  C2  UNL     1     -34.672  14.384  -6.457  1.00 20.00     0.014 C 
ENDBRANCH   1   9
TORSDOF 4
ENDMDL
