MODEL 1
REMARK VINA RESULT:      -5.1      0.000      0.000
REMARK  1 active torsions:
REMARK  status: ('A' for Active; 'I' for Inactive)
REMARK    1  A    between atoms: C1_1  and  C5_5 
ROOT
HETATM    1  C2  UNL     1     -32.848  14.348  -3.531  1.00 20.00     0.006 C 
HETATM    2  C3  UNL     1     -32.924  15.653  -4.343  1.00 20.00     0.011 C 
HETATM    3  C4  UNL     1     -34.540  13.303  -5.012  1.00 20.00     0.017 C 
HETATM    4  C5  UNL     1     -34.570  14.594  -5.858  1.00 20.00     0.056 C 
HETATM    5  C6  UNL     1     -34.303  13.831  -3.576  1.00 20.00    -0.005 C 
HETATM    6  C7  UNL     1     -34.423  15.711  -4.774  1.00 20.00    -0.027 C 
HETATM    7  C8  UNL     1     -35.149  15.127  -3.520  1.00 20.00    -0.036 C 
HETATM    8  C9  UNL     1     -34.827  17.106  -5.217  1.00 20.00     0.016 C 
HETATM    9  C10 UNL     1     -34.969  15.945  -2.223  1.00 20.00     0.016 C 
HETATM   10  C11 UNL     1     -36.665  14.882  -3.645  1.00 20.00     0.016 C 
ENDROOT
BRANCH   4  11
HETATM   11  C1  UNL     1     -35.782  14.665  -6.738  1.00 20.00     0.236 C 
HETATM   12  O12 UNL     1     -35.795  14.279  -7.902  1.00 20.00    -0.306 OA
ENDBRANCH   4  11
TORSDOF 1
ENDMDL
MODEL 2
REMARK VINA RESULT:      -5.0      1.615      2.872
REMARK  1 active torsions:
REMARK  status: ('A' for Active; 'I' for Inactive)
REMARK    1  A    between atoms: C1_1  and  C5_5 
ROOT
HETATM    1  C2  UNL     1     -33.643  16.750  -5.476  1.00 20.00     0.006 C 
HETATM    2  C3  UNL     1     -33.957  17.253  -4.057  1.00 20.00     0.011 C 
HETATM    3  C4  UNL     1     -35.728  15.408  -5.487  1.00 20.00     0.017 C 
HETATM    4  C5  UNL     1     -36.069  15.961  -4.087  1.00 20.00     0.056 C 
HETATM    5  C6  UNL     1     -34.184  15.303  -5.456  1.00 20.00    -0.005 C 
HETATM    6  C7  UNL     1     -34.666  16.027  -3.400  1.00 20.00    -0.027 C 
HETATM    7  C8  UNL     1     -33.881  14.824  -4.015  1.00 20.00    -0.036 C 
HETATM    8  C9  UNL     1     -34.687  16.135  -1.886  1.00 20.00     0.016 C 
HETATM    9  C10 UNL     1     -32.378  14.781  -3.664  1.00 20.00     0.016 C 
HETATM   10  C11 UNL     1     -34.417  13.413  -3.706  1.00 20.00     0.016 C 
ENDROOT
BRANCH   4  11
HETATM   11  C1  UNL     1     -37.119  15.143  -3.397  1.00 20.00     0.236 C 
HETATM   12  O12 UNL     1     -37.720  14.220  -3.937  1.00 20.00    -0.306 OA
ENDBRANCH   4  11
TORSDOF 1
ENDMDL
MODEL 3
REMARK VINA RESULT:      -4.9      1.674      3.138
REMARK  1 active torsions:
REMARK  status: ('A' for Active; 'I' for Inactive)
REMARK    1  A    between atoms: C1_1  and  C5_5 
ROOT
HETATM    1  C2  UNL     1     -35.438  17.242  -1.887  1.00 20.00     0.006 C 
HETATM    2  C3  UNL     1     -34.209  16.318  -1.855  1.00 20.00     0.011 C 
HETATM    3  C4  UNL     1     -36.578  15.707  -3.466  1.00 20.00     0.017 C 
HETATM    4  C5  UNL     1     -35.366  14.754  -3.386  1.00 20.00     0.056 C 
HETATM    5  C6  UNL     1     -35.931  17.109  -3.344  1.00 20.00    -0.005 C 
HETATM    6  C7  UNL     1     -34.161  15.748  -3.307  1.00 20.00    -0.027 C 
HETATM    7  C8  UNL     1     -34.620  16.975  -4.158  1.00 20.00    -0.036 C 
HETATM    8  C9  UNL     1     -32.804  15.151  -3.633  1.00 20.00     0.016 C 
HETATM    9  C10 UNL     1     -33.694  18.208  -4.074  1.00 20.00     0.016 C 
HETATM   10  C11 UNL     1     -34.847  16.733  -5.663  1.00 20.00     0.016 C 
ENDROOT
BRANCH   4  11
HETATM   11  C1  UNL     1     -35.351  13.764  -4.511  1.00 20.00     0.236 C 
HETATM   12  O12 UNL     1     -35.034  12.587  -4.372  1.00 20.00    -0.306 OA
ENDBRANCH   4  11
TORSDOF 1
ENDMDL
MODEL 4
REMARK VINA RESULT:      -4.9      1.718      2.868
REMARK  1 active torsions:
REMARK  status: ('A' for Active; 'I' for Inactive)
REMARK    1  A    between atoms: C1_1  and  C5_5 
ROOT
HETATM    1  C2  UNL     1     -34.769  13.280  -4.987  1.00 20.00     0.006 C 
HETATM    2  C3  UNL     1     -34.328  13.810  -3.612  1.00 20.00     0.011 C 
HETATM    3  C4  UNL     1     -34.102  15.419  -6.049  1.00 20.00     0.017 C 
HETATM    4  C5  UNL     1     -33.607  15.925  -4.677  1.00 20.00     0.056 C 
HETATM    5  C6  UNL     1     -35.325  14.544  -5.680  1.00 20.00    -0.005 C 
HETATM    6  C7  UNL     1     -34.669  15.330  -3.695  1.00 20.00    -0.027 C 
HETATM    7  C8  UNL     1     -35.995  15.326  -4.523  1.00 20.00    -0.036 C 
HETATM    8  C9  UNL     1     -34.717  15.972  -2.320  1.00 20.00     0.016 C 
HETATM    9  C10 UNL     1     -37.174  14.583  -3.857  1.00 20.00     0.016 C 
HETATM   10  C11 UNL     1     -36.557  16.697  -4.945  1.00 20.00     0.016 C 
ENDROOT
BRANCH   4  11
HETATM   11  C1  UNL     1     -33.427  17.413  -4.655  1.00 20.00     0.236 C 
HETATM   12  O12 UNL     1     -33.407  18.107  -5.666  1.00 20.00    -0.306 OA
ENDBRANCH   4  11
TORSDOF 1
ENDMDL
MODEL 5
REMARK VINA RESULT:      -4.8      1.700      2.562
REMARK  1 active torsions:
REMARK  status: ('A' for Active; 'I' for Inactive)
REMARK    1  A    between atoms: C1_1  and  C5_5 
ROOT
HETATM    1  C2  UNL     1     -33.852  17.371  -3.604  1.00 20.00     0.006 C 
HETATM    2  C3  UNL     1     -33.318  16.959  -4.987  1.00 20.00     0.011 C 
HETATM    3  C4  UNL     1     -34.574  15.040  -3.164  1.00 20.00     0.017 C 
HETATM    4  C5  UNL     1     -33.984  14.619  -4.527  1.00 20.00     0.056 C 
HETATM    5  C6  UNL     1     -35.097  16.472  -3.435  1.00 20.00    -0.005 C 
HETATM    6  C7  UNL     1     -34.320  15.849  -5.433  1.00 20.00    -0.027 C 
HETATM    7  C8  UNL     1     -35.676  16.382  -4.869  1.00 20.00    -0.036 C 
HETATM    8  C9  UNL     1     -34.248  15.595  -6.928  1.00 20.00     0.016 C 
HETATM    9  C10 UNL     1     -36.136  17.736  -5.451  1.00 20.00     0.016 C 
HETATM   10  C11 UNL     1     -36.895  15.447  -4.987  1.00 20.00     0.016 C 
ENDROOT
BRANCH   4  11
HETATM   11  C1  UNL     1     -34.501  13.287  -4.980  1.00 20.00     0.236 C 
HETATM   12  O12 UNL     1     -35.155  12.536  -4.263  1.00 20.00    -0.306 OA
ENDBRANCH   4  11
TORSDOF 1
ENDMDL
MODEL 6
REMARK VINA RESULT:      -4.7      1.713      3.172
REMARK  1 active torsions:
REMARK  status: ('A' for Active; 'I' for Inactive)
REMARK    1  A    between atoms: C1_1  and  C5_5 
ROOT
HETATM    1  C2  UNL     1     -35.152  16.963  -7.118  1.00 20.00     0.006 C 
HETATM    2  C3  UNL     1     -36.141  17.104  -5.948  1.00 20.00     0.011 C 
HETATM    3  C4  UNL     1     -34.663  14.625  -6.452  1.00 20.00     0.017 C 
HETATM    4  C5  UNL     1     -35.699  14.752  -5.314  1.00 20.00     0.056 C 
HETATM    5  C6  UNL     1     -34.055  16.047  -6.533  1.00 20.00    -0.005 C 
HETATM    6  C7  UNL     1     -35.492  16.226  -4.833  1.00 20.00    -0.027 C 
HETATM    7  C8  UNL     1     -33.967  16.489  -5.051  1.00 20.00    -0.036 C 
HETATM    8  C9  UNL     1     -36.058  16.549  -3.462  1.00 20.00     0.016 C 
HETATM    9  C10 UNL     1     -33.526  17.956  -4.854  1.00 20.00     0.016 C 
HETATM   10  C11 UNL     1     -32.988  15.647  -4.210  1.00 20.00     0.016 C 
ENDROOT
BRANCH   4  11
HETATM   11  C1  UNL     1     -35.539  13.677  -4.281  1.00 20.00     0.236 C 
HETATM   12  O12 UNL     1     -34.953  12.620  -4.491  1.00 20.00    -0.306 OA
ENDBRANCH   4  11
TORSDOF 1
ENDMDL
MODEL 7
REMARK VINA RESULT:      -4.7      2.170      3.616
REMARK  1 active torsions:
REMARK  status: ('A' for Active; 'I' for Inactive)
REMARK    1  A    between atoms: C1_1  and  C5_5 
ROOT
HETATM    1  C2  UNL     1     -33.340  13.847  -3.832  1.00 20.00     0.006 C 
HETATM    2  C3  UNL     1     -34.857  13.588  -3.809  1.00 20.00     0.011 C 
HETATM    3  C4  UNL     1     -33.677  16.048  -2.742  1.00 20.00     0.017 C 
HETATM    4  C5  UNL     1     -35.192  15.759  -2.668  1.00 20.00     0.056 C 
HETATM    5  C6  UNL     1     -33.256  15.371  -4.069  1.00 20.00    -0.005 C 
HETATM    6  C7  UNL     1     -35.459  15.012  -4.016  1.00 20.00    -0.027 C 
HETATM    7  C8  UNL     1     -34.447  15.656  -5.017  1.00 20.00    -0.036 C 
HETATM    8  C9  UNL     1     -36.913  14.950  -4.449  1.00 20.00     0.016 C 
HETATM    9  C10 UNL     1     -34.349  14.949  -6.387  1.00 20.00     0.016 C 
HETATM   10  C11 UNL     1     -34.640  17.151  -5.337  1.00 20.00     0.016 C 
ENDROOT
BRANCH   4  11
HETATM   11  C1  UNL     1     -35.993  17.001  -2.415  1.00 20.00     0.236 C 
HETATM   12  O12 UNL     1     -35.506  18.045  -1.993  1.00 20.00    -0.306 OA
ENDBRANCH   4  11
TORSDOF 1
ENDMDL
MODEL 8
REMARK VINA RESULT:      -4.7      1.686      2.931
REMARK  1 active torsions:
REMARK  status: ('A' for Active; 'I' for Inactive)
REMARK    1  A    between atoms: C1_1  and  C5_5 
ROOT
HETATM    1  C2  UNL     1     -33.014  15.116  -3.411  1.00 20.00     0.006 C 
HETATM    2  C3  UNL     1     -33.709  14.241  -4.468  1.00 20.00     0.011 C 
HETATM    3  C4  UNL     1     -35.212  15.738  -2.447  1.00 20.00     0.017 C 
HETATM    4  C5  UNL     1     -35.902  14.813  -3.473  1.00 20.00     0.056 C 
HETATM    5  C6  UNL     1     -33.999  16.292  -3.236  1.00 20.00    -0.005 C 
HETATM    6  C7  UNL     1     -35.030  15.020  -4.754  1.00 20.00    -0.027 C 
HETATM    7  C8  UNL     1     -34.562  16.508  -4.663  1.00 20.00    -0.036 C 
HETATM    8  C9  UNL     1     -35.673  14.578  -6.057  1.00 20.00     0.016 C 
HETATM    9  C10 UNL     1     -33.501  16.921  -5.705  1.00 20.00     0.016 C 
HETATM   10  C11 UNL     1     -35.657  17.589  -4.739  1.00 20.00     0.016 C 
ENDROOT
BRANCH   4  11
HETATM   11  C1  UNL     1     -37.367  15.105  -3.600  1.00 20.00     0.236 C 
HETATM   12  O12 UNL     1     -38.224  14.232  -3.699  1.00 20.00    -0.306 OA
ENDBRANCH   4  11
TORSDOF 1
ENDMDL
MODEL 9
REMARK VINA RESULT:      -4.7      1.922      2.784
REMARK  1 active torsions:
REMARK  status: ('A' for Active; 'I' for Inactive)
REMARK    1  A    between atoms: C1_1  and  C5_5 
ROOT
HETATM    1  C2  UNL     1     -34.784  13.416  -5.200  1.00 20.00     0.006 C 
HETATM    2  C3  UNL     1     -34.428  14.688  -5.990  1.00 20.00     0.011 C 
HETATM    3  C4  UNL     1     -36.504  14.665  -3.923  1.00 20.00     0.017 C 
HETATM    4  C5  UNL     1     -36.183  15.923  -4.758  1.00 20.00     0.056 C 
HETATM    5  C6  UNL     1     -35.127  13.967  -3.798  1.00 20.00    -0.005 C 
HETATM    6  C7  UNL     1     -34.633  15.822  -4.938  1.00 20.00    -0.027 C 
HETATM    7  C8  UNL     1     -34.138  15.145  -3.621  1.00 20.00    -0.036 C 
HETATM    8  C9  UNL     1     -33.942  17.108  -5.356  1.00 20.00     0.016 C 
HETATM    9  C10 UNL     1     -32.651  14.728  -3.623  1.00 20.00     0.016 C 
HETATM   10  C11 UNL     1     -34.342  15.934  -2.313  1.00 20.00     0.016 C 
ENDROOT
BRANCH   4  11
HETATM   11  C1  UNL     1     -36.708  17.174  -4.118  1.00 20.00     0.236 C 
HETATM   12  O12 UNL     1     -37.528  17.174  -3.206  1.00 20.00    -0.306 OA
ENDBRANCH   4  11
TORSDOF 1
ENDMDL
