MODEL 1
REMARK VINA RESULT:      -3.5      0.000      0.000
REMARK  3 active torsions:
REMARK  status: ('A' for Active; 'I' for Inactive)
REMARK    1  A    between atoms: C1_1  and  C3_3 
REMARK    2  A    between atoms: C2_2  and  C3_3 
REMARK    3  A    between atoms: C2_2  and  S6_6 
ROOT
HETATM    1  C3  UNL     1     -33.910   5.637   4.945  1.00 20.00     0.192 C 
HETATM    2 CL7  UNL     1     -34.169   6.325   6.585  1.00 20.00    -0.113 Cl
ENDROOT
BRANCH   1   3
HETATM    3  C1  UNL     1     -35.128   4.735   4.695  1.00 20.00     0.192 C 
HETATM    4  O4  UNL     1     -36.006   5.235   3.933  1.00 20.00    -0.647 OA
HETATM    5  O5  UNL     1     -35.115   3.611   5.270  1.00 20.00    -0.647 OA
ENDBRANCH   1   3
BRANCH   1   6
HETATM    6  C2  UNL     1     -33.694   6.789   3.969  1.00 20.00     0.102 C 
BRANCH   6   7
HETATM    7  S6  UNL     1     -32.070   6.671   3.156  1.00 20.00    -0.180 SA
HETATM    8  H11 UNL     1     -31.379   7.249   4.147  1.00 20.00     0.101 HD
ENDBRANCH   6   7
ENDBRANCH   1   6
TORSDOF 3
ENDMDL
MODEL 2
REMARK VINA RESULT:      -3.4     12.846     13.264
REMARK  3 active torsions:
REMARK  status: ('A' for Active; 'I' for Inactive)
REMARK    1  A    between atoms: C1_1  and  C3_3 
REMARK    2  A    between atoms: C2_2  and  C3_3 
REMARK    3  A    between atoms: C2_2  and  S6_6 
ROOT
HETATM    1  C3  UNL     1     -34.327  14.904  -4.780  1.00 20.00     0.192 C 
HETATM    2 CL7  UNL     1     -34.416  14.740  -6.568  1.00 20.00    -0.113 Cl
ENDROOT
BRANCH   1   3
HETATM    3  C1  UNL     1     -34.113  13.475  -4.259  1.00 20.00     0.192 C 
HETATM    4  O4  UNL     1     -35.078  12.686  -4.476  1.00 20.00    -0.647 OA
HETATM    5  O5  UNL     1     -33.013  13.252  -3.681  1.00 20.00    -0.647 OA
ENDBRANCH   1   3
BRANCH   1   6
HETATM    6  C2  UNL     1     -33.249  15.929  -4.444  1.00 20.00     0.102 C 
BRANCH   6   7
HETATM    7  S6  UNL     1     -33.620  17.548  -5.188  1.00 20.00    -0.180 SA
HETATM    8  H11 UNL     1     -32.395  18.060  -5.018  1.00 20.00     0.101 HD
ENDBRANCH   6   7
ENDBRANCH   1   6
TORSDOF 3
ENDMDL
MODEL 3
REMARK VINA RESULT:      -3.4     12.859     13.295
REMARK  3 active torsions:
REMARK  status: ('A' for Active; 'I' for Inactive)
REMARK    1  A    between atoms: C1_1  and  C3_3 
REMARK    2  A    between atoms: C2_2  and  C3_3 
REMARK    3  A    between atoms: C2_2  and  S6_6 
ROOT
HETATM    1  C3  UNL     1     -34.314  14.907  -4.788  1.00 20.00     0.192 C 
HETATM    2 CL7  UNL     1     -34.413  14.763  -6.576  1.00 20.00    -0.113 Cl
ENDROOT
BRANCH   1   3
HETATM    3  C1  UNL     1     -34.102  13.471  -4.283  1.00 20.00     0.192 C 
HETATM    4  O4  UNL     1     -33.009  13.283  -3.676  1.00 20.00    -0.647 OA
HETATM    5  O5  UNL     1     -35.031  12.652  -4.530  1.00 20.00    -0.647 OA
ENDBRANCH   1   3
BRANCH   1   6
HETATM    6  C2  UNL     1     -33.231  15.924  -4.446  1.00 20.00     0.102 C 
BRANCH   6   7
HETATM    7  S6  UNL     1     -33.593  17.549  -5.183  1.00 20.00    -0.180 SA
HETATM    8  H11 UNL     1     -32.531  17.567  -6.000  1.00 20.00     0.101 HD
ENDBRANCH   6   7
ENDBRANCH   1   6
TORSDOF 3
ENDMDL
MODEL 4
REMARK VINA RESULT:      -3.4     12.193     12.502
REMARK  3 active torsions:
REMARK  status: ('A' for Active; 'I' for Inactive)
REMARK    1  A    between atoms: C1_1  and  C3_3 
REMARK    2  A    between atoms: C2_2  and  C3_3 
REMARK    3  A    between atoms: C2_2  and  S6_6 
ROOT
HETATM    1  C3  UNL     1     -34.624  14.975  -4.191  1.00 20.00     0.192 C 
HETATM    2 CL7  UNL     1     -33.069  15.874  -4.141  1.00 20.00    -0.113 Cl
ENDROOT
BRANCH   1   3
HETATM    3  C1  UNL     1     -34.231  13.493  -4.087  1.00 20.00     0.192 C 
HETATM    4  O4  UNL     1     -33.050  13.290  -3.684  1.00 20.00    -0.647 OA
HETATM    5  O5  UNL     1     -35.121  12.658  -4.412  1.00 20.00    -0.647 OA
ENDBRANCH   1   3
BRANCH   1   6
HETATM    6  C2  UNL     1     -35.534  15.525  -3.098  1.00 20.00     0.102 C 
BRANCH   6   7
HETATM    7  S6  UNL     1     -34.571  16.332  -1.780  1.00 20.00    -0.180 SA
HETATM    8  H11 UNL     1     -35.474  16.134  -0.812  1.00 20.00     0.101 HD
ENDBRANCH   6   7
ENDBRANCH   1   6
TORSDOF 3
ENDMDL
MODEL 5
REMARK VINA RESULT:      -3.4      2.199      2.412
REMARK  3 active torsions:
REMARK  status: ('A' for Active; 'I' for Inactive)
REMARK    1  A    between atoms: C1_1  and  C3_3 
REMARK    2  A    between atoms: C2_2  and  C3_3 
REMARK    3  A    between atoms: C2_2  and  S6_6 
ROOT
HETATM    1  C3  UNL     1     -34.079   6.428   4.365  1.00 20.00     0.192 C 
HETATM    2 CL7  UNL     1     -35.354   5.381   3.651  1.00 20.00    -0.113 Cl
ENDROOT
BRANCH   1   3
HETATM    3  C1  UNL     1     -34.139   6.155   5.876  1.00 20.00     0.192 C 
HETATM    4  O4  UNL     1     -34.859   5.168   6.204  1.00 20.00    -0.647 OA
HETATM    5  O5  UNL     1     -33.472   6.937   6.609  1.00 20.00    -0.647 OA
ENDBRANCH   1   3
BRANCH   1   6
HETATM    6  C2  UNL     1     -32.759   6.126   3.662  1.00 20.00     0.102 C 
BRANCH   6   7
HETATM    7  S6  UNL     1     -32.172   7.564   2.713  1.00 20.00    -0.180 SA
HETATM    8  H11 UNL     1     -30.947   7.078   2.474  1.00 20.00     0.101 HD
ENDBRANCH   6   7
ENDBRANCH   1   6
TORSDOF 3
ENDMDL
MODEL 6
REMARK VINA RESULT:      -3.4      2.210      2.357
REMARK  3 active torsions:
REMARK  status: ('A' for Active; 'I' for Inactive)
REMARK    1  A    between atoms: C1_1  and  C3_3 
REMARK    2  A    between atoms: C2_2  and  C3_3 
REMARK    3  A    between atoms: C2_2  and  S6_6 
ROOT
HETATM    1  C3  UNL     1     -34.062   6.437   4.379  1.00 20.00     0.192 C 
HETATM    2 CL7  UNL     1     -35.323   5.377   3.660  1.00 20.00    -0.113 Cl
ENDROOT
BRANCH   1   3
HETATM    3  C1  UNL     1     -34.128   6.166   5.890  1.00 20.00     0.192 C 
HETATM    4  O4  UNL     1     -33.437   6.955   6.596  1.00 20.00    -0.647 OA
HETATM    5  O5  UNL     1     -34.855   5.198   6.250  1.00 20.00    -0.647 OA
ENDBRANCH   1   3
BRANCH   1   6
HETATM    6  C2  UNL     1     -32.736   6.146   3.684  1.00 20.00     0.102 C 
BRANCH   6   7
HETATM    7  S6  UNL     1     -32.170   7.579   2.715  1.00 20.00    -0.180 SA
HETATM    8  H11 UNL     1     -31.884   6.887   1.604  1.00 20.00     0.101 HD
ENDBRANCH   6   7
ENDBRANCH   1   6
TORSDOF 3
ENDMDL
MODEL 7
REMARK VINA RESULT:      -3.3     12.309     12.813
REMARK  3 active torsions:
REMARK  status: ('A' for Active; 'I' for Inactive)
REMARK    1  A    between atoms: C1_1  and  C3_3 
REMARK    2  A    between atoms: C2_2  and  C3_3 
REMARK    3  A    between atoms: C2_2  and  S6_6 
ROOT
HETATM    1  C3  UNL     1     -34.370  14.963  -4.283  1.00 20.00     0.192 C 
HETATM    2 CL7  UNL     1     -35.074  15.540  -2.734  1.00 20.00    -0.113 Cl
ENDROOT
BRANCH   1   3
HETATM    3  C1  UNL     1     -34.137  13.458  -4.079  1.00 20.00     0.192 C 
HETATM    4  O4  UNL     1     -32.987  13.158  -3.647  1.00 20.00    -0.647 OA
HETATM    5  O5  UNL     1     -35.108  12.701  -4.361  1.00 20.00    -0.647 OA
ENDBRANCH   1   3
BRANCH   1   6
HETATM    6  C2  UNL     1     -35.306  15.367  -5.417  1.00 20.00     0.102 C 
BRANCH   6   7
HETATM    7  S6  UNL     1     -34.526  15.112  -7.042  1.00 20.00    -0.180 SA
HETATM    8  H11 UNL     1     -35.634  14.686  -7.660  1.00 20.00     0.101 HD
ENDBRANCH   6   7
ENDBRANCH   1   6
TORSDOF 3
ENDMDL
MODEL 8
REMARK VINA RESULT:      -3.2     12.552     12.885
REMARK  3 active torsions:
REMARK  status: ('A' for Active; 'I' for Inactive)
REMARK    1  A    between atoms: C1_1  and  C3_3 
REMARK    2  A    between atoms: C2_2  and  C3_3 
REMARK    3  A    between atoms: C2_2  and  S6_6 
ROOT
HETATM    1  C3  UNL     1     -34.951  15.047  -4.728  1.00 20.00     0.192 C 
HETATM    2 CL7  UNL     1     -34.464  14.705  -6.424  1.00 20.00    -0.113 Cl
ENDROOT
BRANCH   1   3
HETATM    3  C1  UNL     1     -35.683  13.779  -4.260  1.00 20.00     0.192 C 
HETATM    4  O4  UNL     1     -36.869  13.972  -3.867  1.00 20.00    -0.647 OA
HETATM    5  O5  UNL     1     -35.025  12.703  -4.321  1.00 20.00    -0.647 OA
ENDBRANCH   1   3
BRANCH   1   6
HETATM    6  C2  UNL     1     -33.709  15.455  -3.944  1.00 20.00     0.102 C 
BRANCH   6   7
HETATM    7  S6  UNL     1     -34.154  16.257  -2.372  1.00 20.00    -0.180 SA
HETATM    8  H11 UNL     1     -35.175  16.969  -2.866  1.00 20.00     0.101 HD
ENDBRANCH   6   7
ENDBRANCH   1   6
TORSDOF 3
ENDMDL
MODEL 9
REMARK VINA RESULT:      -3.2      1.805      1.947
REMARK  3 active torsions:
REMARK  status: ('A' for Active; 'I' for Inactive)
REMARK    1  A    between atoms: C1_1  and  C3_3 
REMARK    2  A    between atoms: C2_2  and  C3_3 
REMARK    3  A    between atoms: C2_2  and  S6_6 
ROOT
HETATM    1  C3  UNL     1     -34.523   5.893   4.313  1.00 20.00     0.192 C 
HETATM    2 CL7  UNL     1     -34.402   5.087   2.711  1.00 20.00    -0.113 Cl
ENDROOT
BRANCH   1   3
HETATM    3  C1  UNL     1     -34.928   4.778   5.290  1.00 20.00     0.192 C 
HETATM    4  O4  UNL     1     -34.976   5.134   6.503  1.00 20.00    -0.647 OA
HETATM    5  O5  UNL     1     -35.164   3.648   4.779  1.00 20.00    -0.647 OA
ENDBRANCH   1   3
BRANCH   1   6
HETATM    6  C2  UNL     1     -33.206   6.609   4.592  1.00 20.00     0.102 C 
BRANCH   6   7
HETATM    7  S6  UNL     1     -32.283   6.919   3.054  1.00 20.00    -0.180 SA
HETATM    8  H11 UNL     1     -31.457   7.836   3.573  1.00 20.00     0.101 HD
ENDBRANCH   6   7
ENDBRANCH   1   6
TORSDOF 3
ENDMDL
