MODEL 1
REMARK VINA RESULT:      -4.5      0.000      0.000
REMARK  2 active torsions:
REMARK  status: ('A' for Active; 'I' for Inactive)
REMARK    1  A    between atoms: C1_1  and  C5_5 
REMARK    2  A    between atoms: C5_5  and  C6_6 
ROOT
HETATM    1  C2  UNL     1     -34.903   5.412   3.484  1.00 20.00     0.019 C 
HETATM    2  C5  UNL     1     -34.076   6.482   4.201  1.00 20.00     0.071 C 
ENDROOT
BRANCH   2   3
HETATM    3  C1  UNL     1     -34.103   6.149   5.694  1.00 20.00     0.223 C 
HETATM    4  O7  UNL     1     -33.579   6.879   6.532  1.00 20.00    -0.279 OA
HETATM    5 CL8  UNL     1     -34.919   4.648   6.032  1.00 20.00    -0.043 Cl
ENDBRANCH   2   3
BRANCH   2   6
HETATM    6  C6  UNL     1     -32.615   6.571   3.691  1.00 20.00    -0.011 C 
HETATM    7  C3  UNL     1     -32.182   5.308   2.941  1.00 20.00     0.010 C 
HETATM    8  C4  UNL     1     -32.430   7.786   2.770  1.00 20.00     0.010 C 
ENDBRANCH   2   6
TORSDOF 2
ENDMDL
MODEL 2
REMARK VINA RESULT:      -4.2      1.347      1.347
REMARK  2 active torsions:
REMARK  status: ('A' for Active; 'I' for Inactive)
REMARK    1  A    between atoms: C1_1  and  C5_5 
REMARK    2  A    between atoms: C5_5  and  C6_6 
ROOT
HETATM    1  C2  UNL     1     -34.900   5.389   3.483  1.00 20.00     0.019 C 
HETATM    2  C5  UNL     1     -34.094   6.451   4.235  1.00 20.00     0.071 C 
ENDROOT
BRANCH   2   3
HETATM    3  C1  UNL     1     -34.130   6.080   5.719  1.00 20.00     0.223 C 
HETATM    4  O7  UNL     1     -34.682   5.059   6.120  1.00 20.00    -0.279 OA
HETATM    5 CL8  UNL     1     -33.342   7.263   6.725  1.00 20.00    -0.043 Cl
ENDBRANCH   2   3
BRANCH   2   6
HETATM    6  C6  UNL     1     -32.629   6.572   3.741  1.00 20.00    -0.011 C 
HETATM    7  C3  UNL     1     -32.169   5.330   2.973  1.00 20.00     0.010 C 
HETATM    8  C4  UNL     1     -32.454   7.806   2.844  1.00 20.00     0.010 C 
ENDBRANCH   2   6
TORSDOF 2
ENDMDL
MODEL 3
REMARK VINA RESULT:      -4.1      2.469      3.553
REMARK  2 active torsions:
REMARK  status: ('A' for Active; 'I' for Inactive)
REMARK    1  A    between atoms: C1_1  and  C5_5 
REMARK    2  A    between atoms: C5_5  and  C6_6 
ROOT
HETATM    1  C2  UNL     1     -33.340   6.833   6.131  1.00 20.00     0.019 C 
HETATM    2  C5  UNL     1     -33.815   6.551   4.704  1.00 20.00     0.071 C 
ENDROOT
BRANCH   2   3
HETATM    3  C1  UNL     1     -32.577   6.554   3.806  1.00 20.00     0.223 C 
HETATM    4  O7  UNL     1     -32.417   5.723   2.916  1.00 20.00    -0.279 OA
HETATM    5 CL8  UNL     1     -31.456   7.823   4.214  1.00 20.00    -0.043 Cl
ENDBRANCH   2   3
BRANCH   2   6
HETATM    6  C6  UNL     1     -34.583   5.211   4.566  1.00 20.00    -0.011 C 
HETATM    7  C3  UNL     1     -34.949   4.608   5.926  1.00 20.00     0.010 C 
HETATM    8  C4  UNL     1     -35.865   5.397   3.742  1.00 20.00     0.010 C 
ENDBRANCH   2   6
TORSDOF 2
ENDMDL
MODEL 4
REMARK VINA RESULT:      -4.0      2.219      3.429
REMARK  2 active torsions:
REMARK  status: ('A' for Active; 'I' for Inactive)
REMARK    1  A    between atoms: C1_1  and  C5_5 
REMARK    2  A    between atoms: C5_5  and  C6_6 
ROOT
HETATM    1  C2  UNL     1     -35.813   5.667   3.726  1.00 20.00     0.019 C 
HETATM    2  C5  UNL     1     -34.361   5.317   4.058  1.00 20.00     0.071 C 
ENDROOT
BRANCH   2   3
HETATM    3  C1  UNL     1     -33.489   6.459   3.531  1.00 20.00     0.223 C 
HETATM    4  O7  UNL     1     -33.930   7.594   3.372  1.00 20.00    -0.279 OA
HETATM    5 CL8  UNL     1     -31.861   5.951   3.176  1.00 20.00    -0.043 Cl
ENDBRANCH   2   3
BRANCH   2   6
HETATM    6  C6  UNL     1     -34.113   5.099   5.573  1.00 20.00    -0.011 C 
HETATM    7  C3  UNL     1     -34.094   6.415   6.355  1.00 20.00     0.010 C 
HETATM    8  C4  UNL     1     -35.182   4.177   6.175  1.00 20.00     0.010 C 
ENDBRANCH   2   6
TORSDOF 2
ENDMDL
MODEL 5
REMARK VINA RESULT:      -4.0      1.926      2.457
REMARK  2 active torsions:
REMARK  status: ('A' for Active; 'I' for Inactive)
REMARK    1  A    between atoms: C1_1  and  C5_5 
REMARK    2  A    between atoms: C5_5  and  C6_6 
ROOT
HETATM    1  C2  UNL     1     -34.030   6.486   6.148  1.00 20.00     0.019 C 
HETATM    2  C5  UNL     1     -33.766   5.602   4.927  1.00 20.00     0.071 C 
ENDROOT
BRANCH   2   3
HETATM    3  C1  UNL     1     -35.038   4.791   4.672  1.00 20.00     0.223 C 
HETATM    4  O7  UNL     1     -35.179   3.650   5.104  1.00 20.00    -0.279 OA
HETATM    5 CL8  UNL     1     -36.201   5.654   3.705  1.00 20.00    -0.043 Cl
ENDBRANCH   2   3
BRANCH   2   6
HETATM    6  C6  UNL     1     -33.372   6.406   3.661  1.00 20.00    -0.011 C 
HETATM    7  C3  UNL     1     -32.065   7.182   3.849  1.00 20.00     0.010 C 
HETATM    8  C4  UNL     1     -33.230   5.479   2.446  1.00 20.00     0.010 C 
ENDBRANCH   2   6
TORSDOF 2
ENDMDL
MODEL 6
REMARK VINA RESULT:      -3.9     11.896     12.408
REMARK  2 active torsions:
REMARK  status: ('A' for Active; 'I' for Inactive)
REMARK    1  A    between atoms: C1_1  and  C5_5 
REMARK    2  A    between atoms: C5_5  and  C6_6 
ROOT
HETATM    1  C2  UNL     1     -32.746  14.263  -3.569  1.00 20.00     0.019 C 
HETATM    2  C5  UNL     1     -34.106  14.805  -4.014  1.00 20.00     0.071 C 
ENDROOT
BRANCH   2   3
HETATM    3  C1  UNL     1     -34.754  13.734  -4.893  1.00 20.00     0.223 C 
HETATM    4  O7  UNL     1     -34.997  12.606  -4.471  1.00 20.00    -0.279 OA
HETATM    5 CL8  UNL     1     -35.064  14.293  -6.513  1.00 20.00    -0.043 Cl
ENDBRANCH   2   3
BRANCH   2   6
HETATM    6  C6  UNL     1     -35.037  15.173  -2.830  1.00 20.00    -0.011 C 
HETATM    7  C3  UNL     1     -34.427  16.245  -1.922  1.00 20.00     0.010 C 
HETATM    8  C4  UNL     1     -36.399  15.667  -3.338  1.00 20.00     0.010 C 
ENDBRANCH   2   6
TORSDOF 2
ENDMDL
MODEL 7
REMARK VINA RESULT:      -3.9     12.058     12.493
REMARK  2 active torsions:
REMARK  status: ('A' for Active; 'I' for Inactive)
REMARK    1  A    between atoms: C1_1  and  C5_5 
REMARK    2  A    between atoms: C5_5  and  C6_6 
ROOT
HETATM    1  C2  UNL     1     -36.205  16.000  -4.442  1.00 20.00     0.019 C 
HETATM    2  C5  UNL     1     -35.604  14.825  -3.665  1.00 20.00     0.071 C 
ENDROOT
BRANCH   2   3
HETATM    3  C1  UNL     1     -35.275  13.732  -4.683  1.00 20.00     0.223 C 
HETATM    4  O7  UNL     1     -34.977  12.591  -4.337  1.00 20.00    -0.279 OA
HETATM    5 CL8  UNL     1     -35.350  14.300  -6.327  1.00 20.00    -0.043 Cl
ENDBRANCH   2   3
BRANCH   2   6
HETATM    6  C6  UNL     1     -34.341  15.209  -2.852  1.00 20.00    -0.011 C 
HETATM    7  C3  UNL     1     -33.242  15.809  -3.734  1.00 20.00     0.010 C 
HETATM    8  C4  UNL     1     -34.688  16.209  -1.741  1.00 20.00     0.010 C 
ENDBRANCH   2   6
TORSDOF 2
ENDMDL
MODEL 8
REMARK VINA RESULT:      -3.8      2.524      3.440
REMARK  2 active torsions:
REMARK  status: ('A' for Active; 'I' for Inactive)
REMARK    1  A    between atoms: C1_1  and  C5_5 
REMARK    2  A    between atoms: C5_5  and  C6_6 
ROOT
HETATM    1  C2  UNL     1     -32.712   5.464   2.304  1.00 20.00     0.019 C 
HETATM    2  C5  UNL     1     -32.624   6.149   3.669  1.00 20.00     0.071 C 
ENDROOT
BRANCH   2   3
HETATM    3  C1  UNL     1     -31.855   7.456   3.470  1.00 20.00     0.223 C 
HETATM    4  O7  UNL     1     -31.098   7.903   4.329  1.00 20.00    -0.279 OA
HETATM    5 CL8  UNL     1     -32.199   8.211   1.938  1.00 20.00    -0.043 Cl
ENDBRANCH   2   3
BRANCH   2   6
HETATM    6  C6  UNL     1     -34.009   6.426   4.308  1.00 20.00    -0.011 C 
HETATM    7  C3  UNL     1     -35.087   5.465   3.798  1.00 20.00     0.010 C 
HETATM    8  C4  UNL     1     -33.937   6.327   5.837  1.00 20.00     0.010 C 
ENDBRANCH   2   6
TORSDOF 2
ENDMDL
MODEL 9
REMARK VINA RESULT:      -3.7      2.126      3.453
REMARK  2 active torsions:
REMARK  status: ('A' for Active; 'I' for Inactive)
REMARK    1  A    between atoms: C1_1  and  C5_5 
REMARK    2  A    between atoms: C5_5  and  C6_6 
ROOT
HETATM    1  C2  UNL     1     -32.497   6.725   3.586  1.00 20.00     0.019 C 
HETATM    2  C5  UNL     1     -33.868   6.479   4.220  1.00 20.00     0.071 C 
ENDROOT
BRANCH   2   3
HETATM    3  C1  UNL     1     -34.652   5.577   3.265  1.00 20.00     0.223 C 
HETATM    4  O7  UNL     1     -34.092   4.788   2.509  1.00 20.00    -0.279 OA
HETATM    5 CL8  UNL     1     -36.373   5.826   3.368  1.00 20.00    -0.043 Cl
ENDBRANCH   2   3
BRANCH   2   6
HETATM    6  C6  UNL     1     -33.786   5.837   5.629  1.00 20.00    -0.011 C 
HETATM    7  C3  UNL     1     -33.877   6.878   6.749  1.00 20.00     0.010 C 
HETATM    8  C4  UNL     1     -34.899   4.798   5.823  1.00 20.00     0.010 C 
ENDBRANCH   2   6
TORSDOF 2
ENDMDL
