MODEL 1
REMARK VINA RESULT:      -3.7      0.000      0.000
REMARK  2 active torsions:
REMARK  status: ('A' for Active; 'I' for Inactive)
REMARK    1  A    between atoms: C5_5  and  O8_8 
REMARK    2  A    between atoms: C6_6  and  O8_8 
ROOT
HETATM    1  C1  UNL     1     -34.513  13.714  -4.340  1.00 20.00     0.097 C 
HETATM    2  C3  UNL     1     -32.502  14.922  -3.593  1.00 20.00     0.062 C 
HETATM    3  C4  UNL     1     -34.219  16.055  -5.042  1.00 20.00     0.062 C 
HETATM    4  C6  UNL     1     -33.988  15.029  -3.934  1.00 20.00     0.141 C 
HETATM    5  N7  UNL     1     -34.929  12.679  -4.660  1.00 20.00    -0.194 NA
ENDROOT
BRANCH   4   6
HETATM    6  O8  UNL     1     -34.690  15.458  -2.768  1.00 20.00    -0.367 OA
BRANCH   6   7
HETATM    7  C5  UNL     1     -33.952  16.436  -2.052  1.00 20.00     0.165 C 
HETATM    8  C2  UNL     1     -34.653  16.720  -0.741  1.00 20.00     0.033 C 
ENDBRANCH   6   7
ENDBRANCH   4   6
TORSDOF 2
ENDMDL
MODEL 2
REMARK VINA RESULT:      -3.7     12.144     12.760
REMARK  2 active torsions:
REMARK  status: ('A' for Active; 'I' for Inactive)
REMARK    1  A    between atoms: C5_5  and  O8_8 
REMARK    2  A    between atoms: C6_6  and  O8_8 
ROOT
HETATM    1  C1  UNL     1     -34.190   6.270   5.952  1.00 20.00     0.097 C 
HETATM    2  C3  UNL     1     -34.728   3.907   5.517  1.00 20.00     0.062 C 
HETATM    3  C4  UNL     1     -35.606   5.724   4.014  1.00 20.00     0.062 C 
HETATM    4  C6  UNL     1     -34.443   5.275   4.897  1.00 20.00     0.141 C 
HETATM    5  N7  UNL     1     -33.990   7.056   6.783  1.00 20.00    -0.194 NA
ENDROOT
BRANCH   4   6
HETATM    6  O8  UNL     1     -33.274   5.168   4.084  1.00 20.00    -0.367 OA
BRANCH   6   7
HETATM    7  C5  UNL     1     -33.249   6.171   3.081  1.00 20.00     0.165 C 
HETATM    8  C2  UNL     1     -31.996   7.002   3.247  1.00 20.00     0.033 C 
ENDBRANCH   6   7
ENDBRANCH   4   6
TORSDOF 2
ENDMDL
MODEL 3
REMARK VINA RESULT:      -3.6      1.632      1.917
REMARK  2 active torsions:
REMARK  status: ('A' for Active; 'I' for Inactive)
REMARK    1  A    between atoms: C5_5  and  O8_8 
REMARK    2  A    between atoms: C6_6  and  O8_8 
ROOT
HETATM    1  C1  UNL     1     -36.619  14.424  -3.982  1.00 20.00     0.097 C 
HETATM    2  C3  UNL     1     -34.636  13.231  -4.822  1.00 20.00     0.062 C 
HETATM    3  C4  UNL     1     -34.860  15.720  -5.116  1.00 20.00     0.062 C 
HETATM    4  C6  UNL     1     -35.168  14.528  -4.212  1.00 20.00     0.141 C 
HETATM    5  N7  UNL     1     -37.763  14.345  -3.800  1.00 20.00    -0.194 NA
ENDROOT
BRANCH   4   6
HETATM    6  O8  UNL     1     -34.522  14.735  -2.956  1.00 20.00    -0.367 OA
BRANCH   6   7
HETATM    7  C5  UNL     1     -34.296  16.114  -2.714  1.00 20.00     0.165 C 
HETATM    8  C2  UNL     1     -34.630  16.422  -1.270  1.00 20.00     0.033 C 
ENDBRANCH   6   7
ENDBRANCH   4   6
TORSDOF 2
ENDMDL
MODEL 4
REMARK VINA RESULT:      -3.6      1.258      2.536
REMARK  2 active torsions:
REMARK  status: ('A' for Active; 'I' for Inactive)
REMARK    1  A    between atoms: C5_5  and  O8_8 
REMARK    2  A    between atoms: C6_6  and  O8_8 
ROOT
HETATM    1  C1  UNL     1     -34.674  13.764  -4.102  1.00 20.00     0.097 C 
HETATM    2  C3  UNL     1     -34.778  15.597  -2.461  1.00 20.00     0.062 C 
HETATM    3  C4  UNL     1     -32.611  15.010  -3.598  1.00 20.00     0.062 C 
HETATM    4  C6  UNL     1     -34.130  15.086  -3.748  1.00 20.00     0.141 C 
HETATM    5  N7  UNL     1     -35.102  12.722  -4.382  1.00 20.00    -0.194 NA
ENDROOT
BRANCH   4   6
HETATM    6  O8  UNL     1     -34.434  15.999  -4.801  1.00 20.00    -0.367 OA
BRANCH   6   7
HETATM    7  C5  UNL     1     -33.283  16.724  -5.204  1.00 20.00     0.165 C 
HETATM    8  C2  UNL     1     -33.621  18.199  -5.248  1.00 20.00     0.033 C 
ENDBRANCH   6   7
ENDBRANCH   4   6
TORSDOF 2
ENDMDL
MODEL 5
REMARK VINA RESULT:      -3.5      2.266      3.723
REMARK  2 active torsions:
REMARK  status: ('A' for Active; 'I' for Inactive)
REMARK    1  A    between atoms: C5_5  and  O8_8 
REMARK    2  A    between atoms: C6_6  and  O8_8 
ROOT
HETATM    1  C1  UNL     1     -36.790  14.531  -3.838  1.00 20.00     0.097 C 
HETATM    2  C3  UNL     1     -34.913  15.714  -2.771  1.00 20.00     0.062 C 
HETATM    3  C4  UNL     1     -34.563  13.481  -3.878  1.00 20.00     0.062 C 
HETATM    4  C6  UNL     1     -35.343  14.795  -3.914  1.00 20.00     0.141 C 
HETATM    5  N7  UNL     1     -37.930  14.321  -3.779  1.00 20.00    -0.194 NA
ENDROOT
BRANCH   4   6
HETATM    6  O8  UNL     1     -35.066  15.450  -5.151  1.00 20.00    -0.367 OA
BRANCH   6   7
HETATM    7  C5  UNL     1     -34.582  14.536  -6.122  1.00 20.00     0.165 C 
HETATM    8  C2  UNL     1     -35.454  14.621  -7.356  1.00 20.00     0.033 C 
ENDBRANCH   6   7
ENDBRANCH   4   6
TORSDOF 2
ENDMDL
MODEL 6
REMARK VINA RESULT:      -3.4      1.556      1.953
REMARK  2 active torsions:
REMARK  status: ('A' for Active; 'I' for Inactive)
REMARK    1  A    between atoms: C5_5  and  O8_8 
REMARK    2  A    between atoms: C6_6  and  O8_8 
ROOT
HETATM    1  C1  UNL     1     -34.985  13.797  -4.872  1.00 20.00     0.097 C 
HETATM    2  C3  UNL     1     -34.319  15.468  -6.553  1.00 20.00     0.062 C 
HETATM    3  C4  UNL     1     -36.628  15.498  -5.554  1.00 20.00     0.062 C 
HETATM    4  C6  UNL     1     -35.152  15.196  -5.301  1.00 20.00     0.141 C 
HETATM    5  N7  UNL     1     -34.854  12.695  -4.532  1.00 20.00    -0.194 NA
ENDROOT
BRANCH   4   6
HETATM    6  O8  UNL     1     -34.690  16.051  -4.255  1.00 20.00    -0.367 OA
BRANCH   6   7
HETATM    7  C5  UNL     1     -35.523  15.963  -3.111  1.00 20.00     0.165 C 
HETATM    8  C2  UNL     1     -34.674  16.127  -1.869  1.00 20.00     0.033 C 
ENDBRANCH   6   7
ENDBRANCH   4   6
TORSDOF 2
ENDMDL
MODEL 7
REMARK VINA RESULT:      -3.4      1.471      2.158
REMARK  2 active torsions:
REMARK  status: ('A' for Active; 'I' for Inactive)
REMARK    1  A    between atoms: C5_5  and  O8_8 
REMARK    2  A    between atoms: C6_6  and  O8_8 
ROOT
HETATM    1  C1  UNL     1     -34.122  15.490  -5.141  1.00 20.00     0.097 C 
HETATM    2  C3  UNL     1     -35.035  13.329  -4.392  1.00 20.00     0.062 C 
HETATM    3  C4  UNL     1     -32.817  14.154  -3.535  1.00 20.00     0.062 C 
HETATM    4  C6  UNL     1     -34.215  14.559  -4.003  1.00 20.00     0.141 C 
HETATM    5  N7  UNL     1     -34.047  16.224  -6.036  1.00 20.00    -0.194 NA
ENDROOT
BRANCH   4   6
HETATM    6  O8  UNL     1     -34.876  15.222  -2.926  1.00 20.00    -0.367 OA
BRANCH   6   7
HETATM    7  C5  UNL     1     -34.047  16.214  -2.343  1.00 20.00     0.165 C 
HETATM    8  C2  UNL     1     -34.599  16.580  -0.982  1.00 20.00     0.033 C 
ENDBRANCH   6   7
ENDBRANCH   4   6
TORSDOF 2
ENDMDL
MODEL 8
REMARK VINA RESULT:      -3.4     11.829     12.996
REMARK  2 active torsions:
REMARK  status: ('A' for Active; 'I' for Inactive)
REMARK    1  A    between atoms: C5_5  and  O8_8 
REMARK    2  A    between atoms: C6_6  and  O8_8 
ROOT
HETATM    1  C1  UNL     1     -42.803   5.226  -2.926  1.00 20.00     0.097 C 
HETATM    2  C3  UNL     1     -42.852   4.021  -0.779  1.00 20.00     0.062 C 
HETATM    3  C4  UNL     1     -41.627   3.069  -2.760  1.00 20.00     0.062 C 
HETATM    4  C6  UNL     1     -42.034   4.347  -2.028  1.00 20.00     0.141 C 
HETATM    5  N7  UNL     1     -43.408   5.918  -3.634  1.00 20.00    -0.194 NA
ENDROOT
BRANCH   4   6
HETATM    6  O8  UNL     1     -40.849   5.033  -1.626  1.00 20.00    -0.367 OA
BRANCH   6   7
HETATM    7  C5  UNL     1     -41.057   5.764  -0.428  1.00 20.00     0.165 C 
HETATM    8  C2  UNL     1     -40.968   7.244  -0.732  1.00 20.00     0.033 C 
ENDBRANCH   6   7
ENDBRANCH   4   6
TORSDOF 2
ENDMDL
MODEL 9
REMARK VINA RESULT:      -3.3      1.750      2.361
REMARK  2 active torsions:
REMARK  status: ('A' for Active; 'I' for Inactive)
REMARK    1  A    between atoms: C5_5  and  O8_8 
REMARK    2  A    between atoms: C6_6  and  O8_8 
ROOT
HETATM    1  C1  UNL     1     -33.758  14.236  -3.834  1.00 20.00     0.097 C 
HETATM    2  C3  UNL     1     -33.906  16.307  -2.511  1.00 20.00     0.062 C 
HETATM    3  C4  UNL     1     -33.182  16.369  -4.920  1.00 20.00     0.062 C 
HETATM    4  C6  UNL     1     -34.073  15.673  -3.892  1.00 20.00     0.141 C 
HETATM    5  N7  UNL     1     -33.510  13.103  -3.791  1.00 20.00    -0.194 NA
ENDROOT
BRANCH   4   6
HETATM    6  O8  UNL     1     -35.433  15.824  -4.297  1.00 20.00    -0.367 OA
BRANCH   6   7
HETATM    7  C5  UNL     1     -36.325  15.371  -3.292  1.00 20.00     0.165 C 
HETATM    8  C2  UNL     1     -37.501  14.682  -3.950  1.00 20.00     0.033 C 
ENDBRANCH   6   7
ENDBRANCH   4   6
TORSDOF 2
ENDMDL
