MODEL 1
REMARK VINA RESULT:      -5.1      0.000      0.000
REMARK  2 active torsions:
REMARK  status: ('A' for Active; 'I' for Inactive)
REMARK    1  A    between atoms: C6_6  and  C9_9 
REMARK    2  A    between atoms: C6_6  and  C10_10 
ROOT
HETATM    1  C1  UNL     1     -33.477  14.117  -3.822  1.00 20.00     0.047 C 
HETATM    2  C2  UNL     1     -33.274  15.330  -3.295  1.00 20.00    -0.014 C 
HETATM    3  C3  UNL     1     -34.852  13.650  -4.124  1.00 20.00     0.149 C 
HETATM    4  C4  UNL     1     -36.014  14.539  -3.747  1.00 20.00     0.084 C 
HETATM    5  C5  UNL     1     -35.631  16.012  -3.830  1.00 20.00     0.021 C 
HETATM    6  C6  UNL     1     -34.361  16.346  -3.017  1.00 20.00    -0.023 C 
HETATM    7  O11 UNL     1     -35.023  12.535  -4.613  1.00 20.00    -0.293 OA
ENDROOT
BRANCH   6   8
HETATM    8  C9  UNL     1     -34.661  16.354  -1.509  1.00 20.00     0.009 C 
HETATM    9  C7  UNL     1     -33.879  17.411  -0.807  1.00 20.00     0.006 C 
ENDBRANCH   6   8
BRANCH   6  10
HETATM   10  C10 UNL     1     -33.870  17.746  -3.430  1.00 20.00     0.009 C 
HETATM   11  C8  UNL     1     -33.559  17.801  -4.885  1.00 20.00     0.006 C 
ENDBRANCH   6  10
TORSDOF 2
ENDMDL
MODEL 2
REMARK VINA RESULT:      -4.7      0.636      2.552
REMARK  2 active torsions:
REMARK  status: ('A' for Active; 'I' for Inactive)
REMARK    1  A    between atoms: C6_6  and  C9_9 
REMARK    2  A    between atoms: C6_6  and  C10_10 
ROOT
HETATM    1  C1  UNL     1     -35.968  14.749  -3.773  1.00 20.00     0.047 C 
HETATM    2  C2  UNL     1     -35.554  15.981  -3.453  1.00 20.00    -0.014 C 
HETATM    3  C3  UNL     1     -34.984  13.680  -4.065  1.00 20.00     0.149 C 
HETATM    4  C4  UNL     1     -33.515  14.034  -4.074  1.00 20.00     0.084 C 
HETATM    5  C5  UNL     1     -33.212  15.153  -3.086  1.00 20.00     0.021 C 
HETATM    6  C6  UNL     1     -34.107  16.395  -3.296  1.00 20.00    -0.023 C 
HETATM    7  O11 UNL     1     -35.378  12.551  -4.353  1.00 20.00    -0.293 OA
ENDROOT
BRANCH   6   8
HETATM    8  C9  UNL     1     -33.674  17.178  -4.547  1.00 20.00     0.009 C 
HETATM    9  C7  UNL     1     -33.709  18.648  -4.304  1.00 20.00     0.006 C 
ENDBRANCH   6   8
BRANCH   6  10
HETATM   10  C10 UNL     1     -33.967  17.312  -2.066  1.00 20.00     0.009 C 
HETATM   11  C8  UNL     1     -34.543  16.676  -0.850  1.00 20.00     0.006 C 
ENDBRANCH   6  10
TORSDOF 2
ENDMDL
MODEL 3
REMARK VINA RESULT:      -4.4      1.452      2.947
REMARK  2 active torsions:
REMARK  status: ('A' for Active; 'I' for Inactive)
REMARK    1  A    between atoms: C6_6  and  C9_9 
REMARK    2  A    between atoms: C6_6  and  C10_10 
ROOT
HETATM    1  C1  UNL     1     -37.040  16.205  -3.442  1.00 20.00     0.047 C 
HETATM    2  C2  UNL     1     -35.904  16.874  -3.212  1.00 20.00    -0.014 C 
HETATM    3  C3  UNL     1     -37.005  14.766  -3.795  1.00 20.00     0.149 C 
HETATM    4  C4  UNL     1     -35.661  14.098  -3.968  1.00 20.00     0.084 C 
HETATM    5  C5  UNL     1     -34.613  14.725  -3.057  1.00 20.00     0.021 C 
HETATM    6  C6  UNL     1     -34.521  16.259  -3.219  1.00 20.00    -0.023 C 
HETATM    7  O11 UNL     1     -38.057  14.163  -4.000  1.00 20.00    -0.293 OA
ENDROOT
BRANCH   6   8
HETATM    8  C9  UNL     1     -33.817  16.630  -4.535  1.00 20.00     0.009 C 
HETATM    9  C7  UNL     1     -33.680  18.107  -4.677  1.00 20.00     0.006 C 
ENDBRANCH   6   8
BRANCH   6  10
HETATM   10  C10 UNL     1     -33.702  16.826  -2.044  1.00 20.00     0.009 C 
HETATM   11  C8  UNL     1     -34.475  16.775  -0.773  1.00 20.00     0.006 C 
ENDBRANCH   6  10
TORSDOF 2
ENDMDL
MODEL 4
REMARK VINA RESULT:      -4.4      1.505      1.896
REMARK  2 active torsions:
REMARK  status: ('A' for Active; 'I' for Inactive)
REMARK    1  A    between atoms: C6_6  and  C9_9 
REMARK    2  A    between atoms: C6_6  and  C10_10 
ROOT
HETATM    1  C1  UNL     1     -35.975  14.056  -3.869  1.00 20.00     0.047 C 
HETATM    2  C2  UNL     1     -34.832  14.680  -3.561  1.00 20.00    -0.014 C 
HETATM    3  C3  UNL     1     -37.269  14.773  -3.781  1.00 20.00     0.149 C 
HETATM    4  C4  UNL     1     -37.273  16.192  -3.259  1.00 20.00     0.084 C 
HETATM    5  C5  UNL     1     -35.979  16.913  -3.614  1.00 20.00     0.021 C 
HETATM    6  C6  UNL     1     -34.720  16.137  -3.168  1.00 20.00    -0.023 C 
HETATM    7  O11 UNL     1     -38.311  14.189  -4.071  1.00 20.00    -0.293 OA
ENDROOT
BRANCH   6   8
HETATM    8  C9  UNL     1     -34.530  16.229  -1.644  1.00 20.00     0.009 C 
HETATM    9  C7  UNL     1     -33.700  17.410  -1.272  1.00 20.00     0.006 C 
ENDBRANCH   6   8
BRANCH   6  10
HETATM   10  C10 UNL     1     -33.492  16.760  -3.857  1.00 20.00     0.009 C 
HETATM   11  C8  UNL     1     -33.482  16.462  -5.315  1.00 20.00     0.006 C 
ENDBRANCH   6  10
TORSDOF 2
ENDMDL
MODEL 5
REMARK VINA RESULT:      -4.3      2.284      3.596
REMARK  2 active torsions:
REMARK  status: ('A' for Active; 'I' for Inactive)
REMARK    1  A    between atoms: C6_6  and  C9_9 
REMARK    2  A    between atoms: C6_6  and  C10_10 
ROOT
HETATM    1  C1  UNL     1     -36.791  15.981  -4.658  1.00 20.00     0.047 C 
HETATM    2  C2  UNL     1     -35.676  16.411  -5.259  1.00 20.00    -0.014 C 
HETATM    3  C3  UNL     1     -36.870  14.600  -4.123  1.00 20.00     0.149 C 
HETATM    4  C4  UNL     1     -35.699  13.671  -4.347  1.00 20.00     0.084 C 
HETATM    5  C5  UNL     1     -34.385  14.442  -4.386  1.00 20.00     0.021 C 
HETATM    6  C6  UNL     1     -34.403  15.605  -5.403  1.00 20.00    -0.023 C 
HETATM    7  O11 UNL     1     -37.900  14.220  -3.568  1.00 20.00    -0.293 OA
ENDROOT
BRANCH   6   8
HETATM    8  C9  UNL     1     -34.309  15.075  -6.844  1.00 20.00     0.009 C 
HETATM    9  C7  UNL     1     -34.993  15.988  -7.802  1.00 20.00     0.006 C 
ENDBRANCH   6   8
BRANCH   6  10
HETATM   10  C10 UNL     1     -33.189  16.512  -5.130  1.00 20.00     0.009 C 
HETATM   11  C8  UNL     1     -33.608  17.924  -4.913  1.00 20.00     0.006 C 
ENDBRANCH   6  10
TORSDOF 2
ENDMDL
MODEL 6
REMARK VINA RESULT:      -4.2      1.974      3.190
REMARK  2 active torsions:
REMARK  status: ('A' for Active; 'I' for Inactive)
REMARK    1  A    between atoms: C6_6  and  C9_9 
REMARK    2  A    between atoms: C6_6  and  C10_10 
ROOT
HETATM    1  C1  UNL     1     -33.327  16.762  -5.220  1.00 20.00     0.047 C 
HETATM    2  C2  UNL     1     -33.432  16.201  -4.009  1.00 20.00    -0.014 C 
HETATM    3  C3  UNL     1     -34.483  16.767  -6.147  1.00 20.00     0.149 C 
HETATM    4  C4  UNL     1     -35.748  16.054  -5.727  1.00 20.00     0.084 C 
HETATM    5  C5  UNL     1     -35.932  16.106  -4.215  1.00 20.00     0.021 C 
HETATM    6  C6  UNL     1     -34.697  15.592  -3.444  1.00 20.00    -0.023 C 
HETATM    7  O11 UNL     1     -34.374  17.290  -7.255  1.00 20.00    -0.293 OA
ENDROOT
BRANCH   6   8
HETATM    8  C9  UNL     1     -34.593  14.060  -3.530  1.00 20.00     0.009 C 
HETATM    9  C7  UNL     1     -33.178  13.621  -3.682  1.00 20.00     0.006 C 
ENDBRANCH   6   8
BRANCH   6  10
HETATM   10  C10 UNL     1     -34.842  15.995  -1.964  1.00 20.00     0.009 C 
HETATM   11  C8  UNL     1     -33.805  16.988  -1.571  1.00 20.00     0.006 C 
ENDBRANCH   6  10
TORSDOF 2
ENDMDL
MODEL 7
REMARK VINA RESULT:      -4.2      2.104      3.579
REMARK  2 active torsions:
REMARK  status: ('A' for Active; 'I' for Inactive)
REMARK    1  A    between atoms: C6_6  and  C9_9 
REMARK    2  A    between atoms: C6_6  and  C10_10 
ROOT
HETATM    1  C1  UNL     1     -35.984  16.873  -4.860  1.00 20.00     0.047 C 
HETATM    2  C2  UNL     1     -35.577  16.009  -3.923  1.00 20.00    -0.014 C 
HETATM    3  C3  UNL     1     -34.994  17.626  -5.666  1.00 20.00     0.149 C 
HETATM    4  C4  UNL     1     -33.526  17.458  -5.348  1.00 20.00     0.084 C 
HETATM    5  C5  UNL     1     -33.234  16.058  -4.825  1.00 20.00     0.021 C 
HETATM    6  C6  UNL     1     -34.132  15.665  -3.631  1.00 20.00    -0.023 C 
HETATM    7  O11 UNL     1     -35.383  18.414  -6.527  1.00 20.00    -0.293 OA
ENDROOT
BRANCH   6   8
HETATM    8  C9  UNL     1     -33.695  16.398  -2.351  1.00 20.00     0.009 C 
HETATM    9  C7  UNL     1     -34.772  16.381  -1.322  1.00 20.00     0.006 C 
ENDBRANCH   6   8
BRANCH   6  10
HETATM   10  C10 UNL     1     -34.003  14.149  -3.399  1.00 20.00     0.009 C 
HETATM   11  C8  UNL     1     -34.880  13.384  -4.328  1.00 20.00     0.006 C 
ENDBRANCH   6  10
TORSDOF 2
ENDMDL
MODEL 8
REMARK VINA RESULT:      -4.2      2.153      3.073
REMARK  2 active torsions:
REMARK  status: ('A' for Active; 'I' for Inactive)
REMARK    1  A    between atoms: C6_6  and  C9_9 
REMARK    2  A    between atoms: C6_6  and  C10_10 
ROOT
HETATM    1  C1  UNL     1     -36.046  13.795  -4.362  1.00 20.00     0.047 C 
HETATM    2  C2  UNL     1     -34.929  14.215  -4.967  1.00 20.00    -0.014 C 
HETATM    3  C3  UNL     1     -37.093  14.766  -3.963  1.00 20.00     0.149 C 
HETATM    4  C4  UNL     1     -36.832  16.239  -4.181  1.00 20.00     0.084 C 
HETATM    5  C5  UNL     1     -35.951  16.467  -5.403  1.00 20.00     0.021 C 
HETATM    6  C6  UNL     1     -34.641  15.649  -5.357  1.00 20.00    -0.023 C 
HETATM    7  O11 UNL     1     -38.116  14.366  -3.411  1.00 20.00    -0.293 OA
ENDROOT
BRANCH   6   8
HETATM    8  C9  UNL     1     -33.653  16.251  -4.344  1.00 20.00     0.009 C 
HETATM    9  C7  UNL     1     -32.828  15.192  -3.697  1.00 20.00     0.006 C 
ENDBRANCH   6   8
BRANCH   6  10
HETATM   10  C10 UNL     1     -33.996  15.680  -6.755  1.00 20.00     0.009 C 
HETATM   11  C8  UNL     1     -34.800  14.904  -7.738  1.00 20.00     0.006 C 
ENDBRANCH   6  10
TORSDOF 2
ENDMDL
MODEL 9
REMARK VINA RESULT:      -4.1      2.349      4.111
REMARK  2 active torsions:
REMARK  status: ('A' for Active; 'I' for Inactive)
REMARK    1  A    between atoms: C6_6  and  C9_9 
REMARK    2  A    between atoms: C6_6  and  C10_10 
ROOT
HETATM    1  C1  UNL     1     -34.230  17.059  -1.552  1.00 20.00     0.047 C 
HETATM    2  C2  UNL     1     -34.754  15.889  -1.937  1.00 20.00    -0.014 C 
HETATM    3  C3  UNL     1     -33.711  18.015  -2.558  1.00 20.00     0.149 C 
HETATM    4  C4  UNL     1     -33.711  17.604  -4.012  1.00 20.00     0.084 C 
HETATM    5  C5  UNL     1     -34.875  16.670  -4.320  1.00 20.00     0.021 C 
HETATM    6  C6  UNL     1     -34.929  15.450  -3.375  1.00 20.00    -0.023 C 
HETATM    7  O11 UNL     1     -33.237  19.089  -2.190  1.00 20.00    -0.293 OA
ENDROOT
BRANCH   6   8
HETATM    8  C9  UNL     1     -33.826  14.436  -3.724  1.00 20.00     0.009 C 
HETATM    9  C7  UNL     1     -34.343  13.360  -4.616  1.00 20.00     0.006 C 
ENDBRANCH   6   8
BRANCH   6  10
HETATM   10  C10 UNL     1     -36.299  14.765  -3.537  1.00 20.00     0.009 C 
HETATM   11  C8  UNL     1     -37.373  15.762  -3.801  1.00 20.00     0.006 C 
ENDBRANCH   6  10
TORSDOF 2
ENDMDL
