MODEL 1
REMARK VINA RESULT:      -4.3      0.000      0.000
REMARK  0 active torsions:
REMARK  status: ('A' for Active; 'I' for Inactive)
ROOT
HETATM    1  C1  UNL     1     -36.934  14.893  -3.837  1.00 20.00     0.066 C 
HETATM    2  C2  UNL     1     -33.531  13.624  -3.823  1.00 20.00     0.034 C 
HETATM    3  C3  UNL     1     -34.468  13.641  -5.032  1.00 20.00     0.036 C 
HETATM    4  C4  UNL     1     -34.745  15.583  -2.822  1.00 20.00     0.053 C 
HETATM    5  C5  UNL     1     -35.696  15.651  -4.025  1.00 20.00     0.124 C 
HETATM    6  C6  UNL     1     -33.443  15.106  -3.470  1.00 20.00     0.123 C 
HETATM    7  C7  UNL     1     -34.804  15.129  -5.158  1.00 20.00     0.139 C 
HETATM    8  N8  UNL     1     -37.915  14.291  -3.688  1.00 20.00    -0.197 NA
HETATM    9  O9  UNL     1     -33.531  15.716  -4.779  1.00 20.00    -0.379 OA
ENDROOT
TORSDOF 0
ENDMDL
MODEL 2
REMARK VINA RESULT:      -4.1      1.063      2.152
REMARK  0 active torsions:
REMARK  status: ('A' for Active; 'I' for Inactive)
ROOT
HETATM    1  C1  UNL     1     -36.392  14.294  -4.081  1.00 20.00     0.066 C 
HETATM    2  C2  UNL     1     -33.942  16.901  -3.452  1.00 20.00     0.034 C 
HETATM    3  C3  UNL     1     -34.403  15.852  -2.439  1.00 20.00     0.036 C 
HETATM    4  C4  UNL     1     -34.503  15.351  -5.349  1.00 20.00     0.053 C 
HETATM    5  C5  UNL     1     -34.958  14.261  -4.369  1.00 20.00     0.124 C 
HETATM    6  C6  UNL     1     -33.375  16.031  -4.571  1.00 20.00     0.123 C 
HETATM    7  C7  UNL     1     -34.064  14.542  -3.154  1.00 20.00     0.139 C 
HETATM    8  N8  UNL     1     -37.529  14.320  -3.851  1.00 20.00    -0.197 NA
HETATM    9  O9  UNL     1     -32.831  14.921  -3.819  1.00 20.00    -0.379 OA
ENDROOT
TORSDOF 0
ENDMDL
MODEL 3
REMARK VINA RESULT:      -4.1      1.828      2.948
REMARK  0 active torsions:
REMARK  status: ('A' for Active; 'I' for Inactive)
ROOT
HETATM    1  C1  UNL     1     -34.244  13.669  -4.083  1.00 20.00     0.066 C 
HETATM    2  C2  UNL     1     -35.317  17.139  -4.090  1.00 20.00     0.034 C 
HETATM    3  C3  UNL     1     -35.738  16.081  -3.069  1.00 20.00     0.036 C 
HETATM    4  C4  UNL     1     -33.179  15.896  -4.535  1.00 20.00     0.053 C 
HETATM    5  C5  UNL     1     -33.551  14.821  -3.504  1.00 20.00     0.124 C 
HETATM    6  C6  UNL     1     -33.800  17.154  -3.923  1.00 20.00     0.123 C 
HETATM    7  C7  UNL     1     -34.390  15.625  -2.504  1.00 20.00     0.139 C 
HETATM    8  N8  UNL     1     -34.794  12.756  -4.542  1.00 20.00    -0.197 NA
HETATM    9  O9  UNL     1     -33.668  16.883  -2.508  1.00 20.00    -0.379 OA
ENDROOT
TORSDOF 0
ENDMDL
MODEL 4
REMARK VINA RESULT:      -4.1      1.884      2.333
REMARK  0 active torsions:
REMARK  status: ('A' for Active; 'I' for Inactive)
ROOT
HETATM    1  C1  UNL     1     -35.048  13.773  -4.029  1.00 20.00     0.066 C 
HETATM    2  C2  UNL     1     -33.294  16.760  -5.122  1.00 20.00     0.034 C 
HETATM    3  C3  UNL     1     -34.569  16.197  -5.753  1.00 20.00     0.036 C 
HETATM    4  C4  UNL     1     -33.886  15.701  -2.921  1.00 20.00     0.053 C 
HETATM    5  C5  UNL     1     -35.186  15.133  -3.506  1.00 20.00     0.124 C 
HETATM    6  C6  UNL     1     -33.740  17.019  -3.685  1.00 20.00     0.123 C 
HETATM    7  C7  UNL     1     -35.536  16.183  -4.567  1.00 20.00     0.139 C 
HETATM    8  N8  UNL     1     -34.938  12.695  -4.444  1.00 20.00    -0.197 NA
HETATM    9  O9  UNL     1     -35.124  17.394  -3.882  1.00 20.00    -0.379 OA
ENDROOT
TORSDOF 0
ENDMDL
MODEL 5
REMARK VINA RESULT:      -4.1      1.754      2.593
REMARK  0 active torsions:
REMARK  status: ('A' for Active; 'I' for Inactive)
ROOT
HETATM    1  C1  UNL     1     -35.166  13.777  -4.557  1.00 20.00     0.066 C 
HETATM    2  C2  UNL     1     -34.645  16.159  -1.865  1.00 20.00     0.034 C 
HETATM    3  C3  UNL     1     -33.645  15.845  -2.979  1.00 20.00     0.036 C 
HETATM    4  C4  UNL     1     -36.554  15.486  -3.354  1.00 20.00     0.053 C 
HETATM    5  C5  UNL     1     -35.590  15.177  -4.507  1.00 20.00     0.124 C 
HETATM    6  C6  UNL     1     -35.854  16.653  -2.655  1.00 20.00     0.123 C 
HETATM    7  C7  UNL     1     -34.453  16.171  -4.238  1.00 20.00     0.139 C 
HETATM    8  N8  UNL     1     -34.829  12.667  -4.597  1.00 20.00    -0.197 NA
HETATM    9  O9  UNL     1     -35.213  17.315  -3.770  1.00 20.00    -0.379 OA
ENDROOT
TORSDOF 0
ENDMDL
MODEL 6
REMARK VINA RESULT:      -4.1      2.081      2.725
REMARK  0 active torsions:
REMARK  status: ('A' for Active; 'I' for Inactive)
ROOT
HETATM    1  C1  UNL     1     -35.792  16.443  -5.365  1.00 20.00     0.066 C 
HETATM    2  C2  UNL     1     -33.618  13.943  -3.876  1.00 20.00     0.034 C 
HETATM    3  C3  UNL     1     -34.701  14.731  -3.138  1.00 20.00     0.036 C 
HETATM    4  C4  UNL     1     -34.862  14.213  -6.043  1.00 20.00     0.053 C 
HETATM    5  C5  UNL     1     -35.983  14.992  -5.340  1.00 20.00     0.124 C 
HETATM    6  C6  UNL     1     -34.427  13.228  -4.956  1.00 20.00     0.123 C 
HETATM    7  C7  UNL     1     -35.958  14.376  -3.936  1.00 20.00     0.139 C 
HETATM    8  N8  UNL     1     -35.640  17.593  -5.383  1.00 20.00    -0.197 NA
HETATM    9  O9  UNL     1     -35.675  12.991  -4.264  1.00 20.00    -0.379 OA
ENDROOT
TORSDOF 0
ENDMDL
MODEL 7
REMARK VINA RESULT:      -4.0      1.767      2.759
REMARK  0 active torsions:
REMARK  status: ('A' for Active; 'I' for Inactive)
ROOT
HETATM    1  C1  UNL     1     -34.569  13.810  -4.860  1.00 20.00     0.066 C 
HETATM    2  C2  UNL     1     -34.830  16.914  -2.992  1.00 20.00     0.034 C 
HETATM    3  C3  UNL     1     -33.682  15.909  -2.888  1.00 20.00     0.036 C 
HETATM    4  C4  UNL     1     -35.314  16.158  -5.339  1.00 20.00     0.053 C 
HETATM    5  C5  UNL     1     -34.159  15.148  -5.287  1.00 20.00     0.124 C 
HETATM    6  C6  UNL     1     -34.782  17.298  -4.468  1.00 20.00     0.123 C 
HETATM    7  C7  UNL     1     -33.180  15.843  -4.333  1.00 20.00     0.139 C 
HETATM    8  N8  UNL     1     -34.894  12.749  -4.520  1.00 20.00    -0.197 NA
HETATM    9  O9  UNL     1     -33.361  17.226  -4.734  1.00 20.00    -0.379 OA
ENDROOT
TORSDOF 0
ENDMDL
MODEL 8
REMARK VINA RESULT:      -4.0      1.844      2.539
REMARK  0 active torsions:
REMARK  status: ('A' for Active; 'I' for Inactive)
ROOT
HETATM    1  C1  UNL     1     -34.214  16.166  -2.146  1.00 20.00     0.066 C 
HETATM    2  C2  UNL     1     -35.429  13.409  -4.176  1.00 20.00     0.034 C 
HETATM    3  C3  UNL     1     -36.078  14.791  -4.074  1.00 20.00     0.036 C 
HETATM    4  C4  UNL     1     -33.190  14.390  -3.593  1.00 20.00     0.053 C 
HETATM    5  C5  UNL     1     -33.793  15.798  -3.499  1.00 20.00     0.124 C 
HETATM    6  C6  UNL     1     -34.035  13.751  -4.697  1.00 20.00     0.123 C 
HETATM    7  C7  UNL     1     -34.939  15.714  -4.515  1.00 20.00     0.139 C 
HETATM    8  N8  UNL     1     -34.549  16.457  -1.074  1.00 20.00    -0.197 NA
HETATM    9  O9  UNL     1     -34.320  14.893  -5.539  1.00 20.00    -0.379 OA
ENDROOT
TORSDOF 0
ENDMDL
MODEL 9
REMARK VINA RESULT:      -3.9     11.499     12.412
REMARK  0 active torsions:
REMARK  status: ('A' for Active; 'I' for Inactive)
ROOT
HETATM    1  C1  UNL     1     -42.974   4.329  -2.634  1.00 20.00     0.066 C 
HETATM    2  C2  UNL     1     -41.149   7.058  -1.079  1.00 20.00     0.034 C 
HETATM    3  C3  UNL     1     -42.672   6.920  -1.125  1.00 20.00     0.036 C 
HETATM    4  C4  UNL     1     -40.893   4.564  -1.253  1.00 20.00     0.053 C 
HETATM    5  C5  UNL     1     -42.416   4.376  -1.282  1.00 20.00     0.124 C 
HETATM    6  C6  UNL     1     -40.738   5.785  -0.343  1.00 20.00     0.123 C 
HETATM    7  C7  UNL     1     -42.893   5.568  -0.443  1.00 20.00     0.139 C 
HETATM    8  N8  UNL     1     -43.417   4.293  -3.706  1.00 20.00    -0.197 NA
HETATM    9  O9  UNL     1     -41.850   5.611   0.566  1.00 20.00    -0.379 OA
ENDROOT
TORSDOF 0
ENDMDL
