MODEL 1
REMARK VINA RESULT:      -3.1      0.000      0.000
REMARK  0 active torsions:
REMARK  status: ('A' for Active; 'I' for Inactive)
ROOT
HETATM    1  C1  UNL     1     -35.094   4.548   5.997  1.00 20.00     0.148 A 
HETATM    2  C2  UNL     1     -33.767   6.497   5.847  1.00 20.00     0.148 A 
HETATM    3  C3  UNL     1     -35.223   4.367   4.678  1.00 20.00     0.074 A 
HETATM    4  C4  UNL     1     -33.741   6.545   4.512  1.00 20.00     0.074 A 
HETATM    5  O5  UNL     1     -34.403   5.557   6.618  1.00 20.00    -0.334 OA
HETATM    6  S6  UNL     1     -34.526   5.401   3.483  1.00 20.00    -0.110 SA
ENDROOT
TORSDOF 0
ENDMDL
MODEL 2
REMARK VINA RESULT:      -3.0      0.020      2.045
REMARK  0 active torsions:
REMARK  status: ('A' for Active; 'I' for Inactive)
ROOT
HETATM    1  C1  UNL     1     -33.763   6.511   5.850  1.00 20.00     0.148 A 
HETATM    2  C2  UNL     1     -35.073   4.553   6.015  1.00 20.00     0.148 A 
HETATM    3  C3  UNL     1     -33.744   6.554   4.514  1.00 20.00     0.074 A 
HETATM    4  C4  UNL     1     -35.208   4.364   4.698  1.00 20.00     0.074 A 
HETATM    5  O5  UNL     1     -34.388   5.570   6.628  1.00 20.00    -0.334 OA
HETATM    6  S6  UNL     1     -34.524   5.397   3.494  1.00 20.00    -0.110 SA
ENDROOT
TORSDOF 0
ENDMDL
MODEL 3
REMARK VINA RESULT:      -2.9      1.445      2.122
REMARK  0 active torsions:
REMARK  status: ('A' for Active; 'I' for Inactive)
ROOT
HETATM    1  C1  UNL     1     -33.626   6.419   3.893  1.00 20.00     0.148 A 
HETATM    2  C2  UNL     1     -33.892   6.319   6.238  1.00 20.00     0.148 A 
HETATM    3  C3  UNL     1     -34.442   5.395   3.617  1.00 20.00     0.074 A 
HETATM    4  C4  UNL     1     -34.738   5.285   6.238  1.00 20.00     0.074 A 
HETATM    5  O5  UNL     1     -33.323   6.909   5.138  1.00 20.00    -0.334 OA
HETATM    6  S6  UNL     1     -35.286   4.477   4.813  1.00 20.00    -0.110 SA
ENDROOT
TORSDOF 0
ENDMDL
MODEL 4
REMARK VINA RESULT:      -2.9      1.814      2.122
REMARK  0 active torsions:
REMARK  status: ('A' for Active; 'I' for Inactive)
ROOT
HETATM    1  C1  UNL     1     -35.169   4.222   5.591  1.00 20.00     0.148 A 
HETATM    2  C2  UNL     1     -34.549   5.425   3.655  1.00 20.00     0.148 A 
HETATM    3  C3  UNL     1     -34.635   5.081   6.465  1.00 20.00     0.074 A 
HETATM    4  C4  UNL     1     -33.942   6.425   4.301  1.00 20.00     0.074 A 
HETATM    5  O5  UNL     1     -35.159   4.336   4.224  1.00 20.00    -0.334 OA
HETATM    6  S6  UNL     1     -33.809   6.532   6.020  1.00 20.00    -0.110 SA
ENDROOT
TORSDOF 0
ENDMDL
MODEL 5
REMARK VINA RESULT:      -2.9      1.807      2.647
REMARK  0 active torsions:
REMARK  status: ('A' for Active; 'I' for Inactive)
ROOT
HETATM    1  C1  UNL     1     -34.548   5.415   3.661  1.00 20.00     0.148 A 
HETATM    2  C2  UNL     1     -35.146   4.252   5.628  1.00 20.00     0.148 A 
HETATM    3  C3  UNL     1     -33.926   6.425   4.280  1.00 20.00     0.074 A 
HETATM    4  C4  UNL     1     -34.595   5.124   6.478  1.00 20.00     0.074 A 
HETATM    5  O5  UNL     1     -35.154   4.340   4.259  1.00 20.00    -0.334 OA
HETATM    6  S6  UNL     1     -33.770   6.563   5.995  1.00 20.00    -0.110 SA
ENDROOT
TORSDOF 0
ENDMDL
MODEL 6
REMARK VINA RESULT:      -2.9      1.396      1.862
REMARK  0 active torsions:
REMARK  status: ('A' for Active; 'I' for Inactive)
ROOT
HETATM    1  C1  UNL     1     -34.001   6.210   6.294  1.00 20.00     0.148 A 
HETATM    2  C2  UNL     1     -33.609   6.433   3.976  1.00 20.00     0.148 A 
HETATM    3  C3  UNL     1     -34.838   5.172   6.194  1.00 20.00     0.074 A 
HETATM    4  C4  UNL     1     -34.399   5.422   3.603  1.00 20.00     0.074 A 
HETATM    5  O5  UNL     1     -33.378   6.859   5.259  1.00 20.00    -0.334 OA
HETATM    6  S6  UNL     1     -35.301   4.439   4.700  1.00 20.00    -0.110 SA
ENDROOT
TORSDOF 0
ENDMDL
MODEL 7
REMARK VINA RESULT:      -2.8     12.963     13.498
REMARK  0 active torsions:
REMARK  status: ('A' for Active; 'I' for Inactive)
ROOT
HETATM    1  C1  UNL     1     -33.023  14.485  -3.600  1.00 20.00     0.148 A 
HETATM    2  C2  UNL     1     -34.549  13.217  -4.882  1.00 20.00     0.148 A 
HETATM    3  C3  UNL     1     -33.176  15.622  -4.287  1.00 20.00     0.074 A 
HETATM    4  C4  UNL     1     -34.881  14.204  -5.720  1.00 20.00     0.074 A 
HETATM    5  O5  UNL     1     -33.659  13.294  -3.840  1.00 20.00    -0.334 OA
HETATM    6  S6  UNL     1     -34.231  15.803  -5.643  1.00 20.00    -0.110 SA
ENDROOT
TORSDOF 0
ENDMDL
MODEL 8
REMARK VINA RESULT:      -2.8      1.829      2.131
REMARK  0 active torsions:
REMARK  status: ('A' for Active; 'I' for Inactive)
ROOT
HETATM    1  C1  UNL     1     -34.699   5.429   3.570  1.00 20.00     0.148 A 
HETATM    2  C2  UNL     1     -33.680   6.753   5.239  1.00 20.00     0.148 A 
HETATM    3  C3  UNL     1     -35.211   4.520   4.407  1.00 20.00     0.074 A 
HETATM    4  C4  UNL     1     -34.071   6.000   6.272  1.00 20.00     0.074 A 
HETATM    5  O5  UNL     1     -33.953   6.527   3.914  1.00 20.00    -0.334 OA
HETATM    6  S6  UNL     1     -35.018   4.563   6.123  1.00 20.00    -0.110 SA
ENDROOT
TORSDOF 0
ENDMDL
MODEL 9
REMARK VINA RESULT:      -2.8     12.999     13.414
REMARK  0 active torsions:
REMARK  status: ('A' for Active; 'I' for Inactive)
ROOT
HETATM    1  C1  UNL     1     -34.542  13.234  -4.914  1.00 20.00     0.148 A 
HETATM    2  C2  UNL     1     -33.043  14.521  -3.619  1.00 20.00     0.148 A 
HETATM    3  C3  UNL     1     -34.879  14.217  -5.755  1.00 20.00     0.074 A 
HETATM    4  C4  UNL     1     -33.204  15.656  -4.307  1.00 20.00     0.074 A 
HETATM    5  O5  UNL     1     -33.661  13.322  -3.866  1.00 20.00    -0.334 OA
HETATM    6  S6  UNL     1     -34.251  15.825  -5.671  1.00 20.00    -0.110 SA
ENDROOT
TORSDOF 0
ENDMDL
