MODEL 1
REMARK VINA RESULT:      -3.9      0.000      0.000
REMARK  3 active torsions:
REMARK  status: ('A' for Active; 'I' for Inactive)
REMARK    1  A    between atoms: C1_1  and  C5_5 
REMARK    2  A    between atoms: C2_2  and  C6_6 
REMARK    3  A    between atoms: C6_6  and  O7_7 
ROOT
HETATM    1  C3  UNL     1     -33.733  15.846  -5.159  1.00 20.00     0.060 C 
HETATM    2  C4  UNL     1     -34.086  13.632  -4.029  1.00 20.00     0.060 C 
HETATM    3  C6  UNL     1     -33.440  15.011  -3.913  1.00 20.00     0.114 C 
ENDROOT
BRANCH   3   4
HETATM    4  C2  UNL     1     -33.921  15.699  -2.702  1.00 20.00    -0.068 C 
HETATM    5  C1  UNL     1     -34.313  16.263  -1.717  1.00 20.00    -0.088 C 
BRANCH   5   6
HETATM    6  C5  UNL     1     -34.787  16.946  -0.517  1.00 20.00     0.208 C 
HETATM    7 CL8  UNL     1     -33.550  18.102   0.014  1.00 20.00    -0.117 Cl
ENDBRANCH   5   6
ENDBRANCH   3   4
BRANCH   3   8
HETATM    8  O7  UNL     1     -32.028  14.815  -3.819  1.00 20.00    -0.378 OA
HETATM    9  H17 UNL     1     -31.619  15.662  -4.048  1.00 20.00     0.211 HD
ENDBRANCH   3   8
TORSDOF 3
ENDMDL
MODEL 2
REMARK VINA RESULT:      -3.9     11.832     12.574
REMARK  3 active torsions:
REMARK  status: ('A' for Active; 'I' for Inactive)
REMARK    1  A    between atoms: C1_1  and  C5_5 
REMARK    2  A    between atoms: C2_2  and  C6_6 
REMARK    3  A    between atoms: C6_6  and  O7_7 
ROOT
HETATM    1  C3  UNL     1     -34.816   5.626   6.404  1.00 20.00     0.060 C 
HETATM    2  C4  UNL     1     -34.474   3.589   4.976  1.00 20.00     0.060 C 
HETATM    3  C6  UNL     1     -34.729   5.095   4.973  1.00 20.00     0.114 C 
ENDROOT
BRANCH   3   4
HETATM    4  C2  UNL     1     -33.668   5.791   4.226  1.00 20.00    -0.068 C 
HETATM    5  C1  UNL     1     -32.801   6.357   3.617  1.00 20.00    -0.088 C 
BRANCH   5   6
HETATM    6  C5  UNL     1     -31.749   7.048   2.878  1.00 20.00     0.208 C 
HETATM    7 CL8  UNL     1     -32.446   8.467   2.074  1.00 20.00    -0.117 Cl
ENDBRANCH   5   6
ENDBRANCH   3   4
BRANCH   3   8
HETATM    8  O7  UNL     1     -35.986   5.314   4.332  1.00 20.00    -0.378 OA
HETATM    9  H17 UNL     1     -36.137   6.271   4.345  1.00 20.00     0.211 HD
ENDBRANCH   3   8
TORSDOF 3
ENDMDL
MODEL 3
REMARK VINA RESULT:      -3.7     11.429     12.157
REMARK  3 active torsions:
REMARK  status: ('A' for Active; 'I' for Inactive)
REMARK    1  A    between atoms: C1_1  and  C5_5 
REMARK    2  A    between atoms: C2_2  and  C6_6 
REMARK    3  A    between atoms: C6_6  and  O7_7 
ROOT
HETATM    1  C3  UNL     1     -35.676   5.356   4.236  1.00 20.00     0.060 C 
HETATM    2  C4  UNL     1     -34.429   6.121   6.276  1.00 20.00     0.060 C 
HETATM    3  C6  UNL     1     -34.308   5.451   4.910  1.00 20.00     0.114 C 
ENDROOT
BRANCH   3   4
HETATM    4  C2  UNL     1     -33.362   6.194   4.059  1.00 20.00    -0.068 C 
HETATM    5  C1  UNL     1     -32.592   6.802   3.365  1.00 20.00    -0.088 C 
BRANCH   5   6
HETATM    6  C5  UNL     1     -31.656   7.537   2.520  1.00 20.00     0.208 C 
HETATM    7 CL8  UNL     1     -32.471   8.974   1.874  1.00 20.00    -0.117 Cl
ENDBRANCH   5   6
ENDBRANCH   3   4
BRANCH   3   8
HETATM    8  O7  UNL     1     -33.815   4.128   5.125  1.00 20.00    -0.378 OA
HETATM    9  H17 UNL     1     -32.870   4.215   5.317  1.00 20.00     0.211 HD
ENDBRANCH   3   8
TORSDOF 3
ENDMDL
MODEL 4
REMARK VINA RESULT:      -3.7      2.237      2.381
REMARK  3 active torsions:
REMARK  status: ('A' for Active; 'I' for Inactive)
REMARK    1  A    between atoms: C1_1  and  C5_5 
REMARK    2  A    between atoms: C2_2  and  C6_6 
REMARK    3  A    between atoms: C6_6  and  O7_7 
ROOT
HETATM    1  C3  UNL     1     -35.276  14.477  -5.709  1.00 20.00     0.060 C 
HETATM    2  C4  UNL     1     -37.261  14.429  -4.172  1.00 20.00     0.060 C 
HETATM    3  C6  UNL     1     -35.751  14.224  -4.279  1.00 20.00     0.114 C 
ENDROOT
BRANCH   3   4
HETATM    4  C2  UNL     1     -35.047  15.109  -3.335  1.00 20.00    -0.068 C 
HETATM    5  C1  UNL     1     -34.475  15.830  -2.563  1.00 20.00    -0.088 C 
BRANCH   5   6
HETATM    6  C5  UNL     1     -33.780  16.710  -1.629  1.00 20.00     0.208 C 
HETATM    7 CL8  UNL     1     -34.775  16.906  -0.174  1.00 20.00    -0.117 Cl
ENDBRANCH   5   6
ENDBRANCH   3   4
BRANCH   3   8
HETATM    8  O7  UNL     1     -35.480  12.861  -3.946  1.00 20.00    -0.378 OA
HETATM    9  H17 UNL     1     -35.563  12.793  -2.984  1.00 20.00     0.211 HD
ENDBRANCH   3   8
TORSDOF 3
ENDMDL
MODEL 5
REMARK VINA RESULT:      -3.5     12.896     13.939
REMARK  3 active torsions:
REMARK  status: ('A' for Active; 'I' for Inactive)
REMARK    1  A    between atoms: C1_1  and  C5_5 
REMARK    2  A    between atoms: C2_2  and  C6_6 
REMARK    3  A    between atoms: C6_6  and  O7_7 
ROOT
HETATM    1  C3  UNL     1     -40.631   6.117  -0.062  1.00 20.00     0.060 C 
HETATM    2  C4  UNL     1     -42.755   7.200  -0.850  1.00 20.00     0.060 C 
HETATM    3  C6  UNL     1     -41.511   6.422  -1.274  1.00 20.00     0.114 C 
ENDROOT
BRANCH   3   4
HETATM    4  C2  UNL     1     -41.897   5.177  -1.962  1.00 20.00    -0.068 C 
HETATM    5  C1  UNL     1     -42.213   4.163  -2.523  1.00 20.00    -0.088 C 
BRANCH   5   6
HETATM    6  C5  UNL     1     -42.598   2.930  -3.202  1.00 20.00     0.208 C 
HETATM    7 CL8  UNL     1     -41.131   2.080  -3.726  1.00 20.00    -0.117 Cl
ENDBRANCH   5   6
ENDBRANCH   3   4
BRANCH   3   8
HETATM    8  O7  UNL     1     -40.774   7.252  -2.172  1.00 20.00    -0.378 OA
HETATM    9  H17 UNL     1     -40.599   6.716  -2.960  1.00 20.00     0.211 HD
ENDBRANCH   3   8
TORSDOF 3
ENDMDL
MODEL 6
REMARK VINA RESULT:      -3.5      1.602      1.988
REMARK  3 active torsions:
REMARK  status: ('A' for Active; 'I' for Inactive)
REMARK    1  A    between atoms: C1_1  and  C5_5 
REMARK    2  A    between atoms: C2_2  and  C6_6 
REMARK    3  A    between atoms: C6_6  and  O7_7 
ROOT
HETATM    1  C3  UNL     1     -33.703  13.679  -3.815  1.00 20.00     0.060 C 
HETATM    2  C4  UNL     1     -34.566  15.682  -5.058  1.00 20.00     0.060 C 
HETATM    3  C6  UNL     1     -34.768  14.774  -3.847  1.00 20.00     0.114 C 
ENDROOT
BRANCH   3   4
HETATM    4  C2  UNL     1     -34.735  15.565  -2.605  1.00 20.00    -0.068 C 
HETATM    5  C1  UNL     1     -34.709  16.213  -1.593  1.00 20.00    -0.088 C 
BRANCH   5   6
HETATM    6  C5  UNL     1     -34.674  16.998  -0.363  1.00 20.00     0.208 C 
HETATM    7 CL8  UNL     1     -33.264  18.073  -0.407  1.00 20.00    -0.117 Cl
ENDBRANCH   5   6
ENDBRANCH   3   4
BRANCH   3   8
HETATM    8  O7  UNL     1     -36.049  14.157  -3.984  1.00 20.00    -0.378 OA
HETATM    9  H17 UNL     1     -36.421  14.098  -3.092  1.00 20.00     0.211 HD
ENDBRANCH   3   8
TORSDOF 3
ENDMDL
MODEL 7
REMARK VINA RESULT:      -3.5      4.316      4.573
REMARK  3 active torsions:
REMARK  status: ('A' for Active; 'I' for Inactive)
REMARK    1  A    between atoms: C1_1  and  C5_5 
REMARK    2  A    between atoms: C2_2  and  C6_6 
REMARK    3  A    between atoms: C6_6  and  O7_7 
ROOT
HETATM    1  C3  UNL     1     -34.199  14.625  -3.401  1.00 20.00     0.060 C 
HETATM    2  C4  UNL     1     -34.799  14.267  -5.813  1.00 20.00     0.060 C 
HETATM    3  C6  UNL     1     -35.179  13.958  -4.366  1.00 20.00     0.114 C 
ENDROOT
BRANCH   3   4
HETATM    4  C2  UNL     1     -36.557  14.402  -4.094  1.00 20.00    -0.068 C 
HETATM    5  C1  UNL     1     -37.682  14.763  -3.875  1.00 20.00    -0.088 C 
BRANCH   5   6
HETATM    6  C5  UNL     1     -39.046  15.206  -3.607  1.00 20.00     0.208 C 
HETATM    7 CL8  UNL     1     -40.152  14.357  -4.703  1.00 20.00    -0.117 Cl
ENDBRANCH   5   6
ENDBRANCH   3   4
BRANCH   3   8
HETATM    8  O7  UNL     1     -35.092  12.543  -4.194  1.00 20.00    -0.378 OA
HETATM    9  H17 UNL     1     -34.606  12.204  -4.960  1.00 20.00     0.211 HD
ENDBRANCH   3   8
TORSDOF 3
ENDMDL
MODEL 8
REMARK VINA RESULT:      -3.4      1.764      1.902
REMARK  3 active torsions:
REMARK  status: ('A' for Active; 'I' for Inactive)
REMARK    1  A    between atoms: C1_1  and  C5_5 
REMARK    2  A    between atoms: C2_2  and  C6_6 
REMARK    3  A    between atoms: C6_6  and  O7_7 
ROOT
HETATM    1  C3  UNL     1     -36.861  14.681  -4.034  1.00 20.00     0.060 C 
HETATM    2  C4  UNL     1     -34.619  13.565  -3.857  1.00 20.00     0.060 C 
HETATM    3  C6  UNL     1     -35.358  14.901  -3.866  1.00 20.00     0.114 C 
ENDROOT
BRANCH   3   4
HETATM    4  C2  UNL     1     -35.079  15.647  -2.627  1.00 20.00    -0.068 C 
HETATM    5  C1  UNL     1     -34.850  16.257  -1.617  1.00 20.00    -0.088 C 
BRANCH   5   6
HETATM    6  C5  UNL     1     -34.572  16.995  -0.389  1.00 20.00     0.208 C 
HETATM    7 CL8  UNL     1     -33.154  18.029  -0.648  1.00 20.00    -0.117 Cl
ENDBRANCH   5   6
ENDBRANCH   3   4
BRANCH   3   8
HETATM    8  O7  UNL     1     -34.881  15.646  -4.987  1.00 20.00    -0.378 OA
HETATM    9  H17 UNL     1     -34.584  14.996  -5.641  1.00 20.00     0.211 HD
ENDBRANCH   3   8
TORSDOF 3
ENDMDL
MODEL 9
REMARK VINA RESULT:      -3.4      2.906      4.301
REMARK  3 active torsions:
REMARK  status: ('A' for Active; 'I' for Inactive)
REMARK    1  A    between atoms: C1_1  and  C5_5 
REMARK    2  A    between atoms: C2_2  and  C6_6 
REMARK    3  A    between atoms: C6_6  and  O7_7 
ROOT
HETATM    1  C3  UNL     1     -33.824  13.723  -3.804  1.00 20.00     0.060 C 
HETATM    2  C4  UNL     1     -33.667  16.015  -2.792  1.00 20.00     0.060 C 
HETATM    3  C6  UNL     1     -33.275  15.139  -3.979  1.00 20.00     0.114 C 
ENDROOT
BRANCH   3   4
HETATM    4  C2  UNL     1     -33.764  15.733  -5.235  1.00 20.00    -0.068 C 
HETATM    5  C1  UNL     1     -34.165  16.216  -6.259  1.00 20.00    -0.088 C 
BRANCH   5   6
HETATM    6  C5  UNL     1     -34.649  16.802  -7.505  1.00 20.00     0.208 C 
HETATM    7 CL8  UNL     1     -34.147  18.502  -7.576  1.00 20.00    -0.117 Cl
ENDBRANCH   5   6
ENDBRANCH   3   4
BRANCH   3   8
HETATM    8  O7  UNL     1     -31.848  15.071  -4.008  1.00 20.00    -0.378 OA
HETATM    9  H17 UNL     1     -31.528  15.920  -3.670  1.00 20.00     0.211 HD
ENDBRANCH   3   8
TORSDOF 3
ENDMDL
