MODEL 1
REMARK VINA RESULT:      -4.4      0.000      0.000
REMARK  1 active torsions:
REMARK  status: ('A' for Active; 'I' for Inactive)
REMARK    1  A    between atoms: C1_1  and  C6_6 
ROOT
HETATM    1  C2  UNL     1     -33.580  15.895  -5.030  1.00 20.00     0.005 C 
HETATM    2  C3  UNL     1     -34.397  14.763  -5.669  1.00 20.00     0.006 C 
HETATM    3  C4  UNL     1     -34.725  15.514  -2.836  1.00 20.00     0.016 C 
HETATM    4  C5  UNL     1     -33.258  13.890  -3.783  1.00 20.00     0.010 C 
HETATM    5  C6  UNL     1     -35.552  14.370  -3.437  1.00 20.00     0.051 C 
HETATM    6  C7  UNL     1     -33.383  15.401  -3.586  1.00 20.00    -0.013 C 
HETATM    7  C8  UNL     1     -34.607  13.781  -4.501  1.00 20.00    -0.003 C 
ENDROOT
BRANCH   5   8
HETATM    8  C1  UNL     1     -36.873  14.815  -3.981  1.00 20.00     0.236 C 
HETATM    9  O9  UNL     1     -37.922  14.209  -3.788  1.00 20.00    -0.306 OA
ENDBRANCH   5   8
TORSDOF 1
ENDMDL
MODEL 2
REMARK VINA RESULT:      -4.4      1.554      2.407
REMARK  1 active torsions:
REMARK  status: ('A' for Active; 'I' for Inactive)
REMARK    1  A    between atoms: C1_1  and  C6_6 
ROOT
HETATM    1  C2  UNL     1     -34.639  17.038  -4.529  1.00 20.00     0.005 C 
HETATM    2  C3  UNL     1     -33.289  16.320  -4.667  1.00 20.00     0.006 C 
HETATM    3  C4  UNL     1     -35.577  15.084  -3.277  1.00 20.00     0.016 C 
HETATM    4  C5  UNL     1     -33.841  16.440  -2.365  1.00 20.00     0.010 C 
HETATM    5  C6  UNL     1     -34.240  14.340  -3.385  1.00 20.00     0.051 C 
HETATM    6  C7  UNL     1     -35.143  16.558  -3.157  1.00 20.00    -0.013 C 
HETATM    7  C8  UNL     1     -33.207  15.481  -3.377  1.00 20.00    -0.003 C 
ENDROOT
BRANCH   5   8
HETATM    8  C1  UNL     1     -34.150  13.451  -4.587  1.00 20.00     0.236 C 
HETATM    9  O9  UNL     1     -34.934  12.535  -4.809  1.00 20.00    -0.306 OA
ENDBRANCH   5   8
TORSDOF 1
ENDMDL
MODEL 3
REMARK VINA RESULT:      -4.3      1.547      2.589
REMARK  1 active torsions:
REMARK  status: ('A' for Active; 'I' for Inactive)
REMARK    1  A    between atoms: C1_1  and  C6_6 
ROOT
HETATM    1  C2  UNL     1     -34.842  15.883  -2.180  1.00 20.00     0.005 C 
HETATM    2  C3  UNL     1     -35.834  16.014  -3.344  1.00 20.00     0.006 C 
HETATM    3  C4  UNL     1     -33.204  14.720  -3.673  1.00 20.00     0.016 C 
HETATM    4  C5  UNL     1     -33.784  17.012  -3.991  1.00 20.00     0.010 C 
HETATM    5  C6  UNL     1     -34.164  14.843  -4.864  1.00 20.00     0.051 C 
HETATM    6  C7  UNL     1     -33.477  16.011  -2.876  1.00 20.00    -0.013 C 
HETATM    7  C8  UNL     1     -34.913  16.156  -4.572  1.00 20.00    -0.003 C 
ENDROOT
BRANCH   5   8
HETATM    8  C1  UNL     1     -35.063  13.657  -5.027  1.00 20.00     0.236 C 
HETATM    9  O9  UNL     1     -34.984  12.650  -4.333  1.00 20.00    -0.306 OA
ENDBRANCH   5   8
TORSDOF 1
ENDMDL
MODEL 4
REMARK VINA RESULT:      -4.1     10.549     11.764
REMARK  1 active torsions:
REMARK  status: ('A' for Active; 'I' for Inactive)
REMARK    1  A    between atoms: C1_1  and  C6_6 
ROOT
HETATM    1  C2  UNL     1     -40.653   4.664  -1.026  1.00 20.00     0.005 C 
HETATM    2  C3  UNL     1     -41.999   4.434  -1.727  1.00 20.00     0.006 C 
HETATM    3  C4  UNL     1     -41.085   7.128  -0.951  1.00 20.00     0.016 C 
HETATM    4  C5  UNL     1     -42.400   5.586   0.305  1.00 20.00     0.010 C 
HETATM    5  C6  UNL     1     -42.443   6.937  -1.640  1.00 20.00     0.051 C 
HETATM    6  C7  UNL     1     -40.949   5.853  -0.097  1.00 20.00    -0.013 C 
HETATM    7  C8  UNL     1     -42.890   5.549  -1.146  1.00 20.00    -0.003 C 
ENDROOT
BRANCH   5   8
HETATM    8  C1  UNL     1     -42.375   7.054  -3.131  1.00 20.00     0.236 C 
HETATM    9  O9  UNL     1     -43.306   6.767  -3.874  1.00 20.00    -0.306 OA
ENDBRANCH   5   8
TORSDOF 1
ENDMDL
MODEL 5
REMARK VINA RESULT:      -4.1      1.844      2.678
REMARK  1 active torsions:
REMARK  status: ('A' for Active; 'I' for Inactive)
REMARK    1  A    between atoms: C1_1  and  C6_6 
ROOT
HETATM    1  C2  UNL     1     -33.258  13.765  -3.709  1.00 20.00     0.005 C 
HETATM    2  C3  UNL     1     -34.740  13.503  -4.013  1.00 20.00     0.006 C 
HETATM    3  C4  UNL     1     -33.413  16.022  -4.779  1.00 20.00     0.016 C 
HETATM    4  C5  UNL     1     -34.577  15.509  -2.762  1.00 20.00     0.010 C 
HETATM    5  C6  UNL     1     -34.899  15.801  -5.091  1.00 20.00     0.051 C 
HETATM    6  C7  UNL     1     -33.226  15.279  -3.442  1.00 20.00    -0.013 C 
HETATM    7  C8  UNL     1     -35.367  14.907  -3.928  1.00 20.00    -0.003 C 
ENDROOT
BRANCH   5   8
HETATM    8  C1  UNL     1     -35.140  15.209  -6.444  1.00 20.00     0.236 C 
HETATM    9  O9  UNL     1     -34.240  14.920  -7.225  1.00 20.00    -0.306 OA
ENDBRANCH   5   8
TORSDOF 1
ENDMDL
MODEL 6
REMARK VINA RESULT:      -4.1     11.046     12.189
REMARK  1 active torsions:
REMARK  status: ('A' for Active; 'I' for Inactive)
REMARK    1  A    between atoms: C1_1  and  C6_6 
ROOT
HETATM    1  C2  UNL     1     -42.565   5.367   0.539  1.00 20.00     0.005 C 
HETATM    2  C3  UNL     1     -43.152   6.574  -0.205  1.00 20.00     0.006 C 
HETATM    3  C4  UNL     1     -41.371   4.638  -1.537  1.00 20.00     0.016 C 
HETATM    4  C5  UNL     1     -40.792   6.652  -0.399  1.00 20.00     0.010 C 
HETATM    5  C6  UNL     1     -41.930   5.839  -2.311  1.00 20.00     0.051 C 
HETATM    6  C7  UNL     1     -41.183   5.201  -0.114  1.00 20.00    -0.013 C 
HETATM    7  C8  UNL     1     -42.052   6.924  -1.225  1.00 20.00    -0.003 C 
ENDROOT
BRANCH   5   8
HETATM    8  C1  UNL     1     -43.215   5.544  -3.018  1.00 20.00     0.236 C 
HETATM    9  O9  UNL     1     -43.417   4.513  -3.650  1.00 20.00    -0.306 OA
ENDBRANCH   5   8
TORSDOF 1
ENDMDL
MODEL 7
REMARK VINA RESULT:      -4.1      2.205      3.391
REMARK  1 active torsions:
REMARK  status: ('A' for Active; 'I' for Inactive)
REMARK    1  A    between atoms: C1_1  and  C6_6 
ROOT
HETATM    1  C2  UNL     1     -35.600  14.681  -3.557  1.00 20.00     0.005 C 
HETATM    2  C3  UNL     1     -34.640  15.534  -2.717  1.00 20.00     0.006 C 
HETATM    3  C4  UNL     1     -34.265  15.165  -5.619  1.00 20.00     0.016 C 
HETATM    4  C5  UNL     1     -33.379  13.863  -3.828  1.00 20.00     0.010 C 
HETATM    5  C6  UNL     1     -33.277  16.016  -4.810  1.00 20.00     0.051 C 
HETATM    6  C7  UNL     1     -34.673  14.065  -4.618  1.00 20.00    -0.013 C 
HETATM    7  C8  UNL     1     -33.287  15.338  -3.428  1.00 20.00    -0.003 C 
ENDROOT
BRANCH   5   8
HETATM    8  C1  UNL     1     -33.635  17.469  -4.774  1.00 20.00     0.236 C 
HETATM    9  O9  UNL     1     -33.378  18.251  -5.682  1.00 20.00    -0.306 OA
ENDBRANCH   5   8
TORSDOF 1
ENDMDL
MODEL 8
REMARK VINA RESULT:      -4.0      1.715      2.342
REMARK  1 active torsions:
REMARK  status: ('A' for Active; 'I' for Inactive)
REMARK    1  A    between atoms: C1_1  and  C6_6 
ROOT
HETATM    1  C2  UNL     1     -35.423  17.112  -4.225  1.00 20.00     0.005 C 
HETATM    2  C3  UNL     1     -35.546  16.051  -5.327  1.00 20.00     0.006 C 
HETATM    3  C4  UNL     1     -33.664  15.751  -3.077  1.00 20.00     0.016 C 
HETATM    4  C5  UNL     1     -33.284  16.749  -5.209  1.00 20.00     0.010 C 
HETATM    5  C6  UNL     1     -33.750  14.673  -4.166  1.00 20.00     0.051 C 
HETATM    6  C7  UNL     1     -33.931  17.053  -3.857  1.00 20.00    -0.013 C 
HETATM    7  C8  UNL     1     -34.117  15.482  -5.424  1.00 20.00    -0.003 C 
ENDROOT
BRANCH   5   8
HETATM    8  C1  UNL     1     -34.721  13.581  -3.845  1.00 20.00     0.236 C 
HETATM    9  O9  UNL     1     -34.920  12.618  -4.578  1.00 20.00    -0.306 OA
ENDBRANCH   5   8
TORSDOF 1
ENDMDL
MODEL 9
REMARK VINA RESULT:      -4.0     10.775     12.063
REMARK  1 active torsions:
REMARK  status: ('A' for Active; 'I' for Inactive)
REMARK    1  A    between atoms: C1_1  and  C6_6 
ROOT
HETATM    1  C2  UNL     1     -42.930   4.341  -0.513  1.00 20.00     0.005 C 
HETATM    2  C3  UNL     1     -42.210   5.264   0.480  1.00 20.00     0.006 C 
HETATM    3  C4  UNL     1     -42.135   5.742  -2.429  1.00 20.00     0.016 C 
HETATM    4  C5  UNL     1     -40.623   4.472  -1.091  1.00 20.00     0.010 C 
HETATM    5  C6  UNL     1     -41.393   6.680  -1.468  1.00 20.00     0.051 C 
HETATM    6  C7  UNL     1     -42.003   4.369  -1.740  1.00 20.00    -0.013 C 
HETATM    7  C8  UNL     1     -40.982   5.744  -0.317  1.00 20.00    -0.003 C 
ENDROOT
BRANCH   5   8
HETATM    8  C1  UNL     1     -42.215   7.852  -1.030  1.00 20.00     0.236 C 
HETATM    9  O9  UNL     1     -43.371   8.039  -1.392  1.00 20.00    -0.306 OA
ENDBRANCH   5   8
TORSDOF 1
ENDMDL
