MODEL 1
REMARK VINA RESULT:      -4.1      0.000      0.000
REMARK  3 active torsions:
REMARK  status: ('A' for Active; 'I' for Inactive)
REMARK    1  A    between atoms: C1_1  and  C4_4 
REMARK    2  A    between atoms: C4_4  and  C5_5 
REMARK    3  A    between atoms: C5_5  and  C6_6 
ROOT
HETATM    1  C5  UNL     1     -33.022   5.485   4.148  1.00 20.00     0.035 C 
ENDROOT
BRANCH   1   2
HETATM    2  C4  UNL     1     -33.093   6.342   2.881  1.00 20.00     0.115 C 
BRANCH   2   3
HETATM    3  C1  UNL     1     -32.092   7.504   2.828  1.00 20.00     0.172 C 
HETATM    4  O7  UNL     1     -32.097   8.212   1.785  1.00 20.00    -0.648 OA
HETATM    5  O8  UNL     1     -31.368   7.606   3.861  1.00 20.00    -0.648 OA
ENDBRANCH   2   3
ENDBRANCH   1   2
BRANCH   1   6
HETATM    6  C6  UNL     1     -34.330   5.385   4.967  1.00 20.00     0.030 C 
HETATM    7  C2  UNL     1     -35.520   5.744   4.067  1.00 20.00     0.032 C 
HETATM    8  C3  UNL     1     -34.541   3.987   5.557  1.00 20.00     0.032 C 
HETATM    9 CL9  UNL     1     -34.297   6.570   6.322  1.00 20.00    -0.120 Cl
ENDBRANCH   1   6
TORSDOF 3
ENDMDL
MODEL 2
REMARK VINA RESULT:      -4.1      1.109      1.523
REMARK  3 active torsions:
REMARK  status: ('A' for Active; 'I' for Inactive)
REMARK    1  A    between atoms: C1_1  and  C4_4 
REMARK    2  A    between atoms: C4_4  and  C5_5 
REMARK    3  A    between atoms: C5_5  and  C6_6 
ROOT
HETATM    1  C5  UNL     1     -33.028   5.459   4.067  1.00 20.00     0.035 C 
ENDROOT
BRANCH   1   2
HETATM    2  C4  UNL     1     -33.058   6.326   2.806  1.00 20.00     0.115 C 
BRANCH   2   3
HETATM    3  C1  UNL     1     -32.084   7.512   2.813  1.00 20.00     0.172 C 
HETATM    4  O7  UNL     1     -32.093   8.262   1.799  1.00 20.00    -0.648 OA
HETATM    5  O8  UNL     1     -31.376   7.590   3.860  1.00 20.00    -0.648 OA
ENDBRANCH   2   3
ENDBRANCH   1   2
BRANCH   1   6
HETATM    6  C6  UNL     1     -34.346   5.399   4.875  1.00 20.00     0.030 C 
HETATM    7  C2  UNL     1     -34.271   6.395   6.040  1.00 20.00     0.032 C 
HETATM    8  C3  UNL     1     -35.571   5.716   4.012  1.00 20.00     0.032 C 
HETATM    9 CL9  UNL     1     -34.560   3.756   5.579  1.00 20.00    -0.120 Cl
ENDBRANCH   1   6
TORSDOF 3
ENDMDL
MODEL 3
REMARK VINA RESULT:      -4.0      1.101      1.519
REMARK  3 active torsions:
REMARK  status: ('A' for Active; 'I' for Inactive)
REMARK    1  A    between atoms: C1_1  and  C4_4 
REMARK    2  A    between atoms: C4_4  and  C5_5 
REMARK    3  A    between atoms: C5_5  and  C6_6 
ROOT
HETATM    1  C5  UNL     1     -33.048   5.510   4.144  1.00 20.00     0.035 C 
ENDROOT
BRANCH   1   2
HETATM    2  C4  UNL     1     -33.141   6.412   2.910  1.00 20.00     0.115 C 
BRANCH   2   3
HETATM    3  C1  UNL     1     -32.074   7.511   2.830  1.00 20.00     0.172 C 
HETATM    4  O7  UNL     1     -32.036   8.190   1.768  1.00 20.00    -0.648 OA
HETATM    5  O8  UNL     1     -31.348   7.599   3.862  1.00 20.00    -0.648 OA
ENDBRANCH   2   3
ENDBRANCH   1   2
BRANCH   1   6
HETATM    6  C6  UNL     1     -34.345   5.371   4.976  1.00 20.00     0.030 C 
HETATM    7  C2  UNL     1     -34.481   3.922   5.463  1.00 20.00     0.032 C 
HETATM    8  C3  UNL     1     -34.368   6.317   6.180  1.00 20.00     0.032 C 
HETATM    9 CL9  UNL     1     -35.776   5.733   3.944  1.00 20.00    -0.120 Cl
ENDBRANCH   1   6
TORSDOF 3
ENDMDL
MODEL 4
REMARK VINA RESULT:      -4.0     10.835     12.011
REMARK  3 active torsions:
REMARK  status: ('A' for Active; 'I' for Inactive)
REMARK    1  A    between atoms: C1_1  and  C4_4 
REMARK    2  A    between atoms: C4_4  and  C5_5 
REMARK    3  A    between atoms: C5_5  and  C6_6 
ROOT
HETATM    1  C5  UNL     1     -33.968  15.740  -2.802  1.00 20.00     0.035 C 
ENDROOT
BRANCH   1   2
HETATM    2  C4  UNL     1     -34.932  14.736  -3.439  1.00 20.00     0.115 C 
BRANCH   2   3
HETATM    3  C1  UNL     1     -34.284  13.428  -3.913  1.00 20.00     0.172 C 
HETATM    4  O7  UNL     1     -33.055  13.283  -3.675  1.00 20.00    -0.648 OA
HETATM    5  O8  UNL     1     -35.084  12.642  -4.499  1.00 20.00    -0.648 OA
ENDBRANCH   2   3
ENDBRANCH   1   2
BRANCH   1   6
HETATM    6  C6  UNL     1     -34.622  16.979  -2.146  1.00 20.00     0.030 C 
HETATM    7  C2  UNL     1     -33.765  18.219  -2.437  1.00 20.00     0.032 C 
HETATM    8  C3  UNL     1     -36.049  17.217  -2.648  1.00 20.00     0.032 C 
HETATM    9 CL9  UNL     1     -34.680  16.766  -0.359  1.00 20.00    -0.120 Cl
ENDBRANCH   1   6
TORSDOF 3
ENDMDL
MODEL 5
REMARK VINA RESULT:      -4.0     11.196     11.997
REMARK  3 active torsions:
REMARK  status: ('A' for Active; 'I' for Inactive)
REMARK    1  A    between atoms: C1_1  and  C4_4 
REMARK    2  A    between atoms: C4_4  and  C5_5 
REMARK    3  A    between atoms: C5_5  and  C6_6 
ROOT
HETATM    1  C5  UNL     1     -33.930  15.716  -2.920  1.00 20.00     0.035 C 
ENDROOT
BRANCH   1   2
HETATM    2  C4  UNL     1     -34.912  14.657  -3.426  1.00 20.00     0.115 C 
BRANCH   2   3
HETATM    3  C1  UNL     1     -34.261  13.382  -3.978  1.00 20.00     0.172 C 
HETATM    4  O7  UNL     1     -34.994  12.621  -4.666  1.00 20.00    -0.648 OA
HETATM    5  O8  UNL     1     -33.042  13.250  -3.664  1.00 20.00    -0.648 OA
ENDBRANCH   2   3
ENDBRANCH   1   2
BRANCH   1   6
HETATM    6  C6  UNL     1     -34.562  16.925  -2.190  1.00 20.00     0.030 C 
HETATM    7  C2  UNL     1     -35.990  17.141  -2.709  1.00 20.00     0.032 C 
HETATM    8  C3  UNL     1     -34.595  16.735  -0.671  1.00 20.00     0.032 C 
HETATM    9 CL9  UNL     1     -33.622  18.418  -2.552  1.00 20.00    -0.120 Cl
ENDBRANCH   1   6
TORSDOF 3
ENDMDL
MODEL 6
REMARK VINA RESULT:      -4.0     11.077     12.120
REMARK  3 active torsions:
REMARK  status: ('A' for Active; 'I' for Inactive)
REMARK    1  A    between atoms: C1_1  and  C4_4 
REMARK    2  A    between atoms: C4_4  and  C5_5 
REMARK    3  A    between atoms: C5_5  and  C6_6 
ROOT
HETATM    1  C5  UNL     1     -33.900  15.793  -2.911  1.00 20.00     0.035 C 
ENDROOT
BRANCH   1   2
HETATM    2  C4  UNL     1     -34.893  14.718  -3.360  1.00 20.00     0.115 C 
BRANCH   2   3
HETATM    3  C1  UNL     1     -34.255  13.425  -3.885  1.00 20.00     0.172 C 
HETATM    4  O7  UNL     1     -33.032  13.252  -3.634  1.00 20.00    -0.648 OA
HETATM    5  O8  UNL     1     -35.055  12.679  -4.521  1.00 20.00    -0.648 OA
ENDBRANCH   2   3
ENDBRANCH   1   2
BRANCH   1   6
HETATM    6  C6  UNL     1     -34.514  17.022  -2.201  1.00 20.00     0.030 C 
HETATM    7  C2  UNL     1     -34.582  16.754  -0.692  1.00 20.00     0.032 C 
HETATM    8  C3  UNL     1     -33.711  18.302  -2.455  1.00 20.00     0.032 C 
HETATM    9 CL9  UNL     1     -36.198  17.288  -2.782  1.00 20.00    -0.120 Cl
ENDBRANCH   1   6
TORSDOF 3
ENDMDL
MODEL 7
REMARK VINA RESULT:      -3.9     11.389     13.079
REMARK  3 active torsions:
REMARK  status: ('A' for Active; 'I' for Inactive)
REMARK    1  A    between atoms: C1_1  and  C4_4 
REMARK    2  A    between atoms: C4_4  and  C5_5 
REMARK    3  A    between atoms: C5_5  and  C6_6 
ROOT
HETATM    1  C5  UNL     1     -33.428  15.915  -4.156  1.00 20.00     0.035 C 
ENDROOT
BRANCH   1   2
HETATM    2  C4  UNL     1     -34.206  14.870  -3.352  1.00 20.00     0.115 C 
BRANCH   2   3
HETATM    3  C1  UNL     1     -34.000  13.419  -3.805  1.00 20.00     0.172 C 
HETATM    4  O7  UNL     1     -32.835  12.949  -3.697  1.00 20.00    -0.648 OA
HETATM    5  O8  UNL     1     -35.050  12.863  -4.243  1.00 20.00    -0.648 OA
ENDBRANCH   2   3
ENDBRANCH   1   2
BRANCH   1   6
HETATM    6  C6  UNL     1     -34.188  16.553  -5.343  1.00 20.00     0.030 C 
HETATM    7  C2  UNL     1     -35.679  16.659  -4.992  1.00 20.00     0.032 C 
HETATM    8  C3  UNL     1     -33.649  17.941  -5.700  1.00 20.00     0.032 C 
HETATM    9 CL9  UNL     1     -34.048  15.500  -6.798  1.00 20.00    -0.120 Cl
ENDBRANCH   1   6
TORSDOF 3
ENDMDL
MODEL 8
REMARK VINA RESULT:      -3.7      2.916      4.230
REMARK  3 active torsions:
REMARK  status: ('A' for Active; 'I' for Inactive)
REMARK    1  A    between atoms: C1_1  and  C4_4 
REMARK    2  A    between atoms: C4_4  and  C5_5 
REMARK    3  A    between atoms: C5_5  and  C6_6 
ROOT
HETATM    1  C5  UNL     1     -33.860   6.917   4.035  1.00 20.00     0.035 C 
ENDROOT
BRANCH   1   2
HETATM    2  C4  UNL     1     -34.550   5.555   3.921  1.00 20.00     0.115 C 
BRANCH   2   3
HETATM    3  C1  UNL     1     -34.831   4.858   5.259  1.00 20.00     0.172 C 
HETATM    4  O7  UNL     1     -34.746   5.566   6.298  1.00 20.00    -0.648 OA
HETATM    5  O8  UNL     1     -35.117   3.630   5.148  1.00 20.00    -0.648 OA
ENDBRANCH   2   3
ENDBRANCH   1   2
BRANCH   1   6
HETATM    6  C6  UNL     1     -32.494   7.042   3.320  1.00 20.00     0.030 C 
HETATM    7  C2  UNL     1     -32.005   5.644   2.914  1.00 20.00     0.032 C 
HETATM    8  C3  UNL     1     -32.567   7.936   2.079  1.00 20.00     0.032 C 
HETATM    9 CL9  UNL     1     -31.273   7.737   4.447  1.00 20.00    -0.120 Cl
ENDBRANCH   1   6
TORSDOF 3
ENDMDL
MODEL 9
REMARK VINA RESULT:      -3.6      3.088      4.211
REMARK  3 active torsions:
REMARK  status: ('A' for Active; 'I' for Inactive)
REMARK    1  A    between atoms: C1_1  and  C4_4 
REMARK    2  A    between atoms: C4_4  and  C5_5 
REMARK    3  A    between atoms: C5_5  and  C6_6 
ROOT
HETATM    1  C5  UNL     1     -33.842   6.930   3.998  1.00 20.00     0.035 C 
ENDROOT
BRANCH   1   2
HETATM    2  C4  UNL     1     -34.601   5.608   3.861  1.00 20.00     0.115 C 
BRANCH   2   3
HETATM    3  C1  UNL     1     -34.848   4.863   5.179  1.00 20.00     0.172 C 
HETATM    4  O7  UNL     1     -35.165   3.646   5.094  1.00 20.00    -0.648 OA
HETATM    5  O8  UNL     1     -34.701   5.581   6.211  1.00 20.00    -0.648 OA
ENDBRANCH   2   3
ENDBRANCH   1   2
BRANCH   1   6
HETATM    6  C6  UNL     1     -32.475   7.000   3.277  1.00 20.00     0.030 C 
HETATM    7  C2  UNL     1     -31.417   7.540   4.249  1.00 20.00     0.032 C 
HETATM    8  C3  UNL     1     -32.028   5.636   2.744  1.00 20.00     0.032 C 
HETATM    9 CL9  UNL     1     -32.572   8.145   1.890  1.00 20.00    -0.120 Cl
ENDBRANCH   1   6
TORSDOF 3
ENDMDL
