MODEL 1
REMARK VINA RESULT:      -5.0      0.000      0.000
REMARK  5 active torsions:
REMARK  status: ('A' for Active; 'I' for Inactive)
REMARK    1  A    between atoms: C2_2  and  C5_5 
REMARK    2  A    between atoms: C5_5  and  C8_8 
REMARK    3  A    between atoms: C6_6  and  C7_7 
REMARK    4  A    between atoms: C7_7  and  C8_8 
REMARK    5  A    between atoms: C8_8  and  O9_9 
ROOT
HETATM    1  C1  UNL     1     -32.282   8.377   1.997  1.00 20.00    -0.111 C 
HETATM    2  C2  UNL     1     -32.229   7.350   2.616  1.00 20.00    -0.104 C 
HETATM    3  C3  UNL     1     -32.350   9.626   1.240  1.00 20.00     0.112 C 
ENDROOT
BRANCH   2   4
HETATM    4  C5  UNL     1     -32.161   6.090   3.373  1.00 20.00     0.125 C 
BRANCH   4   5
HETATM    5  C8  UNL     1     -33.522   5.645   3.923  1.00 20.00     0.129 C 
BRANCH   5   6
HETATM    6  C7  UNL     1     -34.060   6.453   5.112  1.00 20.00     0.032 C 
BRANCH   6   7
HETATM    7  C6  UNL     1     -34.487   5.588   6.297  1.00 20.00    -0.002 C 
HETATM    8  C4  UNL     1     -34.883   4.189   5.847  1.00 20.00     0.005 C 
ENDBRANCH   6   7
ENDBRANCH   5   6
BRANCH   5   9
HETATM    9  O9  UNL     1     -34.503   5.711   2.886  1.00 20.00    -0.395 OA
HETATM   10  H23 UNL     1     -34.359   4.932   2.327  1.00 20.00     0.210 HD
ENDBRANCH   5   9
ENDBRANCH   4   5
ENDBRANCH   2   4
TORSDOF 5
ENDMDL
MODEL 2
REMARK VINA RESULT:      -4.7      1.332      1.434
REMARK  5 active torsions:
REMARK  status: ('A' for Active; 'I' for Inactive)
REMARK    1  A    between atoms: C2_2  and  C5_5 
REMARK    2  A    between atoms: C5_5  and  C8_8 
REMARK    3  A    between atoms: C6_6  and  C7_7 
REMARK    4  A    between atoms: C7_7  and  C8_8 
REMARK    5  A    between atoms: C8_8  and  O9_9 
ROOT
HETATM    1  C1  UNL     1     -32.147   8.694   1.551  1.00 20.00    -0.111 C 
HETATM    2  C2  UNL     1     -32.181   7.828   2.383  1.00 20.00    -0.104 C 
HETATM    3  C3  UNL     1     -32.110   9.750   0.542  1.00 20.00     0.112 C 
ENDROOT
BRANCH   2   4
HETATM    4  C5  UNL     1     -32.224   6.764   3.398  1.00 20.00     0.125 C 
BRANCH   4   5
HETATM    5  C8  UNL     1     -33.610   6.594   4.032  1.00 20.00     0.129 C 
BRANCH   5   6
HETATM    6  C7  UNL     1     -34.352   5.297   3.681  1.00 20.00     0.032 C 
BRANCH   6   7
HETATM    7  C6  UNL     1     -35.417   4.905   4.705  1.00 20.00    -0.002 C 
HETATM    8  C4  UNL     1     -34.887   3.875   5.689  1.00 20.00     0.005 C 
ENDBRANCH   6   7
ENDBRANCH   5   6
BRANCH   5   9
HETATM    9  O9  UNL     1     -33.497   6.649   5.455  1.00 20.00    -0.395 OA
HETATM   10  H23 UNL     1     -33.296   5.746   5.746  1.00 20.00     0.210 HD
ENDBRANCH   5   9
ENDBRANCH   4   5
ENDBRANCH   2   4
TORSDOF 5
ENDMDL
MODEL 3
REMARK VINA RESULT:      -4.5      1.628      2.428
REMARK  5 active torsions:
REMARK  status: ('A' for Active; 'I' for Inactive)
REMARK    1  A    between atoms: C2_2  and  C5_5 
REMARK    2  A    between atoms: C5_5  and  C8_8 
REMARK    3  A    between atoms: C6_6  and  C7_7 
REMARK    4  A    between atoms: C7_7  and  C8_8 
REMARK    5  A    between atoms: C8_8  and  O9_9 
ROOT
HETATM    1  C1  UNL     1     -32.880   6.929   2.959  1.00 20.00    -0.111 C 
HETATM    2  C2  UNL     1     -33.802   6.300   3.404  1.00 20.00    -0.104 C 
HETATM    3  C3  UNL     1     -31.762   7.699   2.418  1.00 20.00     0.112 C 
ENDROOT
BRANCH   2   4
HETATM    4  C5  UNL     1     -34.931   5.528   3.945  1.00 20.00     0.125 C 
BRANCH   4   5
HETATM    5  C8  UNL     1     -34.495   4.438   4.932  1.00 20.00     0.129 C 
BRANCH   5   6
HETATM    6  C7  UNL     1     -34.120   4.920   6.340  1.00 20.00     0.032 C 
BRANCH   6   7
HETATM    7  C6  UNL     1     -34.503   6.374   6.611  1.00 20.00    -0.002 C 
HETATM    8  C4  UNL     1     -33.272   7.242   6.820  1.00 20.00     0.005 C 
ENDBRANCH   6   7
ENDBRANCH   5   6
BRANCH   5   9
HETATM    9  O9  UNL     1     -35.541   3.475   5.076  1.00 20.00    -0.395 OA
HETATM   10  H23 UNL     1     -35.329   2.751   4.467  1.00 20.00     0.210 HD
ENDBRANCH   5   9
ENDBRANCH   4   5
ENDBRANCH   2   4
TORSDOF 5
ENDMDL
MODEL 4
REMARK VINA RESULT:      -4.3     10.578     11.711
REMARK  5 active torsions:
REMARK  status: ('A' for Active; 'I' for Inactive)
REMARK    1  A    between atoms: C2_2  and  C5_5 
REMARK    2  A    between atoms: C5_5  and  C8_8 
REMARK    3  A    between atoms: C6_6  and  C7_7 
REMARK    4  A    between atoms: C7_7  and  C8_8 
REMARK    5  A    between atoms: C8_8  and  O9_9 
ROOT
HETATM    1  C1  UNL     1     -34.460  16.541  -1.203  1.00 20.00    -0.111 C 
HETATM    2  C2  UNL     1     -34.139  16.011  -2.232  1.00 20.00    -0.104 C 
HETATM    3  C3  UNL     1     -34.845  17.183   0.052  1.00 20.00     0.112 C 
ENDROOT
BRANCH   2   4
HETATM    4  C5  UNL     1     -33.750  15.359  -3.492  1.00 20.00     0.125 C 
BRANCH   4   5
HETATM    5  C8  UNL     1     -34.091  13.864  -3.524  1.00 20.00     0.129 C 
BRANCH   5   6
HETATM    6  C7  UNL     1     -35.267  13.464  -4.426  1.00 20.00     0.032 C 
BRANCH   6   7
HETATM    7  C6  UNL     1     -35.724  14.579  -5.365  1.00 20.00    -0.002 C 
HETATM    8  C4  UNL     1     -35.237  14.342  -6.786  1.00 20.00     0.005 C 
ENDBRANCH   6   7
ENDBRANCH   5   6
BRANCH   5   9
HETATM    9  O9  UNL     1     -32.950  13.121  -3.959  1.00 20.00    -0.395 OA
HETATM   10  H23 UNL     1     -32.583  12.699  -3.168  1.00 20.00     0.210 HD
ENDBRANCH   5   9
ENDBRANCH   4   5
ENDBRANCH   2   4
TORSDOF 5
ENDMDL
MODEL 5
REMARK VINA RESULT:      -4.3     11.070     12.250
REMARK  5 active torsions:
REMARK  status: ('A' for Active; 'I' for Inactive)
REMARK    1  A    between atoms: C2_2  and  C5_5 
REMARK    2  A    between atoms: C5_5  and  C8_8 
REMARK    3  A    between atoms: C6_6  and  C7_7 
REMARK    4  A    between atoms: C7_7  and  C8_8 
REMARK    5  A    between atoms: C8_8  and  O9_9 
ROOT
HETATM    1  C1  UNL     1     -34.562  16.317  -1.519  1.00 20.00    -0.111 C 
HETATM    2  C2  UNL     1     -34.333  15.599  -2.454  1.00 20.00    -0.104 C 
HETATM    3  C3  UNL     1     -34.836  17.194  -0.382  1.00 20.00     0.112 C 
ENDROOT
BRANCH   2   4
HETATM    4  C5  UNL     1     -34.052  14.716  -3.597  1.00 20.00     0.125 C 
BRANCH   4   5
HETATM    5  C8  UNL     1     -35.315  14.074  -4.184  1.00 20.00     0.129 C 
BRANCH   5   6
HETATM    6  C7  UNL     1     -35.674  14.490  -5.618  1.00 20.00     0.032 C 
BRANCH   6   7
HETATM    7  C6  UNL     1     -34.457  14.800  -6.487  1.00 20.00    -0.002 C 
HETATM    8  C4  UNL     1     -34.482  16.238  -6.983  1.00 20.00     0.005 C 
ENDBRANCH   6   7
ENDBRANCH   5   6
BRANCH   5   9
HETATM    9  O9  UNL     1     -35.179  12.651  -4.176  1.00 20.00    -0.395 OA
HETATM   10  H23 UNL     1     -34.846  12.416  -3.296  1.00 20.00     0.210 HD
ENDBRANCH   5   9
ENDBRANCH   4   5
ENDBRANCH   2   4
TORSDOF 5
ENDMDL
MODEL 6
REMARK VINA RESULT:      -4.2     10.568     11.423
REMARK  5 active torsions:
REMARK  status: ('A' for Active; 'I' for Inactive)
REMARK    1  A    between atoms: C2_2  and  C5_5 
REMARK    2  A    between atoms: C5_5  and  C8_8 
REMARK    3  A    between atoms: C6_6  and  C7_7 
REMARK    4  A    between atoms: C7_7  and  C8_8 
REMARK    5  A    between atoms: C8_8  and  O9_9 
ROOT
HETATM    1  C1  UNL     1     -34.463  16.559  -1.202  1.00 20.00    -0.111 C 
HETATM    2  C2  UNL     1     -34.141  16.024  -2.228  1.00 20.00    -0.104 C 
HETATM    3  C3  UNL     1     -34.858  17.213   0.044  1.00 20.00     0.112 C 
ENDROOT
BRANCH   2   4
HETATM    4  C5  UNL     1     -33.742  15.371  -3.484  1.00 20.00     0.125 C 
BRANCH   4   5
HETATM    5  C8  UNL     1     -34.064  13.871  -3.510  1.00 20.00     0.129 C 
BRANCH   5   6
HETATM    6  C7  UNL     1     -35.191  13.444  -4.461  1.00 20.00     0.032 C 
BRANCH   6   7
HETATM    7  C6  UNL     1     -36.112  14.592  -4.872  1.00 20.00    -0.002 C 
HETATM    8  C4  UNL     1     -37.339  14.666  -3.976  1.00 20.00     0.005 C 
ENDBRANCH   6   7
ENDBRANCH   5   6
BRANCH   5   9
HETATM    9  O9  UNL     1     -32.895  13.136  -3.877  1.00 20.00    -0.395 OA
HETATM   10  H23 UNL     1     -32.876  13.125  -4.846  1.00 20.00     0.210 HD
ENDBRANCH   5   9
ENDBRANCH   4   5
ENDBRANCH   2   4
TORSDOF 5
ENDMDL
MODEL 7
REMARK VINA RESULT:      -4.2     10.936     11.769
REMARK  5 active torsions:
REMARK  status: ('A' for Active; 'I' for Inactive)
REMARK    1  A    between atoms: C2_2  and  C5_5 
REMARK    2  A    between atoms: C5_5  and  C8_8 
REMARK    3  A    between atoms: C6_6  and  C7_7 
REMARK    4  A    between atoms: C7_7  and  C8_8 
REMARK    5  A    between atoms: C8_8  and  O9_9 
ROOT
HETATM    1  C1  UNL     1     -34.680  16.917  -0.781  1.00 20.00    -0.111 C 
HETATM    2  C2  UNL     1     -34.529  16.588  -1.926  1.00 20.00    -0.104 C 
HETATM    3  C3  UNL     1     -34.861  17.323   0.611  1.00 20.00     0.112 C 
ENDROOT
BRANCH   2   4
HETATM    4  C5  UNL     1     -34.341  16.182  -3.328  1.00 20.00     0.125 C 
BRANCH   4   5
HETATM    5  C8  UNL     1     -33.085  15.327  -3.542  1.00 20.00     0.129 C 
BRANCH   5   6
HETATM    6  C7  UNL     1     -33.322  13.821  -3.720  1.00 20.00     0.032 C 
BRANCH   6   7
HETATM    7  C6  UNL     1     -34.769  13.465  -4.056  1.00 20.00    -0.002 C 
HETATM    8  C4  UNL     1     -35.006  13.469  -5.558  1.00 20.00     0.005 C 
ENDBRANCH   6   7
ENDBRANCH   5   6
BRANCH   5   9
HETATM    9  O9  UNL     1     -32.383  15.788  -4.698  1.00 20.00    -0.395 OA
HETATM   10  H23 UNL     1     -32.086  16.688  -4.495  1.00 20.00     0.210 HD
ENDBRANCH   5   9
ENDBRANCH   4   5
ENDBRANCH   2   4
TORSDOF 5
ENDMDL
MODEL 8
REMARK VINA RESULT:      -4.1     11.217     12.586
REMARK  5 active torsions:
REMARK  status: ('A' for Active; 'I' for Inactive)
REMARK    1  A    between atoms: C2_2  and  C5_5 
REMARK    2  A    between atoms: C5_5  and  C8_8 
REMARK    3  A    between atoms: C6_6  and  C7_7 
REMARK    4  A    between atoms: C7_7  and  C8_8 
REMARK    5  A    between atoms: C8_8  and  O9_9 
ROOT
HETATM    1  C1  UNL     1     -34.579  16.471  -1.307  1.00 20.00    -0.111 C 
HETATM    2  C2  UNL     1     -34.649  15.707  -2.231  1.00 20.00    -0.104 C 
HETATM    3  C3  UNL     1     -34.500  17.400  -0.183  1.00 20.00     0.112 C 
ENDROOT
BRANCH   2   4
HETATM    4  C5  UNL     1     -34.732  14.774  -3.366  1.00 20.00     0.125 C 
BRANCH   4   5
HETATM    5  C8  UNL     1     -33.595  14.958  -4.379  1.00 20.00     0.129 C 
BRANCH   5   6
HETATM    6  C7  UNL     1     -33.472  16.357  -5.000  1.00 20.00     0.032 C 
BRANCH   6   7
HETATM    7  C6  UNL     1     -34.178  16.492  -6.348  1.00 20.00    -0.002 C 
HETATM    8  C4  UNL     1     -34.328  15.143  -7.034  1.00 20.00     0.005 C 
ENDBRANCH   6   7
ENDBRANCH   5   6
BRANCH   5   9
HETATM    9  O9  UNL     1     -32.345  14.657  -3.758  1.00 20.00    -0.395 OA
HETATM   10  H23 UNL     1     -31.784  15.438  -3.884  1.00 20.00     0.210 HD
ENDBRANCH   5   9
ENDBRANCH   4   5
ENDBRANCH   2   4
TORSDOF 5
ENDMDL
MODEL 9
REMARK VINA RESULT:      -4.1      1.268      4.934
REMARK  5 active torsions:
REMARK  status: ('A' for Active; 'I' for Inactive)
REMARK    1  A    between atoms: C2_2  and  C5_5 
REMARK    2  A    between atoms: C5_5  and  C8_8 
REMARK    3  A    between atoms: C6_6  and  C7_7 
REMARK    4  A    between atoms: C7_7  and  C8_8 
REMARK    5  A    between atoms: C8_8  and  O9_9 
ROOT
HETATM    1  C1  UNL     1     -34.748   5.062   5.112  1.00 20.00    -0.111 C 
HETATM    2  C2  UNL     1     -34.446   5.419   4.005  1.00 20.00    -0.104 C 
HETATM    3  C3  UNL     1     -35.109   4.628   6.460  1.00 20.00     0.112 C 
ENDROOT
BRANCH   2   4
HETATM    4  C5  UNL     1     -34.079   5.851   2.648  1.00 20.00     0.125 C 
BRANCH   4   5
HETATM    5  C8  UNL     1     -32.600   6.239   2.521  1.00 20.00     0.129 C 
BRANCH   5   6
HETATM    6  C7  UNL     1     -32.278   7.726   2.722  1.00 20.00     0.032 C 
BRANCH   6   7
HETATM    7  C6  UNL     1     -31.880   8.445   1.434  1.00 20.00    -0.002 C 
HETATM    8  C4  UNL     1     -32.464   9.848   1.379  1.00 20.00     0.005 C 
ENDBRANCH   6   7
ENDBRANCH   5   6
BRANCH   5   9
HETATM    9  O9  UNL     1     -31.829   5.504   3.473  1.00 20.00    -0.395 OA
HETATM   10  H23 UNL     1     -31.037   5.200   3.004  1.00 20.00     0.210 HD
ENDBRANCH   5   9
ENDBRANCH   4   5
ENDBRANCH   2   4
TORSDOF 5
ENDMDL
