MODEL 1
REMARK VINA RESULT:      -4.0      0.000      0.000
REMARK  2 active torsions:
REMARK  status: ('A' for Active; 'I' for Inactive)
REMARK    1  A    between atoms: C2_2  and  C5_5 
REMARK    2  A    between atoms: C3_3  and  C6_6 
ROOT
HETATM    1  C1  UNL     1     -33.575  13.621  -3.813  1.00 20.00     0.204 C 
HETATM    2  C2  UNL     1     -34.514  14.689  -3.305  1.00 20.00     0.162 C 
HETATM    3  C3  UNL     1     -35.331  13.835  -5.229  1.00 20.00     0.260 C 
HETATM    4  O7  UNL     1     -34.385  12.881  -4.728  1.00 20.00    -0.359 OA
HETATM    5  O8  UNL     1     -35.240  15.055  -4.481  1.00 20.00    -0.353 OA
ENDROOT
BRANCH   2   6
HETATM    6  C5  UNL     1     -33.815  15.893  -2.713  1.00 20.00     0.148 C 
HETATM    7 CL9  UNL     1     -34.589  16.375  -1.188  1.00 20.00    -0.128 Cl
ENDBRANCH   2   6
BRANCH   3   8
HETATM    8  C6  UNL     1     -35.053  14.121  -6.692  1.00 20.00     0.056 C 
HETATM    9  C4  UNL     1     -34.343  15.425  -6.885  1.00 20.00     0.010 C 
ENDBRANCH   3   8
TORSDOF 2
ENDMDL
MODEL 2
REMARK VINA RESULT:      -3.8     11.542     12.814
REMARK  2 active torsions:
REMARK  status: ('A' for Active; 'I' for Inactive)
REMARK    1  A    between atoms: C2_2  and  C5_5 
REMARK    2  A    between atoms: C3_3  and  C6_6 
ROOT
HETATM    1  C1  UNL     1     -35.097   5.840   3.280  1.00 20.00     0.204 C 
HETATM    2  C2  UNL     1     -33.596   5.683   3.215  1.00 20.00     0.162 C 
HETATM    3  C3  UNL     1     -34.339   4.901   5.198  1.00 20.00     0.260 C 
HETATM    4  O7  UNL     1     -35.474   4.940   4.324  1.00 20.00    -0.359 OA
HETATM    5  O8  UNL     1     -33.230   5.579   4.593  1.00 20.00    -0.353 OA
ENDROOT
BRANCH   2   6
HETATM    6  C5  UNL     1     -32.884   6.845   2.558  1.00 20.00     0.148 C 
HETATM    7 CL9  UNL     1     -31.611   7.479   3.624  1.00 20.00    -0.128 Cl
ENDBRANCH   2   6
BRANCH   3   8
HETATM    8  C6  UNL     1     -34.677   5.570   6.516  1.00 20.00     0.056 C 
HETATM    9  C4  UNL     1     -33.907   6.838   6.718  1.00 20.00     0.010 C 
ENDBRANCH   3   8
TORSDOF 2
ENDMDL
MODEL 3
REMARK VINA RESULT:      -3.8      2.162      3.646
REMARK  2 active torsions:
REMARK  status: ('A' for Active; 'I' for Inactive)
REMARK    1  A    between atoms: C2_2  and  C5_5 
REMARK    2  A    between atoms: C3_3  and  C6_6 
ROOT
HETATM    1  C1  UNL     1     -34.866  13.173  -4.610  1.00 20.00     0.204 C 
HETATM    2  C2  UNL     1     -34.423  14.259  -5.561  1.00 20.00     0.162 C 
HETATM    3  C3  UNL     1     -34.031  14.925  -3.440  1.00 20.00     0.260 C 
HETATM    4  O7  UNL     1     -34.181  13.500  -3.399  1.00 20.00    -0.359 OA
HETATM    5  O8  UNL     1     -34.413  15.422  -4.729  1.00 20.00    -0.353 OA
ENDROOT
BRANCH   2   6
HETATM    6  C5  UNL     1     -35.347  14.456  -6.743  1.00 20.00     0.148 C 
HETATM    7 CL9  UNL     1     -36.889  15.165  -6.218  1.00 20.00    -0.128 Cl
ENDBRANCH   2   6
BRANCH   3   8
HETATM    8  C6  UNL     1     -34.900  15.567  -2.375  1.00 20.00     0.056 C 
HETATM    9  C4  UNL     1     -34.165  16.625  -1.613  1.00 20.00     0.010 C 
ENDBRANCH   3   8
TORSDOF 2
ENDMDL
MODEL 4
REMARK VINA RESULT:      -3.7      2.305      4.141
REMARK  2 active torsions:
REMARK  status: ('A' for Active; 'I' for Inactive)
REMARK    1  A    between atoms: C2_2  and  C5_5 
REMARK    2  A    between atoms: C3_3  and  C6_6 
ROOT
HETATM    1  C1  UNL     1     -33.327  16.439  -5.217  1.00 20.00     0.204 C 
HETATM    2  C2  UNL     1     -34.687  15.784  -5.196  1.00 20.00     0.162 C 
HETATM    3  C3  UNL     1     -34.412  16.981  -3.303  1.00 20.00     0.260 C 
HETATM    4  O7  UNL     1     -33.450  17.477  -4.242  1.00 20.00    -0.359 OA
HETATM    5  O8  UNL     1     -35.015  15.782  -3.805  1.00 20.00    -0.353 OA
ENDROOT
BRANCH   2   6
HETATM    6  C5  UNL     1     -34.700  14.376  -5.751  1.00 20.00     0.148 C 
HETATM    7 CL9  UNL     1     -34.923  13.193  -4.443  1.00 20.00    -0.128 Cl
ENDBRANCH   2   6
BRANCH   3   8
HETATM    8  C6  UNL     1     -33.736  16.687  -1.977  1.00 20.00     0.056 C 
HETATM    9  C4  UNL     1     -34.715  16.641  -0.845  1.00 20.00     0.010 C 
ENDBRANCH   3   8
TORSDOF 2
ENDMDL
MODEL 5
REMARK VINA RESULT:      -3.6     10.416     11.520
REMARK  2 active torsions:
REMARK  status: ('A' for Active; 'I' for Inactive)
REMARK    1  A    between atoms: C2_2  and  C5_5 
REMARK    2  A    between atoms: C3_3  and  C6_6 
ROOT
HETATM    1  C1  UNL     1     -33.088   6.749   4.818  1.00 20.00     0.204 C 
HETATM    2  C2  UNL     1     -33.534   5.688   3.840  1.00 20.00     0.162 C 
HETATM    3  C3  UNL     1     -32.180   7.152   2.781  1.00 20.00     0.260 C 
HETATM    4  O7  UNL     1     -31.939   7.315   4.185  1.00 20.00    -0.359 OA
HETATM    5  O8  UNL     1     -33.329   6.320   2.574  1.00 20.00    -0.353 OA
ENDROOT
BRANCH   2   6
HETATM    6  C5  UNL     1     -34.979   5.270   4.002  1.00 20.00     0.148 C 
HETATM    7 CL9  UNL     1     -35.244   4.553   5.606  1.00 20.00    -0.128 Cl
ENDBRANCH   2   6
BRANCH   3   8
HETATM    8  C6  UNL     1     -32.416   8.504   2.137  1.00 20.00     0.056 C 
HETATM    9  C4  UNL     1     -31.728   8.624   0.813  1.00 20.00     0.010 C 
ENDBRANCH   3   8
TORSDOF 2
ENDMDL
MODEL 6
REMARK VINA RESULT:      -3.6      1.895      2.598
REMARK  2 active torsions:
REMARK  status: ('A' for Active; 'I' for Inactive)
REMARK    1  A    between atoms: C2_2  and  C5_5 
REMARK    2  A    between atoms: C3_3  and  C6_6 
ROOT
HETATM    1  C1  UNL     1     -33.700  16.987  -3.939  1.00 20.00     0.204 C 
HETATM    2  C2  UNL     1     -33.877  16.527  -2.512  1.00 20.00     0.162 C 
HETATM    3  C3  UNL     1     -33.356  14.751  -3.804  1.00 20.00     0.260 C 
HETATM    4  O7  UNL     1     -32.963  15.919  -4.538  1.00 20.00    -0.359 OA
HETATM    5  O8  UNL     1     -34.134  15.129  -2.661  1.00 20.00    -0.353 OA
ENDROOT
BRANCH   2   6
HETATM    6  C5  UNL     1     -35.018  17.205  -1.784  1.00 20.00     0.148 C 
HETATM    7 CL9  UNL     1     -34.840  17.008  -0.027  1.00 20.00    -0.128 Cl
ENDBRANCH   2   6
BRANCH   3   8
HETATM    8  C6  UNL     1     -34.178  13.836  -4.691  1.00 20.00     0.056 C 
HETATM    9  C4  UNL     1     -35.589  13.705  -4.209  1.00 20.00     0.010 C 
ENDBRANCH   3   8
TORSDOF 2
ENDMDL
MODEL 7
REMARK VINA RESULT:      -3.6     11.328     12.568
REMARK  2 active torsions:
REMARK  status: ('A' for Active; 'I' for Inactive)
REMARK    1  A    between atoms: C2_2  and  C5_5 
REMARK    2  A    between atoms: C3_3  and  C6_6 
ROOT
HETATM    1  C1  UNL     1     -33.283   6.793   4.976  1.00 20.00     0.204 C 
HETATM    2  C2  UNL     1     -33.370   6.824   3.469  1.00 20.00     0.162 C 
HETATM    3  C3  UNL     1     -34.991   5.478   4.278  1.00 20.00     0.260 C 
HETATM    4  O7  UNL     1     -34.569   6.309   5.368  1.00 20.00    -0.359 OA
HETATM    5  O8  UNL     1     -34.094   5.629   3.170  1.00 20.00    -0.353 OA
ENDROOT
BRANCH   2   6
HETATM    6  C5  UNL     1     -32.025   6.823   2.775  1.00 20.00     0.148 C 
HETATM    7 CL9  UNL     1     -31.867   8.242   1.719  1.00 20.00    -0.128 Cl
ENDBRANCH   2   6
BRANCH   3   8
HETATM    8  C6  UNL     1     -35.013   4.026   4.713  1.00 20.00     0.056 C 
HETATM    9  C4  UNL     1     -34.890   3.882   6.199  1.00 20.00     0.010 C 
ENDBRANCH   3   8
TORSDOF 2
ENDMDL
MODEL 8
REMARK VINA RESULT:      -3.6     11.691     12.539
REMARK  2 active torsions:
REMARK  status: ('A' for Active; 'I' for Inactive)
REMARK    1  A    between atoms: C2_2  and  C5_5 
REMARK    2  A    between atoms: C3_3  and  C6_6 
ROOT
HETATM    1  C1  UNL     1     -41.906   4.618  -0.152  1.00 20.00     0.204 C 
HETATM    2  C2  UNL     1     -41.360   4.372  -1.539  1.00 20.00     0.162 C 
HETATM    3  C3  UNL     1     -40.947   6.511  -0.947  1.00 20.00     0.260 C 
HETATM    4  O7  UNL     1     -41.215   5.796   0.267  1.00 20.00    -0.359 OA
HETATM    5  O8  UNL     1     -41.268   5.693  -2.079  1.00 20.00    -0.353 OA
ENDROOT
BRANCH   2   6
HETATM    6  C5  UNL     1     -42.247   3.502  -2.403  1.00 20.00     0.148 C 
HETATM    7 CL9  UNL     1     -41.265   2.388  -3.378  1.00 20.00    -0.128 Cl
ENDBRANCH   2   6
BRANCH   3   8
HETATM    8  C6  UNL     1     -41.777   7.780  -0.993  1.00 20.00     0.056 C 
HETATM    9  C4  UNL     1     -42.755   7.770  -2.126  1.00 20.00     0.010 C 
ENDBRANCH   3   8
TORSDOF 2
ENDMDL
MODEL 9
REMARK VINA RESULT:      -3.6      2.204      3.936
REMARK  2 active torsions:
REMARK  status: ('A' for Active; 'I' for Inactive)
REMARK    1  A    between atoms: C2_2  and  C5_5 
REMARK    2  A    between atoms: C3_3  and  C6_6 
ROOT
HETATM    1  C1  UNL     1     -36.432  15.000  -4.601  1.00 20.00     0.204 C 
HETATM    2  C2  UNL     1     -35.354  14.132  -5.206  1.00 20.00     0.162 C 
HETATM    3  C3  UNL     1     -34.706  14.795  -3.147  1.00 20.00     0.260 C 
HETATM    4  O7  UNL     1     -36.127  14.975  -3.206  1.00 20.00    -0.359 OA
HETATM    5  O8  UNL     1     -34.195  14.499  -4.454  1.00 20.00    -0.353 OA
ENDROOT
BRANCH   2   6
HETATM    6  C5  UNL     1     -35.130  14.368  -6.683  1.00 20.00     0.148 C 
HETATM    7 CL9  UNL     1     -34.076  15.776  -6.936  1.00 20.00    -0.128 Cl
ENDBRANCH   2   6
BRANCH   3   8
HETATM    8  C6  UNL     1     -34.046  16.055  -2.623  1.00 20.00     0.056 C 
HETATM    9  C4  UNL     1     -34.581  16.454  -1.282  1.00 20.00     0.010 C 
ENDBRANCH   3   8
TORSDOF 2
ENDMDL
