MODEL 1
REMARK VINA RESULT:      -5.3      0.000      0.000
REMARK  1 active torsions:
REMARK  status: ('A' for Active; 'I' for Inactive)
REMARK    1  A    between atoms: C5_5  and  C10_10 
ROOT
HETATM    1  C6  UNL     1     -34.417  13.936  -5.291  1.00 20.00     0.005 C 
HETATM    2  C7  UNL     1     -35.221  13.650  -4.014  1.00 20.00     0.005 C 
HETATM    3  C8  UNL     1     -33.365  15.957  -4.234  1.00 20.00     0.014 C 
HETATM    4  C9  UNL     1     -35.687  15.863  -4.711  1.00 20.00     0.010 C 
HETATM    5  C10 UNL     1     -34.087  15.590  -2.915  1.00 20.00     0.023 C 
HETATM    6  C11 UNL     1     -34.343  15.473  -5.319  1.00 20.00    -0.013 C 
HETATM    7  C12 UNL     1     -35.452  15.058  -3.427  1.00 20.00    -0.006 C 
ENDROOT
BRANCH   5   8
HETATM    8  C5  UNL     1     -34.123  16.752  -1.937  1.00 20.00    -0.051 A 
HETATM    9  C1  UNL     1     -34.684  16.586  -0.675  1.00 20.00     0.026 A 
HETATM   10  C3  UNL     1     -34.690  17.676   0.180  1.00 20.00     0.116 A 
HETATM   11  N13 UNL     1     -34.185  18.890  -0.137  1.00 20.00    -0.273 NA
HETATM   12  C4  UNL     1     -33.649  19.014  -1.372  1.00 20.00     0.116 A 
HETATM   13  C2  UNL     1     -33.593  17.986  -2.300  1.00 20.00     0.026 A 
ENDBRANCH   5   8
TORSDOF 1
ENDMDL
MODEL 2
REMARK VINA RESULT:      -5.2      0.113      1.309
REMARK  1 active torsions:
REMARK  status: ('A' for Active; 'I' for Inactive)
REMARK    1  A    between atoms: C5_5  and  C10_10 
ROOT
HETATM    1  C6  UNL     1     -34.520  14.004  -5.392  1.00 20.00     0.005 C 
HETATM    2  C7  UNL     1     -35.227  13.655  -4.074  1.00 20.00     0.005 C 
HETATM    3  C8  UNL     1     -33.495  16.051  -4.356  1.00 20.00     0.014 C 
HETATM    4  C9  UNL     1     -35.837  15.858  -4.687  1.00 20.00     0.010 C 
HETATM    5  C10 UNL     1     -34.113  15.623  -3.004  1.00 20.00     0.023 C 
HETATM    6  C11 UNL     1     -34.519  15.543  -5.388  1.00 20.00    -0.013 C 
HETATM    7  C12 UNL     1     -35.482  15.039  -3.440  1.00 20.00    -0.006 C 
ENDROOT
BRANCH   5   8
HETATM    8  C5  UNL     1     -34.138  16.762  -1.998  1.00 20.00    -0.051 A 
HETATM    9  C1  UNL     1     -33.644  18.014  -2.348  1.00 20.00     0.026 A 
HETATM   10  C3  UNL     1     -33.690  19.019  -1.395  1.00 20.00     0.116 A 
HETATM   11  N13 UNL     1     -34.185  18.856  -0.147  1.00 20.00    -0.273 NA
HETATM   12  C4  UNL     1     -34.656  17.627   0.157  1.00 20.00     0.116 A 
HETATM   13  C2  UNL     1     -34.656  16.556  -0.723  1.00 20.00     0.026 A 
ENDBRANCH   5   8
TORSDOF 1
ENDMDL
MODEL 3
REMARK VINA RESULT:      -5.2      0.818      2.142
REMARK  1 active torsions:
REMARK  status: ('A' for Active; 'I' for Inactive)
REMARK    1  A    between atoms: C5_5  and  C10_10 
ROOT
HETATM    1  C6  UNL     1     -34.421  14.373  -5.349  1.00 20.00     0.005 C 
HETATM    2  C7  UNL     1     -33.828  15.768  -5.594  1.00 20.00     0.005 C 
HETATM    3  C8  UNL     1     -35.004  14.983  -2.983  1.00 20.00     0.014 C 
HETATM    4  C9  UNL     1     -32.752  14.820  -3.712  1.00 20.00     0.010 C 
HETATM    5  C10 UNL     1     -34.514  16.421  -3.279  1.00 20.00     0.023 C 
HETATM    6  C11 UNL     1     -34.095  14.112  -3.868  1.00 20.00    -0.013 C 
HETATM    7  C12 UNL     1     -33.294  16.167  -4.202  1.00 20.00    -0.006 C 
ENDROOT
BRANCH   5   8
HETATM    8  C5  UNL     1     -34.264  17.216  -2.008  1.00 20.00    -0.051 A 
HETATM    9  C1  UNL     1     -33.530  18.396  -2.055  1.00 20.00     0.026 A 
HETATM   10  C3  UNL     1     -33.332  19.084  -0.869  1.00 20.00     0.116 A 
HETATM   11  N13 UNL     1     -33.807  18.678   0.331  1.00 20.00    -0.273 NA
HETATM   12  C4  UNL     1     -34.515  17.526   0.337  1.00 20.00     0.116 A 
HETATM   13  C2  UNL     1     -34.770  16.765  -0.793  1.00 20.00     0.026 A 
ENDBRANCH   5   8
TORSDOF 1
ENDMDL
MODEL 4
REMARK VINA RESULT:      -5.2      0.825      1.710
REMARK  1 active torsions:
REMARK  status: ('A' for Active; 'I' for Inactive)
REMARK    1  A    between atoms: C5_5  and  C10_10 
ROOT
HETATM    1  C6  UNL     1     -34.428  14.402  -5.355  1.00 20.00     0.005 C 
HETATM    2  C7  UNL     1     -33.825  15.796  -5.586  1.00 20.00     0.005 C 
HETATM    3  C8  UNL     1     -35.018  14.996  -2.986  1.00 20.00     0.014 C 
HETATM    4  C9  UNL     1     -32.763  14.825  -3.706  1.00 20.00     0.010 C 
HETATM    5  C10 UNL     1     -34.518  16.433  -3.268  1.00 20.00     0.023 C 
HETATM    6  C11 UNL     1     -34.110  14.126  -3.875  1.00 20.00    -0.013 C 
HETATM    7  C12 UNL     1     -33.295  16.180  -4.188  1.00 20.00    -0.006 C 
ENDROOT
BRANCH   5   8
HETATM    8  C5  UNL     1     -34.269  17.216  -1.989  1.00 20.00    -0.051 A 
HETATM    9  C1  UNL     1     -34.773  16.753  -0.778  1.00 20.00     0.026 A 
HETATM   10  C3  UNL     1     -34.517  17.502   0.359  1.00 20.00     0.116 A 
HETATM   11  N13 UNL     1     -33.810  18.655   0.363  1.00 20.00    -0.273 NA
HETATM   12  C4  UNL     1     -33.337  19.074  -0.832  1.00 20.00     0.116 A 
HETATM   13  C2  UNL     1     -33.537  18.398  -2.026  1.00 20.00     0.026 A 
ENDBRANCH   5   8
TORSDOF 1
ENDMDL
MODEL 5
REMARK VINA RESULT:      -5.1      2.129      4.834
REMARK  1 active torsions:
REMARK  status: ('A' for Active; 'I' for Inactive)
REMARK    1  A    between atoms: C5_5  and  C10_10 
ROOT
HETATM    1  C6  UNL     1     -33.995  18.289   0.490  1.00 20.00     0.005 C 
HETATM    2  C7  UNL     1     -32.985  18.747  -0.572  1.00 20.00     0.005 C 
HETATM    3  C8  UNL     1     -34.735  16.380  -0.966  1.00 20.00     0.014 C 
HETATM    4  C9  UNL     1     -35.126  18.640  -1.575  1.00 20.00     0.010 C 
HETATM    5  C10 UNL     1     -33.631  16.779  -1.975  1.00 20.00     0.023 C 
HETATM    6  C11 UNL     1     -35.155  17.728  -0.352  1.00 20.00    -0.013 C 
HETATM    7  C12 UNL     1     -33.659  18.328  -1.895  1.00 20.00    -0.006 C 
ENDROOT
BRANCH   5   8
HETATM    8  C5  UNL     1     -33.849  16.153  -3.342  1.00 20.00    -0.051 A 
HETATM    9  C1  UNL     1     -34.398  14.880  -3.448  1.00 20.00     0.026 A 
HETATM   10  C3  UNL     1     -34.578  14.355  -4.717  1.00 20.00     0.116 A 
HETATM   11  N13 UNL     1     -34.253  15.004  -5.858  1.00 20.00    -0.273 NA
HETATM   12  C4  UNL     1     -33.722  16.239  -5.716  1.00 20.00     0.116 A 
HETATM   13  C2  UNL     1     -33.502  16.853  -4.493  1.00 20.00     0.026 A 
ENDBRANCH   5   8
TORSDOF 1
ENDMDL
MODEL 6
REMARK VINA RESULT:      -5.1      2.375      4.866
REMARK  1 active torsions:
REMARK  status: ('A' for Active; 'I' for Inactive)
REMARK    1  A    between atoms: C5_5  and  C10_10 
ROOT
HETATM    1  C6  UNL     1     -35.101  19.007  -0.749  1.00 20.00     0.005 C 
HETATM    2  C7  UNL     1     -35.308  17.682   0.000  1.00 20.00     0.005 C 
HETATM    3  C8  UNL     1     -35.006  17.803  -2.952  1.00 20.00     0.014 C 
HETATM    4  C9  UNL     1     -33.335  17.507  -1.294  1.00 20.00     0.010 C 
HETATM    5  C10 UNL     1     -35.336  16.491  -2.200  1.00 20.00     0.023 C 
HETATM    6  C11 UNL     1     -34.190  18.604  -1.922  1.00 20.00    -0.013 C 
HETATM    7  C12 UNL     1     -34.546  16.666  -0.876  1.00 20.00    -0.006 C 
ENDROOT
BRANCH   5   8
HETATM    8  C5  UNL     1     -35.025  15.258  -3.032  1.00 20.00    -0.051 A 
HETATM    9  C1  UNL     1     -33.722  14.779  -3.110  1.00 20.00     0.026 A 
HETATM   10  C3  UNL     1     -33.491  13.651  -3.881  1.00 20.00     0.116 A 
HETATM   11  N13 UNL     1     -34.454  12.990  -4.562  1.00 20.00    -0.273 NA
HETATM   12  C4  UNL     1     -35.707  13.485  -4.464  1.00 20.00     0.116 A 
HETATM   13  C2  UNL     1     -36.043  14.605  -3.719  1.00 20.00     0.026 A 
ENDBRANCH   5   8
TORSDOF 1
ENDMDL
MODEL 7
REMARK VINA RESULT:      -4.9     12.905     15.379
REMARK  1 active torsions:
REMARK  status: ('A' for Active; 'I' for Inactive)
REMARK    1  A    between atoms: C5_5  and  C10_10 
ROOT
HETATM    1  C6  UNL     1     -41.213   7.067  -0.793  1.00 20.00     0.005 C 
HETATM    2  C7  UNL     1     -42.164   6.978  -1.997  1.00 20.00     0.005 C 
HETATM    3  C8  UNL     1     -40.704   4.612  -0.950  1.00 20.00     0.014 C 
HETATM    4  C9  UNL     1     -42.865   5.405  -0.373  1.00 20.00     0.010 C 
HETATM    5  C10 UNL     1     -41.568   4.559  -2.233  1.00 20.00     0.023 C 
HETATM    6  C11 UNL     1     -41.392   5.701  -0.107  1.00 20.00    -0.013 C 
HETATM    7  C12 UNL     1     -42.719   5.542  -1.893  1.00 20.00    -0.006 C 
ENDROOT
BRANCH   5   8
HETATM    8  C5  UNL     1     -41.960   3.139  -2.604  1.00 20.00    -0.051 A 
HETATM    9  C1  UNL     1     -41.176   2.406  -3.488  1.00 20.00     0.026 A 
HETATM   10  C3  UNL     1     -41.575   1.115  -3.793  1.00 20.00     0.116 A 
HETATM   11  N13 UNL     1     -42.680   0.524  -3.283  1.00 20.00    -0.273 NA
HETATM   12  C4  UNL     1     -43.417   1.267  -2.427  1.00 20.00     0.116 A 
HETATM   13  C2  UNL     1     -43.104   2.566  -2.058  1.00 20.00     0.026 A 
ENDBRANCH   5   8
TORSDOF 1
ENDMDL
MODEL 8
REMARK VINA RESULT:      -4.7      1.014      2.217
REMARK  1 active torsions:
REMARK  status: ('A' for Active; 'I' for Inactive)
REMARK    1  A    between atoms: C5_5  and  C10_10 
ROOT
HETATM    1  C6  UNL     1     -34.676  15.327  -5.243  1.00 20.00     0.005 C 
HETATM    2  C7  UNL     1     -33.313  15.959  -4.923  1.00 20.00     0.005 C 
HETATM    3  C8  UNL     1     -35.655  16.245  -3.119  1.00 20.00     0.014 C 
HETATM    4  C9  UNL     1     -33.951  14.595  -3.097  1.00 20.00     0.010 C 
HETATM    5  C10 UNL     1     -34.314  16.976  -2.868  1.00 20.00     0.023 C 
HETATM    6  C11 UNL     1     -35.225  14.962  -3.852  1.00 20.00    -0.013 C 
HETATM    7  C12 UNL     1     -33.278  15.942  -3.380  1.00 20.00    -0.006 C 
ENDROOT
BRANCH   5   8
HETATM    8  C5  UNL     1     -34.174  17.440  -1.428  1.00 20.00    -0.051 A 
HETATM    9  C1  UNL     1     -33.143  18.301  -1.068  1.00 20.00     0.026 A 
HETATM   10  C3  UNL     1     -33.060  18.695   0.257  1.00 20.00     0.116 A 
HETATM   11  N13 UNL     1     -33.918  18.293   1.222  1.00 20.00    -0.273 NA
HETATM   12  C4  UNL     1     -34.906  17.456   0.835  1.00 20.00     0.116 A 
HETATM   13  C2  UNL     1     -35.077  17.004  -0.464  1.00 20.00     0.026 A 
ENDBRANCH   5   8
TORSDOF 1
ENDMDL
MODEL 9
REMARK VINA RESULT:      -4.5      2.978      4.403
REMARK  1 active torsions:
REMARK  status: ('A' for Active; 'I' for Inactive)
REMARK    1  A    between atoms: C5_5  and  C10_10 
ROOT
HETATM    1  C6  UNL     1     -35.279  18.166  -2.629  1.00 20.00     0.005 C 
HETATM    2  C7  UNL     1     -33.747  18.209  -2.511  1.00 20.00     0.005 C 
HETATM    3  C8  UNL     1     -35.530  18.577  -0.164  1.00 20.00     0.014 C 
HETATM    4  C9  UNL     1     -34.567  16.578  -1.004  1.00 20.00     0.010 C 
HETATM    5  C10 UNL     1     -33.993  18.738  -0.078  1.00 20.00     0.023 C 
HETATM    6  C11 UNL     1     -35.713  17.544  -1.290  1.00 20.00    -0.013 C 
HETATM    7  C12 UNL     1     -33.495  17.670  -1.087  1.00 20.00    -0.006 C 
ENDROOT
BRANCH   5   8
HETATM    8  C5  UNL     1     -33.483  18.631   1.349  1.00 20.00    -0.051 A 
HETATM    9  C1  UNL     1     -34.365  18.350   2.387  1.00 20.00     0.026 A 
HETATM   10  C3  UNL     1     -33.850  18.262   3.670  1.00 20.00     0.116 A 
HETATM   11  N13 UNL     1     -32.543  18.432   3.974  1.00 20.00    -0.273 NA
HETATM   12  C4  UNL     1     -31.716  18.703   2.941  1.00 20.00     0.116 A 
HETATM   13  C2  UNL     1     -32.131  18.812   1.623  1.00 20.00     0.026 A 
ENDBRANCH   5   8
TORSDOF 1
ENDMDL
