MODEL 1
REMARK VINA RESULT:      -4.8      0.000      0.000
REMARK  1 active torsions:
REMARK  status: ('A' for Active; 'I' for Inactive)
REMARK    1  A    between atoms: C2_2  and  C7_7 
ROOT
HETATM    1  C3  UNL     1     -35.278   5.418   3.852  1.00 20.00     0.034 C 
HETATM    2  C4  UNL     1     -34.088   6.478   5.818  1.00 20.00     0.034 C 
HETATM    3  C5  UNL     1     -35.157   4.094   4.600  1.00 20.00     0.168 C 
HETATM    4  C6  UNL     1     -34.043   5.083   6.435  1.00 20.00     0.168 C 
HETATM    5  C7  UNL     1     -34.241   6.441   4.303  1.00 20.00     0.011 C 
HETATM    6  O8  UNL     1     -35.161   4.305   6.010  1.00 20.00    -0.391 OA
ENDROOT
BRANCH   5   7
HETATM    7  C2  UNL     1     -32.897   6.105   3.676  1.00 20.00    -0.032 C 
HETATM    8  C1  UNL     1     -32.129   6.991   3.034  1.00 20.00     0.007 C 
ENDBRANCH   5   7
TORSDOF 1
ENDMDL
MODEL 2
REMARK VINA RESULT:      -4.0     12.274     13.292
REMARK  1 active torsions:
REMARK  status: ('A' for Active; 'I' for Inactive)
REMARK    1  A    between atoms: C2_2  and  C7_7 
ROOT
HETATM    1  C3  UNL     1     -33.703  13.740  -3.841  1.00 20.00     0.034 C 
HETATM    2  C4  UNL     1     -33.300  16.124  -4.589  1.00 20.00     0.034 C 
HETATM    3  C5  UNL     1     -34.698  13.636  -4.993  1.00 20.00     0.168 C 
HETATM    4  C6  UNL     1     -34.323  15.863  -5.690  1.00 20.00     0.168 C 
HETATM    5  C7  UNL     1     -33.464  15.180  -3.404  1.00 20.00     0.011 C 
HETATM    6  O8  UNL     1     -34.318  14.488  -6.071  1.00 20.00    -0.391 OA
ENDROOT
BRANCH   5   7
HETATM    7  C2  UNL     1     -34.635  15.650  -2.555  1.00 20.00    -0.032 C 
HETATM    8  C1  UNL     1     -34.508  16.398  -1.454  1.00 20.00     0.007 C 
ENDBRANCH   5   7
TORSDOF 1
ENDMDL
MODEL 3
REMARK VINA RESULT:      -4.0     11.775     12.621
REMARK  1 active torsions:
REMARK  status: ('A' for Active; 'I' for Inactive)
REMARK    1  A    between atoms: C2_2  and  C7_7 
ROOT
HETATM    1  C3  UNL     1     -33.037  15.164  -3.681  1.00 20.00     0.034 C 
HETATM    2  C4  UNL     1     -35.458  15.043  -4.411  1.00 20.00     0.034 C 
HETATM    3  C5  UNL     1     -33.078  13.643  -3.585  1.00 20.00     0.168 C 
HETATM    4  C6  UNL     1     -35.338  13.530  -4.265  1.00 20.00     0.168 C 
HETATM    5  C7  UNL     1     -34.423  15.793  -3.581  1.00 20.00     0.011 C 
HETATM    6  O8  UNL     1     -34.003  13.099  -4.523  1.00 20.00    -0.391 OA
ENDROOT
BRANCH   5   7
HETATM    7  C2  UNL     1     -34.867  15.806  -2.127  1.00 20.00    -0.032 C 
HETATM    8  C1  UNL     1     -34.405  16.663  -1.211  1.00 20.00     0.007 C 
ENDBRANCH   5   7
TORSDOF 1
ENDMDL
MODEL 4
REMARK VINA RESULT:      -3.8     11.945     12.899
REMARK  1 active torsions:
REMARK  status: ('A' for Active; 'I' for Inactive)
REMARK    1  A    between atoms: C2_2  and  C7_7 
ROOT
HETATM    1  C3  UNL     1     -35.147  15.423  -2.981  1.00 20.00     0.034 C 
HETATM    2  C4  UNL     1     -33.513  13.704  -3.866  1.00 20.00     0.034 C 
HETATM    3  C5  UNL     1     -36.174  14.812  -3.929  1.00 20.00     0.168 C 
HETATM    4  C6  UNL     1     -34.648  13.209  -4.757  1.00 20.00     0.168 C 
HETATM    5  C7  UNL     1     -33.712  15.147  -3.416  1.00 20.00     0.011 C 
HETATM    6  O8  UNL     1     -35.913  13.426  -4.135  1.00 20.00    -0.391 OA
ENDROOT
BRANCH   5   7
HETATM    7  C2  UNL     1     -33.345  16.079  -4.560  1.00 20.00    -0.032 C 
HETATM    8  C1  UNL     1     -33.571  17.396  -4.554  1.00 20.00     0.007 C 
ENDBRANCH   5   7
TORSDOF 1
ENDMDL
MODEL 5
REMARK VINA RESULT:      -3.8     12.565     13.363
REMARK  1 active torsions:
REMARK  status: ('A' for Active; 'I' for Inactive)
REMARK    1  A    between atoms: C2_2  and  C7_7 
ROOT
HETATM    1  C3  UNL     1     -35.253  14.184  -4.157  1.00 20.00     0.034 C 
HETATM    2  C4  UNL     1     -33.057  15.370  -3.736  1.00 20.00     0.034 C 
HETATM    3  C5  UNL     1     -35.406  15.081  -5.381  1.00 20.00     0.168 C 
HETATM    4  C6  UNL     1     -33.357  16.189  -4.986  1.00 20.00     0.168 C 
HETATM    5  C7  UNL     1     -34.314  14.777  -3.112  1.00 20.00     0.011 C 
HETATM    6  O8  UNL     1     -34.132  15.433  -5.915  1.00 20.00    -0.391 OA
ENDROOT
BRANCH   5   7
HETATM    7  C2  UNL     1     -35.044  15.863  -2.338  1.00 20.00    -0.032 C 
HETATM    8  C1  UNL     1     -34.549  16.469  -1.254  1.00 20.00     0.007 C 
ENDBRANCH   5   7
TORSDOF 1
ENDMDL
MODEL 6
REMARK VINA RESULT:      -3.7      8.722     10.075
REMARK  1 active torsions:
REMARK  status: ('A' for Active; 'I' for Inactive)
REMARK    1  A    between atoms: C2_2  and  C7_7 
ROOT
HETATM    1  C3  UNL     1     -41.550   4.404  -1.875  1.00 20.00     0.034 C 
HETATM    2  C4  UNL     1     -40.599   6.114  -0.270  1.00 20.00     0.034 C 
HETATM    3  C5  UNL     1     -42.200   5.575  -2.605  1.00 20.00     0.168 C 
HETATM    4  C6  UNL     1     -41.314   7.171  -1.104  1.00 20.00     0.168 C 
HETATM    5  C7  UNL     1     -41.220   4.731  -0.423  1.00 20.00     0.011 C 
HETATM    6  O8  UNL     1     -41.417   6.758  -2.466  1.00 20.00    -0.391 OA
ENDROOT
BRANCH   5   7
HETATM    7  C2  UNL     1     -42.490   4.662   0.409  1.00 20.00    -0.032 C 
HETATM    8  C1  UNL     1     -43.413   3.701   0.289  1.00 20.00     0.007 C 
ENDBRANCH   5   7
TORSDOF 1
ENDMDL
MODEL 7
REMARK VINA RESULT:      -3.7     12.622     13.624
REMARK  1 active torsions:
REMARK  status: ('A' for Active; 'I' for Inactive)
REMARK    1  A    between atoms: C2_2  and  C7_7 
ROOT
HETATM    1  C3  UNL     1     -34.932  17.315  -3.655  1.00 20.00     0.034 C 
HETATM    2  C4  UNL     1     -34.257  14.944  -3.082  1.00 20.00     0.034 C 
HETATM    3  C5  UNL     1     -33.596  17.430  -4.382  1.00 20.00     0.168 C 
HETATM    4  C6  UNL     1     -32.965  15.217  -3.845  1.00 20.00     0.168 C 
HETATM    5  C7  UNL     1     -34.927  16.222  -2.592  1.00 20.00     0.011 C 
HETATM    6  O8  UNL     1     -33.184  16.163  -4.890  1.00 20.00    -0.391 OA
ENDROOT
BRANCH   5   7
HETATM    7  C2  UNL     1     -34.195  16.724  -1.358  1.00 20.00    -0.032 C 
HETATM    8  C1  UNL     1     -34.798  17.044  -0.208  1.00 20.00     0.007 C 
ENDBRANCH   5   7
TORSDOF 1
ENDMDL
MODEL 8
REMARK VINA RESULT:      -3.6      1.829      3.452
REMARK  1 active torsions:
REMARK  status: ('A' for Active; 'I' for Inactive)
REMARK    1  A    between atoms: C2_2  and  C7_7 
ROOT
HETATM    1  C3  UNL     1     -33.252   6.945   4.743  1.00 20.00     0.034 C 
HETATM    2  C4  UNL     1     -35.207   5.709   3.715  1.00 20.00     0.034 C 
HETATM    3  C5  UNL     1     -32.383   6.287   3.676  1.00 20.00     0.168 C 
HETATM    4  C6  UNL     1     -34.209   5.131   2.718  1.00 20.00     0.168 C 
HETATM    5  C7  UNL     1     -34.541   6.175   5.004  1.00 20.00     0.011 C 
HETATM    6  O8  UNL     1     -33.135   6.041   2.490  1.00 20.00    -0.391 OA
ENDROOT
BRANCH   5   7
HETATM    7  C2  UNL     1     -34.237   4.964   5.871  1.00 20.00    -0.032 C 
HETATM    8  C1  UNL     1     -35.023   3.886   5.954  1.00 20.00     0.007 C 
ENDBRANCH   5   7
TORSDOF 1
ENDMDL
MODEL 9
REMARK VINA RESULT:      -3.6     12.411     13.504
REMARK  1 active torsions:
REMARK  status: ('A' for Active; 'I' for Inactive)
REMARK    1  A    between atoms: C2_2  and  C7_7 
ROOT
HETATM    1  C3  UNL     1     -34.534  14.981  -5.869  1.00 20.00     0.034 C 
HETATM    2  C4  UNL     1     -33.451  13.868  -3.871  1.00 20.00     0.034 C 
HETATM    3  C5  UNL     1     -33.860  16.270  -5.411  1.00 20.00     0.168 C 
HETATM    4  C6  UNL     1     -32.850  15.231  -3.544  1.00 20.00     0.168 C 
HETATM    5  C7  UNL     1     -34.700  13.974  -4.737  1.00 20.00     0.011 C 
HETATM    6  O8  UNL     1     -32.637  15.990  -4.733  1.00 20.00    -0.391 OA
ENDROOT
BRANCH   5   7
HETATM    7  C2  UNL     1     -35.875  14.386  -3.865  1.00 20.00    -0.032 C 
HETATM    8  C1  UNL     1     -37.093  14.672  -4.337  1.00 20.00     0.007 C 
ENDBRANCH   5   7
TORSDOF 1
ENDMDL
