MODEL 1
REMARK VINA RESULT:      -5.6      0.000      0.000
REMARK  0 active torsions:
REMARK  status: ('A' for Active; 'I' for Inactive)
ROOT
HETATM    1  C1  UNL     1     -34.970  14.791  -6.851  1.00 20.00     0.017 A 
HETATM    2  C2  UNL     1     -34.890  16.021  -7.503  1.00 20.00     0.025 A 
HETATM    3  C3  UNL     1     -33.661  16.981  -5.629  1.00 20.00     0.032 A 
HETATM    4  C4  UNL     1     -34.389  14.695  -5.599  1.00 20.00     0.016 A 
HETATM    5  C5  UNL     1     -33.745  15.759  -4.977  1.00 20.00    -0.038 A 
HETATM    6  C6  UNL     1     -34.238  17.108  -6.896  1.00 20.00     0.034 A 
HETATM    7  C7  UNL     1     -34.323  13.541  -4.720  1.00 20.00     0.160 A 
HETATM    8  C8  UNL     1     -33.556  13.900  -3.471  1.00 20.00     0.093 A 
HETATM    9  C9  UNL     1     -33.202  15.399  -3.624  1.00 20.00     0.023 A 
HETATM   10  C10 UNL     1     -33.808  16.242  -2.507  1.00 20.00     0.015 C 
HETATM   11  O11 UNL     1     -34.810  12.455  -4.977  1.00 20.00    -0.292 OA
HETATM   12 CL12 UNL     1     -34.151  18.616  -7.724  1.00 20.00    -0.084 Cl
ENDROOT
TORSDOF 0
ENDMDL
MODEL 2
REMARK VINA RESULT:      -4.9      1.824      3.435
REMARK  0 active torsions:
REMARK  status: ('A' for Active; 'I' for Inactive)
ROOT
HETATM    1  C1  UNL     1     -34.048  15.015  -2.975  1.00 20.00     0.017 A 
HETATM    2  C2  UNL     1     -33.772  16.268  -2.428  1.00 20.00     0.025 A 
HETATM    3  C3  UNL     1     -34.559  17.371  -4.455  1.00 20.00     0.032 A 
HETATM    4  C4  UNL     1     -34.574  14.981  -4.254  1.00 20.00     0.016 A 
HETATM    5  C5  UNL     1     -34.829  16.124  -5.001  1.00 20.00    -0.038 A 
HETATM    6  C6  UNL     1     -34.028  17.438  -3.163  1.00 20.00     0.034 A 
HETATM    7  C7  UNL     1     -34.956  13.822  -5.043  1.00 20.00     0.160 A 
HETATM    8  C8  UNL     1     -35.518  14.276  -6.368  1.00 20.00     0.093 A 
HETATM    9  C9  UNL     1     -35.397  15.818  -6.358  1.00 20.00     0.023 A 
HETATM   10  C10 UNL     1     -34.510  16.325  -7.490  1.00 20.00     0.015 C 
HETATM   11  O11 UNL     1     -34.841  12.669  -4.667  1.00 20.00    -0.292 OA
HETATM   12 CL12 UNL     1     -33.681  18.973  -2.463  1.00 20.00    -0.084 Cl
ENDROOT
TORSDOF 0
ENDMDL
MODEL 3
REMARK VINA RESULT:      -4.9      3.565      5.106
REMARK  0 active torsions:
REMARK  status: ('A' for Active; 'I' for Inactive)
ROOT
HETATM    1  C1  UNL     1     -34.286  18.850  -2.508  1.00 20.00     0.017 A 
HETATM    2  C2  UNL     1     -34.718  18.795  -1.183  1.00 20.00     0.025 A 
HETATM    3  C3  UNL     1     -34.555  16.363  -1.188  1.00 20.00     0.032 A 
HETATM    4  C4  UNL     1     -34.001  17.651  -3.134  1.00 20.00     0.016 A 
HETATM    5  C5  UNL     1     -34.130  16.416  -2.508  1.00 20.00    -0.038 A 
HETATM    6  C6  UNL     1     -34.850  17.559  -0.527  1.00 20.00     0.034 A 
HETATM    7  C7  UNL     1     -33.531  17.429  -4.491  1.00 20.00     0.160 A 
HETATM    8  C8  UNL     1     -33.323  15.952  -4.719  1.00 20.00     0.093 A 
HETATM    9  C9  UNL     1     -33.762  15.268  -3.403  1.00 20.00     0.023 A 
HETATM   10  C10 UNL     1     -34.922  14.304  -3.625  1.00 20.00     0.015 C 
HETATM   11  O11 UNL     1     -33.332  18.318  -5.300  1.00 20.00    -0.292 OA
HETATM   12 CL12 UNL     1     -35.382  17.519   1.111  1.00 20.00    -0.084 Cl
ENDROOT
TORSDOF 0
ENDMDL
MODEL 4
REMARK VINA RESULT:      -4.9      2.932      4.104
REMARK  0 active torsions:
REMARK  status: ('A' for Active; 'I' for Inactive)
ROOT
HETATM    1  C1  UNL     1     -33.670  16.018  -2.287  1.00 20.00     0.017 A 
HETATM    2  C2  UNL     1     -34.196  17.206  -1.780  1.00 20.00     0.025 A 
HETATM    3  C3  UNL     1     -36.360  16.728  -2.795  1.00 20.00     0.032 A 
HETATM    4  C4  UNL     1     -34.513  15.218  -3.037  1.00 20.00     0.016 A 
HETATM    5  C5  UNL     1     -35.837  15.549  -3.304  1.00 20.00    -0.038 A 
HETATM    6  C6  UNL     1     -35.533  17.558  -2.031  1.00 20.00     0.034 A 
HETATM    7  C7  UNL     1     -34.223  13.940  -3.666  1.00 20.00     0.160 A 
HETATM    8  C8  UNL     1     -35.465  13.421  -4.349  1.00 20.00     0.093 A 
HETATM    9  C9  UNL     1     -36.537  14.517  -4.142  1.00 20.00     0.023 A 
HETATM   10  C10 UNL     1     -37.036  15.081  -5.467  1.00 20.00     0.015 C 
HETATM   11  O11 UNL     1     -33.139  13.386  -3.624  1.00 20.00    -0.292 OA
HETATM   12 CL12 UNL     1     -36.159  19.029  -1.391  1.00 20.00    -0.084 Cl
ENDROOT
TORSDOF 0
ENDMDL
MODEL 5
REMARK VINA RESULT:      -4.8      6.431      8.350
REMARK  0 active torsions:
REMARK  status: ('A' for Active; 'I' for Inactive)
ROOT
HETATM    1  C1  UNL     1     -33.224  19.153   2.474  1.00 20.00     0.017 A 
HETATM    2  C2  UNL     1     -34.191  18.947   3.457  1.00 20.00     0.025 A 
HETATM    3  C3  UNL     1     -35.537  17.622   1.916  1.00 20.00     0.032 A 
HETATM    4  C4  UNL     1     -33.448  18.582   1.233  1.00 20.00     0.016 A 
HETATM    5  C5  UNL     1     -34.578  17.830   0.935  1.00 20.00    -0.038 A 
HETATM    6  C6  UNL     1     -35.339  18.185   3.181  1.00 20.00     0.034 A 
HETATM    7  C7  UNL     1     -32.606  18.634   0.050  1.00 20.00     0.160 A 
HETATM    8  C8  UNL     1     -33.242  17.831  -1.058  1.00 20.00     0.093 A 
HETATM    9  C9  UNL     1     -34.585  17.324  -0.480  1.00 20.00     0.023 A 
HETATM   10  C10 UNL     1     -35.777  17.838  -1.279  1.00 20.00     0.015 C 
HETATM   11  O11 UNL     1     -31.546  19.231  -0.011  1.00 20.00    -0.292 OA
HETATM   12 CL12 UNL     1     -36.516  17.944   4.415  1.00 20.00    -0.084 Cl
ENDROOT
TORSDOF 0
ENDMDL
MODEL 6
REMARK VINA RESULT:      -4.7      2.705      3.502
REMARK  0 active torsions:
REMARK  status: ('A' for Active; 'I' for Inactive)
ROOT
HETATM    1  C1  UNL     1     -36.443  16.774  -2.830  1.00 20.00     0.017 A 
HETATM    2  C2  UNL     1     -35.644  17.868  -2.499  1.00 20.00     0.025 A 
HETATM    3  C3  UNL     1     -33.669  16.744  -3.383  1.00 20.00     0.032 A 
HETATM    4  C4  UNL     1     -35.825  15.693  -3.432  1.00 20.00     0.016 A 
HETATM    5  C5  UNL     1     -34.463  15.654  -3.709  1.00 20.00    -0.038 A 
HETATM    6  C6  UNL     1     -34.266  17.853  -2.775  1.00 20.00     0.034 A 
HETATM    7  C7  UNL     1     -36.420  14.446  -3.881  1.00 20.00     0.160 A 
HETATM    8  C8  UNL     1     -35.359  13.578  -4.512  1.00 20.00     0.093 A 
HETATM    9  C9  UNL     1     -34.038  14.369  -4.361  1.00 20.00     0.023 A 
HETATM   10  C10 UNL     1     -33.010  13.605  -3.534  1.00 20.00     0.015 C 
HETATM   11  O11 UNL     1     -37.601  14.171  -3.767  1.00 20.00    -0.292 OA
HETATM   12 CL12 UNL     1     -33.302  19.218  -2.358  1.00 20.00    -0.084 Cl
ENDROOT
TORSDOF 0
ENDMDL
MODEL 7
REMARK VINA RESULT:      -4.7      1.854      2.197
REMARK  0 active torsions:
REMARK  status: ('A' for Active; 'I' for Inactive)
ROOT
HETATM    1  C1  UNL     1     -36.578  16.762  -4.975  1.00 20.00     0.017 A 
HETATM    2  C2  UNL     1     -35.853  17.813  -5.536  1.00 20.00     0.025 A 
HETATM    3  C3  UNL     1     -33.836  16.445  -5.594  1.00 20.00     0.032 A 
HETATM    4  C4  UNL     1     -35.903  15.578  -4.740  1.00 20.00     0.016 A 
HETATM    5  C5  UNL     1     -34.555  15.401  -5.031  1.00 20.00    -0.038 A 
HETATM    6  C6  UNL     1     -34.492  17.654  -5.845  1.00 20.00     0.034 A 
HETATM    7  C7  UNL     1     -36.418  14.340  -4.178  1.00 20.00     0.160 A 
HETATM    8  C8  UNL     1     -35.320  13.306  -4.145  1.00 20.00     0.093 A 
HETATM    9  C9  UNL     1     -34.059  14.027  -4.679  1.00 20.00     0.023 A 
HETATM   10  C10 UNL     1     -32.941  14.056  -3.643  1.00 20.00     0.015 C 
HETATM   11  O11 UNL     1     -37.568  14.182  -3.809  1.00 20.00    -0.292 OA
HETATM   12 CL12 UNL     1     -33.620  18.967  -6.540  1.00 20.00    -0.084 Cl
ENDROOT
TORSDOF 0
ENDMDL
MODEL 8
REMARK VINA RESULT:      -4.7      2.743      3.968
REMARK  0 active torsions:
REMARK  status: ('A' for Active; 'I' for Inactive)
ROOT
HETATM    1  C1  UNL     1     -34.019  18.061  -4.639  1.00 20.00     0.017 A 
HETATM    2  C2  UNL     1     -33.843  18.311  -3.279  1.00 20.00     0.025 A 
HETATM    3  C3  UNL     1     -33.927  15.925  -2.787  1.00 20.00     0.032 A 
HETATM    4  C4  UNL     1     -34.144  16.741  -5.032  1.00 20.00     0.016 A 
HETATM    5  C5  UNL     1     -34.107  15.676  -4.140  1.00 20.00    -0.038 A 
HETATM    6  C6  UNL     1     -33.796  17.250  -2.359  1.00 20.00     0.034 A 
HETATM    7  C7  UNL     1     -34.325  16.211  -6.373  1.00 20.00     0.160 A 
HETATM    8  C8  UNL     1     -34.374  14.704  -6.318  1.00 20.00     0.093 A 
HETATM    9  C9  UNL     1     -34.268  14.344  -4.817  1.00 20.00     0.023 A 
HETATM   10  C10 UNL     1     -35.496  13.584  -4.327  1.00 20.00     0.015 C 
HETATM   11  O11 UNL     1     -34.410  16.897  -7.375  1.00 20.00    -0.292 OA
HETATM   12 CL12 UNL     1     -33.575  17.586  -0.684  1.00 20.00    -0.084 Cl
ENDROOT
TORSDOF 0
ENDMDL
MODEL 9
REMARK VINA RESULT:      -4.6     12.156     13.650
REMARK  0 active torsions:
REMARK  status: ('A' for Active; 'I' for Inactive)
ROOT
HETATM    1  C1  UNL     1     -34.218   5.230   2.863  1.00 20.00     0.017 A 
HETATM    2  C2  UNL     1     -33.442   6.117   2.117  1.00 20.00     0.025 A 
HETATM    3  C3  UNL     1     -32.626   7.180   4.154  1.00 20.00     0.032 A 
HETATM    4  C4  UNL     1     -34.174   5.349   4.240  1.00 20.00     0.016 A 
HETATM    5  C5  UNL     1     -33.403   6.302   4.896  1.00 20.00    -0.038 A 
HETATM    6  C6  UNL     1     -32.650   7.084   2.759  1.00 20.00     0.034 A 
HETATM    7  C7  UNL     1     -34.870   4.556   5.238  1.00 20.00     0.160 A 
HETATM    8  C8  UNL     1     -34.483   5.027   6.618  1.00 20.00     0.093 A 
HETATM    9  C9  UNL     1     -33.530   6.225   6.391  1.00 20.00     0.023 A 
HETATM   10  C10 UNL     1     -34.079   7.511   6.998  1.00 20.00     0.015 C 
HETATM   11  O11 UNL     1     -35.636   3.645   4.977  1.00 20.00    -0.292 OA
HETATM   12 CL12 UNL     1     -31.697   8.165   1.814  1.00 20.00    -0.084 Cl
ENDROOT
TORSDOF 0
ENDMDL
