MODEL 1
REMARK VINA RESULT:      -4.2      0.000      0.000
REMARK  2 active torsions:
REMARK  status: ('A' for Active; 'I' for Inactive)
REMARK    1  A    between atoms: C5_5  and  C6_6 
REMARK    2  A    between atoms: C6_6  and  C7_7 
ROOT
HETATM    1  C1  UNL     1     -34.455  13.662  -4.376  1.00 20.00     0.068 C 
HETATM    2  C3  UNL     1     -33.980  15.958  -5.128  1.00 20.00     0.031 C 
HETATM    3  C4  UNL     1     -32.427  14.776  -3.565  1.00 20.00     0.031 C 
HETATM    4  C7  UNL     1     -33.906  14.971  -3.953  1.00 20.00     0.042 C 
HETATM    5  N8  UNL     1     -34.885  12.635  -4.707  1.00 20.00    -0.196 NA
ENDROOT
BRANCH   4   6
HETATM    6  C6  UNL     1     -34.673  15.498  -2.712  1.00 20.00     0.023 C 
BRANCH   6   7
HETATM    7  C5  UNL     1     -33.958  16.598  -1.915  1.00 20.00    -0.003 C 
HETATM    8  C2  UNL     1     -34.628  16.825  -0.568  1.00 20.00     0.005 C 
ENDBRANCH   6   7
ENDBRANCH   4   6
TORSDOF 2
ENDMDL
MODEL 2
REMARK VINA RESULT:      -4.1     11.697     12.360
REMARK  2 active torsions:
REMARK  status: ('A' for Active; 'I' for Inactive)
REMARK    1  A    between atoms: C5_5  and  C6_6 
REMARK    2  A    between atoms: C6_6  and  C7_7 
ROOT
HETATM    1  C1  UNL     1     -34.230   6.152   5.545  1.00 20.00     0.068 C 
HETATM    2  C3  UNL     1     -35.921   5.909   3.773  1.00 20.00     0.031 C 
HETATM    3  C4  UNL     1     -34.732   3.910   4.690  1.00 20.00     0.031 C 
HETATM    4  C7  UNL     1     -34.579   5.398   4.319  1.00 20.00     0.042 C 
HETATM    5  N8  UNL     1     -33.956   6.742   6.508  1.00 20.00    -0.196 NA
ENDROOT
BRANCH   4   6
HETATM    6  C6  UNL     1     -33.445   5.528   3.270  1.00 20.00     0.023 C 
BRANCH   6   7
HETATM    7  C5  UNL     1     -32.366   6.571   3.593  1.00 20.00    -0.003 C 
HETATM    8  C2  UNL     1     -32.253   7.607   2.483  1.00 20.00     0.005 C 
ENDBRANCH   6   7
ENDBRANCH   4   6
TORSDOF 2
ENDMDL
MODEL 3
REMARK VINA RESULT:      -3.9      1.682      1.988
REMARK  2 active torsions:
REMARK  status: ('A' for Active; 'I' for Inactive)
REMARK    1  A    between atoms: C5_5  and  C6_6 
REMARK    2  A    between atoms: C6_6  and  C7_7 
ROOT
HETATM    1  C1  UNL     1     -36.675  14.454  -3.977  1.00 20.00     0.068 C 
HETATM    2  C3  UNL     1     -35.030  15.580  -5.422  1.00 20.00     0.031 C 
HETATM    3  C4  UNL     1     -34.631  13.253  -4.600  1.00 20.00     0.031 C 
HETATM    4  C7  UNL     1     -35.227  14.626  -4.233  1.00 20.00     0.042 C 
HETATM    5  N8  UNL     1     -37.811  14.318  -3.776  1.00 20.00    -0.196 NA
ENDROOT
BRANCH   4   6
HETATM    6  C6  UNL     1     -34.515  15.145  -2.957  1.00 20.00     0.023 C 
BRANCH   6   7
HETATM    7  C5  UNL     1     -35.203  16.323  -2.254  1.00 20.00    -0.003 C 
HETATM    8  C2  UNL     1     -34.561  16.608  -0.903  1.00 20.00     0.005 C 
ENDBRANCH   6   7
ENDBRANCH   4   6
TORSDOF 2
ENDMDL
MODEL 4
REMARK VINA RESULT:      -3.8      1.274      2.245
REMARK  2 active torsions:
REMARK  status: ('A' for Active; 'I' for Inactive)
REMARK    1  A    between atoms: C5_5  and  C6_6 
REMARK    2  A    between atoms: C6_6  and  C7_7 
ROOT
HETATM    1  C1  UNL     1     -34.773  13.762  -5.082  1.00 20.00     0.068 C 
HETATM    2  C3  UNL     1     -36.055  15.832  -5.445  1.00 20.00     0.031 C 
HETATM    3  C4  UNL     1     -34.380  15.052  -7.129  1.00 20.00     0.031 C 
HETATM    4  C7  UNL     1     -34.696  15.138  -5.623  1.00 20.00     0.042 C 
HETATM    5  N8  UNL     1     -34.834  12.682  -4.659  1.00 20.00    -0.196 NA
ENDROOT
BRANCH   4   6
HETATM    6  C6  UNL     1     -33.555  15.924  -4.927  1.00 20.00     0.023 C 
BRANCH   6   7
HETATM    7  C5  UNL     1     -33.192  15.443  -3.515  1.00 20.00    -0.003 C 
HETATM    8  C2  UNL     1     -33.845  16.315  -2.452  1.00 20.00     0.005 C 
ENDBRANCH   6   7
ENDBRANCH   4   6
TORSDOF 2
ENDMDL
MODEL 5
REMARK VINA RESULT:      -3.8      1.447      2.123
REMARK  2 active torsions:
REMARK  status: ('A' for Active; 'I' for Inactive)
REMARK    1  A    between atoms: C5_5  and  C6_6 
REMARK    2  A    between atoms: C6_6  and  C7_7 
ROOT
HETATM    1  C1  UNL     1     -34.166  15.324  -5.256  1.00 20.00     0.068 C 
HETATM    2  C3  UNL     1     -32.912  14.053  -3.560  1.00 20.00     0.031 C 
HETATM    3  C4  UNL     1     -35.146  13.263  -4.359  1.00 20.00     0.031 C 
HETATM    4  C7  UNL     1     -34.303  14.510  -4.026  1.00 20.00     0.042 C 
HETATM    5  N8  UNL     1     -34.059  15.961  -6.221  1.00 20.00    -0.196 NA
ENDROOT
BRANCH   4   6
HETATM    6  C6  UNL     1     -35.039  15.320  -2.927  1.00 20.00     0.023 C 
BRANCH   6   7
HETATM    7  C5  UNL     1     -34.162  16.301  -2.136  1.00 20.00    -0.003 C 
HETATM    8  C2  UNL     1     -34.792  16.639  -0.792  1.00 20.00     0.005 C 
ENDBRANCH   6   7
ENDBRANCH   4   6
TORSDOF 2
ENDMDL
MODEL 6
REMARK VINA RESULT:      -3.7      2.021      3.807
REMARK  2 active torsions:
REMARK  status: ('A' for Active; 'I' for Inactive)
REMARK    1  A    between atoms: C5_5  and  C6_6 
REMARK    2  A    between atoms: C6_6  and  C7_7 
ROOT
HETATM    1  C1  UNL     1     -36.583  14.580  -3.871  1.00 20.00     0.068 C 
HETATM    2  C3  UNL     1     -34.363  13.519  -3.975  1.00 20.00     0.031 C 
HETATM    3  C4  UNL     1     -34.701  15.662  -2.732  1.00 20.00     0.031 C 
HETATM    4  C7  UNL     1     -35.130  14.851  -3.970  1.00 20.00     0.042 C 
HETATM    5  N8  UNL     1     -37.722  14.368  -3.792  1.00 20.00    -0.196 NA
ENDROOT
BRANCH   4   6
HETATM    6  C6  UNL     1     -34.827  15.692  -5.237  1.00 20.00     0.023 C 
BRANCH   6   7
HETATM    7  C5  UNL     1     -34.419  14.888  -6.478  1.00 20.00    -0.003 C 
HETATM    8  C2  UNL     1     -35.596  14.702  -7.425  1.00 20.00     0.005 C 
ENDBRANCH   6   7
ENDBRANCH   4   6
TORSDOF 2
ENDMDL
MODEL 7
REMARK VINA RESULT:      -3.7     11.612     12.285
REMARK  2 active torsions:
REMARK  status: ('A' for Active; 'I' for Inactive)
REMARK    1  A    between atoms: C5_5  and  C6_6 
REMARK    2  A    between atoms: C6_6  and  C7_7 
ROOT
HETATM    1  C1  UNL     1     -34.724   4.330   4.785  1.00 20.00     0.068 C 
HETATM    2  C3  UNL     1     -34.163   6.656   5.366  1.00 20.00     0.031 C 
HETATM    3  C4  UNL     1     -35.849   6.151   3.589  1.00 20.00     0.031 C 
HETATM    4  C7  UNL     1     -34.525   5.688   4.229  1.00 20.00     0.042 C 
HETATM    5  N8  UNL     1     -34.882   3.265   5.222  1.00 20.00    -0.196 NA
ENDROOT
BRANCH   4   6
HETATM    6  C6  UNL     1     -33.432   5.661   3.129  1.00 20.00     0.023 C 
BRANCH   6   7
HETATM    7  C5  UNL     1     -32.211   6.553   3.393  1.00 20.00    -0.003 C 
HETATM    8  C2  UNL     1     -32.167   7.726   2.424  1.00 20.00     0.005 C 
ENDBRANCH   6   7
ENDBRANCH   4   6
TORSDOF 2
ENDMDL
MODEL 8
REMARK VINA RESULT:      -3.6      1.929      3.120
REMARK  2 active torsions:
REMARK  status: ('A' for Active; 'I' for Inactive)
REMARK    1  A    between atoms: C5_5  and  C6_6 
REMARK    2  A    between atoms: C6_6  and  C7_7 
ROOT
HETATM    1  C1  UNL     1     -36.629  14.502  -3.919  1.00 20.00     0.068 C 
HETATM    2  C3  UNL     1     -34.466  13.381  -4.273  1.00 20.00     0.031 C 
HETATM    3  C4  UNL     1     -34.639  15.392  -2.797  1.00 20.00     0.031 C 
HETATM    4  C7  UNL     1     -35.175  14.731  -4.082  1.00 20.00     0.042 C 
HETATM    5  N8  UNL     1     -37.769  14.323  -3.790  1.00 20.00    -0.196 NA
ENDROOT
BRANCH   4   6
HETATM    6  C6  UNL     1     -34.914  15.689  -5.272  1.00 20.00     0.023 C 
BRANCH   6   7
HETATM    7  C5  UNL     1     -33.515  16.321  -5.313  1.00 20.00    -0.003 C 
HETATM    8  C2  UNL     1     -33.598  17.826  -5.524  1.00 20.00     0.005 C 
ENDBRANCH   6   7
ENDBRANCH   4   6
TORSDOF 2
ENDMDL
MODEL 9
REMARK VINA RESULT:      -3.5     11.766     12.446
REMARK  2 active torsions:
REMARK  status: ('A' for Active; 'I' for Inactive)
REMARK    1  A    between atoms: C5_5  and  C6_6 
REMARK    2  A    between atoms: C6_6  and  C7_7 
ROOT
HETATM    1  C1  UNL     1     -35.462   5.634   4.099  1.00 20.00     0.068 C 
HETATM    2  C3  UNL     1     -34.476   3.968   5.620  1.00 20.00     0.031 C 
HETATM    3  C4  UNL     1     -34.280   6.414   6.100  1.00 20.00     0.031 C 
HETATM    4  C7  UNL     1     -34.305   5.355   4.981  1.00 20.00     0.042 C 
HETATM    5  N8  UNL     1     -36.369   5.853   3.408  1.00 20.00    -0.196 NA
ENDROOT
BRANCH   4   6
HETATM    6  C6  UNL     1     -32.983   5.458   4.179  1.00 20.00     0.023 C 
BRANCH   6   7
HETATM    7  C5  UNL     1     -32.940   6.570   3.121  1.00 20.00    -0.003 C 
HETATM    8  C2  UNL     1     -31.725   7.466   3.313  1.00 20.00     0.005 C 
ENDBRANCH   6   7
ENDBRANCH   4   6
TORSDOF 2
ENDMDL
