MODEL 1
REMARK VINA RESULT:      -4.1      0.000      0.000
REMARK  3 active torsions:
REMARK  status: ('A' for Active; 'I' for Inactive)
REMARK    1  A    between atoms: C1_1  and  C2_2 
REMARK    2  A    between atoms: C1_1  and  O10_10 
REMARK    3  A    between atoms: C3_3  and  C7_7 
ROOT
HETATM    1  C2  UNL     1     -33.664  14.769  -3.777  1.00 20.00     0.256 A 
HETATM    2  C3  UNL     1     -34.381  15.930  -3.116  1.00 20.00     0.093 A 
HETATM    3  C4  UNL     1     -35.849  16.146  -3.312  1.00 20.00     0.049 C 
HETATM    4  O9  UNL     1     -33.608  16.102  -4.312  1.00 20.00    -0.359 OA
ENDROOT
BRANCH   1   5
HETATM    5  C1  UNL     1     -34.366  13.822  -4.643  1.00 20.00     0.290 C 
HETATM    6  O8  UNL     1     -34.914  12.803  -4.243  1.00 20.00    -0.262 OA
BRANCH   5   7
HETATM    7  O10 UNL     1     -34.306  14.254  -5.934  1.00 20.00    -0.324 OA
HETATM    8  C6  UNL     1     -35.565  14.365  -6.605  1.00 20.00     0.213 C 
ENDBRANCH   5   7
ENDBRANCH   1   5
BRANCH   2   9
HETATM    9  C7  UNL     1     -33.768  16.559  -1.905  1.00 20.00     0.036 C 
HETATM   10  C5  UNL     1     -34.731  16.663  -0.753  1.00 20.00     0.008 C 
ENDBRANCH   2   9
TORSDOF 3
ENDMDL
MODEL 2
REMARK VINA RESULT:      -3.8      1.900      2.819
REMARK  3 active torsions:
REMARK  status: ('A' for Active; 'I' for Inactive)
REMARK    1  A    between atoms: C1_1  and  C2_2 
REMARK    2  A    between atoms: C1_1  and  O10_10 
REMARK    3  A    between atoms: C3_3  and  C7_7 
ROOT
HETATM    1  C2  UNL     1     -34.724  14.884  -3.779  1.00 20.00     0.256 A 
HETATM    2  C3  UNL     1     -34.054  15.714  -4.856  1.00 20.00     0.093 A 
HETATM    3  C4  UNL     1     -34.184  15.355  -6.304  1.00 20.00     0.049 C 
HETATM    4  O9  UNL     1     -33.325  14.751  -4.085  1.00 20.00    -0.359 OA
ENDROOT
BRANCH   1   5
HETATM    5  C1  UNL     1     -35.507  13.691  -4.101  1.00 20.00     0.290 C 
HETATM    6  O8  UNL     1     -35.018  12.617  -4.426  1.00 20.00    -0.262 OA
BRANCH   5   7
HETATM    7  O10 UNL     1     -36.835  13.973  -3.982  1.00 20.00    -0.324 OA
HETATM    8  C6  UNL     1     -37.144  15.257  -3.429  1.00 20.00     0.213 C 
ENDBRANCH   5   7
ENDBRANCH   1   5
BRANCH   2   9
HETATM    9  C7  UNL     1     -33.691  17.133  -4.550  1.00 20.00     0.036 C 
HETATM   10  C5  UNL     1     -33.669  18.006  -5.776  1.00 20.00     0.008 C 
ENDBRANCH   2   9
TORSDOF 3
ENDMDL
MODEL 3
REMARK VINA RESULT:      -3.8     10.910     11.794
REMARK  3 active torsions:
REMARK  status: ('A' for Active; 'I' for Inactive)
REMARK    1  A    between atoms: C1_1  and  C2_2 
REMARK    2  A    between atoms: C1_1  and  O10_10 
REMARK    3  A    between atoms: C3_3  and  C7_7 
ROOT
HETATM    1  C2  UNL     1     -33.046   6.479   3.033  1.00 20.00     0.256 A 
HETATM    2  C3  UNL     1     -33.807   6.043   4.270  1.00 20.00     0.093 A 
HETATM    3  C4  UNL     1     -33.670   6.784   5.563  1.00 20.00     0.049 C 
HETATM    4  O9  UNL     1     -32.605   5.383   3.853  1.00 20.00    -0.359 OA
ENDROOT
BRANCH   1   5
HETATM    5  C1  UNL     1     -32.135   7.624   3.051  1.00 20.00     0.290 C 
HETATM    6  O8  UNL     1     -31.117   7.679   3.727  1.00 20.00    -0.262 OA
BRANCH   5   7
HETATM    7  O10 UNL     1     -32.603   8.591   2.212  1.00 20.00    -0.324 OA
HETATM    8  C6  UNL     1     -31.868   8.758   0.996  1.00 20.00     0.213 C 
ENDBRANCH   5   7
ENDBRANCH   1   5
BRANCH   2   9
HETATM    9  C7  UNL     1     -35.041   5.215   4.101  1.00 20.00     0.036 C 
HETATM   10  C5  UNL     1     -35.171   4.143   5.150  1.00 20.00     0.008 C 
ENDBRANCH   2   9
TORSDOF 3
ENDMDL
MODEL 4
REMARK VINA RESULT:      -3.8      1.185      1.634
REMARK  3 active torsions:
REMARK  status: ('A' for Active; 'I' for Inactive)
REMARK    1  A    between atoms: C1_1  and  C2_2 
REMARK    2  A    between atoms: C1_1  and  O10_10 
REMARK    3  A    between atoms: C3_3  and  C7_7 
ROOT
HETATM    1  C2  UNL     1     -35.044  14.902  -4.220  1.00 20.00     0.256 A 
HETATM    2  C3  UNL     1     -33.839  15.456  -3.487  1.00 20.00     0.093 A 
HETATM    3  C4  UNL     1     -32.485  14.836  -3.644  1.00 20.00     0.049 C 
HETATM    4  O9  UNL     1     -34.791  14.605  -2.836  1.00 20.00    -0.359 OA
ENDROOT
BRANCH   1   5
HETATM    5  C1  UNL     1     -34.945  13.734  -5.096  1.00 20.00     0.290 C 
HETATM    6  O8  UNL     1     -34.871  12.581  -4.693  1.00 20.00    -0.262 OA
BRANCH   5   7
HETATM    7  O10 UNL     1     -34.948  14.139  -6.397  1.00 20.00    -0.324 OA
HETATM    8  C6  UNL     1     -35.974  15.074  -6.748  1.00 20.00     0.213 C 
ENDBRANCH   5   7
ENDBRANCH   1   5
BRANCH   2   9
HETATM    9  C7  UNL     1     -33.873  16.874  -3.013  1.00 20.00     0.036 C 
HETATM   10  C5  UNL     1     -33.830  16.988  -1.512  1.00 20.00     0.008 C 
ENDBRANCH   2   9
TORSDOF 3
ENDMDL
MODEL 5
REMARK VINA RESULT:      -3.5      1.522      1.684
REMARK  3 active torsions:
REMARK  status: ('A' for Active; 'I' for Inactive)
REMARK    1  A    between atoms: C1_1  and  C2_2 
REMARK    2  A    between atoms: C1_1  and  O10_10 
REMARK    3  A    between atoms: C3_3  and  C7_7 
ROOT
HETATM    1  C2  UNL     1     -35.242  15.078  -3.100  1.00 20.00     0.256 A 
HETATM    2  C3  UNL     1     -35.313  16.384  -2.333  1.00 20.00     0.093 A 
HETATM    3  C4  UNL     1     -36.434  17.351  -2.555  1.00 20.00     0.049 C 
HETATM    4  O9  UNL     1     -34.456  16.223  -3.471  1.00 20.00    -0.359 OA
ENDROOT
BRANCH   1   5
HETATM    5  C1  UNL     1     -36.249  14.713  -4.097  1.00 20.00     0.290 C 
HETATM    6  O8  UNL     1     -37.296  14.136  -3.834  1.00 20.00    -0.262 OA
BRANCH   5   7
HETATM    7  O10 UNL     1     -35.832  15.112  -5.332  1.00 20.00    -0.324 OA
HETATM    8  C6  UNL     1     -35.170  14.110  -6.111  1.00 20.00     0.213 C 
ENDBRANCH   5   7
ENDBRANCH   1   5
BRANCH   2   9
HETATM    9  C7  UNL     1     -34.579  16.498  -1.035  1.00 20.00     0.036 C 
HETATM   10  C5  UNL     1     -33.659  17.688  -0.988  1.00 20.00     0.008 C 
ENDBRANCH   2   9
TORSDOF 3
ENDMDL
MODEL 6
REMARK VINA RESULT:      -3.5      1.785      2.257
REMARK  3 active torsions:
REMARK  status: ('A' for Active; 'I' for Inactive)
REMARK    1  A    between atoms: C1_1  and  C2_2 
REMARK    2  A    between atoms: C1_1  and  O10_10 
REMARK    3  A    between atoms: C3_3  and  C7_7 
ROOT
HETATM    1  C2  UNL     1     -35.290  14.878  -3.114  1.00 20.00     0.256 A 
HETATM    2  C3  UNL     1     -35.191  16.268  -2.517  1.00 20.00     0.093 A 
HETATM    3  C4  UNL     1     -36.037  17.392  -3.029  1.00 20.00     0.049 C 
HETATM    4  O9  UNL     1     -34.234  15.786  -3.470  1.00 20.00    -0.359 OA
ENDROOT
BRANCH   1   5
HETATM    5  C1  UNL     1     -36.198  14.576  -4.221  1.00 20.00     0.290 C 
HETATM    6  O8  UNL     1     -35.935  14.783  -5.398  1.00 20.00    -0.262 OA
BRANCH   5   7
HETATM    7  O10 UNL     1     -37.353  14.044  -3.730  1.00 20.00    -0.324 OA
HETATM    8  C6  UNL     1     -38.536  14.813  -3.973  1.00 20.00     0.213 C 
ENDBRANCH   5   7
ENDBRANCH   1   5
BRANCH   2   9
HETATM    9  C7  UNL     1     -34.643  16.420  -1.134  1.00 20.00     0.036 C 
HETATM   10  C5  UNL     1     -33.754  17.626  -0.989  1.00 20.00     0.008 C 
ENDBRANCH   2   9
TORSDOF 3
ENDMDL
MODEL 7
REMARK VINA RESULT:      -3.5     11.293     12.104
REMARK  3 active torsions:
REMARK  status: ('A' for Active; 'I' for Inactive)
REMARK    1  A    between atoms: C1_1  and  C2_2 
REMARK    2  A    between atoms: C1_1  and  O10_10 
REMARK    3  A    between atoms: C3_3  and  C7_7 
ROOT
HETATM    1  C2  UNL     1     -32.919   6.547   4.416  1.00 20.00     0.256 A 
HETATM    2  C3  UNL     1     -34.254   5.898   4.723  1.00 20.00     0.093 A 
HETATM    3  C4  UNL     1     -35.122   5.359   3.630  1.00 20.00     0.049 C 
HETATM    4  O9  UNL     1     -34.099   7.323   4.688  1.00 20.00    -0.359 OA
ENDROOT
BRANCH   1   5
HETATM    5  C1  UNL     1     -32.429   6.692   3.045  1.00 20.00     0.290 C 
HETATM    6  O8  UNL     1     -31.967   5.773   2.382  1.00 20.00    -0.262 OA
BRANCH   5   7
HETATM    7  O10 UNL     1     -32.570   7.987   2.645  1.00 20.00    -0.324 OA
HETATM    8  C6  UNL     1     -31.845   8.349   1.465  1.00 20.00     0.213 C 
ENDBRANCH   5   7
ENDBRANCH   1   5
BRANCH   2   9
HETATM    9  C7  UNL     1     -34.489   5.349   6.095  1.00 20.00     0.036 C 
HETATM   10  C5  UNL     1     -35.140   3.992   6.077  1.00 20.00     0.008 C 
ENDBRANCH   2   9
TORSDOF 3
ENDMDL
MODEL 8
REMARK VINA RESULT:      -3.5      1.549      4.178
REMARK  3 active torsions:
REMARK  status: ('A' for Active; 'I' for Inactive)
REMARK    1  A    between atoms: C1_1  and  C2_2 
REMARK    2  A    between atoms: C1_1  and  O10_10 
REMARK    3  A    between atoms: C3_3  and  C7_7 
ROOT
HETATM    1  C2  UNL     1     -34.728  16.054  -4.522  1.00 20.00     0.256 A 
HETATM    2  C3  UNL     1     -34.396  14.915  -5.465  1.00 20.00     0.093 A 
HETATM    3  C4  UNL     1     -34.638  13.491  -5.072  1.00 20.00     0.049 C 
HETATM    4  O9  UNL     1     -33.385  15.565  -4.684  1.00 20.00    -0.359 OA
ENDROOT
BRANCH   1   5
HETATM    5  C1  UNL     1     -35.279  15.816  -3.188  1.00 20.00     0.290 C 
HETATM    6  O8  UNL     1     -36.462  15.602  -2.964  1.00 20.00    -0.262 OA
BRANCH   5   7
HETATM    7  O10 UNL     1     -34.277  15.875  -2.265  1.00 20.00    -0.324 OA
HETATM    8  C6  UNL     1     -34.596  16.573  -1.056  1.00 20.00     0.213 C 
ENDBRANCH   5   7
ENDBRANCH   1   5
BRANCH   2   9
HETATM    9  C7  UNL     1     -34.302  15.197  -6.931  1.00 20.00     0.036 C 
HETATM   10  C5  UNL     1     -35.383  14.515  -7.726  1.00 20.00     0.008 C 
ENDBRANCH   2   9
TORSDOF 3
ENDMDL
MODEL 9
REMARK VINA RESULT:      -3.5      1.242      1.829
REMARK  3 active torsions:
REMARK  status: ('A' for Active; 'I' for Inactive)
REMARK    1  A    between atoms: C1_1  and  C2_2 
REMARK    2  A    between atoms: C1_1  and  O10_10 
REMARK    3  A    between atoms: C3_3  and  C7_7 
ROOT
HETATM    1  C2  UNL     1     -33.473  15.804  -3.002  1.00 20.00     0.256 A 
HETATM    2  C3  UNL     1     -34.669  16.410  -2.294  1.00 20.00     0.093 A 
HETATM    3  C4  UNL     1     -36.024  16.416  -2.930  1.00 20.00     0.049 C 
HETATM    4  O9  UNL     1     -33.706  17.223  -2.977  1.00 20.00    -0.359 OA
ENDROOT
BRANCH   1   5
HETATM    5  C1  UNL     1     -33.584  15.218  -4.338  1.00 20.00     0.290 C 
HETATM    6  O8  UNL     1     -33.610  15.871  -5.372  1.00 20.00    -0.262 OA
BRANCH   5   7
HETATM    7  O10 UNL     1     -33.652  13.860  -4.234  1.00 20.00    -0.324 OA
HETATM    8  C6  UNL     1     -34.804  13.256  -4.833  1.00 20.00     0.213 C 
ENDBRANCH   5   7
ENDBRANCH   1   5
BRANCH   2   9
HETATM    9  C7  UNL     1     -34.629  16.550  -0.805  1.00 20.00     0.036 C 
HETATM   10  C5  UNL     1     -34.144  17.903  -0.359  1.00 20.00     0.008 C 
ENDBRANCH   2   9
TORSDOF 3
ENDMDL
