MODEL 1
REMARK VINA RESULT:      -5.1      0.000      0.000
REMARK  4 active torsions:
REMARK  status: ('A' for Active; 'I' for Inactive)
REMARK    1  A    between atoms: C2_2  and  C7_7 
REMARK    2  A    between atoms: C5_5  and  C6_6 
REMARK    3  A    between atoms: C6_6  and  C7_7 
REMARK    4  A    between atoms: C7_7  and  O8_8 
ROOT
HETATM    1  C7  UNL     1     -34.358   6.186   4.085  1.00 20.00     0.146 C 
ENDROOT
BRANCH   1   2
HETATM    2  C2  UNL     1     -34.337   5.747   5.533  1.00 20.00    -0.065 C 
HETATM    3  C1  UNL     1     -33.938   6.582   6.506  1.00 20.00     0.016 C 
HETATM    4  C3  UNL     1     -34.766   4.341   5.851  1.00 20.00     0.045 C 
ENDBRANCH   1   2
BRANCH   1   5
HETATM    5  C6  UNL     1     -33.048   5.933   3.320  1.00 20.00     0.036 C 
BRANCH   5   6
HETATM    6  C5  UNL     1     -32.018   7.063   3.387  1.00 20.00    -0.002 C 
HETATM    7  C4  UNL     1     -32.093   8.019   2.207  1.00 20.00     0.005 C 
ENDBRANCH   5   6
ENDBRANCH   1   5
BRANCH   1   8
HETATM    8  O8  UNL     1     -35.409   5.479   3.419  1.00 20.00    -0.391 OA
HETATM    9  H22 UNL     1     -36.161   6.088   3.379  1.00 20.00     0.210 HD
ENDBRANCH   1   8
TORSDOF 4
ENDMDL
MODEL 2
REMARK VINA RESULT:      -4.4      1.503      1.782
REMARK  4 active torsions:
REMARK  status: ('A' for Active; 'I' for Inactive)
REMARK    1  A    between atoms: C2_2  and  C7_7 
REMARK    2  A    between atoms: C5_5  and  C6_6 
REMARK    3  A    between atoms: C6_6  and  C7_7 
REMARK    4  A    between atoms: C7_7  and  O8_8 
ROOT
HETATM    1  C7  UNL     1     -33.401   5.786   4.603  1.00 20.00     0.146 C 
ENDROOT
BRANCH   1   2
HETATM    2  C2  UNL     1     -34.778   5.163   4.684  1.00 20.00    -0.065 C 
HETATM    3  C1  UNL     1     -35.729   5.461   3.783  1.00 20.00     0.016 C 
HETATM    4  C3  UNL     1     -35.055   4.205   5.809  1.00 20.00     0.045 C 
ENDBRANCH   1   2
BRANCH   1   5
HETATM    5  C6  UNL     1     -32.990   6.248   3.195  1.00 20.00     0.036 C 
BRANCH   5   6
HETATM    6  C5  UNL     1     -31.916   7.337   3.147  1.00 20.00    -0.002 C 
HETATM    7  C4  UNL     1     -32.076   8.292   1.975  1.00 20.00     0.005 C 
ENDBRANCH   5   6
ENDBRANCH   1   5
BRANCH   1   8
HETATM    8  O8  UNL     1     -33.375   6.922   5.473  1.00 20.00    -0.391 OA
HETATM    9  H22 UNL     1     -34.276   7.275   5.484  1.00 20.00     0.210 HD
ENDBRANCH   1   8
TORSDOF 4
ENDMDL
MODEL 3
REMARK VINA RESULT:      -4.4      1.548      1.998
REMARK  4 active torsions:
REMARK  status: ('A' for Active; 'I' for Inactive)
REMARK    1  A    between atoms: C2_2  and  C7_7 
REMARK    2  A    between atoms: C5_5  and  C6_6 
REMARK    3  A    between atoms: C6_6  and  C7_7 
REMARK    4  A    between atoms: C7_7  and  O8_8 
ROOT
HETATM    1  C7  UNL     1     -33.667   6.047   5.234  1.00 20.00     0.146 C 
ENDROOT
BRANCH   1   2
HETATM    2  C2  UNL     1     -34.816   5.086   5.019  1.00 20.00    -0.065 C 
HETATM    3  C1  UNL     1     -35.033   4.064   5.863  1.00 20.00     0.016 C 
HETATM    4  C3  UNL     1     -35.705   5.303   3.826  1.00 20.00     0.045 C 
ENDBRANCH   1   2
BRANCH   1   5
HETATM    5  C6  UNL     1     -33.467   7.068   4.102  1.00 20.00     0.036 C 
BRANCH   5   6
HETATM    6  C5  UNL     1     -32.252   6.824   3.202  1.00 20.00    -0.002 C 
HETATM    7  C4  UNL     1     -32.019   7.934   2.189  1.00 20.00     0.005 C 
ENDBRANCH   5   6
ENDBRANCH   1   5
BRANCH   1   8
HETATM    8  O8  UNL     1     -33.908   6.766   6.448  1.00 20.00    -0.391 OA
HETATM    9  H22 UNL     1     -33.046   7.093   6.743  1.00 20.00     0.210 HD
ENDBRANCH   1   8
TORSDOF 4
ENDMDL
MODEL 4
REMARK VINA RESULT:      -4.1      1.529      3.324
REMARK  4 active torsions:
REMARK  status: ('A' for Active; 'I' for Inactive)
REMARK    1  A    between atoms: C2_2  and  C7_7 
REMARK    2  A    between atoms: C5_5  and  C6_6 
REMARK    3  A    between atoms: C6_6  and  C7_7 
REMARK    4  A    between atoms: C7_7  and  O8_8 
ROOT
HETATM    1  C7  UNL     1     -34.345   4.369   4.941  1.00 20.00     0.146 C 
ENDROOT
BRANCH   1   2
HETATM    2  C2  UNL     1     -34.518   5.420   3.866  1.00 20.00    -0.065 C 
HETATM    3  C1  UNL     1     -35.739   5.793   3.450  1.00 20.00     0.016 C 
HETATM    4  C3  UNL     1     -33.280   6.031   3.270  1.00 20.00     0.045 C 
ENDBRANCH   1   2
BRANCH   1   5
HETATM    5  C6  UNL     1     -34.019   4.927   6.336  1.00 20.00     0.036 C 
BRANCH   5   6
HETATM    6  C5  UNL     1     -34.445   6.376   6.582  1.00 20.00    -0.002 C 
HETATM    7  C4  UNL     1     -33.273   7.324   6.781  1.00 20.00     0.005 C 
ENDBRANCH   5   6
ENDBRANCH   1   5
BRANCH   1   8
HETATM    8  O8  UNL     1     -35.561   3.620   5.031  1.00 20.00    -0.391 OA
HETATM    9  H22 UNL     1     -35.315   2.744   5.363  1.00 20.00     0.210 HD
ENDBRANCH   1   8
TORSDOF 4
ENDMDL
MODEL 5
REMARK VINA RESULT:      -4.0     11.158     12.317
REMARK  4 active torsions:
REMARK  status: ('A' for Active; 'I' for Inactive)
REMARK    1  A    between atoms: C2_2  and  C7_7 
REMARK    2  A    between atoms: C5_5  and  C6_6 
REMARK    3  A    between atoms: C6_6  and  C7_7 
REMARK    4  A    between atoms: C7_7  and  O8_8 
ROOT
HETATM    1  C7  UNL     1     -35.566  13.968  -3.983  1.00 20.00     0.146 C 
ENDROOT
BRANCH   1   2
HETATM    2  C2  UNL     1     -34.279  14.505  -3.392  1.00 20.00    -0.065 C 
HETATM    3  C1  UNL     1     -33.108  13.881  -3.599  1.00 20.00     0.016 C 
HETATM    4  C3  UNL     1     -34.352  15.754  -2.559  1.00 20.00     0.045 C 
ENDBRANCH   1   2
BRANCH   1   5
HETATM    5  C6  UNL     1     -36.021  14.673  -5.271  1.00 20.00     0.036 C 
BRANCH   5   6
HETATM    6  C5  UNL     1     -35.297  14.243  -6.549  1.00 20.00    -0.002 C 
HETATM    7  C4  UNL     1     -34.304  15.277  -7.056  1.00 20.00     0.005 C 
ENDBRANCH   5   6
ENDBRANCH   1   5
BRANCH   1   8
HETATM    8  O8  UNL     1     -35.378  12.580  -4.274  1.00 20.00    -0.391 OA
HETATM    9  H22 UNL     1     -35.071  12.171  -3.452  1.00 20.00     0.210 HD
ENDBRANCH   1   8
TORSDOF 4
ENDMDL
MODEL 6
REMARK VINA RESULT:      -4.0      1.628      2.119
REMARK  4 active torsions:
REMARK  status: ('A' for Active; 'I' for Inactive)
REMARK    1  A    between atoms: C2_2  and  C7_7 
REMARK    2  A    between atoms: C5_5  and  C6_6 
REMARK    3  A    between atoms: C6_6  and  C7_7 
REMARK    4  A    between atoms: C7_7  and  O8_8 
ROOT
HETATM    1  C7  UNL     1     -32.960   6.344   3.017  1.00 20.00     0.146 C 
ENDROOT
BRANCH   1   2
HETATM    2  C2  UNL     1     -33.950   6.118   4.139  1.00 20.00    -0.065 C 
HETATM    3  C1  UNL     1     -33.699   6.555   5.384  1.00 20.00     0.016 C 
HETATM    4  C3  UNL     1     -35.220   5.379   3.822  1.00 20.00     0.045 C 
ENDBRANCH   1   2
BRANCH   1   5
HETATM    5  C6  UNL     1     -32.248   7.706   3.057  1.00 20.00     0.036 C 
BRANCH   5   6
HETATM    6  C5  UNL     1     -31.926   8.321   1.693  1.00 20.00    -0.002 C 
HETATM    7  C4  UNL     1     -32.490   9.722   1.514  1.00 20.00     0.005 C 
ENDBRANCH   5   6
ENDBRANCH   1   5
BRANCH   1   8
HETATM    8  O8  UNL     1     -31.966   5.316   3.085  1.00 20.00    -0.391 OA
HETATM    9  H22 UNL     1     -31.183   5.667   2.635  1.00 20.00     0.210 HD
ENDBRANCH   1   8
TORSDOF 4
ENDMDL
MODEL 7
REMARK VINA RESULT:      -3.9     11.934     12.902
REMARK  4 active torsions:
REMARK  status: ('A' for Active; 'I' for Inactive)
REMARK    1  A    between atoms: C2_2  and  C7_7 
REMARK    2  A    between atoms: C5_5  and  C6_6 
REMARK    3  A    between atoms: C6_6  and  C7_7 
REMARK    4  A    between atoms: C7_7  and  O8_8 
ROOT
HETATM    1  C7  UNL     1     -33.880  15.693  -4.555  1.00 20.00     0.146 C 
ENDROOT
BRANCH   1   2
HETATM    2  C2  UNL     1     -34.412  14.580  -5.432  1.00 20.00    -0.065 C 
HETATM    3  C1  UNL     1     -34.619  14.770  -6.746  1.00 20.00     0.016 C 
HETATM    4  C3  UNL     1     -34.713  13.255  -4.788  1.00 20.00     0.045 C 
ENDBRANCH   1   2
BRANCH   1   5
HETATM    5  C6  UNL     1     -33.954  15.409  -3.046  1.00 20.00     0.036 C 
BRANCH   5   6
HETATM    6  C5  UNL     1     -33.802  16.632  -2.138  1.00 20.00    -0.002 C 
HETATM    7  C4  UNL     1     -34.670  16.569  -0.891  1.00 20.00     0.005 C 
ENDBRANCH   5   6
ENDBRANCH   1   5
BRANCH   1   8
HETATM    8  O8  UNL     1     -32.511  15.918  -4.903  1.00 20.00    -0.391 OA
HETATM    9  H22 UNL     1     -32.327  15.346  -5.662  1.00 20.00     0.210 HD
ENDBRANCH   1   8
TORSDOF 4
ENDMDL
MODEL 8
REMARK VINA RESULT:      -3.9     11.248     12.456
REMARK  4 active torsions:
REMARK  status: ('A' for Active; 'I' for Inactive)
REMARK    1  A    between atoms: C2_2  and  C7_7 
REMARK    2  A    between atoms: C5_5  and  C6_6 
REMARK    3  A    between atoms: C6_6  and  C7_7 
REMARK    4  A    between atoms: C7_7  and  O8_8 
ROOT
HETATM    1  C7  UNL     1     -34.378  13.332  -4.817  1.00 20.00     0.146 C 
ENDROOT
BRANCH   1   2
HETATM    2  C2  UNL     1     -35.053  14.381  -5.675  1.00 20.00    -0.065 C 
HETATM    3  C1  UNL     1     -34.458  14.862  -6.779  1.00 20.00     0.016 C 
HETATM    4  C3  UNL     1     -36.407  14.878  -5.249  1.00 20.00     0.045 C 
ENDBRANCH   1   2
BRANCH   1   5
HETATM    5  C6  UNL     1     -33.423  13.895  -3.752  1.00 20.00     0.036 C 
BRANCH   5   6
HETATM    6  C5  UNL     1     -33.469  15.413  -3.561  1.00 20.00    -0.002 C 
HETATM    7  C4  UNL     1     -34.266  15.844  -2.341  1.00 20.00     0.005 C 
ENDBRANCH   5   6
ENDBRANCH   1   5
BRANCH   1   8
HETATM    8  O8  UNL     1     -35.396  12.578  -4.152  1.00 20.00    -0.391 OA
HETATM    9  H22 UNL     1     -35.797  13.176  -3.505  1.00 20.00     0.210 HD
ENDBRANCH   1   8
TORSDOF 4
ENDMDL
MODEL 9
REMARK VINA RESULT:      -3.9      1.585      3.977
REMARK  4 active torsions:
REMARK  status: ('A' for Active; 'I' for Inactive)
REMARK    1  A    between atoms: C2_2  and  C7_7 
REMARK    2  A    between atoms: C5_5  and  C6_6 
REMARK    3  A    between atoms: C6_6  and  C7_7 
REMARK    4  A    between atoms: C7_7  and  O8_8 
ROOT
HETATM    1  C7  UNL     1     -33.889   6.673   3.874  1.00 20.00     0.146 C 
ENDROOT
BRANCH   1   2
HETATM    2  C2  UNL     1     -32.594   6.682   3.091  1.00 20.00    -0.065 C 
HETATM    3  C1  UNL     1     -31.831   5.580   2.999  1.00 20.00     0.016 C 
HETATM    4  C3  UNL     1     -32.179   7.965   2.425  1.00 20.00     0.045 C 
ENDBRANCH   1   2
BRANCH   1   5
HETATM    5  C6  UNL     1     -34.760   5.424   3.656  1.00 20.00     0.036 C 
BRANCH   5   6
HETATM    6  C5  UNL     1     -35.461   4.884   4.904  1.00 20.00    -0.002 C 
HETATM    7  C4  UNL     1     -34.687   3.776   5.599  1.00 20.00     0.005 C 
ENDBRANCH   5   6
ENDBRANCH   1   5
BRANCH   1   8
HETATM    8  O8  UNL     1     -33.570   6.759   5.266  1.00 20.00    -0.391 OA
HETATM    9  H22 UNL     1     -34.322   6.376   5.740  1.00 20.00     0.210 HD
ENDBRANCH   1   8
TORSDOF 4
ENDMDL
