MODEL 1
REMARK VINA RESULT:      -3.8      0.000      0.000
REMARK  0 active torsions:
REMARK  status: ('A' for Active; 'I' for Inactive)
ROOT
HETATM    1  C1  UNL     1     -34.432  14.761  -6.167  1.00 20.00     0.050 C 
HETATM    2  C2  UNL     1     -33.336  14.749  -3.860  1.00 20.00     0.050 C 
HETATM    3  C3  UNL     1     -35.565  13.442  -4.222  1.00 20.00     0.207 A 
HETATM    4  C4  UNL     1     -34.755  16.251  -6.122  1.00 20.00     0.077 C 
HETATM    5  C5  UNL     1     -33.568  16.236  -3.625  1.00 20.00     0.077 C 
HETATM    6  C6  UNL     1     -34.370  14.175  -4.786  1.00 20.00     0.084 A 
HETATM    7  O7  UNL     1     -34.434  12.742  -4.764  1.00 20.00    -0.375 OA
HETATM    8  S8  UNL     1     -33.499  17.179  -5.183  1.00 20.00    -0.169 SA
ENDROOT
TORSDOF 0
ENDMDL
MODEL 2
REMARK VINA RESULT:      -3.7      1.589      2.203
REMARK  0 active torsions:
REMARK  status: ('A' for Active; 'I' for Inactive)
ROOT
HETATM    1  C1  UNL     1     -33.336  13.996  -3.639  1.00 20.00     0.050 C 
HETATM    2  C2  UNL     1     -35.786  14.700  -3.495  1.00 20.00     0.050 C 
HETATM    3  C3  UNL     1     -34.928  13.497  -5.645  1.00 20.00     0.207 A 
HETATM    4  C4  UNL     1     -32.815  15.429  -3.655  1.00 20.00     0.077 C 
HETATM    5  C5  UNL     1     -35.469  16.191  -3.499  1.00 20.00     0.077 C 
HETATM    6  C6  UNL     1     -34.724  13.914  -4.207  1.00 20.00     0.084 A 
HETATM    7  O7  UNL     1     -35.126  12.582  -4.556  1.00 20.00    -0.375 OA
HETATM    8  S8  UNL     1     -33.880  16.538  -2.677  1.00 20.00    -0.169 SA
ENDROOT
TORSDOF 0
ENDMDL
MODEL 3
REMARK VINA RESULT:      -3.6      1.465      1.933
REMARK  0 active torsions:
REMARK  status: ('A' for Active; 'I' for Inactive)
ROOT
HETATM    1  C1  UNL     1     -33.099  15.181  -3.867  1.00 20.00     0.050 C 
HETATM    2  C2  UNL     1     -35.570  15.030  -3.238  1.00 20.00     0.050 C 
HETATM    3  C3  UNL     1     -34.547  13.240  -4.836  1.00 20.00     0.207 A 
HETATM    4  C4  UNL     1     -33.269  16.479  -4.651  1.00 20.00     0.077 C 
HETATM    5  C5  UNL     1     -35.944  16.314  -3.969  1.00 20.00     0.077 C 
HETATM    6  C6  UNL     1     -34.368  14.378  -3.859  1.00 20.00     0.084 A 
HETATM    7  O7  UNL     1     -34.183  13.012  -3.466  1.00 20.00    -0.375 OA
HETATM    8  S8  UNL     1     -34.581  17.523  -3.938  1.00 20.00    -0.169 SA
ENDROOT
TORSDOF 0
ENDMDL
MODEL 4
REMARK VINA RESULT:      -3.5      2.139      2.610
REMARK  0 active torsions:
REMARK  status: ('A' for Active; 'I' for Inactive)
ROOT
HETATM    1  C1  UNL     1     -35.444  13.518  -4.242  1.00 20.00     0.050 C 
HETATM    2  C2  UNL     1     -35.866  15.668  -2.930  1.00 20.00     0.050 C 
HETATM    3  C3  UNL     1     -37.491  15.011  -4.863  1.00 20.00     0.207 A 
HETATM    4  C4  UNL     1     -34.146  14.026  -4.862  1.00 20.00     0.077 C 
HETATM    5  C5  UNL     1     -34.604  16.354  -3.441  1.00 20.00     0.077 C 
HETATM    6  C6  UNL     1     -36.371  14.652  -3.914  1.00 20.00     0.084 A 
HETATM    7  O7  UNL     1     -37.724  14.239  -3.674  1.00 20.00    -0.375 OA
HETATM    8  S8  UNL     1     -33.264  15.155  -3.736  1.00 20.00    -0.169 SA
ENDROOT
TORSDOF 0
ENDMDL
MODEL 5
REMARK VINA RESULT:      -3.5      1.575      2.339
REMARK  0 active torsions:
REMARK  status: ('A' for Active; 'I' for Inactive)
ROOT
HETATM    1  C1  UNL     1     -36.314  14.421  -4.157  1.00 20.00     0.050 C 
HETATM    2  C2  UNL     1     -34.857  14.491  -6.253  1.00 20.00     0.050 C 
HETATM    3  C3  UNL     1     -33.865  13.530  -4.040  1.00 20.00     0.207 A 
HETATM    4  C4  UNL     1     -36.386  15.939  -4.028  1.00 20.00     0.077 C 
HETATM    5  C5  UNL     1     -34.808  16.014  -6.298  1.00 20.00     0.077 C 
HETATM    6  C6  UNL     1     -35.053  13.992  -4.851  1.00 20.00     0.084 A 
HETATM    7  O7  UNL     1     -34.749  12.600  -4.685  1.00 20.00    -0.375 OA
HETATM    8  S8  UNL     1     -36.347  16.751  -5.659  1.00 20.00    -0.169 SA
ENDROOT
TORSDOF 0
ENDMDL
MODEL 6
REMARK VINA RESULT:      -3.4      2.738      3.584
REMARK  0 active torsions:
REMARK  status: ('A' for Active; 'I' for Inactive)
ROOT
HETATM    1  C1  UNL     1     -33.211  15.303  -3.586  1.00 20.00     0.050 C 
HETATM    2  C2  UNL     1     -35.694  15.830  -3.867  1.00 20.00     0.050 C 
HETATM    3  C3  UNL     1     -34.544  16.283  -1.569  1.00 20.00     0.207 A 
HETATM    4  C4  UNL     1     -33.406  13.797  -3.733  1.00 20.00     0.077 C 
HETATM    5  C5  UNL     1     -36.094  14.370  -4.037  1.00 20.00     0.077 C 
HETATM    6  C6  UNL     1     -34.446  15.962  -3.042  1.00 20.00     0.084 A 
HETATM    7  O7  UNL     1     -34.220  17.287  -2.543  1.00 20.00    -0.375 OA
HETATM    8  S8  UNL     1     -34.783  13.408  -4.861  1.00 20.00    -0.169 SA
ENDROOT
TORSDOF 0
ENDMDL
MODEL 7
REMARK VINA RESULT:      -3.4     12.636     13.402
REMARK  0 active torsions:
REMARK  status: ('A' for Active; 'I' for Inactive)
ROOT
HETATM    1  C1  UNL     1     -34.759   5.411   3.538  1.00 20.00     0.050 C 
HETATM    2  C2  UNL     1     -33.673   6.847   5.349  1.00 20.00     0.050 C 
HETATM    3  C3  UNL     1     -32.266   6.131   3.273  1.00 20.00     0.207 A 
HETATM    4  C4  UNL     1     -34.919   4.197   4.448  1.00 20.00     0.077 C 
HETATM    5  C5  UNL     1     -33.743   5.753   6.408  1.00 20.00     0.077 C 
HETATM    6  C6  UNL     1     -33.601   6.265   3.967  1.00 20.00     0.084 A 
HETATM    7  O7  UNL     1     -33.173   7.201   2.968  1.00 20.00    -0.375 OA
HETATM    8  S8  UNL     1     -35.206   4.691   6.178  1.00 20.00    -0.169 SA
ENDROOT
TORSDOF 0
ENDMDL
MODEL 8
REMARK VINA RESULT:      -3.4      2.507      3.574
REMARK  0 active torsions:
REMARK  status: ('A' for Active; 'I' for Inactive)
ROOT
HETATM    1  C1  UNL     1     -33.209  15.431  -3.905  1.00 20.00     0.050 C 
HETATM    2  C2  UNL     1     -34.169  15.560  -6.268  1.00 20.00     0.050 C 
HETATM    3  C3  UNL     1     -34.374  17.629  -4.692  1.00 20.00     0.207 A 
HETATM    4  C4  UNL     1     -34.210  14.377  -3.443  1.00 20.00     0.077 C 
HETATM    5  C5  UNL     1     -35.249  14.518  -6.001  1.00 20.00     0.077 C 
HETATM    6  C6  UNL     1     -33.778  16.277  -5.008  1.00 20.00     0.084 A 
HETATM    7  O7  UNL     1     -33.052  17.493  -5.236  1.00 20.00    -0.375 OA
HETATM    8  S8  UNL     1     -34.687  13.265  -4.804  1.00 20.00    -0.169 SA
ENDROOT
TORSDOF 0
ENDMDL
MODEL 9
REMARK VINA RESULT:      -3.3      1.792      2.304
REMARK  0 active torsions:
REMARK  status: ('A' for Active; 'I' for Inactive)
ROOT
HETATM    1  C1  UNL     1     -33.915  15.702  -6.254  1.00 20.00     0.050 C 
HETATM    2  C2  UNL     1     -34.710  13.521  -5.189  1.00 20.00     0.050 C 
HETATM    3  C3  UNL     1     -36.405  14.975  -6.537  1.00 20.00     0.207 A 
HETATM    4  C4  UNL     1     -33.659  16.386  -4.915  1.00 20.00     0.077 C 
HETATM    5  C5  UNL     1     -34.519  14.024  -3.763  1.00 20.00     0.077 C 
HETATM    6  C6  UNL     1     -34.984  14.654  -6.135  1.00 20.00     0.084 A 
HETATM    7  O7  UNL     1     -35.524  14.236  -7.397  1.00 20.00    -0.375 OA
HETATM    8  S8  UNL     1     -33.126  15.192  -3.645  1.00 20.00    -0.169 SA
ENDROOT
TORSDOF 0
ENDMDL
