MODEL 1
REMARK VINA RESULT:      -4.8      0.000      0.000
REMARK  0 active torsions:
REMARK  status: ('A' for Active; 'I' for Inactive)
ROOT
HETATM    1  C1  UNL     1     -34.111  15.860  -2.539  1.00 20.00     0.064 C 
HETATM    2  C2  UNL     1     -34.418  13.574  -4.636  1.00 20.00     0.128 C 
HETATM    3  C3  UNL     1     -34.585  14.370  -5.909  1.00 20.00     0.078 C 
HETATM    4  C4  UNL     1     -33.215  13.915  -3.779  1.00 20.00     0.097 C 
HETATM    5  C5  UNL     1     -34.500  15.861  -5.621  1.00 20.00     0.009 C 
HETATM    6  C6  UNL     1     -33.238  16.219  -4.834  1.00 20.00     0.020 C 
HETATM    7  C7  UNL     1     -33.109  15.421  -3.529  1.00 20.00     0.100 C 
HETATM    8  N8  UNL     1     -34.899  16.206  -1.760  1.00 20.00    -0.197 NA
HETATM    9  O9  UNL     1     -35.159  12.632  -4.360  1.00 20.00    -0.298 OA
ENDROOT
TORSDOF 0
ENDMDL
MODEL 2
REMARK VINA RESULT:      -4.8     12.146     13.162
REMARK  0 active torsions:
REMARK  status: ('A' for Active; 'I' for Inactive)
ROOT
HETATM    1  C1  UNL     1     -32.960   6.207   3.493  1.00 20.00     0.064 C 
HETATM    2  C2  UNL     1     -35.042   4.380   4.923  1.00 20.00     0.128 C 
HETATM    3  C3  UNL     1     -34.933   4.876   6.346  1.00 20.00     0.078 C 
HETATM    4  C4  UNL     1     -35.281   5.431   3.858  1.00 20.00     0.097 C 
HETATM    5  C5  UNL     1     -33.929   6.014   6.439  1.00 20.00     0.009 C 
HETATM    6  C6  UNL     1     -34.224   7.121   5.424  1.00 20.00     0.020 C 
HETATM    7  C7  UNL     1     -34.297   6.596   3.982  1.00 20.00     0.100 C 
HETATM    8  N8  UNL     1     -31.908   5.901   3.108  1.00 20.00    -0.197 NA
HETATM    9  O9  UNL     1     -35.039   3.180   4.655  1.00 20.00    -0.298 OA
ENDROOT
TORSDOF 0
ENDMDL
MODEL 3
REMARK VINA RESULT:      -4.4      2.102      3.128
REMARK  0 active torsions:
REMARK  status: ('A' for Active; 'I' for Inactive)
ROOT
HETATM    1  C1  UNL     1     -36.159  14.013  -4.241  1.00 20.00     0.064 C 
HETATM    2  C2  UNL     1     -34.221  15.969  -5.703  1.00 20.00     0.128 C 
HETATM    3  C3  UNL     1     -33.153  16.157  -4.652  1.00 20.00     0.078 C 
HETATM    4  C4  UNL     1     -34.570  14.539  -6.064  1.00 20.00     0.097 C 
HETATM    5  C5  UNL     1     -33.464  15.323  -3.419  1.00 20.00     0.009 C 
HETATM    6  C6  UNL     1     -33.727  13.857  -3.773  1.00 20.00     0.020 C 
HETATM    7  C7  UNL     1     -34.839  13.692  -4.818  1.00 20.00     0.100 C 
HETATM    8  N8  UNL     1     -37.197  14.265  -3.787  1.00 20.00    -0.197 NA
HETATM    9  O9  UNL     1     -34.709  16.923  -6.307  1.00 20.00    -0.298 OA
ENDROOT
TORSDOF 0
ENDMDL
MODEL 4
REMARK VINA RESULT:      -4.4      2.177      2.423
REMARK  0 active torsions:
REMARK  status: ('A' for Active; 'I' for Inactive)
ROOT
HETATM    1  C1  UNL     1     -37.338  14.871  -3.702  1.00 20.00     0.064 C 
HETATM    2  C2  UNL     1     -34.704  13.705  -4.896  1.00 20.00     0.128 C 
HETATM    3  C3  UNL     1     -34.527  14.580  -6.114  1.00 20.00     0.078 C 
HETATM    4  C4  UNL     1     -34.908  14.419  -3.574  1.00 20.00     0.097 C 
HETATM    5  C5  UNL     1     -35.640  15.614  -6.195  1.00 20.00     0.009 C 
HETATM    6  C6  UNL     1     -35.786  16.400  -4.890  1.00 20.00     0.020 C 
HETATM    7  C7  UNL     1     -35.998  15.489  -3.673  1.00 20.00     0.100 C 
HETATM    8  N8  UNL     1     -38.392  14.385  -3.724  1.00 20.00    -0.197 NA
HETATM    9  O9  UNL     1     -34.588  12.482  -4.956  1.00 20.00    -0.298 OA
ENDROOT
TORSDOF 0
ENDMDL
MODEL 5
REMARK VINA RESULT:      -4.3      2.015      2.635
REMARK  0 active torsions:
REMARK  status: ('A' for Active; 'I' for Inactive)
ROOT
HETATM    1  C1  UNL     1     -33.287  16.400  -4.355  1.00 20.00     0.064 C 
HETATM    2  C2  UNL     1     -35.942  14.971  -3.565  1.00 20.00     0.128 C 
HETATM    3  C3  UNL     1     -35.693  13.581  -4.100  1.00 20.00     0.078 C 
HETATM    4  C4  UNL     1     -34.873  15.548  -2.658  1.00 20.00     0.097 C 
HETATM    5  C5  UNL     1     -34.310  13.491  -4.727  1.00 20.00     0.009 C 
HETATM    6  C6  UNL     1     -33.219  13.987  -3.777  1.00 20.00     0.020 C 
HETATM    7  C7  UNL     1     -33.479  15.415  -3.273  1.00 20.00     0.100 C 
HETATM    8  N8  UNL     1     -33.135  17.175  -5.205  1.00 20.00    -0.197 NA
HETATM    9  O9  UNL     1     -37.001  15.563  -3.770  1.00 20.00    -0.298 OA
ENDROOT
TORSDOF 0
ENDMDL
MODEL 6
REMARK VINA RESULT:      -4.3     11.813     12.715
REMARK  0 active torsions:
REMARK  status: ('A' for Active; 'I' for Inactive)
ROOT
HETATM    1  C1  UNL     1     -42.473   4.756   0.406  1.00 20.00     0.064 C 
HETATM    2  C2  UNL     1     -42.381   5.576  -2.601  1.00 20.00     0.128 C 
HETATM    3  C3  UNL     1     -41.843   6.984  -2.500  1.00 20.00     0.078 C 
HETATM    4  C4  UNL     1     -41.588   4.498  -1.890  1.00 20.00     0.097 C 
HETATM    5  C5  UNL     1     -41.567   7.348  -1.049  1.00 20.00     0.009 C 
HETATM    6  C6  UNL     1     -40.689   6.304  -0.356  1.00 20.00     0.020 C 
HETATM    7  C7  UNL     1     -41.274   4.887  -0.444  1.00 20.00     0.100 C 
HETATM    8  N8  UNL     1     -43.417   4.654   1.075  1.00 20.00    -0.197 NA
HETATM    9  O9  UNL     1     -43.353   5.304  -3.305  1.00 20.00    -0.298 OA
ENDROOT
TORSDOF 0
ENDMDL
MODEL 7
REMARK VINA RESULT:      -4.3      1.869      2.605
REMARK  0 active torsions:
REMARK  status: ('A' for Active; 'I' for Inactive)
ROOT
HETATM    1  C1  UNL     1     -35.419  16.355  -5.283  1.00 20.00     0.064 C 
HETATM    2  C2  UNL     1     -34.656  13.530  -4.205  1.00 20.00     0.128 C 
HETATM    3  C3  UNL     1     -33.288  13.802  -3.625  1.00 20.00     0.078 C 
HETATM    4  C4  UNL     1     -35.776  14.444  -3.751  1.00 20.00     0.097 C 
HETATM    5  C5  UNL     1     -32.922  15.269  -3.786  1.00 20.00     0.009 C 
HETATM    6  C6  UNL     1     -34.014  16.194  -3.243  1.00 20.00     0.020 C 
HETATM    7  C7  UNL     1     -35.387  15.919  -3.873  1.00 20.00     0.100 C 
HETATM    8  N8  UNL     1     -35.444  16.697  -6.391  1.00 20.00    -0.197 NA
HETATM    9  O9  UNL     1     -34.870  12.558  -4.928  1.00 20.00    -0.298 OA
ENDROOT
TORSDOF 0
ENDMDL
MODEL 8
REMARK VINA RESULT:      -4.2      2.232      3.336
REMARK  0 active torsions:
REMARK  status: ('A' for Active; 'I' for Inactive)
ROOT
HETATM    1  C1  UNL     1     -36.610  14.407  -4.353  1.00 20.00     0.064 C 
HETATM    2  C2  UNL     1     -34.020  16.134  -4.178  1.00 20.00     0.128 C 
HETATM    3  C3  UNL     1     -33.014  15.101  -3.726  1.00 20.00     0.078 C 
HETATM    4  C4  UNL     1     -34.842  15.784  -5.403  1.00 20.00     0.097 C 
HETATM    5  C5  UNL     1     -33.672  13.737  -3.594  1.00 20.00     0.009 C 
HETATM    6  C6  UNL     1     -34.427  13.342  -4.865  1.00 20.00     0.020 C 
HETATM    7  C7  UNL     1     -35.466  14.392  -5.285  1.00 20.00     0.100 C 
HETATM    8  N8  UNL     1     -37.509  14.419  -3.619  1.00 20.00    -0.197 NA
HETATM    9  O9  UNL     1     -34.096  17.239  -3.645  1.00 20.00    -0.298 OA
ENDROOT
TORSDOF 0
ENDMDL
MODEL 9
REMARK VINA RESULT:      -4.2      2.407      3.310
REMARK  0 active torsions:
REMARK  status: ('A' for Active; 'I' for Inactive)
ROOT
HETATM    1  C1  UNL     1     -37.256  14.728  -4.310  1.00 20.00     0.064 C 
HETATM    2  C2  UNL     1     -34.476  15.464  -3.107  1.00 20.00     0.128 C 
HETATM    3  C3  UNL     1     -33.631  14.316  -3.609  1.00 20.00     0.078 C 
HETATM    4  C4  UNL     1     -35.283  16.213  -4.148  1.00 20.00     0.097 C 
HETATM    5  C5  UNL     1     -34.464  13.374  -4.464  1.00 20.00     0.009 C 
HETATM    6  C6  UNL     1     -35.209  14.119  -5.574  1.00 20.00     0.020 C 
HETATM    7  C7  UNL     1     -36.086  15.259  -5.035  1.00 20.00     0.100 C 
HETATM    8  N8  UNL     1     -38.177  14.311  -3.740  1.00 20.00    -0.197 NA
HETATM    9  O9  UNL     1     -34.432  15.835  -1.935  1.00 20.00    -0.298 OA
ENDROOT
TORSDOF 0
ENDMDL
