MODEL 1
REMARK VINA RESULT:      -4.7      0.000      0.000
REMARK  1 active torsions:
REMARK  status: ('A' for Active; 'I' for Inactive)
REMARK    1  A    between atoms: C3_3  and  C5_5 
ROOT
HETATM    1  C1  UNL     1     -33.181  15.652  -3.895  1.00 20.00    -0.015 C 
HETATM    2  C2  UNL     1     -33.216  16.388  -5.010  1.00 20.00    -0.021 C 
HETATM    3  C4  UNL     1     -35.378  15.421  -4.768  1.00 20.00     0.032 C 
HETATM    4  C5  UNL     1     -34.439  14.887  -3.684  1.00 20.00     0.110 C 
HETATM    5  C6  UNL     1     -34.508  16.232  -5.762  1.00 20.00    -0.029 C 
HETATM    6  C7  UNL     1     -35.140  17.594  -6.063  1.00 20.00     0.019 C 
HETATM    7  C8  UNL     1     -34.278  15.462  -7.066  1.00 20.00     0.019 C 
ENDROOT
BRANCH   4   8
HETATM    8  C3  UNL     1     -34.135  13.419  -3.878  1.00 20.00     0.180 C 
HETATM    9  O9  UNL     1     -32.962  13.067  -3.575  1.00 20.00    -0.647 OA
HETATM   10  O10 UNL     1     -35.101  12.733  -4.318  1.00 20.00    -0.647 OA
ENDBRANCH   4   8
TORSDOF 1
ENDMDL
MODEL 2
REMARK VINA RESULT:      -4.7      1.345      2.744
REMARK  1 active torsions:
REMARK  status: ('A' for Active; 'I' for Inactive)
REMARK    1  A    between atoms: C3_3  and  C5_5 
ROOT
HETATM    1  C1  UNL     1     -35.454  15.276  -4.803  1.00 20.00    -0.015 C 
HETATM    2  C2  UNL     1     -35.618  16.273  -3.928  1.00 20.00    -0.021 C 
HETATM    3  C4  UNL     1     -33.289  15.779  -3.964  1.00 20.00     0.032 C 
HETATM    4  C5  UNL     1     -34.051  14.780  -4.837  1.00 20.00     0.110 C 
HETATM    5  C6  UNL     1     -34.348  16.612  -3.199  1.00 20.00    -0.029 C 
HETATM    6  C7  UNL     1     -34.042  18.110  -3.291  1.00 20.00     0.019 C 
HETATM    7  C8  UNL     1     -34.444  16.189  -1.729  1.00 20.00     0.019 C 
ENDROOT
BRANCH   4   8
HETATM    8  C3  UNL     1     -34.030  13.388  -4.249  1.00 20.00     0.180 C 
HETATM    9  O9  UNL     1     -35.106  12.739  -4.361  1.00 20.00    -0.647 OA
HETATM   10  O10 UNL     1     -32.932  13.055  -3.720  1.00 20.00    -0.647 OA
ENDBRANCH   4   8
TORSDOF 1
ENDMDL
MODEL 3
REMARK VINA RESULT:      -4.6      1.630      2.256
REMARK  1 active torsions:
REMARK  status: ('A' for Active; 'I' for Inactive)
REMARK    1  A    between atoms: C3_3  and  C5_5 
ROOT
HETATM    1  C1  UNL     1     -33.204  14.654  -3.986  1.00 20.00    -0.015 C 
HETATM    2  C2  UNL     1     -33.136  15.977  -4.165  1.00 20.00    -0.021 C 
HETATM    3  C4  UNL     1     -35.017  15.579  -2.760  1.00 20.00     0.032 C 
HETATM    4  C5  UNL     1     -34.414  14.249  -3.220  1.00 20.00     0.110 C 
HETATM    5  C6  UNL     1     -34.308  16.699  -3.563  1.00 20.00    -0.029 C 
HETATM    6  C7  UNL     1     -33.844  17.830  -2.639  1.00 20.00     0.019 C 
HETATM    7  C8  UNL     1     -35.214  17.262  -4.663  1.00 20.00     0.019 C 
ENDROOT
BRANCH   4   8
HETATM    8  C3  UNL     1     -35.339  13.508  -4.158  1.00 20.00     0.180 C 
HETATM    9  O9  UNL     1     -36.540  13.895  -4.148  1.00 20.00    -0.647 OA
HETATM   10  O10 UNL     1     -34.786  12.595  -4.833  1.00 20.00    -0.647 OA
ENDBRANCH   4   8
TORSDOF 1
ENDMDL
MODEL 4
REMARK VINA RESULT:      -4.5      1.811      2.728
REMARK  1 active torsions:
REMARK  status: ('A' for Active; 'I' for Inactive)
REMARK    1  A    between atoms: C3_3  and  C5_5 
ROOT
HETATM    1  C1  UNL     1     -33.095  15.715  -4.301  1.00 20.00    -0.015 C 
HETATM    2  C2  UNL     1     -33.706  16.706  -3.646  1.00 20.00    -0.021 C 
HETATM    3  C4  UNL     1     -34.515  14.672  -2.707  1.00 20.00     0.032 C 
HETATM    4  C5  UNL     1     -33.600  14.375  -3.897  1.00 20.00     0.110 C 
HETATM    5  C6  UNL     1     -34.753  16.204  -2.691  1.00 20.00    -0.029 C 
HETATM    6  C7  UNL     1     -34.542  16.780  -1.288  1.00 20.00     0.019 C 
HETATM    7  C8  UNL     1     -36.155  16.561  -3.197  1.00 20.00     0.019 C 
ENDROOT
BRANCH   4   8
HETATM    8  C3  UNL     1     -34.365  13.789  -5.062  1.00 20.00     0.180 C 
HETATM    9  O9  UNL     1     -34.411  14.513  -6.094  1.00 20.00    -0.647 OA
HETATM   10  O10 UNL     1     -34.860  12.646  -4.848  1.00 20.00    -0.647 OA
ENDBRANCH   4   8
TORSDOF 1
ENDMDL
MODEL 5
REMARK VINA RESULT:      -4.2      1.492      2.301
REMARK  1 active torsions:
REMARK  status: ('A' for Active; 'I' for Inactive)
REMARK    1  A    between atoms: C3_3  and  C5_5 
ROOT
HETATM    1  C1  UNL     1     -36.250  14.813  -4.334  1.00 20.00    -0.015 C 
HETATM    2  C2  UNL     1     -36.302  15.499  -5.480  1.00 20.00    -0.021 C 
HETATM    3  C4  UNL     1     -34.917  13.606  -5.886  1.00 20.00     0.032 C 
HETATM    4  C5  UNL     1     -35.312  13.660  -4.409  1.00 20.00     0.110 C 
HETATM    5  C6  UNL     1     -35.388  14.935  -6.530  1.00 20.00    -0.029 C 
HETATM    6  C7  UNL     1     -36.141  14.676  -7.838  1.00 20.00     0.019 C 
HETATM    7  C8  UNL     1     -34.212  15.885  -6.784  1.00 20.00     0.019 C 
ENDROOT
BRANCH   4   8
HETATM    8  C3  UNL     1     -34.127  13.959  -3.521  1.00 20.00     0.180 C 
HETATM    9  O9  UNL     1     -33.152  13.166  -3.638  1.00 20.00    -0.647 OA
HETATM   10  O10 UNL     1     -34.266  14.969  -2.774  1.00 20.00    -0.647 OA
ENDBRANCH   4   8
TORSDOF 1
ENDMDL
MODEL 6
REMARK VINA RESULT:      -4.2      1.322      1.606
REMARK  1 active torsions:
REMARK  status: ('A' for Active; 'I' for Inactive)
REMARK    1  A    between atoms: C3_3  and  C5_5 
ROOT
HETATM    1  C1  UNL     1     -34.345  15.831  -3.988  1.00 20.00    -0.015 C 
HETATM    2  C2  UNL     1     -35.115  16.469  -4.873  1.00 20.00    -0.021 C 
HETATM    3  C4  UNL     1     -36.436  14.703  -3.974  1.00 20.00     0.032 C 
HETATM    4  C5  UNL     1     -35.007  14.620  -3.432  1.00 20.00     0.110 C 
HETATM    5  C6  UNL     1     -36.436  15.783  -5.086  1.00 20.00    -0.029 C 
HETATM    6  C7  UNL     1     -37.601  16.760  -4.904  1.00 20.00     0.019 C 
HETATM    7  C8  UNL     1     -36.494  15.154  -6.482  1.00 20.00     0.019 C 
ENDROOT
BRANCH   4   8
HETATM    8  C3  UNL     1     -34.278  13.403  -3.954  1.00 20.00     0.180 C 
HETATM    9  O9  UNL     1     -33.044  13.361  -3.694  1.00 20.00    -0.647 OA
HETATM   10  O10 UNL     1     -35.003  12.584  -4.586  1.00 20.00    -0.647 OA
ENDBRANCH   4   8
TORSDOF 1
ENDMDL
MODEL 7
REMARK VINA RESULT:      -4.1      1.400      2.346
REMARK  1 active torsions:
REMARK  status: ('A' for Active; 'I' for Inactive)
REMARK    1  A    between atoms: C3_3  and  C5_5 
ROOT
HETATM    1  C1  UNL     1     -34.976  14.687  -6.218  1.00 20.00    -0.015 C 
HETATM    2  C2  UNL     1     -36.211  15.187  -6.114  1.00 20.00    -0.021 C 
HETATM    3  C4  UNL     1     -35.121  15.634  -4.044  1.00 20.00     0.032 C 
HETATM    4  C5  UNL     1     -34.216  14.789  -4.943  1.00 20.00     0.110 C 
HETATM    5  C6  UNL     1     -36.508  15.701  -4.733  1.00 20.00    -0.029 C 
HETATM    6  C7  UNL     1     -37.031  17.139  -4.780  1.00 20.00     0.019 C 
HETATM    7  C8  UNL     1     -37.528  14.796  -4.033  1.00 20.00     0.019 C 
ENDROOT
BRANCH   4   8
HETATM    8  C3  UNL     1     -34.026  13.393  -4.395  1.00 20.00     0.180 C 
HETATM    9  O9  UNL     1     -33.035  13.246  -3.627  1.00 20.00    -0.647 OA
HETATM   10  O10 UNL     1     -34.889  12.553  -4.778  1.00 20.00    -0.647 OA
ENDBRANCH   4   8
TORSDOF 1
ENDMDL
MODEL 8
REMARK VINA RESULT:      -4.1      1.499      1.935
REMARK  1 active torsions:
REMARK  status: ('A' for Active; 'I' for Inactive)
REMARK    1  A    between atoms: C3_3  and  C5_5 
ROOT
HETATM    1  C1  UNL     1     -34.463  14.947  -2.922  1.00 20.00    -0.015 C 
HETATM    2  C2  UNL     1     -33.807  16.104  -3.059  1.00 20.00    -0.021 C 
HETATM    3  C4  UNL     1     -35.665  16.198  -4.545  1.00 20.00     0.032 C 
HETATM    4  C5  UNL     1     -35.587  14.818  -3.888  1.00 20.00     0.110 C 
HETATM    5  C6  UNL     1     -34.368  16.955  -4.163  1.00 20.00    -0.029 C 
HETATM    6  C7  UNL     1     -34.682  18.369  -3.665  1.00 20.00     0.019 C 
HETATM    7  C8  UNL     1     -33.388  17.021  -5.339  1.00 20.00     0.019 C 
ENDROOT
BRANCH   4   8
HETATM    8  C3  UNL     1     -35.229  13.740  -4.886  1.00 20.00     0.180 C 
HETATM    9  O9  UNL     1     -34.941  12.618  -4.387  1.00 20.00    -0.647 OA
HETATM   10  O10 UNL     1     -35.266  14.106  -6.095  1.00 20.00    -0.647 OA
ENDBRANCH   4   8
TORSDOF 1
ENDMDL
MODEL 9
REMARK VINA RESULT:      -4.1      2.064      3.144
REMARK  1 active torsions:
REMARK  status: ('A' for Active; 'I' for Inactive)
REMARK    1  A    between atoms: C3_3  and  C5_5 
ROOT
HETATM    1  C1  UNL     1     -33.889  14.309  -3.777  1.00 20.00    -0.015 C 
HETATM    2  C2  UNL     1     -33.477  15.364  -3.067  1.00 20.00    -0.021 C 
HETATM    3  C4  UNL     1     -35.858  15.410  -3.031  1.00 20.00     0.032 C 
HETATM    4  C5  UNL     1     -35.367  14.282  -3.941  1.00 20.00     0.110 C 
HETATM    5  C6  UNL     1     -34.614  16.250  -2.642  1.00 20.00    -0.029 C 
HETATM    6  C7  UNL     1     -34.576  16.511  -1.133  1.00 20.00     0.019 C 
HETATM    7  C8  UNL     1     -34.571  17.579  -3.403  1.00 20.00     0.019 C 
ENDROOT
BRANCH   4   8
HETATM    8  C3  UNL     1     -35.685  14.553  -5.394  1.00 20.00     0.180 C 
HETATM    9  O9  UNL     1     -36.572  15.427  -5.597  1.00 20.00    -0.647 OA
HETATM   10  O10 UNL     1     -35.017  13.867  -6.218  1.00 20.00    -0.647 OA
ENDBRANCH   4   8
TORSDOF 1
ENDMDL
