MODEL 1
REMARK VINA RESULT:      -3.3      0.000      0.000
REMARK  0 active torsions:
REMARK  status: ('A' for Active; 'I' for Inactive)
ROOT
HETATM    1  C1  UNL     1     -34.467  13.665  -4.291  1.00 20.00     0.080 C 
HETATM    2  C2  UNL     1     -32.349  14.693  -3.548  1.00 20.00     0.043 C 
HETATM    3  C3  UNL     1     -34.563  15.573  -2.728  1.00 20.00     0.043 C 
HETATM    4  C4  UNL     1     -33.819  14.924  -3.893  1.00 20.00     0.099 C 
HETATM    5  N5  UNL     1     -34.977  12.670  -4.602  1.00 20.00    -0.196 NA
HETATM    6 BR6  UNL     1     -33.887  16.175  -5.417  1.00 20.00    -0.070 Br
ENDROOT
TORSDOF 0
ENDMDL
MODEL 2
REMARK VINA RESULT:      -3.3      1.423      1.930
REMARK  0 active torsions:
REMARK  status: ('A' for Active; 'I' for Inactive)
ROOT
HETATM    1  C1  UNL     1     -34.490  13.724  -4.225  1.00 20.00     0.080 C 
HETATM    2  C2  UNL     1     -33.875  15.914  -5.181  1.00 20.00     0.043 C 
HETATM    3  C3  UNL     1     -32.337  14.738  -3.571  1.00 20.00     0.043 C 
HETATM    4  C4  UNL     1     -33.789  14.991  -3.968  1.00 20.00     0.099 C 
HETATM    5  N5  UNL     1     -35.041  12.723  -4.430  1.00 20.00    -0.196 NA
HETATM    6 BR6  UNL     1     -34.671  15.903  -2.458  1.00 20.00    -0.070 Br
ENDROOT
TORSDOF 0
ENDMDL
MODEL 3
REMARK VINA RESULT:      -3.1      2.025      2.755
REMARK  0 active torsions:
REMARK  status: ('A' for Active; 'I' for Inactive)
ROOT
HETATM    1  C1  UNL     1     -34.804  13.791  -5.071  1.00 20.00     0.080 C 
HETATM    2  C2  UNL     1     -36.135  15.817  -5.534  1.00 20.00     0.043 C 
HETATM    3  C3  UNL     1     -34.439  14.985  -7.200  1.00 20.00     0.043 C 
HETATM    4  C4  UNL     1     -34.794  15.111  -5.721  1.00 20.00     0.099 C 
HETATM    5  N5  UNL     1     -34.815  12.749  -4.561  1.00 20.00    -0.196 NA
HETATM    6 BR6  UNL     1     -33.408  16.222  -4.864  1.00 20.00    -0.070 Br
ENDROOT
TORSDOF 0
ENDMDL
MODEL 4
REMARK VINA RESULT:      -3.1      2.377      2.741
REMARK  0 active torsions:
REMARK  status: ('A' for Active; 'I' for Inactive)
ROOT
HETATM    1  C1  UNL     1     -36.672  14.598  -3.800  1.00 20.00     0.080 C 
HETATM    2  C2  UNL     1     -34.890  15.746  -5.064  1.00 20.00     0.043 C 
HETATM    3  C3  UNL     1     -34.395  13.647  -3.763  1.00 20.00     0.043 C 
HETATM    4  C4  UNL     1     -35.237  14.918  -3.828  1.00 20.00     0.099 C 
HETATM    5  N5  UNL     1     -37.804  14.343  -3.781  1.00 20.00    -0.196 NA
HETATM    6 BR6  UNL     1     -34.804  16.005  -2.239  1.00 20.00    -0.070 Br
ENDROOT
TORSDOF 0
ENDMDL
MODEL 5
REMARK VINA RESULT:      -3.1      1.664      1.833
REMARK  0 active torsions:
REMARK  status: ('A' for Active; 'I' for Inactive)
ROOT
HETATM    1  C1  UNL     1     -36.366  14.578  -3.766  1.00 20.00     0.080 C 
HETATM    2  C2  UNL     1     -34.074  13.666  -3.699  1.00 20.00     0.043 C 
HETATM    3  C3  UNL     1     -34.662  15.758  -2.425  1.00 20.00     0.043 C 
HETATM    4  C4  UNL     1     -34.939  14.924  -3.673  1.00 20.00     0.099 C 
HETATM    5  N5  UNL     1     -37.491  14.303  -3.835  1.00 20.00    -0.196 NA
HETATM    6 BR6  UNL     1     -34.455  16.016  -5.243  1.00 20.00    -0.070 Br
ENDROOT
TORSDOF 0
ENDMDL
MODEL 6
REMARK VINA RESULT:      -3.1      2.321      2.581
REMARK  0 active torsions:
REMARK  status: ('A' for Active; 'I' for Inactive)
ROOT
HETATM    1  C1  UNL     1     -36.516  14.734  -3.702  1.00 20.00     0.080 C 
HETATM    2  C2  UNL     1     -34.881  15.848  -2.226  1.00 20.00     0.043 C 
HETATM    3  C3  UNL     1     -34.901  16.310  -4.702  1.00 20.00     0.043 C 
HETATM    4  C4  UNL     1     -35.149  15.268  -3.613  1.00 20.00     0.099 C 
HETATM    5  N5  UNL     1     -37.597  14.316  -3.771  1.00 20.00    -0.196 NA
HETATM    6 BR6  UNL     1     -33.876  13.789  -3.900  1.00 20.00    -0.070 Br
ENDROOT
TORSDOF 0
ENDMDL
MODEL 7
REMARK VINA RESULT:      -3.0      2.088      2.581
REMARK  0 active torsions:
REMARK  status: ('A' for Active; 'I' for Inactive)
ROOT
HETATM    1  C1  UNL     1     -34.084  14.108  -3.654  1.00 20.00     0.080 C 
HETATM    2  C2  UNL     1     -36.428  14.881  -3.603  1.00 20.00     0.043 C 
HETATM    3  C3  UNL     1     -34.643  16.265  -4.717  1.00 20.00     0.043 C 
HETATM    4  C4  UNL     1     -34.957  15.291  -3.585  1.00 20.00     0.099 C 
HETATM    5  N5  UNL     1     -33.397  13.175  -3.712  1.00 20.00    -0.196 NA
HETATM    6 BR6  UNL     1     -34.616  16.224  -1.881  1.00 20.00    -0.070 Br
ENDROOT
TORSDOF 0
ENDMDL
MODEL 8
REMARK VINA RESULT:      -3.0     11.845     12.543
REMARK  0 active torsions:
REMARK  status: ('A' for Active; 'I' for Inactive)
ROOT
HETATM    1  C1  UNL     1     -42.559   5.616  -2.430  1.00 20.00     0.080 C 
HETATM    2  C2  UNL     1     -41.071   7.019  -1.049  1.00 20.00     0.043 C 
HETATM    3  C3  UNL     1     -40.753   4.522  -1.152  1.00 20.00     0.043 C 
HETATM    4  C4  UNL     1     -41.764   5.665  -1.194  1.00 20.00     0.099 C 
HETATM    5  N5  UNL     1     -43.184   5.577  -3.407  1.00 20.00    -0.196 NA
HETATM    6 BR6  UNL     1     -42.979   5.447   0.344  1.00 20.00    -0.070 Br
ENDROOT
TORSDOF 0
ENDMDL
MODEL 9
REMARK VINA RESULT:      -2.9     12.477     12.729
REMARK  0 active torsions:
REMARK  status: ('A' for Active; 'I' for Inactive)
ROOT
HETATM    1  C1  UNL     1     -33.273   5.739   3.762  1.00 20.00     0.080 C 
HETATM    2  C2  UNL     1     -34.399   3.888   4.946  1.00 20.00     0.043 C 
HETATM    3  C3  UNL     1     -35.732   5.788   3.967  1.00 20.00     0.043 C 
HETATM    4  C4  UNL     1     -34.414   5.380   4.619  1.00 20.00     0.099 C 
HETATM    5  N5  UNL     1     -32.375   6.019   3.084  1.00 20.00    -0.196 NA
HETATM    6 BR6  UNL     1     -34.257   6.367   6.320  1.00 20.00    -0.070 Br
ENDROOT
TORSDOF 0
ENDMDL
