MODEL 1
REMARK VINA RESULT:      -5.1      0.000      0.000
REMARK  0 active torsions:
REMARK  status: ('A' for Active; 'I' for Inactive)
ROOT
HETATM    1  C1  UNL     1     -32.600   7.426   2.824  1.00 20.00     0.069 C 
HETATM    2  C2  UNL     1     -34.264   4.692   6.110  1.00 20.00     0.000 C 
HETATM    3  C3  UNL     1     -35.070   4.174   4.913  1.00 20.00     0.000 C 
HETATM    4  C4  UNL     1     -34.143   6.207   6.231  1.00 20.00     0.002 C 
HETATM    5  C5  UNL     1     -35.652   5.235   3.987  1.00 20.00     0.002 C 
HETATM    6  C6  UNL     1     -33.291   6.916   5.173  1.00 20.00     0.024 C 
HETATM    7  C7  UNL     1     -34.652   6.035   3.143  1.00 20.00     0.024 C 
HETATM    8  C8  UNL     1     -33.260   6.359   3.731  1.00 20.00     0.045 C 
HETATM    9  C9  UNL     1     -32.383   5.164   3.662  1.00 20.00     0.031 C 
HETATM   10  N10 UNL     1     -32.106   8.226   2.146  1.00 20.00    -0.196 NA
ENDROOT
TORSDOF 0
ENDMDL
MODEL 2
REMARK VINA RESULT:      -4.8     11.468     12.848
REMARK  0 active torsions:
REMARK  status: ('A' for Active; 'I' for Inactive)
ROOT
HETATM    1  C1  UNL     1     -37.343  14.612  -3.908  1.00 20.00     0.069 C 
HETATM    2  C2  UNL     1     -32.777  14.987  -3.697  1.00 20.00     0.000 C 
HETATM    3  C3  UNL     1     -33.092  16.198  -4.583  1.00 20.00     0.000 C 
HETATM    4  C4  UNL     1     -33.519  13.699  -4.033  1.00 20.00     0.002 C 
HETATM    5  C5  UNL     1     -34.112  15.970  -5.693  1.00 20.00     0.002 C 
HETATM    6  C6  UNL     1     -35.027  13.682  -3.759  1.00 20.00     0.024 C 
HETATM    7  C7  UNL     1     -35.563  15.736  -5.255  1.00 20.00     0.024 C 
HETATM    8  C8  UNL     1     -35.840  14.984  -3.934  1.00 20.00     0.045 C 
HETATM    9  C9  UNL     1     -35.622  15.885  -2.776  1.00 20.00     0.031 C 
HETATM   10  N10 UNL     1     -38.468  14.331  -3.889  1.00 20.00    -0.196 NA
ENDROOT
TORSDOF 0
ENDMDL
MODEL 3
REMARK VINA RESULT:      -4.7     11.487     12.542
REMARK  0 active torsions:
REMARK  status: ('A' for Active; 'I' for Inactive)
ROOT
HETATM    1  C1  UNL     1     -37.549  14.634  -3.932  1.00 20.00     0.069 C 
HETATM    2  C2  UNL     1     -33.377  16.375  -3.151  1.00 20.00     0.000 C 
HETATM    3  C3  UNL     1     -32.992  15.154  -3.995  1.00 20.00     0.000 C 
HETATM    4  C4  UNL     1     -34.426  16.137  -2.071  1.00 20.00     0.002 C 
HETATM    5  C5  UNL     1     -33.704  13.851  -3.656  1.00 20.00     0.002 C 
HETATM    6  C6  UNL     1     -35.852  15.843  -2.549  1.00 20.00     0.024 C 
HETATM    7  C7  UNL     1     -35.201  13.779  -3.985  1.00 20.00     0.024 C 
HETATM    8  C8  UNL     1     -36.060  15.057  -3.863  1.00 20.00     0.045 C 
HETATM    9  C9  UNL     1     -35.832  15.942  -5.032  1.00 20.00     0.031 C 
HETATM   10  N10 UNL     1     -38.663  14.318  -3.982  1.00 20.00    -0.196 NA
ENDROOT
TORSDOF 0
ENDMDL
MODEL 4
REMARK VINA RESULT:      -4.6     11.415     12.967
REMARK  0 active torsions:
REMARK  status: ('A' for Active; 'I' for Inactive)
ROOT
HETATM    1  C1  UNL     1     -34.680  16.300  -1.663  1.00 20.00     0.069 C 
HETATM    2  C2  UNL     1     -34.312  15.731  -6.199  1.00 20.00     0.000 C 
HETATM    3  C3  UNL     1     -34.776  14.325  -5.801  1.00 20.00     0.000 C 
HETATM    4  C4  UNL     1     -33.234  16.355  -5.320  1.00 20.00     0.002 C 
HETATM    5  C5  UNL     1     -34.105  13.719  -4.574  1.00 20.00     0.002 C 
HETATM    6  C6  UNL     1     -33.647  16.742  -3.896  1.00 20.00     0.024 C 
HETATM    7  C7  UNL     1     -34.437  14.362  -3.222  1.00 20.00     0.024 C 
HETATM    8  C8  UNL     1     -34.696  15.883  -3.154  1.00 20.00     0.045 C 
HETATM    9  C9  UNL     1     -36.058  16.195  -3.652  1.00 20.00     0.031 C 
HETATM   10  N10 UNL     1     -34.667  16.613  -0.546  1.00 20.00    -0.196 NA
ENDROOT
TORSDOF 0
ENDMDL
MODEL 5
REMARK VINA RESULT:      -4.5     11.546     12.927
REMARK  0 active torsions:
REMARK  status: ('A' for Active; 'I' for Inactive)
ROOT
HETATM    1  C1  UNL     1     -34.589  13.737  -4.324  1.00 20.00     0.069 C 
HETATM    2  C2  UNL     1     -33.733  18.151  -3.418  1.00 20.00     0.000 C 
HETATM    3  C3  UNL     1     -33.827  17.610  -1.986  1.00 20.00     0.000 C 
HETATM    4  C4  UNL     1     -34.801  17.664  -4.390  1.00 20.00     0.002 C 
HETATM    5  C5  UNL     1     -34.976  16.648  -1.707  1.00 20.00     0.002 C 
HETATM    6  C6  UNL     1     -34.740  16.188  -4.796  1.00 20.00     0.024 C 
HETATM    7  C7  UNL     1     -34.895  15.268  -2.372  1.00 20.00     0.024 C 
HETATM    8  C8  UNL     1     -34.248  15.142  -3.769  1.00 20.00     0.045 C 
HETATM    9  C9  UNL     1     -32.769  15.191  -3.657  1.00 20.00     0.031 C 
HETATM   10  N10 UNL     1     -34.845  12.685  -4.739  1.00 20.00    -0.196 NA
ENDROOT
TORSDOF 0
ENDMDL
MODEL 6
REMARK VINA RESULT:      -4.5     11.830     13.040
REMARK  0 active torsions:
REMARK  status: ('A' for Active; 'I' for Inactive)
ROOT
HETATM    1  C1  UNL     1     -37.388  14.631  -3.881  1.00 20.00     0.069 C 
HETATM    2  C2  UNL     1     -33.107  15.889  -4.946  1.00 20.00     0.000 C 
HETATM    3  C3  UNL     1     -32.936  15.644  -3.442  1.00 20.00     0.000 C 
HETATM    4  C4  UNL     1     -34.357  16.655  -5.362  1.00 20.00     0.002 C 
HETATM    5  C5  UNL     1     -34.036  16.195  -2.543  1.00 20.00     0.002 C 
HETATM    6  C6  UNL     1     -35.698  15.933  -5.185  1.00 20.00     0.024 C 
HETATM    7  C7  UNL     1     -35.407  15.514  -2.638  1.00 20.00     0.024 C 
HETATM    8  C8  UNL     1     -35.879  14.957  -4.000  1.00 20.00     0.045 C 
HETATM    9  C9  UNL     1     -35.203  13.668  -4.290  1.00 20.00     0.031 C 
HETATM   10  N10 UNL     1     -38.518  14.388  -3.793  1.00 20.00    -0.196 NA
ENDROOT
TORSDOF 0
ENDMDL
MODEL 7
REMARK VINA RESULT:      -4.4     11.365     12.649
REMARK  0 active torsions:
REMARK  status: ('A' for Active; 'I' for Inactive)
ROOT
HETATM    1  C1  UNL     1     -34.744  16.149  -1.838  1.00 20.00     0.069 C 
HETATM    2  C2  UNL     1     -34.875  14.022  -5.899  1.00 20.00     0.000 C 
HETATM    3  C3  UNL     1     -36.085  14.950  -6.057  1.00 20.00     0.000 C 
HETATM    4  C4  UNL     1     -34.748  13.308  -4.558  1.00 20.00     0.002 C 
HETATM    5  C5  UNL     1     -37.016  15.050  -4.854  1.00 20.00     0.002 C 
HETATM    6  C6  UNL     1     -34.413  14.181  -3.344  1.00 20.00     0.024 C 
HETATM    7  C7  UNL     1     -36.460  15.757  -3.612  1.00 20.00     0.024 C 
HETATM    8  C8  UNL     1     -34.957  15.626  -3.280  1.00 20.00     0.045 C 
HETATM    9  C9  UNL     1     -34.158  16.514  -4.160  1.00 20.00     0.031 C 
HETATM   10  N10 UNL     1     -34.584  16.540  -0.758  1.00 20.00    -0.196 NA
ENDROOT
TORSDOF 0
ENDMDL
MODEL 8
REMARK VINA RESULT:      -4.4     11.832     13.408
REMARK  0 active torsions:
REMARK  status: ('A' for Active; 'I' for Inactive)
ROOT
HETATM    1  C1  UNL     1     -34.609  17.382  -6.439  1.00 20.00     0.069 C 
HETATM    2  C2  UNL     1     -33.492  13.713  -3.924  1.00 20.00     0.000 C 
HETATM    3  C3  UNL     1     -35.011  13.514  -4.006  1.00 20.00     0.000 C 
HETATM    4  C4  UNL     1     -33.016  15.131  -3.634  1.00 20.00     0.002 C 
HETATM    5  C5  UNL     1     -35.862  14.759  -3.789  1.00 20.00     0.002 C 
HETATM    6  C6  UNL     1     -33.232  16.169  -4.741  1.00 20.00     0.024 C 
HETATM    7  C7  UNL     1     -35.804  15.832  -4.884  1.00 20.00     0.024 C 
HETATM    8  C8  UNL     1     -34.479  16.058  -5.647  1.00 20.00     0.045 C 
HETATM    9  C9  UNL     1     -34.282  14.992  -6.661  1.00 20.00     0.031 C 
HETATM   10  N10 UNL     1     -34.706  18.375  -7.031  1.00 20.00    -0.196 NA
ENDROOT
TORSDOF 0
ENDMDL
MODEL 9
REMARK VINA RESULT:      -4.3     11.724     13.305
REMARK  0 active torsions:
REMARK  status: ('A' for Active; 'I' for Inactive)
ROOT
HETATM    1  C1  UNL     1     -34.852  13.774  -4.408  1.00 20.00     0.069 C 
HETATM    2  C2  UNL     1     -34.646  18.058  -2.783  1.00 20.00     0.000 C 
HETATM    3  C3  UNL     1     -34.413  18.338  -4.272  1.00 20.00     0.000 C 
HETATM    4  C4  UNL     1     -33.881  16.878  -2.195  1.00 20.00     0.002 C 
HETATM    5  C5  UNL     1     -33.447  17.402  -4.988  1.00 20.00     0.002 C 
HETATM    6  C6  UNL     1     -34.304  15.482  -2.666  1.00 20.00     0.024 C 
HETATM    7  C7  UNL     1     -33.915  15.955  -5.190  1.00 20.00     0.024 C 
HETATM    8  C8  UNL     1     -34.806  15.294  -4.116  1.00 20.00     0.045 C 
HETATM    9  C9  UNL     1     -36.204  15.778  -4.240  1.00 20.00     0.031 C 
HETATM   10  N10 UNL     1     -34.886  12.636  -4.627  1.00 20.00    -0.196 NA
ENDROOT
TORSDOF 0
ENDMDL
