MODEL 1
REMARK VINA RESULT:      -4.9      0.000      0.000
REMARK  2 active torsions:
REMARK  status: ('A' for Active; 'I' for Inactive)
REMARK    1  A    between atoms: C2_2  and  C3_3 
REMARK    2  A    between atoms: C3_3  and  C4_4 
ROOT
HETATM    1  C3  UNL     1     -34.196   5.935   5.449  1.00 20.00     0.254 C 
HETATM    2  O5  UNL     1     -33.938   6.674   6.395  1.00 20.00    -0.283 OA
ENDROOT
BRANCH   1   3
HETATM    3  C2  UNL     1     -33.982   6.350   4.036  1.00 20.00     0.049 C 
HETATM    4  C1  UNL     1     -32.776   6.255   3.470  1.00 20.00     0.015 C 
ENDBRANCH   1   3
BRANCH   1   5
HETATM    5  C4  UNL     1     -34.747   4.554   5.655  1.00 20.00     0.455 C 
HETATM    6  F6  UNL     1     -35.687   4.525   6.633  1.00 20.00    -0.163 F 
HETATM    7  F7  UNL     1     -35.332   4.069   4.530  1.00 20.00    -0.163 F 
HETATM    8  F8  UNL     1     -33.783   3.668   6.009  1.00 20.00    -0.163 F 
ENDBRANCH   1   5
TORSDOF 2
ENDMDL
MODEL 2
REMARK VINA RESULT:      -4.9      0.012      1.338
REMARK  2 active torsions:
REMARK  status: ('A' for Active; 'I' for Inactive)
REMARK    1  A    between atoms: C2_2  and  C3_3 
REMARK    2  A    between atoms: C3_3  and  C4_4 
ROOT
HETATM    1  C3  UNL     1     -34.198   5.935   5.454  1.00 20.00     0.254 C 
HETATM    2  O5  UNL     1     -33.947   6.679   6.398  1.00 20.00    -0.283 OA
ENDROOT
BRANCH   1   3
HETATM    3  C2  UNL     1     -33.982   6.345   4.040  1.00 20.00     0.049 C 
HETATM    4  C1  UNL     1     -32.772   6.258   3.480  1.00 20.00     0.015 C 
ENDBRANCH   1   3
BRANCH   1   5
HETATM    5  C4  UNL     1     -34.744   4.552   5.663  1.00 20.00     0.455 C 
HETATM    6  F6  UNL     1     -35.321   4.060   4.538  1.00 20.00    -0.163 F 
HETATM    7  F7  UNL     1     -33.775   3.674   6.027  1.00 20.00    -0.163 F 
HETATM    8  F8  UNL     1     -35.689   4.519   6.636  1.00 20.00    -0.163 F 
ENDBRANCH   1   5
TORSDOF 2
ENDMDL
MODEL 3
REMARK VINA RESULT:      -4.9      0.007      1.337
REMARK  2 active torsions:
REMARK  status: ('A' for Active; 'I' for Inactive)
REMARK    1  A    between atoms: C2_2  and  C3_3 
REMARK    2  A    between atoms: C3_3  and  C4_4 
ROOT
HETATM    1  C3  UNL     1     -34.196   5.937   5.451  1.00 20.00     0.254 C 
HETATM    2  O5  UNL     1     -33.935   6.672   6.399  1.00 20.00    -0.283 OA
ENDROOT
BRANCH   1   3
HETATM    3  C2  UNL     1     -33.982   6.355   4.040  1.00 20.00     0.049 C 
HETATM    4  C1  UNL     1     -32.777   6.258   3.473  1.00 20.00     0.015 C 
ENDBRANCH   1   3
BRANCH   1   5
HETATM    5  C4  UNL     1     -34.750   4.557   5.653  1.00 20.00     0.455 C 
HETATM    6  F6  UNL     1     -33.785   3.668   5.999  1.00 20.00    -0.163 F 
HETATM    7  F7  UNL     1     -35.687   4.525   6.635  1.00 20.00    -0.163 F 
HETATM    8  F8  UNL     1     -35.343   4.076   4.531  1.00 20.00    -0.163 F 
ENDBRANCH   1   5
TORSDOF 2
ENDMDL
MODEL 4
REMARK VINA RESULT:      -4.8      2.432      3.254
REMARK  2 active torsions:
REMARK  status: ('A' for Active; 'I' for Inactive)
REMARK    1  A    between atoms: C2_2  and  C3_3 
REMARK    2  A    between atoms: C3_3  and  C4_4 
ROOT
HETATM    1  C3  UNL     1     -33.915   6.013   4.703  1.00 20.00     0.254 C 
HETATM    2  O5  UNL     1     -33.615   6.719   5.663  1.00 20.00    -0.283 OA
ENDROOT
BRANCH   1   3
HETATM    3  C2  UNL     1     -34.978   4.976   4.781  1.00 20.00     0.049 C 
HETATM    4  C1  UNL     1     -35.025   4.121   5.806  1.00 20.00     0.015 C 
ENDBRANCH   1   3
BRANCH   1   5
HETATM    5  C4  UNL     1     -33.225   6.152   3.377  1.00 20.00     0.455 C 
HETATM    6  F6  UNL     1     -33.853   5.446   2.403  1.00 20.00    -0.163 F 
HETATM    7  F7  UNL     1     -33.178   7.443   2.961  1.00 20.00    -0.163 F 
HETATM    8  F8  UNL     1     -31.943   5.707   3.420  1.00 20.00    -0.163 F 
ENDBRANCH   1   5
TORSDOF 2
ENDMDL
MODEL 5
REMARK VINA RESULT:      -4.8      1.532      1.683
REMARK  2 active torsions:
REMARK  status: ('A' for Active; 'I' for Inactive)
REMARK    1  A    between atoms: C2_2  and  C3_3 
REMARK    2  A    between atoms: C3_3  and  C4_4 
ROOT
HETATM    1  C3  UNL     1     -34.467   5.619   4.485  1.00 20.00     0.254 C 
HETATM    2  O5  UNL     1     -35.363   5.323   3.699  1.00 20.00    -0.283 OA
ENDROOT
BRANCH   1   3
HETATM    3  C2  UNL     1     -33.329   6.495   4.100  1.00 20.00     0.049 C 
HETATM    4  C1  UNL     1     -32.461   6.114   3.159  1.00 20.00     0.015 C 
ENDBRANCH   1   3
BRANCH   1   5
HETATM    5  C4  UNL     1     -34.461   5.113   5.899  1.00 20.00     0.455 C 
HETATM    6  F6  UNL     1     -33.959   6.031   6.763  1.00 20.00    -0.163 F 
HETATM    7  F7  UNL     1     -35.709   4.803   6.332  1.00 20.00    -0.163 F 
HETATM    8  F8  UNL     1     -33.708   3.992   6.036  1.00 20.00    -0.163 F 
ENDBRANCH   1   5
TORSDOF 2
ENDMDL
MODEL 6
REMARK VINA RESULT:      -4.8      1.530      2.053
REMARK  2 active torsions:
REMARK  status: ('A' for Active; 'I' for Inactive)
REMARK    1  A    between atoms: C2_2  and  C3_3 
REMARK    2  A    between atoms: C3_3  and  C4_4 
ROOT
HETATM    1  C3  UNL     1     -34.463   5.624   4.483  1.00 20.00     0.254 C 
HETATM    2  O5  UNL     1     -35.360   5.338   3.696  1.00 20.00    -0.283 OA
ENDROOT
BRANCH   1   3
HETATM    3  C2  UNL     1     -33.318   6.494   4.101  1.00 20.00     0.049 C 
HETATM    4  C1  UNL     1     -32.466   6.122   3.142  1.00 20.00     0.015 C 
ENDBRANCH   1   3
BRANCH   1   5
HETATM    5  C4  UNL     1     -34.459   5.112   5.894  1.00 20.00     0.455 C 
HETATM    6  F6  UNL     1     -33.710   3.988   6.024  1.00 20.00    -0.163 F 
HETATM    7  F7  UNL     1     -33.956   6.025   6.764  1.00 20.00    -0.163 F 
HETATM    8  F8  UNL     1     -35.708   4.803   6.328  1.00 20.00    -0.163 F 
ENDBRANCH   1   5
TORSDOF 2
ENDMDL
MODEL 7
REMARK VINA RESULT:      -4.8      1.531      1.765
REMARK  2 active torsions:
REMARK  status: ('A' for Active; 'I' for Inactive)
REMARK    1  A    between atoms: C2_2  and  C3_3 
REMARK    2  A    between atoms: C3_3  and  C4_4 
ROOT
HETATM    1  C3  UNL     1     -34.420   5.610   4.475  1.00 20.00     0.254 C 
HETATM    2  O5  UNL     1     -35.295   5.320   3.665  1.00 20.00    -0.283 OA
ENDROOT
BRANCH   1   3
HETATM    3  C2  UNL     1     -33.263   6.474   4.119  1.00 20.00     0.049 C 
HETATM    4  C1  UNL     1     -32.460   6.157   3.101  1.00 20.00     0.015 C 
ENDBRANCH   1   3
BRANCH   1   5
HETATM    5  C4  UNL     1     -34.459   5.110   5.890  1.00 20.00     0.455 C 
HETATM    6  F6  UNL     1     -35.718   4.785   6.279  1.00 20.00    -0.163 F 
HETATM    7  F7  UNL     1     -33.695   3.999   6.057  1.00 20.00    -0.163 F 
HETATM    8  F8  UNL     1     -34.001   6.035   6.771  1.00 20.00    -0.163 F 
ENDBRANCH   1   5
TORSDOF 2
ENDMDL
MODEL 8
REMARK VINA RESULT:      -4.8      2.559      2.959
REMARK  2 active torsions:
REMARK  status: ('A' for Active; 'I' for Inactive)
REMARK    1  A    between atoms: C2_2  and  C3_3 
REMARK    2  A    between atoms: C3_3  and  C4_4 
ROOT
HETATM    1  C3  UNL     1     -34.936   4.722   5.022  1.00 20.00     0.254 C 
HETATM    2  O5  UNL     1     -35.009   3.496   4.990  1.00 20.00    -0.283 OA
ENDROOT
BRANCH   1   3
HETATM    3  C2  UNL     1     -34.778   5.475   6.295  1.00 20.00     0.049 C 
HETATM    4  C1  UNL     1     -33.877   6.455   6.402  1.00 20.00     0.015 C 
ENDBRANCH   1   3
BRANCH   1   5
HETATM    5  C4  UNL     1     -35.001   5.548   3.771  1.00 20.00     0.455 C 
HETATM    6  F6  UNL     1     -36.280   5.779   3.382  1.00 20.00    -0.163 F 
HETATM    7  F7  UNL     1     -34.411   6.760   3.932  1.00 20.00    -0.163 F 
HETATM    8  F8  UNL     1     -34.376   4.944   2.728  1.00 20.00    -0.163 F 
ENDBRANCH   1   5
TORSDOF 2
ENDMDL
MODEL 9
REMARK VINA RESULT:      -4.8      1.719      2.808
REMARK  2 active torsions:
REMARK  status: ('A' for Active; 'I' for Inactive)
REMARK    1  A    between atoms: C2_2  and  C3_3 
REMARK    2  A    between atoms: C3_3  and  C4_4 
ROOT
HETATM    1  C3  UNL     1     -33.904   6.022   4.536  1.00 20.00     0.254 C 
HETATM    2  O5  UNL     1     -32.946   6.599   4.030  1.00 20.00    -0.283 OA
ENDROOT
BRANCH   1   3
HETATM    3  C2  UNL     1     -34.195   6.091   5.993  1.00 20.00     0.049 C 
HETATM    4  C1  UNL     1     -33.711   7.087   6.741  1.00 20.00     0.015 C 
ENDBRANCH   1   3
BRANCH   1   5
HETATM    5  C4  UNL     1     -34.854   5.201   3.713  1.00 20.00     0.455 C 
HETATM    6  F6  UNL     1     -34.369   4.960   2.469  1.00 20.00    -0.163 F 
HETATM    7  F7  UNL     1     -35.105   3.994   4.280  1.00 20.00    -0.163 F 
HETATM    8  F8  UNL     1     -36.054   5.817   3.554  1.00 20.00    -0.163 F 
ENDBRANCH   1   5
TORSDOF 2
ENDMDL
