MODEL 1
REMARK VINA RESULT:      -3.7      0.000      0.000
REMARK  2 active torsions:
REMARK  status: ('A' for Active; 'I' for Inactive)
REMARK    1  A    between atoms: C2_2  and  C6_6 
REMARK    2  A    between atoms: C6_6  and  N7_7 
ROOT
HETATM    1  C3  UNL     1     -35.190   4.649   6.216  1.00 20.00     0.060 C 
HETATM    2  C4  UNL     1     -34.290   5.898   6.206  1.00 20.00     0.274 C 
HETATM    3  C5  UNL     1     -35.189   4.810   4.684  1.00 20.00     0.274 C 
HETATM    4  N7  UNL     1     -33.889   5.515   4.827  1.00 20.00     0.093 N 
ENDROOT
BRANCH   4   5
HETATM    5  C6  UNL     1     -33.843   6.689   3.961  1.00 20.00     0.317 C 
BRANCH   5   6
HETATM    6  C2  UNL     1     -32.625   6.712   3.081  1.00 20.00     0.007 C 
HETATM    7  C1  UNL     1     -31.836   5.646   2.893  1.00 20.00     0.029 C 
HETATM    8 BR8  UNL     1     -32.306   8.326   2.183  1.00 20.00    -0.055 Br
ENDBRANCH   5   6
ENDBRANCH   4   5
TORSDOF 2
ENDMDL
MODEL 2
REMARK VINA RESULT:      -3.3     11.794     12.391
REMARK  2 active torsions:
REMARK  status: ('A' for Active; 'I' for Inactive)
REMARK    1  A    between atoms: C2_2  and  C6_6 
REMARK    2  A    between atoms: C6_6  and  N7_7 
ROOT
HETATM    1  C3  UNL     1     -34.836  13.314  -4.232  1.00 20.00     0.060 C 
HETATM    2  C4  UNL     1     -35.526  14.667  -3.976  1.00 20.00     0.274 C 
HETATM    3  C5  UNL     1     -33.558  14.041  -3.775  1.00 20.00     0.274 C 
HETATM    4  N7  UNL     1     -34.436  14.963  -3.010  1.00 20.00     0.093 N 
ENDROOT
BRANCH   4   5
HETATM    5  C6  UNL     1     -33.982  16.342  -3.155  1.00 20.00     0.317 C 
BRANCH   5   6
HETATM    6  C2  UNL     1     -34.128  17.137  -1.886  1.00 20.00     0.007 C 
HETATM    7  C1  UNL     1     -34.616  16.620  -0.750  1.00 20.00     0.029 C 
HETATM    8 BR8  UNL     1     -33.508  18.903  -1.963  1.00 20.00    -0.055 Br
ENDBRANCH   5   6
ENDBRANCH   4   5
TORSDOF 2
ENDMDL
MODEL 3
REMARK VINA RESULT:      -3.2     12.130     12.844
REMARK  2 active torsions:
REMARK  status: ('A' for Active; 'I' for Inactive)
REMARK    1  A    between atoms: C2_2  and  C6_6 
REMARK    2  A    between atoms: C6_6  and  N7_7 
ROOT
HETATM    1  C3  UNL     1     -34.714  16.510  -1.317  1.00 20.00     0.060 C 
HETATM    2  C4  UNL     1     -33.628  16.443  -2.407  1.00 20.00     0.274 C 
HETATM    3  C5  UNL     1     -35.699  16.337  -2.488  1.00 20.00     0.274 C 
HETATM    4  N7  UNL     1     -34.597  15.673  -3.229  1.00 20.00     0.093 N 
ENDROOT
BRANCH   4   5
HETATM    5  C6  UNL     1     -34.566  16.124  -4.616  1.00 20.00     0.317 C 
BRANCH   5   6
HETATM    6  C2  UNL     1     -34.541  14.984  -5.597  1.00 20.00     0.007 C 
HETATM    7  C1  UNL     1     -34.374  15.155  -6.915  1.00 20.00     0.029 C 
HETATM    8 BR8  UNL     1     -34.685  13.272  -4.850  1.00 20.00    -0.055 Br
ENDBRANCH   5   6
ENDBRANCH   4   5
TORSDOF 2
ENDMDL
MODEL 4
REMARK VINA RESULT:      -3.1     12.186     12.676
REMARK  2 active torsions:
REMARK  status: ('A' for Active; 'I' for Inactive)
REMARK    1  A    between atoms: C2_2  and  C6_6 
REMARK    2  A    between atoms: C6_6  and  N7_7 
ROOT
HETATM    1  C3  UNL     1     -34.794  16.637  -1.318  1.00 20.00     0.060 C 
HETATM    2  C4  UNL     1     -33.674  16.272  -2.311  1.00 20.00     0.274 C 
HETATM    3  C5  UNL     1     -35.732  16.445  -2.524  1.00 20.00     0.274 C 
HETATM    4  N7  UNL     1     -34.702  15.539  -3.095  1.00 20.00     0.093 N 
ENDROOT
BRANCH   4   5
HETATM    5  C6  UNL     1     -34.533  15.789  -4.523  1.00 20.00     0.317 C 
BRANCH   5   6
HETATM    6  C2  UNL     1     -34.613  14.533  -5.345  1.00 20.00     0.007 C 
HETATM    7  C1  UNL     1     -34.588  13.304  -4.810  1.00 20.00     0.029 C 
HETATM    8 BR8  UNL     1     -34.830  14.785  -7.189  1.00 20.00    -0.055 Br
ENDBRANCH   5   6
ENDBRANCH   4   5
TORSDOF 2
ENDMDL
MODEL 5
REMARK VINA RESULT:      -3.1      2.116      3.973
REMARK  2 active torsions:
REMARK  status: ('A' for Active; 'I' for Inactive)
REMARK    1  A    between atoms: C2_2  and  C6_6 
REMARK    2  A    between atoms: C6_6  and  N7_7 
ROOT
HETATM    1  C3  UNL     1     -31.818   7.544   2.461  1.00 20.00     0.060 C 
HETATM    2  C4  UNL     1     -31.957   6.102   2.983  1.00 20.00     0.274 C 
HETATM    3  C5  UNL     1     -33.285   7.695   2.909  1.00 20.00     0.274 C 
HETATM    4  N7  UNL     1     -33.030   6.601   3.881  1.00 20.00     0.093 N 
ENDROOT
BRANCH   4   5
HETATM    5  C6  UNL     1     -34.152   5.668   3.910  1.00 20.00     0.317 C 
BRANCH   5   6
HETATM    6  C2  UNL     1     -34.520   5.247   5.305  1.00 20.00     0.007 C 
HETATM    7  C1  UNL     1     -35.042   4.048   5.595  1.00 20.00     0.029 C 
HETATM    8 BR8  UNL     1     -34.131   6.488   6.654  1.00 20.00    -0.055 Br
ENDBRANCH   5   6
ENDBRANCH   4   5
TORSDOF 2
ENDMDL
MODEL 6
REMARK VINA RESULT:      -3.1     12.015     12.646
REMARK  2 active torsions:
REMARK  status: ('A' for Active; 'I' for Inactive)
REMARK    1  A    between atoms: C2_2  and  C6_6 
REMARK    2  A    between atoms: C6_6  and  N7_7 
ROOT
HETATM    1  C3  UNL     1     -33.775  14.010  -4.024  1.00 20.00     0.060 C 
HETATM    2  C4  UNL     1     -34.879  14.826  -3.324  1.00 20.00     0.274 C 
HETATM    3  C5  UNL     1     -32.912  15.269  -3.817  1.00 20.00     0.274 C 
HETATM    4  N7  UNL     1     -33.795  15.605  -2.671  1.00 20.00     0.093 N 
ENDROOT
BRANCH   4   5
HETATM    5  C6  UNL     1     -34.115  17.028  -2.669  1.00 20.00     0.317 C 
BRANCH   5   6
HETATM    6  C2  UNL     1     -34.093  17.625  -1.289  1.00 20.00     0.007 C 
HETATM    7  C1  UNL     1     -34.683  17.050  -0.232  1.00 20.00     0.029 C 
HETATM    8 BR8  UNL     1     -33.112  19.212  -1.109  1.00 20.00    -0.055 Br
ENDBRANCH   5   6
ENDBRANCH   4   5
TORSDOF 2
ENDMDL
MODEL 7
REMARK VINA RESULT:      -3.1     11.990     12.832
REMARK  2 active torsions:
REMARK  status: ('A' for Active; 'I' for Inactive)
REMARK    1  A    between atoms: C2_2  and  C6_6 
REMARK    2  A    between atoms: C6_6  and  N7_7 
ROOT
HETATM    1  C3  UNL     1     -33.975  17.792  -0.058  1.00 20.00     0.060 C 
HETATM    2  C4  UNL     1     -33.670  18.269  -1.490  1.00 20.00     0.274 C 
HETATM    3  C5  UNL     1     -34.686  16.616  -0.753  1.00 20.00     0.274 C 
HETATM    4  N7  UNL     1     -33.792  16.850  -1.916  1.00 20.00     0.093 N 
ENDROOT
BRANCH   4   5
HETATM    5  C6  UNL     1     -34.538  16.752  -3.166  1.00 20.00     0.317 C 
BRANCH   5   6
HETATM    6  C2  UNL     1     -33.836  15.911  -4.196  1.00 20.00     0.007 C 
HETATM    7  C1  UNL     1     -33.260  16.424  -5.291  1.00 20.00     0.029 C 
HETATM    8 BR8  UNL     1     -33.745  14.078  -3.818  1.00 20.00    -0.055 Br
ENDBRANCH   5   6
ENDBRANCH   4   5
TORSDOF 2
ENDMDL
MODEL 8
REMARK VINA RESULT:      -3.0     12.235     13.579
REMARK  2 active torsions:
REMARK  status: ('A' for Active; 'I' for Inactive)
REMARK    1  A    between atoms: C2_2  and  C6_6 
REMARK    2  A    between atoms: C6_6  and  N7_7 
ROOT
HETATM    1  C3  UNL     1     -35.716  14.752  -7.914  1.00 20.00     0.060 C 
HETATM    2  C4  UNL     1     -36.441  15.098  -6.600  1.00 20.00     0.274 C 
HETATM    3  C5  UNL     1     -34.434  15.084  -7.128  1.00 20.00     0.274 C 
HETATM    4  N7  UNL     1     -35.184  14.743  -5.892  1.00 20.00     0.093 N 
ENDROOT
BRANCH   4   5
HETATM    5  C6  UNL     1     -34.899  15.708  -4.836  1.00 20.00     0.317 C 
BRANCH   5   6
HETATM    6  C2  UNL     1     -34.504  15.052  -3.542  1.00 20.00     0.007 C 
HETATM    7  C1  UNL     1     -34.099  13.777  -3.460  1.00 20.00     0.029 C 
HETATM    8 BR8  UNL     1     -34.536  16.159  -2.030  1.00 20.00    -0.055 Br
ENDBRANCH   5   6
ENDBRANCH   4   5
TORSDOF 2
ENDMDL
MODEL 9
REMARK VINA RESULT:      -3.0     11.887     12.491
REMARK  2 active torsions:
REMARK  status: ('A' for Active; 'I' for Inactive)
REMARK    1  A    between atoms: C2_2  and  C6_6 
REMARK    2  A    between atoms: C6_6  and  N7_7 
ROOT
HETATM    1  C3  UNL     1     -34.302  18.009  -1.240  1.00 20.00     0.060 C 
HETATM    2  C4  UNL     1     -34.581  16.518  -0.974  1.00 20.00     0.274 C 
HETATM    3  C5  UNL     1     -34.015  17.551  -2.683  1.00 20.00     0.274 C 
HETATM    4  N7  UNL     1     -34.903  16.390  -2.420  1.00 20.00     0.093 N 
ENDROOT
BRANCH   4   5
HETATM    5  C6  UNL     1     -34.325  15.167  -2.968  1.00 20.00     0.317 C 
BRANCH   5   6
HETATM    6  C2  UNL     1     -35.303  14.388  -3.803  1.00 20.00     0.007 C 
HETATM    7  C1  UNL     1     -34.964  13.294  -4.499  1.00 20.00     0.029 C 
HETATM    8 BR8  UNL     1     -37.074  14.999  -3.757  1.00 20.00    -0.055 Br
ENDBRANCH   5   6
ENDBRANCH   4   5
TORSDOF 2
ENDMDL
