MODEL 1
REMARK VINA RESULT:      -4.1      0.000      0.000
REMARK  2 active torsions:
REMARK  status: ('A' for Active; 'I' for Inactive)
REMARK    1  A    between atoms: C1_1  and  C6_6 
REMARK    2  A    between atoms: C6_6  and  N7_7 
ROOT
HETATM    1  C3  UNL     1     -35.158   5.012   6.214  1.00 20.00     0.060 C 
HETATM    2  C4  UNL     1     -34.739   4.693   4.766  1.00 20.00     0.274 C 
HETATM    3  C5  UNL     1     -34.044   6.074   6.153  1.00 20.00     0.274 C 
HETATM    4  N7  UNL     1     -34.229   6.087   4.679  1.00 20.00     0.091 N 
ENDROOT
BRANCH   4   5
HETATM    5  C6  UNL     1     -32.939   6.120   3.998  1.00 20.00     0.300 C 
BRANCH   5   6
HETATM    6  C1  UNL     1     -32.980   6.994   2.782  1.00 20.00     0.010 C 
HETATM    7  C2  UNL     1     -32.074   7.944   2.527  1.00 20.00     0.053 C 
HETATM    8 BR8  UNL     1     -32.095   9.032   1.024  1.00 20.00    -0.064 Br
ENDBRANCH   5   6
ENDBRANCH   4   5
TORSDOF 2
ENDMDL
MODEL 2
REMARK VINA RESULT:      -3.6     11.138     11.706
REMARK  2 active torsions:
REMARK  status: ('A' for Active; 'I' for Inactive)
REMARK    1  A    between atoms: C1_1  and  C6_6 
REMARK    2  A    between atoms: C6_6  and  N7_7 
ROOT
HETATM    1  C3  UNL     1     -35.143  13.297  -4.318  1.00 20.00     0.060 C 
HETATM    2  C4  UNL     1     -35.538  14.761  -4.042  1.00 20.00     0.274 C 
HETATM    3  C5  UNL     1     -33.757  13.722  -3.798  1.00 20.00     0.274 C 
HETATM    4  N7  UNL     1     -34.446  14.795  -3.035  1.00 20.00     0.091 N 
ENDROOT
BRANCH   4   5
HETATM    5  C6  UNL     1     -33.704  16.048  -3.124  1.00 20.00     0.300 C 
BRANCH   5   6
HETATM    6  C1  UNL     1     -33.846  16.863  -1.874  1.00 20.00     0.010 C 
HETATM    7  C2  UNL     1     -34.729  16.584  -0.909  1.00 20.00     0.053 C 
HETATM    8 BR8  UNL     1     -34.919  17.569   0.651  1.00 20.00    -0.064 Br
ENDBRANCH   5   6
ENDBRANCH   4   5
TORSDOF 2
ENDMDL
MODEL 3
REMARK VINA RESULT:      -3.4      2.955      5.029
REMARK  2 active torsions:
REMARK  status: ('A' for Active; 'I' for Inactive)
REMARK    1  A    between atoms: C1_1  and  C6_6 
REMARK    2  A    between atoms: C6_6  and  N7_7 
ROOT
HETATM    1  C3  UNL     1     -32.231   9.808   0.770  1.00 20.00     0.060 C 
HETATM    2  C4  UNL     1     -32.689   9.598   2.227  1.00 20.00     0.274 C 
HETATM    3  C5  UNL     1     -31.613   8.404   0.911  1.00 20.00     0.274 C 
HETATM    4  N7  UNL     1     -32.628   8.136   1.963  1.00 20.00     0.091 N 
ENDROOT
BRANCH   4   5
HETATM    5  C6  UNL     1     -32.025   7.435   3.092  1.00 20.00     0.300 C 
BRANCH   5   6
HETATM    6  C1  UNL     1     -32.843   6.249   3.505  1.00 20.00     0.010 C 
HETATM    7  C2  UNL     1     -33.903   6.332   4.316  1.00 20.00     0.053 C 
HETATM    8 BR8  UNL     1     -34.938   4.883   4.833  1.00 20.00    -0.064 Br
ENDBRANCH   5   6
ENDBRANCH   4   5
TORSDOF 2
ENDMDL
MODEL 4
REMARK VINA RESULT:      -3.3     11.829     12.808
REMARK  2 active torsions:
REMARK  status: ('A' for Active; 'I' for Inactive)
REMARK    1  A    between atoms: C1_1  and  C6_6 
REMARK    2  A    between atoms: C6_6  and  N7_7 
ROOT
HETATM    1  C3  UNL     1     -34.658  14.799  -6.856  1.00 20.00     0.060 C 
HETATM    2  C4  UNL     1     -34.039  15.940  -6.024  1.00 20.00     0.274 C 
HETATM    3  C5  UNL     1     -34.643  14.015  -5.530  1.00 20.00     0.274 C 
HETATM    4  N7  UNL     1     -34.680  15.326  -4.832  1.00 20.00     0.091 N 
ENDROOT
BRANCH   4   5
HETATM    5  C6  UNL     1     -33.764  15.331  -3.697  1.00 20.00     0.300 C 
BRANCH   5   6
HETATM    6  C1  UNL     1     -34.452  15.754  -2.435  1.00 20.00     0.010 C 
HETATM    7  C2  UNL     1     -34.000  16.734  -1.643  1.00 20.00     0.053 C 
HETATM    8 BR8  UNL     1     -34.837  17.285  -0.082  1.00 20.00    -0.064 Br
ENDBRANCH   5   6
ENDBRANCH   4   5
TORSDOF 2
ENDMDL
MODEL 5
REMARK VINA RESULT:      -3.2     10.324     11.022
REMARK  2 active torsions:
REMARK  status: ('A' for Active; 'I' for Inactive)
REMARK    1  A    between atoms: C1_1  and  C6_6 
REMARK    2  A    between atoms: C6_6  and  N7_7 
ROOT
HETATM    1  C3  UNL     1     -41.111   7.246  -0.804  1.00 20.00     0.060 C 
HETATM    2  C4  UNL     1     -41.834   6.622  -2.014  1.00 20.00     0.274 C 
HETATM    3  C5  UNL     1     -41.128   5.815  -0.236  1.00 20.00     0.274 C 
HETATM    4  N7  UNL     1     -41.202   5.330  -1.639  1.00 20.00     0.091 N 
ENDROOT
BRANCH   4   5
HETATM    5  C6  UNL     1     -42.161   4.237  -1.755  1.00 20.00     0.300 C 
BRANCH   5   6
HETATM    6  C1  UNL     1     -41.652   3.151  -2.653  1.00 20.00     0.010 C 
HETATM    7  C2  UNL     1     -42.389   2.099  -3.029  1.00 20.00     0.053 C 
HETATM    8 BR8  UNL     1     -41.788   0.747  -4.147  1.00 20.00    -0.064 Br
ENDBRANCH   5   6
ENDBRANCH   4   5
TORSDOF 2
ENDMDL
MODEL 6
REMARK VINA RESULT:      -3.2     11.500     11.944
REMARK  2 active torsions:
REMARK  status: ('A' for Active; 'I' for Inactive)
REMARK    1  A    between atoms: C1_1  and  C6_6 
REMARK    2  A    between atoms: C6_6  and  N7_7 
ROOT
HETATM    1  C3  UNL     1     -33.849  18.301   0.805  1.00 20.00     0.060 C 
HETATM    2  C4  UNL     1     -33.478  18.229  -0.689  1.00 20.00     0.274 C 
HETATM    3  C5  UNL     1     -34.994  17.344   0.420  1.00 20.00     0.274 C 
HETATM    4  N7  UNL     1     -34.154  16.906  -0.724  1.00 20.00     0.091 N 
ENDROOT
BRANCH   4   5
HETATM    5  C6  UNL     1     -34.959  16.772  -1.933  1.00 20.00     0.300 C 
BRANCH   5   6
HETATM    6  C1  UNL     1     -34.564  15.566  -2.729  1.00 20.00     0.010 C 
HETATM    7  C2  UNL     1     -35.418  14.873  -3.491  1.00 20.00     0.053 C 
HETATM    8 BR8  UNL     1     -34.952  13.384  -4.494  1.00 20.00    -0.064 Br
ENDBRANCH   5   6
ENDBRANCH   4   5
TORSDOF 2
ENDMDL
MODEL 7
REMARK VINA RESULT:      -3.0     12.011     13.017
REMARK  2 active torsions:
REMARK  status: ('A' for Active; 'I' for Inactive)
REMARK    1  A    between atoms: C1_1  and  C6_6 
REMARK    2  A    between atoms: C6_6  and  N7_7 
ROOT
HETATM    1  C3  UNL     1     -34.512  16.608  -1.594  1.00 20.00     0.060 C 
HETATM    2  C4  UNL     1     -34.269  15.494  -2.630  1.00 20.00     0.274 C 
HETATM    3  C5  UNL     1     -33.926  17.541  -2.671  1.00 20.00     0.274 C 
HETATM    4  N7  UNL     1     -34.363  16.542  -3.680  1.00 20.00     0.091 N 
ENDROOT
BRANCH   4   5
HETATM    5  C6  UNL     1     -33.331  16.349  -4.693  1.00 20.00     0.300 C 
BRANCH   5   6
HETATM    6  C1  UNL     1     -33.926  16.056  -6.037  1.00 20.00     0.010 C 
HETATM    7  C2  UNL     1     -34.768  15.042  -6.265  1.00 20.00     0.053 C 
HETATM    8 BR8  UNL     1     -35.526  14.664  -7.914  1.00 20.00    -0.064 Br
ENDBRANCH   5   6
ENDBRANCH   4   5
TORSDOF 2
ENDMDL
MODEL 8
REMARK VINA RESULT:      -3.0     10.094     10.688
REMARK  2 active torsions:
REMARK  status: ('A' for Active; 'I' for Inactive)
REMARK    1  A    between atoms: C1_1  and  C6_6 
REMARK    2  A    between atoms: C6_6  and  N7_7 
ROOT
HETATM    1  C3  UNL     1     -42.867   7.879  -0.942  1.00 20.00     0.060 C 
HETATM    2  C4  UNL     1     -43.146   6.373  -0.774  1.00 20.00     0.274 C 
HETATM    3  C5  UNL     1     -41.389   7.452  -1.019  1.00 20.00     0.274 C 
HETATM    4  N7  UNL     1     -41.866   6.125  -1.488  1.00 20.00     0.091 N 
ENDROOT
BRANCH   4   5
HETATM    5  C6  UNL     1     -41.118   5.052  -0.843  1.00 20.00     0.300 C 
BRANCH   5   6
HETATM    6  C1  UNL     1     -40.868   3.911  -1.783  1.00 20.00     0.010 C 
HETATM    7  C2  UNL     1     -41.815   3.382  -2.566  1.00 20.00     0.053 C 
HETATM    8 BR8  UNL     1     -41.531   1.979  -3.745  1.00 20.00    -0.064 Br
ENDBRANCH   5   6
ENDBRANCH   4   5
TORSDOF 2
ENDMDL
MODEL 9
REMARK VINA RESULT:      -2.9     10.415     10.875
REMARK  2 active torsions:
REMARK  status: ('A' for Active; 'I' for Inactive)
REMARK    1  A    between atoms: C1_1  and  C6_6 
REMARK    2  A    between atoms: C6_6  and  N7_7 
ROOT
HETATM    1  C3  UNL     1     -40.699   4.678  -1.003  1.00 20.00     0.060 C 
HETATM    2  C4  UNL     1     -41.102   6.118  -0.630  1.00 20.00     0.274 C 
HETATM    3  C5  UNL     1     -41.831   4.782  -2.043  1.00 20.00     0.274 C 
HETATM    4  N7  UNL     1     -41.634   6.254  -2.011  1.00 20.00     0.091 N 
ENDROOT
BRANCH   4   5
HETATM    5  C6  UNL     1     -42.919   6.945  -2.001  1.00 20.00     0.300 C 
BRANCH   5   6
HETATM    6  C1  UNL     1     -42.931   8.103  -2.951  1.00 20.00     0.010 C 
HETATM    7  C2  UNL     1     -42.289   8.099  -4.125  1.00 20.00     0.053 C 
HETATM    8 BR8  UNL     1     -42.295   9.514  -5.324  1.00 20.00    -0.064 Br
ENDBRANCH   5   6
ENDBRANCH   4   5
TORSDOF 2
ENDMDL
