MODEL 1
REMARK VINA RESULT:      -4.8      0.000      0.000
REMARK  3 active torsions:
REMARK  status: ('A' for Active; 'I' for Inactive)
REMARK    1  A    between atoms: C1_1  and  C4_4 
REMARK    2  A    between atoms: C2_2  and  C5_5 
REMARK    3  A    between atoms: C3_3  and  C4_4 
ROOT
HETATM    1  C1  UNL     1     -34.008   6.448   3.900  1.00 20.00    -0.019 C 
HETATM    2  C2  UNL     1     -32.794   6.258   3.362  1.00 20.00    -0.015 C 
ENDROOT
BRANCH   1   3
HETATM    3  C4  UNL     1     -35.053   5.380   3.989  1.00 20.00     0.140 C 
BRANCH   3   4
HETATM    4  C3  UNL     1     -34.946   4.735   5.366  1.00 20.00     0.176 C 
HETATM    5  O6  UNL     1     -34.785   5.540   6.325  1.00 20.00    -0.648 OA
HETATM    6  O7  UNL     1     -35.019   3.473   5.374  1.00 20.00    -0.648 OA
ENDBRANCH   3   4
ENDBRANCH   1   3
BRANCH   2   7
HETATM    7  C5  UNL     1     -31.758   7.328   3.260  1.00 20.00     0.141 C 
HETATM    8 CL8  UNL     1     -32.037   8.301   1.800  1.00 20.00    -0.126 Cl
ENDBRANCH   2   7
TORSDOF 3
ENDMDL
MODEL 2
REMARK VINA RESULT:      -4.2      3.460      4.522
REMARK  3 active torsions:
REMARK  status: ('A' for Active; 'I' for Inactive)
REMARK    1  A    between atoms: C1_1  and  C4_4 
REMARK    2  A    between atoms: C2_2  and  C5_5 
REMARK    3  A    between atoms: C3_3  and  C4_4 
ROOT
HETATM    1  C1  UNL     1     -33.427   6.002   3.892  1.00 20.00    -0.019 C 
HETATM    2  C2  UNL     1     -34.505   5.213   4.012  1.00 20.00    -0.015 C 
ENDROOT
BRANCH   1   3
HETATM    3  C4  UNL     1     -32.753   6.295   2.588  1.00 20.00     0.140 C 
BRANCH   3   4
HETATM    4  C3  UNL     1     -31.974   7.596   2.746  1.00 20.00     0.176 C 
HETATM    5  O6  UNL     1     -32.032   8.380   1.757  1.00 20.00    -0.648 OA
HETATM    6  O7  UNL     1     -31.357   7.723   3.841  1.00 20.00    -0.648 OA
ENDBRANCH   3   4
ENDBRANCH   1   3
BRANCH   2   7
HETATM    7  C5  UNL     1     -35.166   4.908   5.315  1.00 20.00     0.141 C 
HETATM    8 CL8  UNL     1     -34.462   5.912   6.600  1.00 20.00    -0.126 Cl
ENDBRANCH   2   7
TORSDOF 3
ENDMDL
MODEL 3
REMARK VINA RESULT:      -4.2      1.268      1.550
REMARK  3 active torsions:
REMARK  status: ('A' for Active; 'I' for Inactive)
REMARK    1  A    between atoms: C1_1  and  C4_4 
REMARK    2  A    between atoms: C2_2  and  C5_5 
REMARK    3  A    between atoms: C3_3  and  C4_4 
ROOT
HETATM    1  C1  UNL     1     -33.417   6.322   3.536  1.00 20.00    -0.019 C 
HETATM    2  C2  UNL     1     -32.357   7.138   3.432  1.00 20.00    -0.015 C 
ENDROOT
BRANCH   1   3
HETATM    3  C4  UNL     1     -33.899   5.748   4.831  1.00 20.00     0.140 C 
BRANCH   3   4
HETATM    4  C3  UNL     1     -35.117   4.880   4.534  1.00 20.00     0.176 C 
HETATM    5  O6  UNL     1     -35.108   3.739   5.075  1.00 20.00    -0.648 OA
HETATM    6  O7  UNL     1     -35.978   5.406   3.773  1.00 20.00    -0.648 OA
ENDBRANCH   3   4
ENDBRANCH   1   3
BRANCH   2   7
HETATM    7  C5  UNL     1     -31.867   7.697   2.137  1.00 20.00     0.141 C 
HETATM    8 CL8  UNL     1     -32.526   9.329   1.896  1.00 20.00    -0.126 Cl
ENDBRANCH   2   7
TORSDOF 3
ENDMDL
MODEL 4
REMARK VINA RESULT:      -4.1     11.484     11.898
REMARK  3 active torsions:
REMARK  status: ('A' for Active; 'I' for Inactive)
REMARK    1  A    between atoms: C1_1  and  C4_4 
REMARK    2  A    between atoms: C2_2  and  C5_5 
REMARK    3  A    between atoms: C3_3  and  C4_4 
ROOT
HETATM    1  C1  UNL     1     -34.384  15.439  -2.811  1.00 20.00    -0.019 C 
HETATM    2  C2  UNL     1     -34.909  16.193  -1.833  1.00 20.00    -0.015 C 
ENDROOT
BRANCH   1   3
HETATM    3  C4  UNL     1     -35.196  14.550  -3.700  1.00 20.00     0.140 C 
BRANCH   3   4
HETATM    4  C3  UNL     1     -34.312  13.384  -4.129  1.00 20.00     0.176 C 
HETATM    5  O6  UNL     1     -34.868  12.538  -4.885  1.00 20.00    -0.648 OA
HETATM    6  O7  UNL     1     -33.137  13.403  -3.665  1.00 20.00    -0.648 OA
ENDBRANCH   3   4
ENDBRANCH   1   3
BRANCH   2   7
HETATM    7  C5  UNL     1     -34.097  17.067  -0.936  1.00 20.00     0.141 C 
HETATM    8 CL8  UNL     1     -34.957  17.325   0.596  1.00 20.00    -0.126 Cl
ENDBRANCH   2   7
TORSDOF 3
ENDMDL
MODEL 5
REMARK VINA RESULT:      -4.1     11.465     11.857
REMARK  3 active torsions:
REMARK  status: ('A' for Active; 'I' for Inactive)
REMARK    1  A    between atoms: C1_1  and  C4_4 
REMARK    2  A    between atoms: C2_2  and  C5_5 
REMARK    3  A    between atoms: C3_3  and  C4_4 
ROOT
HETATM    1  C1  UNL     1     -34.361  15.380  -2.770  1.00 20.00    -0.019 C 
HETATM    2  C2  UNL     1     -34.894  16.235  -1.885  1.00 20.00    -0.015 C 
ENDROOT
BRANCH   1   3
HETATM    3  C4  UNL     1     -35.174  14.504  -3.672  1.00 20.00     0.140 C 
BRANCH   3   4
HETATM    4  C3  UNL     1     -34.287  13.352  -4.129  1.00 20.00     0.176 C 
HETATM    5  O6  UNL     1     -33.110  13.366  -3.669  1.00 20.00    -0.648 OA
HETATM    6  O7  UNL     1     -34.834  12.534  -4.921  1.00 20.00    -0.648 OA
ENDBRANCH   3   4
ENDBRANCH   1   3
BRANCH   2   7
HETATM    7  C5  UNL     1     -34.083  17.096  -0.974  1.00 20.00     0.141 C 
HETATM    8 CL8  UNL     1     -34.937  17.318   0.567  1.00 20.00    -0.126 Cl
ENDBRANCH   2   7
TORSDOF 3
ENDMDL
MODEL 6
REMARK VINA RESULT:      -4.1      4.029      5.098
REMARK  3 active torsions:
REMARK  status: ('A' for Active; 'I' for Inactive)
REMARK    1  A    between atoms: C1_1  and  C4_4 
REMARK    2  A    between atoms: C2_2  and  C5_5 
REMARK    3  A    between atoms: C3_3  and  C4_4 
ROOT
HETATM    1  C1  UNL     1     -32.971   6.596   2.965  1.00 20.00    -0.019 C 
HETATM    2  C2  UNL     1     -33.745   6.305   4.020  1.00 20.00    -0.015 C 
ENDROOT
BRANCH   1   3
HETATM    3  C4  UNL     1     -31.864   7.603   3.000  1.00 20.00     0.140 C 
BRANCH   3   4
HETATM    4  C3  UNL     1     -32.081   8.578   1.848  1.00 20.00     0.176 C 
HETATM    5  O6  UNL     1     -31.437   8.315   0.793  1.00 20.00    -0.648 OA
HETATM    6  O7  UNL     1     -32.869   9.535   2.096  1.00 20.00    -0.648 OA
ENDBRANCH   3   4
ENDBRANCH   1   3
BRANCH   2   7
HETATM    7  C5  UNL     1     -34.860   5.312   3.980  1.00 20.00     0.141 C 
HETATM    8 CL8  UNL     1     -35.032   4.533   5.567  1.00 20.00    -0.126 Cl
ENDBRANCH   2   7
TORSDOF 3
ENDMDL
MODEL 7
REMARK VINA RESULT:      -4.0     11.504     12.194
REMARK  3 active torsions:
REMARK  status: ('A' for Active; 'I' for Inactive)
REMARK    1  A    between atoms: C1_1  and  C4_4 
REMARK    2  A    between atoms: C2_2  and  C5_5 
REMARK    3  A    between atoms: C3_3  and  C4_4 
ROOT
HETATM    1  C1  UNL     1     -33.639  15.303  -3.224  1.00 20.00    -0.019 C 
HETATM    2  C2  UNL     1     -34.734  15.559  -2.493  1.00 20.00    -0.015 C 
ENDROOT
BRANCH   1   3
HETATM    3  C4  UNL     1     -33.297  13.949  -3.762  1.00 20.00     0.140 C 
BRANCH   3   4
HETATM    4  C3  UNL     1     -34.376  13.559  -4.765  1.00 20.00     0.176 C 
HETATM    5  O6  UNL     1     -34.411  14.260  -5.816  1.00 20.00    -0.648 OA
HETATM    6  O7  UNL     1     -35.109  12.591  -4.416  1.00 20.00    -0.648 OA
ENDBRANCH   3   4
ENDBRANCH   1   3
BRANCH   2   7
HETATM    7  C5  UNL     1     -35.066  16.907  -1.943  1.00 20.00     0.141 C 
HETATM    8 CL8  UNL     1     -34.755  16.939  -0.195  1.00 20.00    -0.126 Cl
ENDBRANCH   2   7
TORSDOF 3
ENDMDL
MODEL 8
REMARK VINA RESULT:      -3.8     11.644     12.091
REMARK  3 active torsions:
REMARK  status: ('A' for Active; 'I' for Inactive)
REMARK    1  A    between atoms: C1_1  and  C4_4 
REMARK    2  A    between atoms: C2_2  and  C5_5 
REMARK    3  A    between atoms: C3_3  and  C4_4 
ROOT
HETATM    1  C1  UNL     1     -34.268  16.107  -2.471  1.00 20.00    -0.019 C 
HETATM    2  C2  UNL     1     -34.702  16.310  -1.218  1.00 20.00    -0.015 C 
ENDROOT
BRANCH   1   3
HETATM    3  C4  UNL     1     -34.687  14.946  -3.317  1.00 20.00     0.140 C 
BRANCH   3   4
HETATM    4  C3  UNL     1     -33.431  14.181  -3.717  1.00 20.00     0.176 C 
HETATM    5  O6  UNL     1     -32.357  14.845  -3.659  1.00 20.00    -0.648 OA
HETATM    6  O7  UNL     1     -33.621  12.983  -4.070  1.00 20.00    -0.648 OA
ENDBRANCH   3   4
ENDBRANCH   1   3
BRANCH   2   7
HETATM    7  C5  UNL     1     -34.271  17.460  -0.369  1.00 20.00     0.141 C 
HETATM    8 CL8  UNL     1     -35.213  17.486   1.136  1.00 20.00    -0.126 Cl
ENDBRANCH   2   7
TORSDOF 3
ENDMDL
MODEL 9
REMARK VINA RESULT:      -3.5     12.030     12.829
REMARK  3 active torsions:
REMARK  status: ('A' for Active; 'I' for Inactive)
REMARK    1  A    between atoms: C1_1  and  C4_4 
REMARK    2  A    between atoms: C2_2  and  C5_5 
REMARK    3  A    between atoms: C3_3  and  C4_4 
ROOT
HETATM    1  C1  UNL     1     -34.597  15.792  -4.193  1.00 20.00    -0.019 C 
HETATM    2  C2  UNL     1     -33.544  16.488  -4.649  1.00 20.00    -0.015 C 
ENDROOT
BRANCH   1   3
HETATM    3  C4  UNL     1     -34.500  14.735  -3.138  1.00 20.00     0.140 C 
BRANCH   3   4
HETATM    4  C3  UNL     1     -34.131  13.424  -3.823  1.00 20.00     0.176 C 
HETATM    5  O6  UNL     1     -35.100  12.796  -4.338  1.00 20.00    -0.648 OA
HETATM    6  O7  UNL     1     -32.905  13.121  -3.779  1.00 20.00    -0.648 OA
ENDBRANCH   3   4
ENDBRANCH   1   3
BRANCH   2   7
HETATM    7  C5  UNL     1     -33.639  17.531  -5.713  1.00 20.00     0.141 C 
HETATM    8 CL8  UNL     1     -34.402  16.846  -7.163  1.00 20.00    -0.126 Cl
ENDBRANCH   2   7
TORSDOF 3
ENDMDL
