MODEL 1
REMARK VINA RESULT:      -5.4      0.000      0.000
REMARK  0 active torsions:
REMARK  status: ('A' for Active; 'I' for Inactive)
ROOT
HETATM    1  C1  UNL     1     -33.368  16.221  -4.219  1.00 20.00    -0.023 C 
HETATM    2  C2  UNL     1     -34.035  15.661  -5.240  1.00 20.00    -0.014 C 
HETATM    3  C3  UNL     1     -35.833  14.835  -3.654  1.00 20.00     0.144 C 
HETATM    4  C4  UNL     1     -33.658  15.961  -2.810  1.00 20.00     0.028 A 
HETATM    5  C5  UNL     1     -34.925  15.194  -2.529  1.00 20.00     0.073 A 
HETATM    6  C6  UNL     1     -35.216  14.730  -5.062  1.00 20.00     0.031 C 
HETATM    7  C7  UNL     1     -34.793  16.636  -2.064  1.00 20.00    -0.029 A 
HETATM    8  C8  UNL     1     -36.293  15.102  -6.093  1.00 20.00     0.027 C 
HETATM    9  C9  UNL     1     -34.768  13.280  -5.280  1.00 20.00     0.027 C 
HETATM   10  C10 UNL     1     -34.599  16.864  -0.584  1.00 20.00     0.016 C 
HETATM   11  C11 UNL     1     -35.602  17.725  -2.727  1.00 20.00     0.016 C 
HETATM   12  O12 UNL     1     -37.007  14.576  -3.411  1.00 20.00    -0.296 OA
ENDROOT
TORSDOF 0
ENDMDL
MODEL 2
REMARK VINA RESULT:      -5.2      1.790      4.166
REMARK  0 active torsions:
REMARK  status: ('A' for Active; 'I' for Inactive)
ROOT
HETATM    1  C1  UNL     1     -35.107  13.335  -4.467  1.00 20.00    -0.023 C 
HETATM    2  C2  UNL     1     -34.501  13.963  -3.448  1.00 20.00    -0.014 C 
HETATM    3  C3  UNL     1     -33.951  15.933  -4.947  1.00 20.00     0.144 C 
HETATM    4  C4  UNL     1     -35.000  13.749  -5.864  1.00 20.00     0.028 A 
HETATM    5  C5  UNL     1     -34.351  15.089  -6.107  1.00 20.00     0.073 A 
HETATM    6  C6  UNL     1     -33.673  15.221  -3.609  1.00 20.00     0.031 C 
HETATM    7  C7  UNL     1     -35.817  14.884  -6.452  1.00 20.00    -0.029 A 
HETATM    8  C8  UNL     1     -34.021  16.186  -2.464  1.00 20.00     0.027 C 
HETATM    9  C9  UNL     1     -32.183  14.868  -3.555  1.00 20.00     0.027 C 
HETATM   10  C10 UNL     1     -36.169  14.785  -7.918  1.00 20.00     0.016 C 
HETATM   11  C11 UNL     1     -36.893  15.556  -5.633  1.00 20.00     0.016 C 
HETATM   12  O12 UNL     1     -33.797  17.138  -5.114  1.00 20.00    -0.296 OA
ENDROOT
TORSDOF 0
ENDMDL
MODEL 3
REMARK VINA RESULT:      -5.0      1.640      2.568
REMARK  0 active torsions:
REMARK  status: ('A' for Active; 'I' for Inactive)
ROOT
HETATM    1  C1  UNL     1     -35.181  13.579  -4.253  1.00 20.00    -0.023 C 
HETATM    2  C2  UNL     1     -35.143  13.707  -5.588  1.00 20.00    -0.014 C 
HETATM    3  C3  UNL     1     -35.167  16.234  -5.378  1.00 20.00     0.144 C 
HETATM    4  C4  UNL     1     -35.477  14.674  -3.332  1.00 20.00     0.028 A 
HETATM    5  C5  UNL     1     -35.514  16.054  -3.940  1.00 20.00     0.073 A 
HETATM    6  C6  UNL     1     -35.346  15.022  -6.312  1.00 20.00     0.031 C 
HETATM    7  C7  UNL     1     -34.444  15.705  -2.918  1.00 20.00    -0.029 A 
HETATM    8  C8  UNL     1     -34.311  15.124  -7.443  1.00 20.00     0.027 C 
HETATM    9  C9  UNL     1     -36.761  15.076  -6.898  1.00 20.00     0.027 C 
HETATM   10  C10 UNL     1     -34.592  16.305  -1.540  1.00 20.00     0.016 C 
HETATM   11  C11 UNL     1     -33.004  15.558  -3.345  1.00 20.00     0.016 C 
HETATM   12  O12 UNL     1     -34.818  17.343  -5.770  1.00 20.00    -0.296 OA
ENDROOT
TORSDOF 0
ENDMDL
MODEL 4
REMARK VINA RESULT:      -5.0      1.762      2.458
REMARK  0 active torsions:
REMARK  status: ('A' for Active; 'I' for Inactive)
ROOT
HETATM    1  C1  UNL     1     -36.141  16.677  -3.972  1.00 20.00    -0.023 C 
HETATM    2  C2  UNL     1     -36.054  15.437  -4.476  1.00 20.00    -0.014 C 
HETATM    3  C3  UNL     1     -33.569  15.374  -3.975  1.00 20.00     0.144 C 
HETATM    4  C4  UNL     1     -34.988  17.519  -3.663  1.00 20.00     0.028 A 
HETATM    5  C5  UNL     1     -33.643  16.839  -3.713  1.00 20.00     0.073 A 
HETATM    6  C6  UNL     1     -34.742  14.726  -4.735  1.00 20.00     0.031 C 
HETATM    7  C7  UNL     1     -34.175  17.367  -2.391  1.00 20.00    -0.029 A 
HETATM    8  C8  UNL     1     -34.875  13.267  -4.269  1.00 20.00     0.027 C 
HETATM    9  C9  UNL     1     -34.420  14.764  -6.233  1.00 20.00     0.027 C 
HETATM   10  C10 UNL     1     -33.526  18.615  -1.841  1.00 20.00     0.016 C 
HETATM   11  C11 UNL     1     -34.617  16.409  -1.311  1.00 20.00     0.016 C 
HETATM   12  O12 UNL     1     -32.562  14.760  -3.639  1.00 20.00    -0.296 OA
ENDROOT
TORSDOF 0
ENDMDL
MODEL 5
REMARK VINA RESULT:      -4.9      1.444      3.972
REMARK  0 active torsions:
REMARK  status: ('A' for Active; 'I' for Inactive)
ROOT
HETATM    1  C1  UNL     1     -34.607  16.726  -5.650  1.00 20.00    -0.023 C 
HETATM    2  C2  UNL     1     -33.846  16.157  -4.703  1.00 20.00    -0.014 C 
HETATM    3  C3  UNL     1     -35.512  14.261  -4.459  1.00 20.00     0.144 C 
HETATM    4  C4  UNL     1     -35.984  16.334  -5.940  1.00 20.00     0.028 A 
HETATM    5  C5  UNL     1     -36.462  15.068  -5.274  1.00 20.00     0.073 A 
HETATM    6  C6  UNL     1     -34.298  14.990  -3.851  1.00 20.00     0.031 C 
HETATM    7  C7  UNL     1     -36.335  15.126  -6.788  1.00 20.00    -0.029 A 
HETATM    8  C8  UNL     1     -33.138  13.988  -3.736  1.00 20.00     0.027 C 
HETATM    9  C9  UNL     1     -34.691  15.491  -2.456  1.00 20.00     0.027 C 
HETATM   10  C10 UNL     1     -37.618  15.196  -7.582  1.00 20.00     0.016 C 
HETATM   11  C11 UNL     1     -35.251  14.344  -7.490  1.00 20.00     0.016 C 
HETATM   12  O12 UNL     1     -35.762  13.079  -4.250  1.00 20.00    -0.296 OA
ENDROOT
TORSDOF 0
ENDMDL
MODEL 6
REMARK VINA RESULT:      -4.7      1.044      1.063
REMARK  0 active torsions:
REMARK  status: ('A' for Active; 'I' for Inactive)
ROOT
HETATM    1  C1  UNL     1     -33.009  15.913  -4.173  1.00 20.00    -0.023 C 
HETATM    2  C2  UNL     1     -33.588  15.887  -5.383  1.00 20.00    -0.014 C 
HETATM    3  C3  UNL     1     -35.889  15.873  -4.318  1.00 20.00     0.144 C 
HETATM    4  C4  UNL     1     -33.718  15.660  -2.920  1.00 20.00     0.028 A 
HETATM    5  C5  UNL     1     -35.222  15.594  -3.015  1.00 20.00     0.073 A 
HETATM    6  C6  UNL     1     -35.068  15.649  -5.602  1.00 20.00     0.031 C 
HETATM    7  C7  UNL     1     -34.561  16.712  -2.224  1.00 20.00    -0.029 A 
HETATM    8  C8  UNL     1     -35.568  16.629  -6.675  1.00 20.00     0.027 C 
HETATM    9  C9  UNL     1     -35.295  14.207  -6.070  1.00 20.00     0.027 C 
HETATM   10  C10 UNL     1     -34.650  16.630  -0.718  1.00 20.00     0.016 C 
HETATM   11  C11 UNL     1     -34.593  18.130  -2.740  1.00 20.00     0.016 C 
HETATM   12  O12 UNL     1     -37.070  16.202  -4.322  1.00 20.00    -0.296 OA
ENDROOT
TORSDOF 0
ENDMDL
MODEL 7
REMARK VINA RESULT:      -4.7      1.011      3.911
REMARK  0 active torsions:
REMARK  status: ('A' for Active; 'I' for Inactive)
ROOT
HETATM    1  C1  UNL     1     -33.295  16.562  -4.952  1.00 20.00    -0.023 C 
HETATM    2  C2  UNL     1     -33.512  16.879  -3.667  1.00 20.00    -0.014 C 
HETATM    3  C3  UNL     1     -35.885  15.999  -3.816  1.00 20.00     0.144 C 
HETATM    4  C4  UNL     1     -34.350  16.192  -5.894  1.00 20.00     0.028 A 
HETATM    5  C5  UNL     1     -35.712  15.946  -5.294  1.00 20.00     0.073 A 
HETATM    6  C6  UNL     1     -34.875  16.839  -3.009  1.00 20.00     0.031 C 
HETATM    7  C7  UNL     1     -34.955  14.802  -5.949  1.00 20.00    -0.029 A 
HETATM    8  C8  UNL     1     -34.728  16.211  -1.614  1.00 20.00     0.027 C 
HETATM    9  C9  UNL     1     -35.430  18.262  -2.882  1.00 20.00     0.027 C 
HETATM   10  C10 UNL     1     -35.457  14.328  -7.292  1.00 20.00     0.016 C 
HETATM   11  C11 UNL     1     -34.385  13.686  -5.106  1.00 20.00     0.016 C 
HETATM   12  O12 UNL     1     -36.849  15.435  -3.310  1.00 20.00    -0.296 OA
ENDROOT
TORSDOF 0
ENDMDL
MODEL 8
REMARK VINA RESULT:      -4.6      1.754      2.422
REMARK  0 active torsions:
REMARK  status: ('A' for Active; 'I' for Inactive)
ROOT
HETATM    1  C1  UNL     1     -33.517  18.681  -2.265  1.00 20.00    -0.023 C 
HETATM    2  C2  UNL     1     -33.727  18.266  -3.523  1.00 20.00    -0.014 C 
HETATM    3  C3  UNL     1     -34.966  16.222  -2.676  1.00 20.00     0.144 C 
HETATM    4  C4  UNL     1     -33.738  17.853  -1.081  1.00 20.00     0.028 A 
HETATM    5  C5  UNL     1     -34.455  16.547  -1.315  1.00 20.00     0.073 A 
HETATM    6  C6  UNL     1     -34.278  16.900  -3.877  1.00 20.00     0.031 C 
HETATM    7  C7  UNL     1     -35.111  17.631  -0.475  1.00 20.00    -0.029 A 
HETATM    8  C8  UNL     1     -35.314  17.065  -5.000  1.00 20.00     0.027 C 
HETATM    9  C9  UNL     1     -33.139  15.991  -4.352  1.00 20.00     0.027 C 
HETATM   10  C10 UNL     1     -35.171  17.400   1.016  1.00 20.00     0.016 C 
HETATM   11  C11 UNL     1     -36.310  18.381  -1.004  1.00 20.00     0.016 C 
HETATM   12  O12 UNL     1     -35.858  15.389  -2.793  1.00 20.00    -0.296 OA
ENDROOT
TORSDOF 0
ENDMDL
MODEL 9
REMARK VINA RESULT:      -4.5      1.690      2.873
REMARK  0 active torsions:
REMARK  status: ('A' for Active; 'I' for Inactive)
ROOT
HETATM    1  C1  UNL     1     -35.013  16.635  -5.525  1.00 20.00    -0.023 C 
HETATM    2  C2  UNL     1     -36.300  17.013  -5.510  1.00 20.00    -0.014 C 
HETATM    3  C3  UNL     1     -36.971  14.805  -4.461  1.00 20.00     0.144 C 
HETATM    4  C4  UNL     1     -34.559  15.267  -5.285  1.00 20.00     0.028 A 
HETATM    5  C5  UNL     1     -35.602  14.306  -4.773  1.00 20.00     0.073 A 
HETATM    6  C6  UNL     1     -37.447  16.080  -5.182  1.00 20.00     0.031 C 
HETATM    7  C7  UNL     1     -34.419  14.677  -3.895  1.00 20.00    -0.029 A 
HETATM    8  C8  UNL     1     -38.432  16.819  -4.262  1.00 20.00     0.027 C 
HETATM    9  C9  UNL     1     -38.158  15.662  -6.474  1.00 20.00     0.027 C 
HETATM   10  C10 UNL     1     -33.352  13.626  -3.702  1.00 20.00     0.016 C 
HETATM   11  C11 UNL     1     -34.620  15.543  -2.674  1.00 20.00     0.016 C 
HETATM   12  O12 UNL     1     -37.681  14.154  -3.702  1.00 20.00    -0.296 OA
ENDROOT
TORSDOF 0
ENDMDL
