MODEL 1
REMARK VINA RESULT:      -4.9      0.000      0.000
REMARK  2 active torsions:
REMARK  status: ('A' for Active; 'I' for Inactive)
REMARK    1  A    between atoms: C3_3  and  C5_5 
REMARK    2  A    between atoms: C4_4  and  C5_5 
ROOT
HETATM    1  C1  UNL     1     -32.049   7.028   3.380  1.00 20.00     0.012 C 
HETATM    2  C2  UNL     1     -32.958   6.279   3.151  1.00 20.00    -0.117 C 
HETATM    3  C4  UNL     1     -34.071   5.359   2.870  1.00 20.00     0.101 C 
ENDROOT
BRANCH   3   4
HETATM    4  C5  UNL     1     -35.197   5.498   3.895  1.00 20.00     0.108 C 
BRANCH   4   5
HETATM    5  C3  UNL     1     -34.928   4.759   5.197  1.00 20.00     0.219 C 
HETATM    6  O6  UNL     1     -35.054   3.544   5.316  1.00 20.00    -0.280 OA
HETATM    7 CL7  UNL     1     -34.461   5.855   6.468  1.00 20.00    -0.044 Cl
ENDBRANCH   4   5
ENDBRANCH   3   4
TORSDOF 2
ENDMDL
MODEL 2
REMARK VINA RESULT:      -4.6      2.479      3.072
REMARK  2 active torsions:
REMARK  status: ('A' for Active; 'I' for Inactive)
REMARK    1  A    between atoms: C3_3  and  C5_5 
REMARK    2  A    between atoms: C4_4  and  C5_5 
ROOT
HETATM    1  C1  UNL     1     -33.683   7.006   6.603  1.00 20.00     0.012 C 
HETATM    2  C2  UNL     1     -34.292   5.986   6.429  1.00 20.00    -0.117 C 
HETATM    3  C4  UNL     1     -35.039   4.737   6.217  1.00 20.00     0.101 C 
ENDROOT
BRANCH   3   4
HETATM    4  C5  UNL     1     -34.894   4.222   4.785  1.00 20.00     0.108 C 
BRANCH   4   5
HETATM    5  C3  UNL     1     -35.063   5.305   3.730  1.00 20.00     0.219 C 
HETATM    6  O6  UNL     1     -36.148   5.805   3.452  1.00 20.00    -0.280 OA
HETATM    7 CL7  UNL     1     -33.545   5.699   2.971  1.00 20.00    -0.044 Cl
ENDBRANCH   4   5
ENDBRANCH   3   4
TORSDOF 2
ENDMDL
MODEL 3
REMARK VINA RESULT:      -4.6      0.864      1.125
REMARK  2 active torsions:
REMARK  status: ('A' for Active; 'I' for Inactive)
REMARK    1  A    between atoms: C3_3  and  C5_5 
REMARK    2  A    between atoms: C4_4  and  C5_5 
ROOT
HETATM    1  C1  UNL     1     -32.118   8.145   2.119  1.00 20.00     0.012 C 
HETATM    2  C2  UNL     1     -32.400   7.228   2.840  1.00 20.00    -0.117 C 
HETATM    3  C4  UNL     1     -32.742   6.104   3.726  1.00 20.00     0.101 C 
ENDROOT
BRANCH   3   4
HETATM    4  C5  UNL     1     -34.239   5.794   3.698  1.00 20.00     0.108 C 
BRANCH   4   5
HETATM    5  C3  UNL     1     -34.714   4.983   4.895  1.00 20.00     0.219 C 
HETATM    6  O6  UNL     1     -35.240   3.880   4.789  1.00 20.00    -0.280 OA
HETATM    7 CL7  UNL     1     -34.441   5.832   6.391  1.00 20.00    -0.044 Cl
ENDBRANCH   4   5
ENDBRANCH   3   4
TORSDOF 2
ENDMDL
MODEL 4
REMARK VINA RESULT:      -4.6      1.801      1.948
REMARK  2 active torsions:
REMARK  status: ('A' for Active; 'I' for Inactive)
REMARK    1  A    between atoms: C3_3  and  C5_5 
REMARK    2  A    between atoms: C4_4  and  C5_5 
ROOT
HETATM    1  C1  UNL     1     -32.078   8.282   2.051  1.00 20.00     0.012 C 
HETATM    2  C2  UNL     1     -32.346   7.328   2.728  1.00 20.00    -0.117 C 
HETATM    3  C4  UNL     1     -32.670   6.158   3.559  1.00 20.00     0.101 C 
ENDROOT
BRANCH   3   4
HETATM    4  C5  UNL     1     -34.120   6.189   4.043  1.00 20.00     0.108 C 
BRANCH   4   5
HETATM    5  C3  UNL     1     -34.276   5.838   5.516  1.00 20.00     0.219 C 
HETATM    6  O6  UNL     1     -33.943   6.595   6.422  1.00 20.00    -0.280 OA
HETATM    7 CL7  UNL     1     -34.945   4.244   5.726  1.00 20.00    -0.044 Cl
ENDBRANCH   4   5
ENDBRANCH   3   4
TORSDOF 2
ENDMDL
MODEL 5
REMARK VINA RESULT:      -4.5      2.673      3.732
REMARK  2 active torsions:
REMARK  status: ('A' for Active; 'I' for Inactive)
REMARK    1  A    between atoms: C3_3  and  C5_5 
REMARK    2  A    between atoms: C4_4  and  C5_5 
ROOT
HETATM    1  C1  UNL     1     -35.045   4.300   6.056  1.00 20.00     0.012 C 
HETATM    2  C2  UNL     1     -34.931   4.824   4.983  1.00 20.00    -0.117 C 
HETATM    3  C4  UNL     1     -34.795   5.466   3.666  1.00 20.00     0.101 C 
ENDROOT
BRANCH   3   4
HETATM    4  C5  UNL     1     -33.976   6.754   3.743  1.00 20.00     0.108 C 
BRANCH   4   5
HETATM    5  C3  UNL     1     -32.608   6.646   3.086  1.00 20.00     0.219 C 
HETATM    6  O6  UNL     1     -31.913   5.637   3.151  1.00 20.00    -0.280 OA
HETATM    7 CL7  UNL     1     -32.169   8.125   2.278  1.00 20.00    -0.044 Cl
ENDBRANCH   4   5
ENDBRANCH   3   4
TORSDOF 2
ENDMDL
MODEL 6
REMARK VINA RESULT:      -4.2      3.300      4.081
REMARK  2 active torsions:
REMARK  status: ('A' for Active; 'I' for Inactive)
REMARK    1  A    between atoms: C3_3  and  C5_5 
REMARK    2  A    between atoms: C4_4  and  C5_5 
ROOT
HETATM    1  C1  UNL     1     -34.162   6.196   6.288  1.00 20.00     0.012 C 
HETATM    2  C2  UNL     1     -34.067   6.140   5.093  1.00 20.00    -0.117 C 
HETATM    3  C4  UNL     1     -33.953   6.072   3.628  1.00 20.00     0.101 C 
ENDROOT
BRANCH   3   4
HETATM    4  C5  UNL     1     -32.495   6.031   3.171  1.00 20.00     0.108 C 
BRANCH   4   5
HETATM    5  C3  UNL     1     -31.806   7.387   3.215  1.00 20.00     0.219 C 
HETATM    6  O6  UNL     1     -31.150   7.773   4.178  1.00 20.00    -0.280 OA
HETATM    7 CL7  UNL     1     -32.098   8.300   1.761  1.00 20.00    -0.044 Cl
ENDBRANCH   4   5
ENDBRANCH   3   4
TORSDOF 2
ENDMDL
MODEL 7
REMARK VINA RESULT:      -4.1      1.619      1.869
REMARK  2 active torsions:
REMARK  status: ('A' for Active; 'I' for Inactive)
REMARK    1  A    between atoms: C3_3  and  C5_5 
REMARK    2  A    between atoms: C4_4  and  C5_5 
ROOT
HETATM    1  C1  UNL     1     -32.227   6.209   3.183  1.00 20.00     0.012 C 
HETATM    2  C2  UNL     1     -32.926   6.460   4.126  1.00 20.00    -0.117 C 
HETATM    3  C4  UNL     1     -33.783   6.771   5.280  1.00 20.00     0.101 C 
ENDROOT
BRANCH   3   4
HETATM    4  C5  UNL     1     -34.362   5.508   5.916  1.00 20.00     0.108 C 
BRANCH   4   5
HETATM    5  C3  UNL     1     -35.104   4.616   4.931  1.00 20.00     0.219 C 
HETATM    6  O6  UNL     1     -35.086   3.391   4.993  1.00 20.00    -0.280 OA
HETATM    7 CL7  UNL     1     -35.932   5.554   3.719  1.00 20.00    -0.044 Cl
ENDBRANCH   4   5
ENDBRANCH   3   4
TORSDOF 2
ENDMDL
MODEL 8
REMARK VINA RESULT:      -4.0     11.624     12.128
REMARK  2 active torsions:
REMARK  status: ('A' for Active; 'I' for Inactive)
REMARK    1  A    between atoms: C3_3  and  C5_5 
REMARK    2  A    between atoms: C4_4  and  C5_5 
ROOT
HETATM    1  C1  UNL     1     -34.764  16.925  -0.290  1.00 20.00     0.012 C 
HETATM    2  C2  UNL     1     -34.451  16.490  -1.363  1.00 20.00    -0.117 C 
HETATM    3  C4  UNL     1     -34.064  15.957  -2.679  1.00 20.00     0.101 C 
ENDROOT
BRANCH   3   4
HETATM    4  C5  UNL     1     -35.085  14.949  -3.207  1.00 20.00     0.108 C 
BRANCH   4   5
HETATM    5  C3  UNL     1     -34.456  13.676  -3.754  1.00 20.00     0.219 C 
HETATM    6  O6  UNL     1     -35.112  12.765  -4.248  1.00 20.00    -0.280 OA
HETATM    7 CL7  UNL     1     -32.725  13.684  -3.558  1.00 20.00    -0.044 Cl
ENDBRANCH   4   5
ENDBRANCH   3   4
TORSDOF 2
ENDMDL
MODEL 9
REMARK VINA RESULT:      -4.0     12.174     12.570
REMARK  2 active torsions:
REMARK  status: ('A' for Active; 'I' for Inactive)
REMARK    1  A    between atoms: C3_3  and  C5_5 
REMARK    2  A    between atoms: C4_4  and  C5_5 
ROOT
HETATM    1  C1  UNL     1     -34.722  16.330  -1.506  1.00 20.00     0.012 C 
HETATM    2  C2  UNL     1     -34.040  15.960  -2.422  1.00 20.00    -0.117 C 
HETATM    3  C4  UNL     1     -33.203  15.510  -3.544  1.00 20.00     0.101 C 
ENDROOT
BRANCH   3   4
HETATM    4  C5  UNL     1     -33.271  13.995  -3.732  1.00 20.00     0.108 C 
BRANCH   4   5
HETATM    5  C3  UNL     1     -34.398  13.546  -4.651  1.00 20.00     0.219 C 
HETATM    6  O6  UNL     1     -35.126  12.591  -4.400  1.00 20.00    -0.280 OA
HETATM    7 CL7  UNL     1     -34.486  14.534  -6.083  1.00 20.00    -0.044 Cl
ENDBRANCH   4   5
ENDBRANCH   3   4
TORSDOF 2
ENDMDL
