MODEL 1
REMARK VINA RESULT:      -4.9      0.000      0.000
REMARK  0 active torsions:
REMARK  status: ('A' for Active; 'I' for Inactive)
ROOT
HETATM    1  C1  UNL     1     -34.004   6.220   5.322  1.00 20.00    -0.032 A 
HETATM    2  C2  UNL     1     -34.714   5.089   5.283  1.00 20.00     0.056 A 
HETATM    3  C3  UNL     1     -33.784   6.593   3.895  1.00 20.00     0.157 A 
HETATM    4  C4  UNL     1     -33.513   7.034   6.459  1.00 20.00     0.048 C 
HETATM    5  C5  UNL     1     -35.225   4.269   6.413  1.00 20.00     0.072 C 
HETATM    6  C6  UNL     1     -32.323   6.623   3.474  1.00 20.00     0.041 C 
HETATM    7  N7  UNL     1     -34.975   4.682   3.997  1.00 20.00    -0.160 NA
HETATM    8  N8  UNL     1     -34.475   5.493   3.168  1.00 20.00    -0.183 NA
ENDROOT
TORSDOF 0
ENDMDL
MODEL 2
REMARK VINA RESULT:      -4.4      1.797      3.470
REMARK  0 active torsions:
REMARK  status: ('A' for Active; 'I' for Inactive)
ROOT
HETATM    1  C1  UNL     1     -34.154   5.703   3.975  1.00 20.00    -0.032 A 
HETATM    2  C2  UNL     1     -33.176   6.528   4.358  1.00 20.00     0.056 A 
HETATM    3  C3  UNL     1     -34.935   5.421   5.214  1.00 20.00     0.157 A 
HETATM    4  C4  UNL     1     -34.508   5.148   2.647  1.00 20.00     0.048 C 
HETATM    5  C5  UNL     1     -32.099   7.143   3.538  1.00 20.00     0.072 C 
HETATM    6  C6  UNL     1     -34.941   3.958   5.629  1.00 20.00     0.041 C 
HETATM    7  N7  UNL     1     -33.228   6.809   5.702  1.00 20.00    -0.160 NA
HETATM    8  N8  UNL     1     -34.202   6.211   6.239  1.00 20.00    -0.183 NA
ENDROOT
TORSDOF 0
ENDMDL
MODEL 3
REMARK VINA RESULT:      -4.1     12.002     13.248
REMARK  0 active torsions:
REMARK  status: ('A' for Active; 'I' for Inactive)
ROOT
HETATM    1  C1  UNL     1     -34.055  15.174  -5.045  1.00 20.00    -0.032 A 
HETATM    2  C2  UNL     1     -34.726  14.217  -5.693  1.00 20.00     0.056 A 
HETATM    3  C3  UNL     1     -33.800  14.619  -3.684  1.00 20.00     0.157 A 
HETATM    4  C4  UNL     1     -33.583  16.510  -5.479  1.00 20.00     0.048 C 
HETATM    5  C5  UNL     1     -35.235  14.218  -7.090  1.00 20.00     0.072 C 
HETATM    6  C6  UNL     1     -34.445  15.410  -2.556  1.00 20.00     0.041 C 
HETATM    7  N7  UNL     1     -34.941  13.110  -4.909  1.00 20.00    -0.160 NA
HETATM    8  N8  UNL     1     -34.440  13.278  -3.762  1.00 20.00    -0.183 NA
ENDROOT
TORSDOF 0
ENDMDL
MODEL 4
REMARK VINA RESULT:      -3.9     11.747     12.334
REMARK  0 active torsions:
REMARK  status: ('A' for Active; 'I' for Inactive)
ROOT
HETATM    1  C1  UNL     1     -34.947  14.819  -3.299  1.00 20.00    -0.032 A 
HETATM    2  C2  UNL     1     -34.014  13.946  -3.691  1.00 20.00     0.056 A 
HETATM    3  C3  UNL     1     -36.228  14.297  -3.857  1.00 20.00     0.157 A 
HETATM    4  C4  UNL     1     -34.861  16.045  -2.471  1.00 20.00     0.048 C 
HETATM    5  C5  UNL     1     -32.553  13.958  -3.417  1.00 20.00     0.072 C 
HETATM    6  C6  UNL     1     -36.902  15.230  -4.851  1.00 20.00     0.041 C 
HETATM    7  N7  UNL     1     -34.540  12.923  -4.443  1.00 20.00    -0.160 NA
HETATM    8  N8  UNL     1     -35.788  13.068  -4.570  1.00 20.00    -0.183 NA
ENDROOT
TORSDOF 0
ENDMDL
MODEL 5
REMARK VINA RESULT:      -3.8      1.241      2.641
REMARK  0 active torsions:
REMARK  status: ('A' for Active; 'I' for Inactive)
ROOT
HETATM    1  C1  UNL     1     -33.521   6.061   4.305  1.00 20.00    -0.032 A 
HETATM    2  C2  UNL     1     -34.575   5.494   3.711  1.00 20.00     0.056 A 
HETATM    3  C3  UNL     1     -33.705   5.797   5.761  1.00 20.00     0.157 A 
HETATM    4  C4  UNL     1     -32.353   6.786   3.752  1.00 20.00     0.048 C 
HETATM    5  C5  UNL     1     -34.912   5.437   2.263  1.00 20.00     0.072 C 
HETATM    6  C6  UNL     1     -33.856   7.050   6.609  1.00 20.00     0.041 C 
HETATM    7  N7  UNL     1     -35.424   4.899   4.613  1.00 20.00    -0.160 NA
HETATM    8  N8  UNL     1     -34.984   5.037   5.788  1.00 20.00    -0.183 NA
ENDROOT
TORSDOF 0
ENDMDL
MODEL 6
REMARK VINA RESULT:      -3.8     11.767     12.500
REMARK  0 active torsions:
REMARK  status: ('A' for Active; 'I' for Inactive)
ROOT
HETATM    1  C1  UNL     1     -34.990  15.268  -2.972  1.00 20.00    -0.032 A 
HETATM    2  C2  UNL     1     -34.547  14.171  -3.591  1.00 20.00     0.056 A 
HETATM    3  C3  UNL     1     -36.464  15.277  -3.200  1.00 20.00     0.157 A 
HETATM    4  C4  UNL     1     -34.284  16.303  -2.178  1.00 20.00     0.048 C 
HETATM    5  C5  UNL     1     -33.156  13.652  -3.688  1.00 20.00     0.072 C 
HETATM    6  C6  UNL     1     -36.967  16.478  -3.985  1.00 20.00     0.041 C 
HETATM    7  N7  UNL     1     -35.560  13.470  -4.200  1.00 20.00    -0.160 NA
HETATM    8  N8  UNL     1     -36.668  14.048  -4.012  1.00 20.00    -0.183 NA
ENDROOT
TORSDOF 0
ENDMDL
MODEL 7
REMARK VINA RESULT:      -3.7     12.584     13.777
REMARK  0 active torsions:
REMARK  status: ('A' for Active; 'I' for Inactive)
ROOT
HETATM    1  C1  UNL     1     -33.938  16.488  -2.741  1.00 20.00    -0.032 A 
HETATM    2  C2  UNL     1     -33.890  17.508  -3.603  1.00 20.00     0.056 A 
HETATM    3  C3  UNL     1     -33.186  15.383  -3.402  1.00 20.00     0.157 A 
HETATM    4  C4  UNL     1     -34.542  16.367  -1.393  1.00 20.00     0.048 C 
HETATM    5  C5  UNL     1     -34.466  18.872  -3.467  1.00 20.00     0.072 C 
HETATM    6  C6  UNL     1     -34.021  14.145  -3.691  1.00 20.00     0.041 C 
HETATM    7  N7  UNL     1     -33.199  17.191  -4.747  1.00 20.00    -0.160 NA
HETATM    8  N8  UNL     1     -32.777  16.002  -4.691  1.00 20.00    -0.183 NA
ENDROOT
TORSDOF 0
ENDMDL
MODEL 8
REMARK VINA RESULT:      -3.7     12.727     13.791
REMARK  0 active torsions:
REMARK  status: ('A' for Active; 'I' for Inactive)
ROOT
HETATM    1  C1  UNL     1     -33.633  15.536  -3.774  1.00 20.00    -0.032 A 
HETATM    2  C2  UNL     1     -34.022  16.474  -2.905  1.00 20.00     0.056 A 
HETATM    3  C3  UNL     1     -33.225  16.283  -4.999  1.00 20.00     0.157 A 
HETATM    4  C4  UNL     1     -33.548  14.061  -3.656  1.00 20.00     0.048 C 
HETATM    5  C5  UNL     1     -34.522  16.307  -1.515  1.00 20.00     0.072 C 
HETATM    6  C6  UNL     1     -34.053  15.958  -6.232  1.00 20.00     0.041 C 
HETATM    7  N7  UNL     1     -33.920  17.741  -3.426  1.00 20.00    -0.160 NA
HETATM    8  N8  UNL     1     -33.475  17.696  -4.607  1.00 20.00    -0.183 NA
ENDROOT
TORSDOF 0
ENDMDL
MODEL 9
REMARK VINA RESULT:      -3.7     12.045     12.659
REMARK  0 active torsions:
REMARK  status: ('A' for Active; 'I' for Inactive)
ROOT
HETATM    1  C1  UNL     1     -35.094  15.170  -4.369  1.00 20.00    -0.032 A 
HETATM    2  C2  UNL     1     -36.133  14.345  -4.209  1.00 20.00     0.056 A 
HETATM    3  C3  UNL     1     -33.925  14.282  -4.629  1.00 20.00     0.157 A 
HETATM    4  C4  UNL     1     -35.002  16.650  -4.349  1.00 20.00     0.048 C 
HETATM    5  C5  UNL     1     -37.556  14.678  -3.933  1.00 20.00     0.072 C 
HETATM    6  C6  UNL     1     -32.824  14.377  -3.585  1.00 20.00     0.041 C 
HETATM    7  N7  UNL     1     -35.772  13.024  -4.328  1.00 20.00    -0.160 NA
HETATM    8  N8  UNL     1     -34.535  12.926  -4.567  1.00 20.00    -0.183 NA
ENDROOT
TORSDOF 0
ENDMDL
