MODEL 1
REMARK VINA RESULT:      -5.6      0.000      0.000
REMARK  3 active torsions:
REMARK  status: ('A' for Active; 'I' for Inactive)
REMARK    1  A    between atoms: C2_2  and  C3_3 
REMARK    2  A    between atoms: C3_3  and  C4_4 
REMARK    3  A    between atoms: C3_3  and  O5_5 
ROOT
HETATM    1  C3  UNL     1     -33.977   6.107   4.431  1.00 20.00     0.362 C 
HETATM    2  F8  UNL     1     -34.435   7.368   4.197  1.00 20.00    -0.195 F 
ENDROOT
BRANCH   1   3
HETATM    3  C2  UNL     1     -33.921   5.866   5.932  1.00 20.00     0.429 C 
HETATM    4  F6  UNL     1     -35.170   5.672   6.422  1.00 20.00    -0.208 F 
HETATM    5  F7  UNL     1     -33.434   6.961   6.565  1.00 20.00    -0.208 F 
ENDBRANCH   1   3
BRANCH   1   6
HETATM    6  C4  UNL     1     -34.926   5.141   3.748  1.00 20.00     0.455 C 
HETATM    7  F9  UNL     1     -35.007   3.971   4.419  1.00 20.00    -0.165 F 
HETATM    8  F10 UNL     1     -34.509   4.860   2.494  1.00 20.00    -0.165 F 
HETATM    9  F11 UNL     1     -36.173   5.653   3.662  1.00 20.00    -0.165 F 
ENDBRANCH   1   6
BRANCH   1  10
HETATM   10  O5  UNL     1     -32.709   5.961   3.792  1.00 20.00    -0.345 OA
HETATM   11  C1  UNL     1     -32.209   7.134   3.170  1.00 20.00     0.206 C 
ENDBRANCH   1  10
TORSDOF 3
ENDMDL
MODEL 2
REMARK VINA RESULT:      -5.6      0.030      1.137
REMARK  3 active torsions:
REMARK  status: ('A' for Active; 'I' for Inactive)
REMARK    1  A    between atoms: C2_2  and  C3_3 
REMARK    2  A    between atoms: C3_3  and  C4_4 
REMARK    3  A    between atoms: C3_3  and  O5_5 
ROOT
HETATM    1  C3  UNL     1     -33.969   6.111   4.425  1.00 20.00     0.362 C 
HETATM    2  F8  UNL     1     -34.426   7.373   4.194  1.00 20.00    -0.195 F 
ENDROOT
BRANCH   1   3
HETATM    3  C2  UNL     1     -33.936   5.859   5.925  1.00 20.00     0.429 C 
HETATM    4  F6  UNL     1     -35.193   5.661   6.395  1.00 20.00    -0.208 F 
HETATM    5  F7  UNL     1     -33.460   6.950   6.574  1.00 20.00    -0.208 F 
ENDBRANCH   1   3
BRANCH   1   6
HETATM    6  C4  UNL     1     -34.906   5.148   3.721  1.00 20.00     0.455 C 
HETATM    7  F9  UNL     1     -34.481   4.874   2.468  1.00 20.00    -0.165 F 
HETATM    8  F10 UNL     1     -36.149   5.668   3.623  1.00 20.00    -0.165 F 
HETATM    9  F11 UNL     1     -35.001   3.977   4.388  1.00 20.00    -0.165 F 
ENDBRANCH   1   6
BRANCH   1  10
HETATM   10  O5  UNL     1     -32.691   5.971   3.806  1.00 20.00    -0.345 OA
HETATM   11  C1  UNL     1     -32.199   7.141   3.170  1.00 20.00     0.206 C 
ENDBRANCH   1  10
TORSDOF 3
ENDMDL
MODEL 3
REMARK VINA RESULT:      -5.1      1.625      3.374
REMARK  3 active torsions:
REMARK  status: ('A' for Active; 'I' for Inactive)
REMARK    1  A    between atoms: C2_2  and  C3_3 
REMARK    2  A    between atoms: C3_3  and  C4_4 
REMARK    3  A    between atoms: C3_3  and  O5_5 
ROOT
HETATM    1  C3  UNL     1     -33.834   6.529   4.055  1.00 20.00     0.362 C 
HETATM    2  F8  UNL     1     -34.553   7.652   3.781  1.00 20.00    -0.195 F 
ENDROOT
BRANCH   1   3
HETATM    3  C2  UNL     1     -34.562   5.318   3.491  1.00 20.00     0.429 C 
HETATM    4  F6  UNL     1     -34.164   5.085   2.215  1.00 20.00    -0.208 F 
HETATM    5  F7  UNL     1     -35.895   5.558   3.431  1.00 20.00    -0.208 F 
ENDBRANCH   1   3
BRANCH   1   6
HETATM    6  C4  UNL     1     -32.464   6.696   3.426  1.00 20.00     0.455 C 
HETATM    7  F9  UNL     1     -31.654   7.451   4.200  1.00 20.00    -0.165 F 
HETATM    8  F10 UNL     1     -32.557   7.304   2.223  1.00 20.00    -0.165 F 
HETATM    9  F11 UNL     1     -31.859   5.503   3.239  1.00 20.00    -0.165 F 
ENDBRANCH   1   6
BRANCH   1  10
HETATM   10  O5  UNL     1     -33.633   6.453   5.467  1.00 20.00    -0.345 OA
HETATM   11  C1  UNL     1     -34.447   5.505   6.140  1.00 20.00     0.206 C 
ENDBRANCH   1  10
TORSDOF 3
ENDMDL
MODEL 4
REMARK VINA RESULT:      -5.1      1.625      3.336
REMARK  3 active torsions:
REMARK  status: ('A' for Active; 'I' for Inactive)
REMARK    1  A    between atoms: C2_2  and  C3_3 
REMARK    2  A    between atoms: C3_3  and  C4_4 
REMARK    3  A    between atoms: C3_3  and  O5_5 
ROOT
HETATM    1  C3  UNL     1     -33.837   6.526   4.057  1.00 20.00     0.362 C 
HETATM    2  F8  UNL     1     -34.555   7.651   3.785  1.00 20.00    -0.195 F 
ENDROOT
BRANCH   1   3
HETATM    3  C2  UNL     1     -34.567   5.317   3.491  1.00 20.00     0.429 C 
HETATM    4  F6  UNL     1     -34.170   5.085   2.215  1.00 20.00    -0.208 F 
HETATM    5  F7  UNL     1     -35.900   5.560   3.431  1.00 20.00    -0.208 F 
ENDBRANCH   1   3
BRANCH   1   6
HETATM    6  C4  UNL     1     -32.468   6.693   3.426  1.00 20.00     0.455 C 
HETATM    7  F9  UNL     1     -31.857   5.500   3.249  1.00 20.00    -0.165 F 
HETATM    8  F10 UNL     1     -31.665   7.447   4.209  1.00 20.00    -0.165 F 
HETATM    9  F11 UNL     1     -32.551   7.296   2.221  1.00 20.00    -0.165 F 
ENDBRANCH   1   6
BRANCH   1  10
HETATM   10  O5  UNL     1     -33.635   6.447   5.468  1.00 20.00    -0.345 OA
HETATM   11  C1  UNL     1     -34.454   5.504   6.141  1.00 20.00     0.206 C 
ENDBRANCH   1  10
TORSDOF 3
ENDMDL
MODEL 5
REMARK VINA RESULT:      -4.8      1.742      3.030
REMARK  3 active torsions:
REMARK  status: ('A' for Active; 'I' for Inactive)
REMARK    1  A    between atoms: C2_2  and  C3_3 
REMARK    2  A    between atoms: C3_3  and  C4_4 
REMARK    3  A    between atoms: C3_3  and  O5_5 
ROOT
HETATM    1  C3  UNL     1     -34.243   5.625   4.934  1.00 20.00     0.362 C 
HETATM    2  F8  UNL     1     -32.905   5.543   4.697  1.00 20.00    -0.195 F 
ENDROOT
BRANCH   1   3
HETATM    3  C2  UNL     1     -34.972   5.844   3.617  1.00 20.00     0.429 C 
HETATM    4  F6  UNL     1     -36.271   5.470   3.733  1.00 20.00    -0.208 F 
HETATM    5  F7  UNL     1     -34.440   5.057   2.650  1.00 20.00    -0.208 F 
ENDBRANCH   1   3
BRANCH   1   6
HETATM    6  C4  UNL     1     -34.672   4.331   5.598  1.00 20.00     0.455 C 
HETATM    7  F9  UNL     1     -35.127   3.438   4.692  1.00 20.00    -0.165 F 
HETATM    8  F10 UNL     1     -35.668   4.551   6.485  1.00 20.00    -0.165 F 
HETATM    9  F11 UNL     1     -33.648   3.756   6.264  1.00 20.00    -0.165 F 
ENDBRANCH   1   6
BRANCH   1  10
HETATM   10  O5  UNL     1     -34.472   6.670   5.880  1.00 20.00    -0.345 OA
HETATM   11  C1  UNL     1     -33.324   7.091   6.601  1.00 20.00     0.206 C 
ENDBRANCH   1  10
TORSDOF 3
ENDMDL
MODEL 6
REMARK VINA RESULT:      -4.8      1.188      1.869
REMARK  3 active torsions:
REMARK  status: ('A' for Active; 'I' for Inactive)
REMARK    1  A    between atoms: C2_2  and  C3_3 
REMARK    2  A    between atoms: C3_3  and  C4_4 
REMARK    3  A    between atoms: C3_3  and  O5_5 
ROOT
HETATM    1  C3  UNL     1     -34.305   5.693   4.938  1.00 20.00     0.362 C 
HETATM    2  F8  UNL     1     -35.280   6.070   4.066  1.00 20.00    -0.195 F 
ENDROOT
BRANCH   1   3
HETATM    3  C2  UNL     1     -34.200   6.726   6.050  1.00 20.00     0.429 C 
HETATM    4  F6  UNL     1     -32.899   6.964   6.347  1.00 20.00    -0.208 F 
HETATM    5  F7  UNL     1     -34.764   6.250   7.187  1.00 20.00    -0.208 F 
ENDBRANCH   1   3
BRANCH   1   6
HETATM    6  C4  UNL     1     -34.679   4.327   5.482  1.00 20.00     0.455 C 
HETATM    7  F9  UNL     1     -33.642   3.752   6.129  1.00 20.00    -0.165 F 
HETATM    8  F10 UNL     1     -35.046   3.494   4.483  1.00 20.00    -0.165 F 
HETATM    9  F11 UNL     1     -35.710   4.409   6.350  1.00 20.00    -0.165 F 
ENDBRANCH   1   6
BRANCH   1  10
HETATM   10  O5  UNL     1     -33.086   5.528   4.212  1.00 20.00    -0.345 OA
HETATM   11  C1  UNL     1     -32.906   6.425   3.127  1.00 20.00     0.206 C 
ENDBRANCH   1  10
TORSDOF 3
ENDMDL
MODEL 7
REMARK VINA RESULT:      -4.6      1.106      3.034
REMARK  3 active torsions:
REMARK  status: ('A' for Active; 'I' for Inactive)
REMARK    1  A    between atoms: C2_2  and  C3_3 
REMARK    2  A    between atoms: C3_3  and  C4_4 
REMARK    3  A    between atoms: C3_3  and  O5_5 
ROOT
HETATM    1  C3  UNL     1     -34.107   5.576   4.863  1.00 20.00     0.362 C 
HETATM    2  F8  UNL     1     -33.130   4.687   4.531  1.00 20.00    -0.195 F 
ENDROOT
BRANCH   1   3
HETATM    3  C2  UNL     1     -35.446   5.058   4.361  1.00 20.00     0.429 C 
HETATM    4  F6  UNL     1     -35.434   3.703   4.307  1.00 20.00    -0.208 F 
HETATM    5  F7  UNL     1     -35.668   5.482   3.093  1.00 20.00    -0.208 F 
ENDBRANCH   1   3
BRANCH   1   6
HETATM    6  C4  UNL     1     -34.099   5.723   6.372  1.00 20.00     0.455 C 
HETATM    7  F9  UNL     1     -33.441   4.703   6.965  1.00 20.00    -0.165 F 
HETATM    8  F10 UNL     1     -35.358   5.732   6.863  1.00 20.00    -0.165 F 
HETATM    9  F11 UNL     1     -33.501   6.873   6.752  1.00 20.00    -0.165 F 
ENDBRANCH   1   6
BRANCH   1  10
HETATM   10  O5  UNL     1     -33.762   6.851   4.322  1.00 20.00    -0.345 OA
HETATM   11  C1  UNL     1     -32.666   6.846   3.420  1.00 20.00     0.206 C 
ENDBRANCH   1  10
TORSDOF 3
ENDMDL
MODEL 8
REMARK VINA RESULT:      -4.6      1.543      2.798
REMARK  3 active torsions:
REMARK  status: ('A' for Active; 'I' for Inactive)
REMARK    1  A    between atoms: C2_2  and  C3_3 
REMARK    2  A    between atoms: C3_3  and  C4_4 
REMARK    3  A    between atoms: C3_3  and  O5_5 
ROOT
HETATM    1  C3  UNL     1     -33.687   5.902   4.269  1.00 20.00     0.362 C 
HETATM    2  F8  UNL     1     -33.051   4.932   4.983  1.00 20.00    -0.195 F 
ENDROOT
BRANCH   1   3
HETATM    3  C2  UNL     1     -32.705   6.527   3.290  1.00 20.00     0.429 C 
HETATM    4  F6  UNL     1     -31.903   5.571   2.757  1.00 20.00    -0.208 F 
HETATM    5  F7  UNL     1     -31.883   7.389   3.936  1.00 20.00    -0.208 F 
ENDBRANCH   1   3
BRANCH   1   6
HETATM    6  C4  UNL     1     -34.852   5.251   3.548  1.00 20.00     0.455 C 
HETATM    7  F9  UNL     1     -35.953   6.034   3.582  1.00 20.00    -0.165 F 
HETATM    8  F10 UNL     1     -35.176   4.071   4.122  1.00 20.00    -0.165 F 
HETATM    9  F11 UNL     1     -34.558   5.012   2.252  1.00 20.00    -0.165 F 
ENDBRANCH   1   6
BRANCH   1  10
HETATM   10  O5  UNL     1     -34.243   6.847   5.184  1.00 20.00    -0.345 OA
HETATM   11  C1  UNL     1     -34.065   6.533   6.556  1.00 20.00     0.206 C 
ENDBRANCH   1  10
TORSDOF 3
ENDMDL
MODEL 9
REMARK VINA RESULT:      -4.2     11.685     12.853
REMARK  3 active torsions:
REMARK  status: ('A' for Active; 'I' for Inactive)
REMARK    1  A    between atoms: C2_2  and  C3_3 
REMARK    2  A    between atoms: C3_3  and  C4_4 
REMARK    3  A    between atoms: C3_3  and  O5_5 
ROOT
HETATM    1  C3  UNL     1     -34.569  14.922  -4.280  1.00 20.00     0.362 C 
HETATM    2  F8  UNL     1     -34.913  15.864  -5.201  1.00 20.00    -0.195 F 
ENDROOT
BRANCH   1   3
HETATM    3  C2  UNL     1     -34.574  13.551  -4.940  1.00 20.00     0.429 C 
HETATM    4  F6  UNL     1     -35.167  13.621  -6.158  1.00 20.00    -0.208 F 
HETATM    5  F7  UNL     1     -35.315  12.682  -4.211  1.00 20.00    -0.208 F 
ENDBRANCH   1   3
BRANCH   1   6
HETATM    6  C4  UNL     1     -33.193  15.278  -3.750  1.00 20.00     0.455 C 
HETATM    7  F9  UNL     1     -32.536  16.102  -4.596  1.00 20.00    -0.165 F 
HETATM    8  F10 UNL     1     -32.435  14.171  -3.593  1.00 20.00    -0.165 F 
HETATM    9  F11 UNL     1     -33.272  15.897  -2.552  1.00 20.00    -0.165 F 
ENDBRANCH   1   6
BRANCH   1  10
HETATM   10  O5  UNL     1     -35.472  15.015  -3.178  1.00 20.00    -0.345 OA
HETATM   11  C1  UNL     1     -36.734  15.590  -3.481  1.00 20.00     0.206 C 
ENDBRANCH   1  10
TORSDOF 3
ENDMDL
