MODEL 1
REMARK VINA RESULT:      -4.2      0.000      0.000
REMARK  2 active torsions:
REMARK  status: ('A' for Active; 'I' for Inactive)
REMARK    1  A    between atoms: C5_5  and  C6_6 
REMARK    2  A    between atoms: C6_6  and  N7_7 
ROOT
HETATM    1  C1  UNL     1     -32.051   8.328   1.958  1.00 20.00     0.012 C 
HETATM    2  C2  UNL     1     -32.309   7.388   2.658  1.00 20.00    -0.115 C 
HETATM    3  C5  UNL     1     -32.618   6.232   3.514  1.00 20.00     0.128 C 
ENDROOT
BRANCH   3   4
HETATM    4  C6  UNL     1     -33.996   6.359   4.183  1.00 20.00     0.227 C 
HETATM    5  C3  UNL     1     -33.904   6.367   5.709  1.00 20.00     0.043 C 
BRANCH   4   6
HETATM    6  N7  UNL     1     -34.830   5.226   3.772  1.00 20.00     0.084 N 
HETATM    7  C4  UNL     1     -35.168   4.397   4.917  1.00 20.00     0.307 C 
HETATM    8  H18 UNL     1     -34.318   4.674   3.090  1.00 20.00     0.315 HD
ENDBRANCH   4   6
ENDBRANCH   3   4
TORSDOF 2
ENDMDL
MODEL 2
REMARK VINA RESULT:      -4.2      0.984      1.100
REMARK  2 active torsions:
REMARK  status: ('A' for Active; 'I' for Inactive)
REMARK    1  A    between atoms: C5_5  and  C6_6 
REMARK    2  A    between atoms: C6_6  and  N7_7 
ROOT
HETATM    1  C1  UNL     1     -31.685   7.393   3.222  1.00 20.00     0.012 C 
HETATM    2  C2  UNL     1     -32.610   6.628   3.232  1.00 20.00    -0.115 C 
HETATM    3  C5  UNL     1     -33.742   5.688   3.237  1.00 20.00     0.128 C 
ENDROOT
BRANCH   3   4
HETATM    4  C6  UNL     1     -34.689   5.928   4.423  1.00 20.00     0.227 C 
HETATM    5  C3  UNL     1     -33.937   6.290   5.704  1.00 20.00     0.043 C 
BRANCH   4   6
HETATM    6  N7  UNL     1     -35.466   4.710   4.666  1.00 20.00     0.084 N 
HETATM    7  C4  UNL     1     -34.948   3.994   5.819  1.00 20.00     0.307 C 
HETATM    8  H18 UNL     1     -35.410   4.117   3.842  1.00 20.00     0.315 HD
ENDBRANCH   4   6
ENDBRANCH   3   4
TORSDOF 2
ENDMDL
MODEL 3
REMARK VINA RESULT:      -4.2      1.403      3.980
REMARK  2 active torsions:
REMARK  status: ('A' for Active; 'I' for Inactive)
REMARK    1  A    between atoms: C5_5  and  C6_6 
REMARK    2  A    between atoms: C6_6  and  N7_7 
ROOT
HETATM    1  C1  UNL     1     -35.168   4.257   6.269  1.00 20.00     0.012 C 
HETATM    2  C2  UNL     1     -34.568   5.227   5.895  1.00 20.00    -0.115 C 
HETATM    3  C5  UNL     1     -33.831   6.418   5.444  1.00 20.00     0.128 C 
ENDROOT
BRANCH   3   4
HETATM    4  C6  UNL     1     -33.783   6.524   3.912  1.00 20.00     0.227 C 
HETATM    5  C3  UNL     1     -34.533   5.381   3.226  1.00 20.00     0.043 C 
BRANCH   4   6
HETATM    6  N7  UNL     1     -32.385   6.491   3.476  1.00 20.00     0.084 N 
HETATM    7  C4  UNL     1     -32.093   7.615   2.603  1.00 20.00     0.307 C 
HETATM    8  H18 UNL     1     -32.218   5.620   2.979  1.00 20.00     0.315 HD
ENDBRANCH   4   6
ENDBRANCH   3   4
TORSDOF 2
ENDMDL
MODEL 4
REMARK VINA RESULT:      -4.0      1.416      2.371
REMARK  2 active torsions:
REMARK  status: ('A' for Active; 'I' for Inactive)
REMARK    1  A    between atoms: C5_5  and  C6_6 
REMARK    2  A    between atoms: C6_6  and  N7_7 
ROOT
HETATM    1  C1  UNL     1     -32.142   6.874   2.921  1.00 20.00     0.012 C 
HETATM    2  C2  UNL     1     -33.159   6.460   3.405  1.00 20.00    -0.115 C 
HETATM    3  C5  UNL     1     -34.411   5.956   3.993  1.00 20.00     0.128 C 
ENDROOT
BRANCH   3   4
HETATM    4  C6  UNL     1     -34.169   5.202   5.310  1.00 20.00     0.227 C 
HETATM    5  C3  UNL     1     -34.964   3.898   5.388  1.00 20.00     0.043 C 
BRANCH   4   6
HETATM    6  N7  UNL     1     -34.567   6.059   6.429  1.00 20.00     0.084 N 
HETATM    7  C4  UNL     1     -33.562   7.078   6.677  1.00 20.00     0.307 C 
HETATM    8  H18 UNL     1     -34.679   5.482   7.258  1.00 20.00     0.315 HD
ENDBRANCH   4   6
ENDBRANCH   3   4
TORSDOF 2
ENDMDL
MODEL 5
REMARK VINA RESULT:      -3.8     11.153     11.839
REMARK  2 active torsions:
REMARK  status: ('A' for Active; 'I' for Inactive)
REMARK    1  A    between atoms: C5_5  and  C6_6 
REMARK    2  A    between atoms: C6_6  and  N7_7 
ROOT
HETATM    1  C1  UNL     1     -34.635  16.944  -0.497  1.00 20.00     0.012 C 
HETATM    2  C2  UNL     1     -34.636  16.278  -1.496  1.00 20.00    -0.115 C 
HETATM    3  C5  UNL     1     -34.644  15.460  -2.719  1.00 20.00     0.128 C 
ENDROOT
BRANCH   3   4
HETATM    4  C6  UNL     1     -33.291  15.491  -3.446  1.00 20.00     0.227 C 
HETATM    5  C3  UNL     1     -33.300  16.431  -4.652  1.00 20.00     0.043 C 
BRANCH   4   6
HETATM    6  N7  UNL     1     -32.969  14.139  -3.911  1.00 20.00     0.084 N 
HETATM    7  C4  UNL     1     -34.151  13.486  -4.447  1.00 20.00     0.307 C 
HETATM    8  H18 UNL     1     -32.609  13.602  -3.127  1.00 20.00     0.315 HD
ENDBRANCH   4   6
ENDBRANCH   3   4
TORSDOF 2
ENDMDL
MODEL 6
REMARK VINA RESULT:      -3.7      1.195      1.792
REMARK  2 active torsions:
REMARK  status: ('A' for Active; 'I' for Inactive)
REMARK    1  A    between atoms: C5_5  and  C6_6 
REMARK    2  A    between atoms: C6_6  and  N7_7 
ROOT
HETATM    1  C1  UNL     1     -31.780   7.644   2.845  1.00 20.00     0.012 C 
HETATM    2  C2  UNL     1     -32.649   6.820   2.925  1.00 20.00    -0.115 C 
HETATM    3  C5  UNL     1     -33.717   5.811   3.016  1.00 20.00     0.128 C 
ENDROOT
BRANCH   3   4
HETATM    4  C6  UNL     1     -33.939   5.332   4.458  1.00 20.00     0.227 C 
HETATM    5  C3  UNL     1     -35.286   4.631   4.638  1.00 20.00     0.043 C 
BRANCH   4   6
HETATM    6  N7  UNL     1     -33.892   6.488   5.357  1.00 20.00     0.084 N 
HETATM    7  C4  UNL     1     -34.327   6.118   6.693  1.00 20.00     0.307 C 
HETATM    8  H18 UNL     1     -34.503   7.213   4.988  1.00 20.00     0.315 HD
ENDBRANCH   4   6
ENDBRANCH   3   4
TORSDOF 2
ENDMDL
MODEL 7
REMARK VINA RESULT:      -3.7      1.471      3.614
REMARK  2 active torsions:
REMARK  status: ('A' for Active; 'I' for Inactive)
REMARK    1  A    between atoms: C5_5  and  C6_6 
REMARK    2  A    between atoms: C6_6  and  N7_7 
ROOT
HETATM    1  C1  UNL     1     -33.514   7.416   7.075  1.00 20.00     0.012 C 
HETATM    2  C2  UNL     1     -33.840   6.639   6.221  1.00 20.00    -0.115 C 
HETATM    3  C5  UNL     1     -34.242   5.680   5.179  1.00 20.00     0.128 C 
ENDROOT
BRANCH   3   4
HETATM    4  C6  UNL     1     -33.925   6.194   3.766  1.00 20.00     0.227 C 
HETATM    5  C3  UNL     1     -34.384   5.224   2.677  1.00 20.00     0.043 C 
BRANCH   4   6
HETATM    6  N7  UNL     1     -32.477   6.383   3.642  1.00 20.00     0.084 N 
HETATM    7  C4  UNL     1     -32.177   7.436   2.688  1.00 20.00     0.307 C 
HETATM    8  H18 UNL     1     -32.060   5.510   3.329  1.00 20.00     0.315 HD
ENDBRANCH   4   6
ENDBRANCH   3   4
TORSDOF 2
ENDMDL
MODEL 8
REMARK VINA RESULT:      -3.5     11.196     12.216
REMARK  2 active torsions:
REMARK  status: ('A' for Active; 'I' for Inactive)
REMARK    1  A    between atoms: C5_5  and  C6_6 
REMARK    2  A    between atoms: C6_6  and  N7_7 
ROOT
HETATM    1  C1  UNL     1     -34.675  16.538  -1.086  1.00 20.00     0.012 C 
HETATM    2  C2  UNL     1     -34.137  16.225  -2.112  1.00 20.00    -0.115 C 
HETATM    3  C5  UNL     1     -33.472  15.846  -3.369  1.00 20.00     0.128 C 
ENDROOT
BRANCH   3   4
HETATM    4  C6  UNL     1     -34.405  15.060  -4.303  1.00 20.00     0.227 C 
HETATM    5  C3  UNL     1     -34.601  13.614  -3.848  1.00 20.00     0.043 C 
BRANCH   4   6
HETATM    6  N7  UNL     1     -33.831  15.051  -5.651  1.00 20.00     0.084 N 
HETATM    7  C4  UNL     1     -34.816  14.616  -6.626  1.00 20.00     0.307 C 
HETATM    8  H18 UNL     1     -33.036  14.417  -5.663  1.00 20.00     0.315 HD
ENDBRANCH   4   6
ENDBRANCH   3   4
TORSDOF 2
ENDMDL
MODEL 9
REMARK VINA RESULT:      -3.5      1.325      3.866
REMARK  2 active torsions:
REMARK  status: ('A' for Active; 'I' for Inactive)
REMARK    1  A    between atoms: C5_5  and  C6_6 
REMARK    2  A    between atoms: C6_6  and  N7_7 
ROOT
HETATM    1  C1  UNL     1     -35.269   4.161   6.017  1.00 20.00     0.012 C 
HETATM    2  C2  UNL     1     -34.973   4.712   4.993  1.00 20.00    -0.115 C 
HETATM    3  C5  UNL     1     -34.616   5.384   3.733  1.00 20.00     0.128 C 
ENDROOT
BRANCH   3   4
HETATM    4  C6  UNL     1     -33.278   6.132   3.835  1.00 20.00     0.227 C 
HETATM    5  C3  UNL     1     -33.153   6.926   5.135  1.00 20.00     0.043 C 
BRANCH   4   6
HETATM    6  N7  UNL     1     -33.166   7.062   2.708  1.00 20.00     0.084 N 
HETATM    7  C4  UNL     1     -31.879   7.737   2.726  1.00 20.00     0.307 C 
HETATM    8  H18 UNL     1     -33.912   7.749   2.777  1.00 20.00     0.315 HD
ENDBRANCH   4   6
ENDBRANCH   3   4
TORSDOF 2
ENDMDL
