MODEL 1
REMARK VINA RESULT:      -4.3      0.000      0.000
REMARK  1 active torsions:
REMARK  status: ('A' for Active; 'I' for Inactive)
REMARK    1  A    between atoms: C3_3  and  C7_7 
ROOT
HETATM    1  C1  UNL     1     -32.595   7.043   2.939  1.00 20.00     0.220 A 
HETATM    2  C2  UNL     1     -33.320   5.724   2.619  1.00 20.00     0.128 A 
HETATM    3  C3  UNL     1     -33.181   5.421   4.131  1.00 20.00     0.100 A 
HETATM    4  N8  UNL     1     -32.527   6.718   4.257  1.00 20.00    -0.355 N 
HETATM    5  O9  UNL     1     -32.219   8.008   2.315  1.00 20.00    -0.274 OA
HETATM    6  H22 UNL     1     -32.128   7.225   5.035  1.00 20.00     0.162 HD
ENDROOT
BRANCH   3   7
HETATM    7  C7  UNL     1     -34.475   5.360   4.955  1.00 20.00    -0.030 C 
HETATM    8  C4  UNL     1     -34.664   3.938   5.505  1.00 20.00     0.016 C 
HETATM    9  C5  UNL     1     -35.669   5.726   4.064  1.00 20.00     0.016 C 
HETATM   10  C6  UNL     1     -34.384   6.352   6.123  1.00 20.00     0.016 C 
ENDBRANCH   3   7
TORSDOF 1
ENDMDL
MODEL 2
REMARK VINA RESULT:      -4.1     11.628     12.743
REMARK  1 active torsions:
REMARK  status: ('A' for Active; 'I' for Inactive)
REMARK    1  A    between atoms: C3_3  and  C7_7 
ROOT
HETATM    1  C1  UNL     1     -37.396  14.837  -3.885  1.00 20.00     0.220 A 
HETATM    2  C2  UNL     1     -36.395  15.161  -5.009  1.00 20.00     0.128 A 
HETATM    3  C3  UNL     1     -35.705  16.074  -3.969  1.00 20.00     0.100 A 
HETATM    4  N8  UNL     1     -36.725  15.644  -3.020  1.00 20.00    -0.355 N 
HETATM    5  O9  UNL     1     -38.385  14.153  -3.764  1.00 20.00    -0.274 OA
HETATM    6  H22 UNL     1     -36.915  15.864  -2.052  1.00 20.00     0.162 HD
ENDROOT
BRANCH   3   7
HETATM    7  C7  UNL     1     -34.298  15.671  -3.505  1.00 20.00    -0.030 C 
HETATM    8  C4  UNL     1     -33.255  16.243  -4.476  1.00 20.00     0.016 C 
HETATM    9  C5  UNL     1     -34.186  14.141  -3.478  1.00 20.00     0.016 C 
HETATM   10  C6  UNL     1     -34.045  16.228  -2.096  1.00 20.00     0.016 C 
ENDBRANCH   3   7
TORSDOF 1
ENDMDL
MODEL 3
REMARK VINA RESULT:      -4.1     11.629     12.743
REMARK  1 active torsions:
REMARK  status: ('A' for Active; 'I' for Inactive)
REMARK    1  A    between atoms: C3_3  and  C7_7 
ROOT
HETATM    1  C1  UNL     1     -37.392  14.840  -3.884  1.00 20.00     0.220 A 
HETATM    2  C2  UNL     1     -36.395  15.166  -5.011  1.00 20.00     0.128 A 
HETATM    3  C3  UNL     1     -35.701  16.077  -3.970  1.00 20.00     0.100 A 
HETATM    4  N8  UNL     1     -36.719  15.644  -3.020  1.00 20.00    -0.355 N 
HETATM    5  O9  UNL     1     -38.382  14.157  -3.762  1.00 20.00    -0.274 OA
HETATM    6  H22 UNL     1     -36.906  15.862  -2.051  1.00 20.00     0.162 HD
ENDROOT
BRANCH   3   7
HETATM    7  C7  UNL     1     -34.294  15.672  -3.512  1.00 20.00    -0.030 C 
HETATM    8  C4  UNL     1     -34.186  14.140  -3.482  1.00 20.00     0.016 C 
HETATM    9  C5  UNL     1     -34.032  16.230  -2.106  1.00 20.00     0.016 C 
HETATM   10  C6  UNL     1     -33.254  16.239  -4.489  1.00 20.00     0.016 C 
ENDBRANCH   3   7
TORSDOF 1
ENDMDL
MODEL 4
REMARK VINA RESULT:      -4.0     11.378     12.679
REMARK  1 active torsions:
REMARK  status: ('A' for Active; 'I' for Inactive)
REMARK    1  A    between atoms: C3_3  and  C7_7 
ROOT
HETATM    1  C1  UNL     1     -34.256  13.490  -4.667  1.00 20.00     0.220 A 
HETATM    2  C2  UNL     1     -33.531  13.979  -3.400  1.00 20.00     0.128 A 
HETATM    3  C3  UNL     1     -33.353  15.313  -4.163  1.00 20.00     0.100 A 
HETATM    4  N8  UNL     1     -34.079  14.697  -5.267  1.00 20.00    -0.355 N 
HETATM    5  O9  UNL     1     -34.786  12.466  -5.032  1.00 20.00    -0.274 OA
HETATM    6  H22 UNL     1     -34.355  15.016  -6.185  1.00 20.00     0.162 HD
ENDROOT
BRANCH   3   7
HETATM    7  C7  UNL     1     -34.097  16.539  -3.614  1.00 20.00    -0.030 C 
HETATM    8  C4  UNL     1     -33.826  16.671  -2.108  1.00 20.00     0.016 C 
HETATM    9  C5  UNL     1     -35.604  16.371  -3.850  1.00 20.00     0.016 C 
HETATM   10  C6  UNL     1     -33.603  17.802  -4.336  1.00 20.00     0.016 C 
ENDBRANCH   3   7
TORSDOF 1
ENDMDL
MODEL 5
REMARK VINA RESULT:      -4.0     11.381     12.685
REMARK  1 active torsions:
REMARK  status: ('A' for Active; 'I' for Inactive)
REMARK    1  A    between atoms: C3_3  and  C7_7 
ROOT
HETATM    1  C1  UNL     1     -34.249  13.491  -4.663  1.00 20.00     0.220 A 
HETATM    2  C2  UNL     1     -33.527  13.987  -3.397  1.00 20.00     0.128 A 
HETATM    3  C3  UNL     1     -33.352  15.319  -4.165  1.00 20.00     0.100 A 
HETATM    4  N8  UNL     1     -34.075  14.696  -5.267  1.00 20.00    -0.355 N 
HETATM    5  O9  UNL     1     -34.776  12.464  -5.024  1.00 20.00    -0.274 OA
HETATM    6  H22 UNL     1     -34.350  15.011  -6.187  1.00 20.00     0.162 HD
ENDROOT
BRANCH   3   7
HETATM    7  C7  UNL     1     -34.100  16.545  -3.623  1.00 20.00    -0.030 C 
HETATM    8  C4  UNL     1     -35.608  16.370  -3.857  1.00 20.00     0.016 C 
HETATM    9  C5  UNL     1     -33.613  17.806  -4.350  1.00 20.00     0.016 C 
HETATM   10  C6  UNL     1     -33.830  16.685  -2.118  1.00 20.00     0.016 C 
ENDBRANCH   3   7
TORSDOF 1
ENDMDL
MODEL 6
REMARK VINA RESULT:      -4.0     11.390     12.766
REMARK  1 active torsions:
REMARK  status: ('A' for Active; 'I' for Inactive)
REMARK    1  A    between atoms: C3_3  and  C7_7 
ROOT
HETATM    1  C1  UNL     1     -34.250  13.495  -4.664  1.00 20.00     0.220 A 
HETATM    2  C2  UNL     1     -33.530  13.999  -3.401  1.00 20.00     0.128 A 
HETATM    3  C3  UNL     1     -33.352  15.326  -4.178  1.00 20.00     0.100 A 
HETATM    4  N8  UNL     1     -34.074  14.695  -5.277  1.00 20.00    -0.355 N 
HETATM    5  O9  UNL     1     -34.778  12.466  -5.019  1.00 20.00    -0.274 OA
HETATM    6  H22 UNL     1     -34.348  15.004  -6.200  1.00 20.00     0.162 HD
ENDROOT
BRANCH   3   7
HETATM    7  C7  UNL     1     -34.099  16.556  -3.645  1.00 20.00    -0.030 C 
HETATM    8  C4  UNL     1     -33.609  17.811  -4.382  1.00 20.00     0.016 C 
HETATM    9  C5  UNL     1     -33.830  16.708  -2.142  1.00 20.00     0.016 C 
HETATM   10  C6  UNL     1     -35.606  16.381  -3.880  1.00 20.00     0.016 C 
ENDBRANCH   3   7
TORSDOF 1
ENDMDL
MODEL 7
REMARK VINA RESULT:      -3.9     11.877     13.532
REMARK  1 active torsions:
REMARK  status: ('A' for Active; 'I' for Inactive)
REMARK    1  A    between atoms: C3_3  and  C7_7 
ROOT
HETATM    1  C1  UNL     1     -34.613  13.711  -4.356  1.00 20.00     0.220 A 
HETATM    2  C2  UNL     1     -34.532  14.921  -3.408  1.00 20.00     0.128 A 
HETATM    3  C3  UNL     1     -33.730  15.603  -4.542  1.00 20.00     0.100 A 
HETATM    4  N8  UNL     1     -33.919  14.380  -5.314  1.00 20.00    -0.355 N 
HETATM    5  O9  UNL     1     -35.087  12.599  -4.317  1.00 20.00    -0.274 OA
HETATM    6  H22 UNL     1     -33.629  14.086  -6.236  1.00 20.00     0.162 HD
ENDROOT
BRANCH   3   7
HETATM    7  C7  UNL     1     -34.380  16.810  -5.233  1.00 20.00    -0.030 C 
HETATM    8  C4  UNL     1     -33.535  18.066  -4.970  1.00 20.00     0.016 C 
HETATM    9  C5  UNL     1     -35.794  17.020  -4.675  1.00 20.00     0.016 C 
HETATM   10  C6  UNL     1     -34.459  16.554  -6.745  1.00 20.00     0.016 C 
ENDBRANCH   3   7
TORSDOF 1
ENDMDL
MODEL 8
REMARK VINA RESULT:      -3.9     11.962     13.068
REMARK  1 active torsions:
REMARK  status: ('A' for Active; 'I' for Inactive)
REMARK    1  A    between atoms: C3_3  and  C7_7 
ROOT
HETATM    1  C1  UNL     1     -33.659  17.352  -5.305  1.00 20.00     0.220 A 
HETATM    2  C2  UNL     1     -34.997  16.594  -5.366  1.00 20.00     0.128 A 
HETATM    3  C3  UNL     1     -34.138  15.312  -5.260  1.00 20.00     0.100 A 
HETATM    4  N8  UNL     1     -32.972  16.185  -5.195  1.00 20.00    -0.355 N 
HETATM    5  O9  UNL     1     -33.306  18.508  -5.335  1.00 20.00    -0.274 OA
HETATM    6  H22 UNL     1     -31.978  16.017  -5.117  1.00 20.00     0.162 HD
ENDROOT
BRANCH   3   7
HETATM    7  C7  UNL     1     -34.286  14.473  -3.983  1.00 20.00    -0.030 C 
HETATM    8  C4  UNL     1     -35.255  13.310  -4.244  1.00 20.00     0.016 C 
HETATM    9  C5  UNL     1     -34.836  15.352  -2.852  1.00 20.00     0.016 C 
HETATM   10  C6  UNL     1     -32.915  13.914  -3.576  1.00 20.00     0.016 C 
ENDBRANCH   3   7
TORSDOF 1
ENDMDL
MODEL 9
REMARK VINA RESULT:      -3.8     11.415     12.318
REMARK  1 active torsions:
REMARK  status: ('A' for Active; 'I' for Inactive)
REMARK    1  A    between atoms: C3_3  and  C7_7 
ROOT
HETATM    1  C1  UNL     1     -34.617  16.356  -1.700  1.00 20.00     0.220 A 
HETATM    2  C2  UNL     1     -35.692  16.376  -2.801  1.00 20.00     0.128 A 
HETATM    3  C3  UNL     1     -34.541  16.003  -3.765  1.00 20.00     0.100 A 
HETATM    4  N8  UNL     1     -33.661  16.009  -2.602  1.00 20.00    -0.355 N 
HETATM    5  O9  UNL     1     -34.581  16.555  -0.507  1.00 20.00    -0.274 OA
HETATM    6  H22 UNL     1     -32.672  15.841  -2.474  1.00 20.00     0.162 HD
ENDROOT
BRANCH   3   7
HETATM    7  C7  UNL     1     -34.597  14.616  -4.421  1.00 20.00    -0.030 C 
HETATM    8  C4  UNL     1     -33.472  13.736  -3.856  1.00 20.00     0.016 C 
HETATM    9  C5  UNL     1     -34.420  14.760  -5.939  1.00 20.00     0.016 C 
HETATM   10  C6  UNL     1     -35.955  13.965  -4.124  1.00 20.00     0.016 C 
ENDBRANCH   3   7
TORSDOF 1
ENDMDL
