MODEL 1
REMARK VINA RESULT:      -5.5      0.000      0.000
REMARK  0 active torsions:
REMARK  status: ('A' for Active; 'I' for Inactive)
ROOT
HETATM    1  C1  UNL     1     -33.981   5.204   2.838  1.00 20.00    -0.008 C 
HETATM    2  C2  UNL     1     -34.427   5.295   4.086  1.00 20.00    -0.037 C 
HETATM    3  C3  UNL     1     -33.708   6.207   4.987  1.00 20.00     0.044 C 
HETATM    4  C4  UNL     1     -32.360   7.100   3.355  1.00 20.00     0.246 C 
HETATM    5  C5  UNL     1     -32.843   6.042   2.360  1.00 20.00     0.133 C 
HETATM    6  C6  UNL     1     -35.478   4.584   4.858  1.00 20.00     0.040 C 
HETATM    7  C7  UNL     1     -34.236   6.063   6.382  1.00 20.00     0.060 C 
HETATM    8  C8  UNL     1     -34.971   4.721   6.299  1.00 20.00     0.011 C 
HETATM    9  N9  UNL     1     -32.769   7.031   4.673  1.00 20.00    -0.218 NA
HETATM   10  O10 UNL     1     -31.581   7.969   2.959  1.00 20.00    -0.271 OA
ENDROOT
TORSDOF 0
ENDMDL
MODEL 2
REMARK VINA RESULT:      -4.7     12.201     13.817
REMARK  0 active torsions:
REMARK  status: ('A' for Active; 'I' for Inactive)
ROOT
HETATM    1  C1  UNL     1     -33.238  15.441  -3.574  1.00 20.00    -0.008 C 
HETATM    2  C2  UNL     1     -33.681  16.302  -4.483  1.00 20.00    -0.037 C 
HETATM    3  C3  UNL     1     -34.364  15.741  -5.658  1.00 20.00     0.044 C 
HETATM    4  C4  UNL     1     -34.406  13.584  -4.869  1.00 20.00     0.246 C 
HETATM    5  C5  UNL     1     -33.484  13.976  -3.712  1.00 20.00     0.133 C 
HETATM    6  C6  UNL     1     -33.560  17.773  -4.653  1.00 20.00     0.040 C 
HETATM    7  C7  UNL     1     -34.648  16.830  -6.648  1.00 20.00     0.060 C 
HETATM    8  C8  UNL     1     -33.702  17.938  -6.171  1.00 20.00     0.011 C 
HETATM    9  N9  UNL     1     -34.700  14.512  -5.849  1.00 20.00    -0.218 NA
HETATM   10  O10 UNL     1     -34.833  12.429  -4.917  1.00 20.00    -0.271 OA
ENDROOT
TORSDOF 0
ENDMDL
MODEL 3
REMARK VINA RESULT:      -4.6     11.830     12.887
REMARK  0 active torsions:
REMARK  status: ('A' for Active; 'I' for Inactive)
ROOT
HETATM    1  C1  UNL     1     -34.085  16.014  -5.516  1.00 20.00    -0.008 C 
HETATM    2  C2  UNL     1     -34.021  16.427  -4.255  1.00 20.00    -0.037 C 
HETATM    3  C3  UNL     1     -34.431  15.471  -3.217  1.00 20.00     0.044 C 
HETATM    4  C4  UNL     1     -34.662  13.689  -4.649  1.00 20.00     0.246 C 
HETATM    5  C5  UNL     1     -34.492  14.618  -5.853  1.00 20.00     0.133 C 
HETATM    6  C6  UNL     1     -33.707  17.730  -3.614  1.00 20.00     0.040 C 
HETATM    7  C7  UNL     1     -34.453  16.151  -1.881  1.00 20.00     0.060 C 
HETATM    8  C8  UNL     1     -34.466  17.629  -2.285  1.00 20.00     0.011 C 
HETATM    9  N9  UNL     1     -34.726  14.228  -3.378  1.00 20.00    -0.218 NA
HETATM   10  O10 UNL     1     -34.780  12.479  -4.850  1.00 20.00    -0.271 OA
ENDROOT
TORSDOF 0
ENDMDL
MODEL 4
REMARK VINA RESULT:      -4.5      2.060      3.582
REMARK  0 active torsions:
REMARK  status: ('A' for Active; 'I' for Inactive)
ROOT
HETATM    1  C1  UNL     1     -34.508   5.211   3.140  1.00 20.00    -0.008 C 
HETATM    2  C2  UNL     1     -33.417   5.967   3.134  1.00 20.00    -0.037 C 
HETATM    3  C3  UNL     1     -33.045   6.614   4.401  1.00 20.00     0.044 C 
HETATM    4  C4  UNL     1     -34.632   5.535   5.664  1.00 20.00     0.246 C 
HETATM    5  C5  UNL     1     -35.281   4.978   4.395  1.00 20.00     0.133 C 
HETATM    6  C6  UNL     1     -32.482   6.418   2.070  1.00 20.00     0.040 C 
HETATM    7  C7  UNL     1     -31.896   7.549   4.175  1.00 20.00     0.060 C 
HETATM    8  C8  UNL     1     -31.934   7.726   2.652  1.00 20.00     0.011 C 
HETATM    9  N9  UNL     1     -33.585   6.430   5.555  1.00 20.00    -0.218 NA
HETATM   10  O10 UNL     1     -35.090   5.197   6.757  1.00 20.00    -0.271 OA
ENDROOT
TORSDOF 0
ENDMDL
MODEL 5
REMARK VINA RESULT:      -4.5     12.198     13.099
REMARK  0 active torsions:
REMARK  status: ('A' for Active; 'I' for Inactive)
ROOT
HETATM    1  C1  UNL     1     -34.531  14.920  -2.939  1.00 20.00    -0.008 C 
HETATM    2  C2  UNL     1     -34.409  16.089  -2.320  1.00 20.00    -0.037 C 
HETATM    3  C3  UNL     1     -33.842  17.200  -3.098  1.00 20.00     0.044 C 
HETATM    4  C4  UNL     1     -33.813  16.068  -5.097  1.00 20.00     0.246 C 
HETATM    5  C5  UNL     1     -34.168  14.764  -4.378  1.00 20.00     0.133 C 
HETATM    6  C6  UNL     1     -34.633  16.543  -0.923  1.00 20.00     0.040 C 
HETATM    7  C7  UNL     1     -33.626  18.385  -2.206  1.00 20.00     0.060 C 
HETATM    8  C8  UNL     1     -33.684  17.742  -0.815  1.00 20.00     0.011 C 
HETATM    9  N9  UNL     1     -33.565  17.207  -4.355  1.00 20.00    -0.218 NA
HETATM   10  O10 UNL     1     -33.719  16.057  -6.325  1.00 20.00    -0.271 OA
ENDROOT
TORSDOF 0
ENDMDL
MODEL 6
REMARK VINA RESULT:      -4.5     11.566     12.527
REMARK  0 active torsions:
REMARK  status: ('A' for Active; 'I' for Inactive)
ROOT
HETATM    1  C1  UNL     1     -33.110  15.198  -3.237  1.00 20.00    -0.008 C 
HETATM    2  C2  UNL     1     -34.029  16.055  -2.808  1.00 20.00    -0.037 C 
HETATM    3  C3  UNL     1     -35.431  15.748  -3.128  1.00 20.00     0.044 C 
HETATM    4  C4  UNL     1     -34.998  13.667  -3.999  1.00 20.00     0.246 C 
HETATM    5  C5  UNL     1     -33.494  13.946  -3.952  1.00 20.00     0.133 C 
HETATM    6  C6  UNL     1     -33.969  17.375  -2.128  1.00 20.00     0.040 C 
HETATM    7  C7  UNL     1     -36.308  16.892  -2.717  1.00 20.00     0.060 C 
HETATM    8  C8  UNL     1     -35.288  18.025  -2.561  1.00 20.00     0.011 C 
HETATM    9  N9  UNL     1     -35.887  14.671  -3.668  1.00 20.00    -0.218 NA
HETATM   10  O10 UNL     1     -35.380  12.556  -4.373  1.00 20.00    -0.271 OA
ENDROOT
TORSDOF 0
ENDMDL
MODEL 7
REMARK VINA RESULT:      -4.5     10.381     11.164
REMARK  0 active torsions:
REMARK  status: ('A' for Active; 'I' for Inactive)
ROOT
HETATM    1  C1  UNL     1     -41.101   4.169  -1.480  1.00 20.00    -0.008 C 
HETATM    2  C2  UNL     1     -41.476   5.433  -1.317  1.00 20.00    -0.037 C 
HETATM    3  C3  UNL     1     -42.399   5.990  -2.316  1.00 20.00     0.044 C 
HETATM    4  C4  UNL     1     -42.767   3.997  -3.399  1.00 20.00     0.246 C 
HETATM    5  C5  UNL     1     -41.648   3.337  -2.591  1.00 20.00     0.133 C 
HETATM    6  C6  UNL     1     -41.088   6.508  -0.367  1.00 20.00     0.040 C 
HETATM    7  C7  UNL     1     -42.584   7.458  -2.074  1.00 20.00     0.060 C 
HETATM    8  C8  UNL     1     -41.385   7.777  -1.174  1.00 20.00     0.011 C 
HETATM    9  N9  UNL     1     -42.993   5.354  -3.266  1.00 20.00    -0.218 NA
HETATM   10  O10 UNL     1     -43.417   3.303  -4.183  1.00 20.00    -0.271 OA
ENDROOT
TORSDOF 0
ENDMDL
MODEL 8
REMARK VINA RESULT:      -4.4     12.172     13.066
REMARK  0 active torsions:
REMARK  status: ('A' for Active; 'I' for Inactive)
ROOT
HETATM    1  C1  UNL     1     -34.986  14.056  -3.789  1.00 20.00    -0.008 C 
HETATM    2  C2  UNL     1     -34.735  15.263  -3.296  1.00 20.00    -0.037 C 
HETATM    3  C3  UNL     1     -34.144  16.250  -4.212  1.00 20.00     0.044 C 
HETATM    4  C4  UNL     1     -34.343  14.940  -6.090  1.00 20.00     0.246 C 
HETATM    5  C5  UNL     1     -34.740  13.741  -5.226  1.00 20.00     0.133 C 
HETATM    6  C6  UNL     1     -34.824  15.860  -1.938  1.00 20.00     0.040 C 
HETATM    7  C7  UNL     1     -33.779  17.491  -3.456  1.00 20.00     0.060 C 
HETATM    8  C8  UNL     1     -33.784  16.984  -2.009  1.00 20.00     0.011 C 
HETATM    9  N9  UNL     1     -33.959  16.119  -5.480  1.00 20.00    -0.218 NA
HETATM   10  O10 UNL     1     -34.338  14.808  -7.315  1.00 20.00    -0.271 OA
ENDROOT
TORSDOF 0
ENDMDL
MODEL 9
REMARK VINA RESULT:      -4.4     11.658     12.875
REMARK  0 active torsions:
REMARK  status: ('A' for Active; 'I' for Inactive)
ROOT
HETATM    1  C1  UNL     1     -35.829  16.681  -4.015  1.00 20.00    -0.008 C 
HETATM    2  C2  UNL     1     -34.815  15.832  -4.127  1.00 20.00    -0.037 C 
HETATM    3  C3  UNL     1     -35.117  14.403  -3.957  1.00 20.00     0.044 C 
HETATM    4  C4  UNL     1     -37.396  14.678  -3.870  1.00 20.00     0.246 C 
HETATM    5  C5  UNL     1     -37.223  16.196  -3.793  1.00 20.00     0.133 C 
HETATM    6  C6  UNL     1     -33.348  15.997  -4.298  1.00 20.00     0.040 C 
HETATM    7  C7  UNL     1     -33.844  13.612  -3.952  1.00 20.00     0.060 C 
HETATM    8  C8  UNL     1     -32.801  14.703  -3.682  1.00 20.00     0.011 C 
HETATM    9  N9  UNL     1     -36.280  13.864  -3.839  1.00 20.00    -0.218 NA
HETATM   10  O10 UNL     1     -38.538  14.216  -3.917  1.00 20.00    -0.271 OA
ENDROOT
TORSDOF 0
ENDMDL
