MODEL 1
REMARK VINA RESULT:      -4.9      0.000      0.000
REMARK  2 active torsions:
REMARK  status: ('A' for Active; 'I' for Inactive)
REMARK    1  A    between atoms: C1_1  and  C7_7 
REMARK    2  A    between atoms: C7_7  and  C10_10 
ROOT
HETATM    1  C2  UNL     1     -35.789  16.266  -6.994  1.00 20.00     0.000 C 
HETATM    2  C3  UNL     1     -36.678  16.359  -5.759  1.00 20.00     0.001 C 
HETATM    3  C4  UNL     1     -34.944  14.998  -6.981  1.00 20.00     0.001 C 
HETATM    4  C5  UNL     1     -35.867  16.257  -4.468  1.00 20.00     0.021 C 
HETATM    5  C6  UNL     1     -34.114  14.882  -5.702  1.00 20.00     0.021 C 
HETATM    6  C7  UNL     1     -34.958  15.025  -4.432  1.00 20.00     0.051 C 
ENDROOT
BRANCH   6   7
HETATM    7  C1  UNL     1     -35.807  13.770  -4.238  1.00 20.00     0.182 C 
HETATM    8  O11 UNL     1     -37.007  13.977  -3.906  1.00 20.00    -0.647 OA
HETATM    9  O12 UNL     1     -35.196  12.682  -4.435  1.00 20.00    -0.647 OA
ENDBRANCH   6   7
BRANCH   6  10
HETATM   10  C10 UNL     1     -34.076  15.028  -3.184  1.00 20.00    -0.004 C 
HETATM   11  C8  UNL     1     -32.601  15.067  -3.574  1.00 20.00     0.011 C 
HETATM   12  C9  UNL     1     -34.428  16.209  -2.286  1.00 20.00     0.011 C 
ENDBRANCH   6  10
TORSDOF 2
ENDMDL
MODEL 2
REMARK VINA RESULT:      -4.9      0.709      3.560
REMARK  2 active torsions:
REMARK  status: ('A' for Active; 'I' for Inactive)
REMARK    1  A    between atoms: C1_1  and  C7_7 
REMARK    2  A    between atoms: C7_7  and  C10_10 
ROOT
HETATM    1  C2  UNL     1     -33.930  16.450  -2.516  1.00 20.00     0.000 C 
HETATM    2  C3  UNL     1     -33.305  15.226  -3.176  1.00 20.00     0.001 C 
HETATM    3  C4  UNL     1     -35.451  16.424  -2.617  1.00 20.00     0.001 C 
HETATM    4  C5  UNL     1     -33.752  15.075  -4.630  1.00 20.00     0.021 C 
HETATM    5  C6  UNL     1     -35.921  16.285  -4.065  1.00 20.00     0.021 C 
HETATM    6  C7  UNL     1     -35.276  15.100  -4.788  1.00 20.00     0.051 C 
ENDROOT
BRANCH   6   7
HETATM    7  C1  UNL     1     -35.865  13.794  -4.257  1.00 20.00     0.182 C 
HETATM    8  O11 UNL     1     -35.098  12.793  -4.318  1.00 20.00    -0.647 OA
HETATM    9  O12 UNL     1     -37.049  13.885  -3.826  1.00 20.00    -0.647 OA
ENDBRANCH   6   7
BRANCH   6  10
HETATM   10  C10 UNL     1     -35.675  15.072  -6.263  1.00 20.00    -0.004 C 
HETATM   11  C8  UNL     1     -36.563  16.267  -6.598  1.00 20.00     0.011 C 
HETATM   12  C9  UNL     1     -34.436  15.055  -7.151  1.00 20.00     0.011 C 
ENDBRANCH   6  10
TORSDOF 2
ENDMDL
MODEL 3
REMARK VINA RESULT:      -4.9      1.190      3.589
REMARK  2 active torsions:
REMARK  status: ('A' for Active; 'I' for Inactive)
REMARK    1  A    between atoms: C1_1  and  C7_7 
REMARK    2  A    between atoms: C7_7  and  C10_10 
ROOT
HETATM    1  C2  UNL     1     -34.053  16.605  -2.478  1.00 20.00     0.000 C 
HETATM    2  C3  UNL     1     -32.996  15.991  -3.390  1.00 20.00     0.001 C 
HETATM    3  C4  UNL     1     -35.279  15.708  -2.360  1.00 20.00     0.001 C 
HETATM    4  C5  UNL     1     -33.563  15.657  -4.770  1.00 20.00     0.021 C 
HETATM    5  C6  UNL     1     -35.870  15.371  -3.729  1.00 20.00     0.021 C 
HETATM    6  C7  UNL     1     -34.831  14.802  -4.700  1.00 20.00     0.051 C 
ENDROOT
BRANCH   6   7
HETATM    7  C1  UNL     1     -34.465  13.379  -4.281  1.00 20.00     0.182 C 
HETATM    8  O11 UNL     1     -33.259  13.209  -3.950  1.00 20.00    -0.647 OA
HETATM    9  O12 UNL     1     -35.420  12.554  -4.322  1.00 20.00    -0.647 OA
ENDBRANCH   6   7
BRANCH   6  10
HETATM   10  C10 UNL     1     -35.433  14.597  -6.090  1.00 20.00    -0.004 C 
HETATM   11  C8  UNL     1     -36.733  15.383  -6.230  1.00 20.00     0.011 C 
HETATM   12  C9  UNL     1     -34.436  15.007  -7.168  1.00 20.00     0.011 C 
ENDBRANCH   6  10
TORSDOF 2
ENDMDL
MODEL 4
REMARK VINA RESULT:      -4.8      0.790      1.222
REMARK  2 active torsions:
REMARK  status: ('A' for Active; 'I' for Inactive)
REMARK    1  A    between atoms: C1_1  and  C7_7 
REMARK    2  A    between atoms: C7_7  and  C10_10 
ROOT
HETATM    1  C2  UNL     1     -36.550  15.557  -7.452  1.00 20.00     0.000 C 
HETATM    2  C3  UNL     1     -37.228  15.821  -6.113  1.00 20.00     0.001 C 
HETATM    3  C4  UNL     1     -35.558  14.403  -7.359  1.00 20.00     0.001 C 
HETATM    4  C5  UNL     1     -36.209  16.066  -4.999  1.00 20.00     0.021 C 
HETATM    5  C6  UNL     1     -34.522  14.633  -6.258  1.00 20.00     0.021 C 
HETATM    6  C7  UNL     1     -35.157  14.958  -4.903  1.00 20.00     0.051 C 
ENDROOT
BRANCH   6   7
HETATM    7  C1  UNL     1     -35.795  13.697  -4.322  1.00 20.00     0.182 C 
HETATM    8  O11 UNL     1     -35.058  12.672  -4.321  1.00 20.00    -0.647 OA
HETATM    9  O12 UNL     1     -36.982  13.844  -3.916  1.00 20.00    -0.647 OA
ENDBRANCH   6   7
BRANCH   6  10
HETATM   10  C10 UNL     1     -34.090  15.302  -3.864  1.00 20.00    -0.004 C 
HETATM   11  C8  UNL     1     -33.074  16.279  -4.448  1.00 20.00     0.011 C 
HETATM   12  C9  UNL     1     -34.735  15.879  -2.609  1.00 20.00     0.011 C 
ENDBRANCH   6  10
TORSDOF 2
ENDMDL
MODEL 5
REMARK VINA RESULT:      -4.7      1.551      2.323
REMARK  2 active torsions:
REMARK  status: ('A' for Active; 'I' for Inactive)
REMARK    1  A    between atoms: C1_1  and  C7_7 
REMARK    2  A    between atoms: C7_7  and  C10_10 
ROOT
HETATM    1  C2  UNL     1     -34.431  16.004  -7.227  1.00 20.00     0.000 C 
HETATM    2  C3  UNL     1     -35.253  14.725  -7.109  1.00 20.00     0.001 C 
HETATM    3  C4  UNL     1     -33.513  16.192  -6.025  1.00 20.00     0.001 C 
HETATM    4  C5  UNL     1     -36.047  14.680  -5.804  1.00 20.00     0.021 C 
HETATM    5  C6  UNL     1     -34.289  16.162  -4.708  1.00 20.00     0.021 C 
HETATM    6  C7  UNL     1     -35.174  14.920  -4.569  1.00 20.00     0.051 C 
ENDROOT
BRANCH   6   7
HETATM    7  C1  UNL     1     -34.299  13.694  -4.316  1.00 20.00     0.182 C 
HETATM    8  O11 UNL     1     -33.163  13.935  -3.821  1.00 20.00    -0.647 OA
HETATM    9  O12 UNL     1     -34.826  12.592  -4.638  1.00 20.00    -0.647 OA
ENDBRANCH   6   7
BRANCH   6  10
HETATM   10  C10 UNL     1     -36.024  14.991  -3.300  1.00 20.00    -0.004 C 
HETATM   11  C8  UNL     1     -35.565  16.144  -2.414  1.00 20.00     0.011 C 
HETATM   12  C9  UNL     1     -37.500  15.137  -3.655  1.00 20.00     0.011 C 
ENDBRANCH   6  10
TORSDOF 2
ENDMDL
MODEL 6
REMARK VINA RESULT:      -4.6      2.121      2.994
REMARK  2 active torsions:
REMARK  status: ('A' for Active; 'I' for Inactive)
REMARK    1  A    between atoms: C1_1  and  C7_7 
REMARK    2  A    between atoms: C7_7  and  C10_10 
ROOT
HETATM    1  C2  UNL     1     -36.738  15.395  -4.832  1.00 20.00     0.000 C 
HETATM    2  C3  UNL     1     -35.900  14.380  -4.063  1.00 20.00     0.001 C 
HETATM    3  C4  UNL     1     -35.899  16.585  -5.284  1.00 20.00     0.001 C 
HETATM    4  C5  UNL     1     -35.179  15.021  -2.877  1.00 20.00     0.021 C 
HETATM    5  C6  UNL     1     -35.177  17.249  -4.111  1.00 20.00     0.021 C 
HETATM    6  C7  UNL     1     -34.365  16.256  -3.274  1.00 20.00     0.051 C 
ENDROOT
BRANCH   6   7
HETATM    7  C1  UNL     1     -33.126  15.822  -4.055  1.00 20.00     0.182 C 
HETATM    8  O11 UNL     1     -32.853  16.526  -5.067  1.00 20.00    -0.647 OA
HETATM    9  O12 UNL     1     -32.533  14.811  -3.586  1.00 20.00    -0.647 OA
ENDBRANCH   6   7
BRANCH   6  10
HETATM   10  C10 UNL     1     -33.764  16.937  -2.045  1.00 20.00    -0.004 C 
HETATM   11  C8  UNL     1     -33.654  18.442  -2.269  1.00 20.00     0.011 C 
HETATM   12  C9  UNL     1     -34.602  16.636  -0.806  1.00 20.00     0.011 C 
ENDBRANCH   6  10
TORSDOF 2
ENDMDL
MODEL 7
REMARK VINA RESULT:      -4.6      1.274      3.585
REMARK  2 active torsions:
REMARK  status: ('A' for Active; 'I' for Inactive)
REMARK    1  A    between atoms: C1_1  and  C7_7 
REMARK    2  A    between atoms: C7_7  and  C10_10 
ROOT
HETATM    1  C2  UNL     1     -32.726  14.776  -3.673  1.00 20.00     0.000 C 
HETATM    2  C3  UNL     1     -33.653  13.568  -3.750  1.00 20.00     0.001 C 
HETATM    3  C4  UNL     1     -33.512  16.082  -3.645  1.00 20.00     0.001 C 
HETATM    4  C5  UNL     1     -34.605  13.658  -4.943  1.00 20.00     0.021 C 
HETATM    5  C6  UNL     1     -34.463  16.199  -4.836  1.00 20.00     0.021 C 
HETATM    6  C7  UNL     1     -35.377  14.980  -4.988  1.00 20.00     0.051 C 
ENDROOT
BRANCH   6   7
HETATM    7  C1  UNL     1     -36.433  14.992  -3.883  1.00 20.00     0.182 C 
HETATM    8  O11 UNL     1     -36.423  16.012  -3.140  1.00 20.00    -0.647 OA
HETATM    9  O12 UNL     1     -37.182  13.975  -3.856  1.00 20.00    -0.647 OA
ENDBRANCH   6   7
BRANCH   6  10
HETATM   10  C10 UNL     1     -36.221  15.081  -6.258  1.00 20.00    -0.004 C 
HETATM   11  C8  UNL     1     -36.553  16.538  -6.564  1.00 20.00     0.011 C 
HETATM   12  C9  UNL     1     -35.494  14.434  -7.433  1.00 20.00     0.011 C 
ENDBRANCH   6  10
TORSDOF 2
ENDMDL
MODEL 8
REMARK VINA RESULT:      -4.5      1.422      2.023
REMARK  2 active torsions:
REMARK  status: ('A' for Active; 'I' for Inactive)
REMARK    1  A    between atoms: C1_1  and  C7_7 
REMARK    2  A    between atoms: C7_7  and  C10_10 
ROOT
HETATM    1  C2  UNL     1     -38.139  15.732  -4.970  1.00 20.00     0.000 C 
HETATM    2  C3  UNL     1     -37.684  14.734  -3.911  1.00 20.00     0.001 C 
HETATM    3  C4  UNL     1     -37.192  15.751  -6.164  1.00 20.00     0.001 C 
HETATM    4  C5  UNL     1     -36.247  14.998  -3.463  1.00 20.00     0.021 C 
HETATM    5  C6  UNL     1     -35.749  16.026  -5.740  1.00 20.00     0.021 C 
HETATM    6  C7  UNL     1     -35.265  15.082  -4.635  1.00 20.00     0.051 C 
ENDROOT
BRANCH   6   7
HETATM    7  C1  UNL     1     -35.043  13.687  -5.216  1.00 20.00     0.182 C 
HETATM    8  O11 UNL     1     -35.006  12.751  -4.370  1.00 20.00    -0.647 OA
HETATM    9  O12 UNL     1     -34.925  13.650  -6.473  1.00 20.00    -0.647 OA
ENDBRANCH   6   7
BRANCH   6  10
HETATM   10  C10 UNL     1     -33.867  15.470  -4.155  1.00 20.00    -0.004 C 
HETATM   11  C8  UNL     1     -33.273  16.546  -5.058  1.00 20.00     0.011 C 
HETATM   12  C9  UNL     1     -33.914  15.946  -2.707  1.00 20.00     0.011 C 
ENDBRANCH   6  10
TORSDOF 2
ENDMDL
MODEL 9
REMARK VINA RESULT:      -4.4      2.071      3.751
REMARK  2 active torsions:
REMARK  status: ('A' for Active; 'I' for Inactive)
REMARK    1  A    between atoms: C1_1  and  C7_7 
REMARK    2  A    between atoms: C7_7  and  C10_10 
ROOT
HETATM    1  C2  UNL     1     -35.265  17.623  -1.822  1.00 20.00     0.000 C 
HETATM    2  C3  UNL     1     -34.978  18.123  -3.233  1.00 20.00     0.001 C 
HETATM    3  C4  UNL     1     -34.535  16.317  -1.531  1.00 20.00     0.001 C 
HETATM    4  C5  UNL     1     -35.309  17.066  -4.287  1.00 20.00     0.021 C 
HETATM    5  C6  UNL     1     -34.862  15.242  -2.567  1.00 20.00     0.021 C 
HETATM    6  C7  UNL     1     -34.642  15.717  -4.006  1.00 20.00     0.051 C 
ENDROOT
BRANCH   6   7
HETATM    7  C1  UNL     1     -33.143  15.821  -4.287  1.00 20.00     0.182 C 
HETATM    8  O11 UNL     1     -32.817  16.670  -5.162  1.00 20.00    -0.647 OA
HETATM    9  O12 UNL     1     -32.422  15.039  -3.605  1.00 20.00    -0.647 OA
ENDBRANCH   6   7
BRANCH   6  10
HETATM   10  C10 UNL     1     -35.097  14.659  -5.011  1.00 20.00    -0.004 C 
HETATM   11  C8  UNL     1     -35.284  13.312  -4.318  1.00 20.00     0.011 C 
HETATM   12  C9  UNL     1     -36.387  15.096  -5.697  1.00 20.00     0.011 C 
ENDBRANCH   6  10
TORSDOF 2
ENDMDL
