MODEL 1
REMARK VINA RESULT:      -3.8      0.000      0.000
REMARK  0 active torsions:
REMARK  status: ('A' for Active; 'I' for Inactive)
ROOT
HETATM    1  C1  UNL     1     -33.932   6.244   4.801  1.00 20.00     0.158 C 
HETATM    2  C2  UNL     1     -34.040   6.333   6.125  1.00 20.00     0.277 C 
HETATM    3  F3  UNL     1     -33.188   7.125   6.810  1.00 20.00    -0.172 F 
HETATM    4  F4  UNL     1     -34.992   5.645   6.790  1.00 20.00    -0.172 F 
HETATM    5 CL5  UNL     1     -34.955   5.273   3.831  1.00 20.00    -0.091 Cl
ENDROOT
TORSDOF 0
ENDMDL
MODEL 2
REMARK VINA RESULT:      -3.7      2.681      2.989
REMARK  0 active torsions:
REMARK  status: ('A' for Active; 'I' for Inactive)
ROOT
HETATM    1  C1  UNL     1     -33.820   6.058   4.671  1.00 20.00     0.158 C 
HETATM    2  C2  UNL     1     -34.693   5.467   3.858  1.00 20.00     0.277 C 
HETATM    3  F3  UNL     1     -34.361   5.251   2.568  1.00 20.00    -0.172 F 
HETATM    4  F4  UNL     1     -35.905   5.078   4.309  1.00 20.00    -0.172 F 
HETATM    5 CL5  UNL     1     -34.132   6.381   6.322  1.00 20.00    -0.091 Cl
ENDROOT
TORSDOF 0
ENDMDL
MODEL 3
REMARK VINA RESULT:      -3.7      2.706      3.084
REMARK  0 active torsions:
REMARK  status: ('A' for Active; 'I' for Inactive)
ROOT
HETATM    1  C1  UNL     1     -34.440   5.174   6.164  1.00 20.00     0.158 C 
HETATM    2  C2  UNL     1     -34.931   4.807   4.982  1.00 20.00     0.277 C 
HETATM    3  F3  UNL     1     -35.262   3.516   4.771  1.00 20.00    -0.172 F 
HETATM    4  F4  UNL     1     -35.105   5.711   3.994  1.00 20.00    -0.172 F 
HETATM    5 CL5  UNL     1     -33.986   6.780   6.543  1.00 20.00    -0.091 Cl
ENDROOT
TORSDOF 0
ENDMDL
MODEL 4
REMARK VINA RESULT:      -3.7      1.378      2.030
REMARK  0 active torsions:
REMARK  status: ('A' for Active; 'I' for Inactive)
ROOT
HETATM    1  C1  UNL     1     -34.418   5.288   4.587  1.00 20.00     0.158 C 
HETATM    2  C2  UNL     1     -34.728   5.309   5.881  1.00 20.00     0.277 C 
HETATM    3  F3  UNL     1     -35.453   4.300   6.408  1.00 20.00    -0.172 F 
HETATM    4  F4  UNL     1     -34.325   6.326   6.673  1.00 20.00    -0.172 F 
HETATM    5 CL5  UNL     1     -33.506   6.512   3.812  1.00 20.00    -0.091 Cl
ENDROOT
TORSDOF 0
ENDMDL
MODEL 5
REMARK VINA RESULT:      -3.5      2.745      3.168
REMARK  0 active torsions:
REMARK  status: ('A' for Active; 'I' for Inactive)
ROOT
HETATM    1  C1  UNL     1     -34.870   5.018   4.764  1.00 20.00     0.158 C 
HETATM    2  C2  UNL     1     -34.257   5.651   3.765  1.00 20.00     0.277 C 
HETATM    3  F3  UNL     1     -34.425   5.215   2.499  1.00 20.00    -0.172 F 
HETATM    4  F4  UNL     1     -33.474   6.725   4.004  1.00 20.00    -0.172 F 
HETATM    5 CL5  UNL     1     -34.730   5.481   6.405  1.00 20.00    -0.091 Cl
ENDROOT
TORSDOF 0
ENDMDL
MODEL 6
REMARK VINA RESULT:      -3.5      2.823      3.294
REMARK  0 active torsions:
REMARK  status: ('A' for Active; 'I' for Inactive)
ROOT
HETATM    1  C1  UNL     1     -33.668   6.255   4.247  1.00 20.00     0.158 C 
HETATM    2  C2  UNL     1     -34.583   5.508   3.632  1.00 20.00     0.277 C 
HETATM    3  F3  UNL     1     -35.717   5.174   4.284  1.00 20.00    -0.172 F 
HETATM    4  F4  UNL     1     -34.392   5.084   2.365  1.00 20.00    -0.172 F 
HETATM    5 CL5  UNL     1     -32.196   6.738   3.520  1.00 20.00    -0.091 Cl
ENDROOT
TORSDOF 0
ENDMDL
MODEL 7
REMARK VINA RESULT:      -3.4      2.529      2.662
REMARK  0 active torsions:
REMARK  status: ('A' for Active; 'I' for Inactive)
ROOT
HETATM    1  C1  UNL     1     -34.243   5.620   5.319  1.00 20.00     0.158 C 
HETATM    2  C2  UNL     1     -34.179   5.885   4.016  1.00 20.00     0.277 C 
HETATM    3  F3  UNL     1     -33.530   6.991   3.594  1.00 20.00    -0.172 F 
HETATM    4  F4  UNL     1     -34.750   5.060   3.113  1.00 20.00    -0.172 F 
HETATM    5 CL5  UNL     1     -35.037   4.250   5.969  1.00 20.00    -0.091 Cl
ENDROOT
TORSDOF 0
ENDMDL
MODEL 8
REMARK VINA RESULT:      -3.3      2.870      3.115
REMARK  0 active torsions:
REMARK  status: ('A' for Active; 'I' for Inactive)
ROOT
HETATM    1  C1  UNL     1     -33.673   6.483   3.974  1.00 20.00     0.158 C 
HETATM    2  C2  UNL     1     -32.443   6.516   3.464  1.00 20.00     0.277 C 
HETATM    3  F3  UNL     1     -31.606   7.517   3.809  1.00 20.00    -0.172 F 
HETATM    4  F4  UNL     1     -32.023   5.559   2.610  1.00 20.00    -0.172 F 
HETATM    5 CL5  UNL     1     -34.817   5.265   3.608  1.00 20.00    -0.091 Cl
ENDROOT
TORSDOF 0
ENDMDL
MODEL 9
REMARK VINA RESULT:      -3.0      3.833      4.093
REMARK  0 active torsions:
REMARK  status: ('A' for Active; 'I' for Inactive)
ROOT
HETATM    1  C1  UNL     1     -31.886   7.896   2.229  1.00 20.00     0.158 C 
HETATM    2  C2  UNL     1     -32.480   6.977   2.987  1.00 20.00     0.277 C 
HETATM    3  F3  UNL     1     -31.833   5.824   3.264  1.00 20.00    -0.172 F 
HETATM    4  F4  UNL     1     -33.717   7.183   3.485  1.00 20.00    -0.172 F 
HETATM    5 CL5  UNL     1     -32.609   9.391   1.814  1.00 20.00    -0.091 Cl
ENDROOT
TORSDOF 0
ENDMDL
