MODEL 1
REMARK VINA RESULT:      -4.5      0.000      0.000
REMARK  2 active torsions:
REMARK  status: ('A' for Active; 'I' for Inactive)
REMARK    1  A    between atoms: C3_3  and  C8_8 
REMARK    2  A    between atoms: C7_7  and  C8_8 
ROOT
HETATM    1  C1  UNL     1     -34.151  14.002  -3.617  1.00 20.00     0.018 A 
HETATM    2  C2  UNL     1     -34.540  13.431  -4.862  1.00 20.00     0.032 A 
HETATM    3  C3  UNL     1     -34.175  15.379  -3.648  1.00 20.00     0.003 A 
HETATM    4  C4  UNL     1     -34.848  14.394  -5.799  1.00 20.00     0.075 A 
HETATM    5  S9  UNL     1     -34.665  15.979  -5.175  1.00 20.00    -0.081 SA
HETATM    6 CL10 UNL     1     -35.359  14.160  -7.417  1.00 20.00    -0.076 Cl
ENDROOT
BRANCH   3   7
HETATM    7  C8  UNL     1     -33.830  16.361  -2.532  1.00 20.00     0.126 C 
HETATM    8 CL11 UNL     1     -33.624  17.996  -3.262  1.00 20.00    -0.119 Cl
BRANCH   7   9
HETATM    9  C7  UNL     1     -34.804  16.399  -1.404  1.00 20.00     0.009 A 
HETATM   10  C5  UNL     1     -34.481  17.164  -0.151  1.00 20.00     0.007 A 
HETATM   11  C6  UNL     1     -35.543  17.670  -1.087  1.00 20.00     0.007 A 
ENDBRANCH   7   9
ENDBRANCH   3   7
TORSDOF 2
ENDMDL
MODEL 2
REMARK VINA RESULT:      -4.4      1.262      1.299
REMARK  2 active torsions:
REMARK  status: ('A' for Active; 'I' for Inactive)
REMARK    1  A    between atoms: C3_3  and  C8_8 
REMARK    2  A    between atoms: C7_7  and  C8_8 
ROOT
HETATM    1  C1  UNL     1     -34.422  14.670  -3.382  1.00 20.00     0.018 A 
HETATM    2  C2  UNL     1     -34.505  13.931  -4.597  1.00 20.00     0.032 A 
HETATM    3  C3  UNL     1     -34.900  15.954  -3.523  1.00 20.00     0.003 A 
HETATM    4  C4  UNL     1     -35.044  14.679  -5.621  1.00 20.00     0.075 A 
HETATM    5  S9  UNL     1     -35.447  16.265  -5.115  1.00 20.00    -0.081 SA
HETATM    6 CL10 UNL     1     -35.327  14.194  -7.240  1.00 20.00    -0.076 Cl
ENDROOT
BRANCH   3   7
HETATM    7  C8  UNL     1     -34.987  17.056  -2.471  1.00 20.00     0.126 C 
HETATM    8 CL11 UNL     1     -36.715  17.534  -2.295  1.00 20.00    -0.119 Cl
BRANCH   7   9
HETATM    9  C7  UNL     1     -34.391  16.714  -1.149  1.00 20.00     0.009 A 
HETATM   10  C5  UNL     1     -33.612  17.744  -0.379  1.00 20.00     0.007 A 
HETATM   11  C6  UNL     1     -34.962  17.300   0.112  1.00 20.00     0.007 A 
ENDBRANCH   7   9
ENDBRANCH   3   7
TORSDOF 2
ENDMDL
MODEL 3
REMARK VINA RESULT:      -4.3      1.669      5.019
REMARK  2 active torsions:
REMARK  status: ('A' for Active; 'I' for Inactive)
REMARK    1  A    between atoms: C3_3  and  C8_8 
REMARK    2  A    between atoms: C7_7  and  C8_8 
ROOT
HETATM    1  C1  UNL     1     -34.663  15.519  -2.355  1.00 20.00     0.018 A 
HETATM    2  C2  UNL     1     -34.415  16.675  -1.559  1.00 20.00     0.032 A 
HETATM    3  C3  UNL     1     -34.299  15.708  -3.670  1.00 20.00     0.003 A 
HETATM    4  C4  UNL     1     -33.870  17.704  -2.296  1.00 20.00     0.075 A 
HETATM    5  S9  UNL     1     -33.661  17.274  -3.941  1.00 20.00    -0.081 SA
HETATM    6 CL10 UNL     1     -33.417  19.263  -1.749  1.00 20.00    -0.076 Cl
ENDROOT
BRANCH   3   7
HETATM    7  C8  UNL     1     -34.400  14.727  -4.834  1.00 20.00     0.126 C 
HETATM    8 CL11 UNL     1     -35.223  13.236  -4.246  1.00 20.00    -0.119 Cl
BRANCH   7   9
HETATM    9  C7  UNL     1     -35.071  15.262  -6.052  1.00 20.00     0.009 A 
HETATM   10  C5  UNL     1     -34.340  15.299  -7.365  1.00 20.00     0.007 A 
HETATM   11  C6  UNL     1     -35.473  14.332  -7.163  1.00 20.00     0.007 A 
ENDBRANCH   7   9
ENDBRANCH   3   7
TORSDOF 2
ENDMDL
MODEL 4
REMARK VINA RESULT:      -4.2      2.320      5.198
REMARK  2 active torsions:
REMARK  status: ('A' for Active; 'I' for Inactive)
REMARK    1  A    between atoms: C3_3  and  C8_8 
REMARK    2  A    between atoms: C7_7  and  C8_8 
ROOT
HETATM    1  C1  UNL     1     -33.656  18.377  -2.757  1.00 20.00     0.018 A 
HETATM    2  C2  UNL     1     -33.573  19.025  -1.491  1.00 20.00     0.032 A 
HETATM    3  C3  UNL     1     -34.157  17.099  -2.654  1.00 20.00     0.003 A 
HETATM    4  C4  UNL     1     -34.013  18.215  -0.467  1.00 20.00     0.075 A 
HETATM    5  S9  UNL     1     -34.524  16.682  -1.035  1.00 20.00    -0.081 SA
HETATM    6 CL10 UNL     1     -34.089  18.582   1.205  1.00 20.00    -0.076 Cl
ENDROOT
BRANCH   3   7
HETATM    7  C8  UNL     1     -34.401  16.081  -3.765  1.00 20.00     0.126 C 
HETATM    8 CL11 UNL     1     -33.129  16.301  -5.022  1.00 20.00    -0.119 Cl
BRANCH   7   9
HETATM    9  C7  UNL     1     -34.468  14.662  -3.316  1.00 20.00     0.009 A 
HETATM   10  C5  UNL     1     -35.180  13.636  -4.153  1.00 20.00     0.007 A 
HETATM   11  C6  UNL     1     -33.681  13.604  -4.038  1.00 20.00     0.007 A 
ENDBRANCH   7   9
ENDBRANCH   3   7
TORSDOF 2
ENDMDL
MODEL 5
REMARK VINA RESULT:      -4.2      1.749      2.233
REMARK  2 active torsions:
REMARK  status: ('A' for Active; 'I' for Inactive)
REMARK    1  A    between atoms: C3_3  and  C8_8 
REMARK    2  A    between atoms: C7_7  and  C8_8 
ROOT
HETATM    1  C1  UNL     1     -34.352  14.924  -6.039  1.00 20.00     0.018 A 
HETATM    2  C2  UNL     1     -35.254  14.896  -7.140  1.00 20.00     0.032 A 
HETATM    3  C3  UNL     1     -35.006  15.067  -4.836  1.00 20.00     0.003 A 
HETATM    4  C4  UNL     1     -36.566  15.019  -6.737  1.00 20.00     0.075 A 
HETATM    5  S9  UNL     1     -36.704  15.168  -5.036  1.00 20.00    -0.081 SA
HETATM    6 CL10 UNL     1     -37.970  15.035  -7.719  1.00 20.00    -0.076 Cl
ENDROOT
BRANCH   3   7
HETATM    7  C8  UNL     1     -34.411  15.141  -3.433  1.00 20.00     0.126 C 
HETATM    8 CL11 UNL     1     -32.630  14.895  -3.562  1.00 20.00    -0.119 Cl
BRANCH   7   9
HETATM    9  C7  UNL     1     -34.723  16.388  -2.680  1.00 20.00     0.009 A 
HETATM   10  C5  UNL     1     -34.758  16.378  -1.177  1.00 20.00     0.007 A 
HETATM   11  C6  UNL     1     -33.647  17.089  -1.899  1.00 20.00     0.007 A 
ENDBRANCH   7   9
ENDBRANCH   3   7
TORSDOF 2
ENDMDL
MODEL 6
REMARK VINA RESULT:      -4.2      2.258      4.987
REMARK  2 active torsions:
REMARK  status: ('A' for Active; 'I' for Inactive)
REMARK    1  A    between atoms: C3_3  and  C8_8 
REMARK    2  A    between atoms: C7_7  and  C8_8 
ROOT
HETATM    1  C1  UNL     1     -34.885  15.949  -2.467  1.00 20.00     0.018 A 
HETATM    2  C2  UNL     1     -34.598  16.414  -1.151  1.00 20.00     0.032 A 
HETATM    3  C3  UNL     1     -34.498  16.853  -3.431  1.00 20.00     0.003 A 
HETATM    4  C4  UNL     1     -34.001  17.656  -1.160  1.00 20.00     0.075 A 
HETATM    5  S9  UNL     1     -33.792  18.256  -2.751  1.00 20.00    -0.081 SA
HETATM    6 CL10 UNL     1     -33.489  18.585   0.185  1.00 20.00    -0.076 Cl
ENDROOT
BRANCH   3   7
HETATM    7  C8  UNL     1     -34.628  16.738  -4.948  1.00 20.00     0.126 C 
HETATM    8 CL11 UNL     1     -33.564  17.983  -5.701  1.00 20.00    -0.119 Cl
BRANCH   7   9
HETATM    9  C7  UNL     1     -34.343  15.386  -5.503  1.00 20.00     0.009 A 
HETATM   10  C5  UNL     1     -35.425  14.610  -6.202  1.00 20.00     0.007 A 
HETATM   11  C6  UNL     1     -34.278  15.178  -6.991  1.00 20.00     0.007 A 
ENDBRANCH   7   9
ENDBRANCH   3   7
TORSDOF 2
ENDMDL
MODEL 7
REMARK VINA RESULT:      -4.2      1.992      5.207
REMARK  2 active torsions:
REMARK  status: ('A' for Active; 'I' for Inactive)
REMARK    1  A    between atoms: C3_3  and  C8_8 
REMARK    2  A    between atoms: C7_7  and  C8_8 
ROOT
HETATM    1  C1  UNL     1     -33.687  17.038  -4.251  1.00 20.00     0.018 A 
HETATM    2  C2  UNL     1     -33.766  17.547  -2.922  1.00 20.00     0.032 A 
HETATM    3  C3  UNL     1     -34.229  15.776  -4.356  1.00 20.00     0.003 A 
HETATM    4  C4  UNL     1     -34.367  16.654  -2.062  1.00 20.00     0.075 A 
HETATM    5  S9  UNL     1     -34.832  15.209  -2.856  1.00 20.00    -0.081 SA
HETATM    6 CL10 UNL     1     -34.668  16.850  -0.387  1.00 20.00    -0.076 Cl
ENDROOT
BRANCH   3   7
HETATM    7  C8  UNL     1     -34.341  14.890  -5.593  1.00 20.00     0.126 C 
HETATM    8 CL11 UNL     1     -34.555  13.185  -5.048  1.00 20.00    -0.119 Cl
BRANCH   7   9
HETATM    9  C7  UNL     1     -35.410  15.281  -6.554  1.00 20.00     0.009 A 
HETATM   10  C5  UNL     1     -35.052  15.925  -7.864  1.00 20.00     0.007 A 
HETATM   11  C6  UNL     1     -35.587  14.520  -7.838  1.00 20.00     0.007 A 
ENDBRANCH   7   9
ENDBRANCH   3   7
TORSDOF 2
ENDMDL
MODEL 8
REMARK VINA RESULT:      -4.1      4.680      7.664
REMARK  2 active torsions:
REMARK  status: ('A' for Active; 'I' for Inactive)
REMARK    1  A    between atoms: C3_3  and  C8_8 
REMARK    2  A    between atoms: C7_7  and  C8_8 
ROOT
HETATM    1  C1  UNL     1     -34.617  18.115   2.927  1.00 20.00     0.018 A 
HETATM    2  C2  UNL     1     -34.089  18.223   4.245  1.00 20.00     0.032 A 
HETATM    3  C3  UNL     1     -33.706  18.503   1.970  1.00 20.00     0.003 A 
HETATM    4  C4  UNL     1     -32.792  18.690   4.246  1.00 20.00     0.075 A 
HETATM    5  S9  UNL     1     -32.219  18.995   2.661  1.00 20.00    -0.081 SA
HETATM    6 CL10 UNL     1     -31.777  18.971   5.597  1.00 20.00    -0.076 Cl
ENDROOT
BRANCH   3   7
HETATM    7  C8  UNL     1     -33.877  18.536   0.453  1.00 20.00     0.126 C 
HETATM    8 CL11 UNL     1     -32.279  18.919  -0.286  1.00 20.00    -0.119 Cl
BRANCH   7   9
HETATM    9  C7  UNL     1     -34.457  17.299  -0.142  1.00 20.00     0.009 A 
HETATM   10  C5  UNL     1     -35.398  17.392  -1.311  1.00 20.00     0.007 A 
HETATM   11  C6  UNL     1     -34.014  16.836  -1.502  1.00 20.00     0.007 A 
ENDBRANCH   7   9
ENDBRANCH   3   7
TORSDOF 2
ENDMDL
MODEL 9
REMARK VINA RESULT:      -4.0     11.408     12.116
REMARK  2 active torsions:
REMARK  status: ('A' for Active; 'I' for Inactive)
REMARK    1  A    between atoms: C3_3  and  C8_8 
REMARK    2  A    between atoms: C7_7  and  C8_8 
ROOT
HETATM    1  C1  UNL     1     -34.074   5.770   2.995  1.00 20.00     0.018 A 
HETATM    2  C2  UNL     1     -34.796   4.838   3.794  1.00 20.00     0.032 A 
HETATM    3  C3  UNL     1     -33.411   6.705   3.759  1.00 20.00     0.003 A 
HETATM    4  C4  UNL     1     -34.657   5.096   5.141  1.00 20.00     0.075 A 
HETATM    5  S9  UNL     1     -33.660   6.457   5.435  1.00 20.00    -0.081 SA
HETATM    6 CL10 UNL     1     -35.346   4.234   6.452  1.00 20.00    -0.076 Cl
ENDROOT
BRANCH   3   7
HETATM    7  C8  UNL     1     -32.534   7.864   3.294  1.00 20.00     0.126 C 
HETATM    8 CL11 UNL     1     -30.823   7.478   3.707  1.00 20.00    -0.119 Cl
BRANCH   7   9
HETATM    9  C7  UNL     1     -32.668   8.216   1.852  1.00 20.00     0.009 A 
HETATM   10  C5  UNL     1     -32.526   9.644   1.405  1.00 20.00     0.007 A 
HETATM   11  C6  UNL     1     -31.461   8.640   1.063  1.00 20.00     0.007 A 
ENDBRANCH   7   9
ENDBRANCH   3   7
TORSDOF 2
ENDMDL
