MODEL 1
REMARK VINA RESULT:      -4.6      0.000      0.000
REMARK  2 active torsions:
REMARK  status: ('A' for Active; 'I' for Inactive)
REMARK    1  A    between atoms: C4_4  and  C10_10 
REMARK    2  A    between atoms: C7_7  and  C10_10 
ROOT
HETATM    1  C1  UNL     1     -34.261  16.870  -1.183  1.00 20.00     0.015 A 
HETATM    2  C2  UNL     1     -34.763  15.865  -2.058  1.00 20.00     0.017 A 
HETATM    3  C3  UNL     1     -33.749  17.947  -1.872  1.00 20.00    -0.021 A 
HETATM    4  C4  UNL     1     -34.615  16.211  -3.383  1.00 20.00    -0.002 A 
HETATM    5  C8  UNL     1     -33.141  19.182  -1.331  1.00 20.00     0.056 C 
HETATM    6  S11 UNL     1     -33.874  17.744  -3.568  1.00 20.00    -0.099 SA
ENDROOT
BRANCH   4   7
HETATM    7  C10 UNL     1     -35.017  15.426  -4.613  1.00 20.00     0.102 C 
HETATM    8 BR12 UNL     1     -34.743  13.516  -4.268  1.00 20.00    -0.085 Br
BRANCH   7   9
HETATM    9  C7  UNL     1     -34.292  15.843  -5.846  1.00 20.00     0.009 A 
HETATM   10  C5  UNL     1     -34.391  15.013  -7.098  1.00 20.00     0.011 A 
HETATM   11  C6  UNL     1     -35.060  16.360  -7.034  1.00 20.00    -0.013 A 
HETATM   12  C9  UNL     1     -34.524  17.500  -7.830  1.00 20.00     0.010 C 
ENDBRANCH   7   9
ENDBRANCH   4   7
TORSDOF 2
ENDMDL
MODEL 2
REMARK VINA RESULT:      -4.5      2.110      2.844
REMARK  2 active torsions:
REMARK  status: ('A' for Active; 'I' for Inactive)
REMARK    1  A    between atoms: C4_4  and  C10_10 
REMARK    2  A    between atoms: C7_7  and  C10_10 
ROOT
HETATM    1  C1  UNL     1     -34.788  17.021  -0.088  1.00 20.00     0.015 A 
HETATM    2  C2  UNL     1     -34.710  16.417  -1.375  1.00 20.00     0.017 A 
HETATM    3  C3  UNL     1     -34.105  18.215  -0.034  1.00 20.00    -0.021 A 
HETATM    4  C4  UNL     1     -33.970  17.173  -2.258  1.00 20.00    -0.002 A 
HETATM    5  C8  UNL     1     -33.949  19.136   1.112  1.00 20.00     0.056 C 
HETATM    6  S11 UNL     1     -33.373  18.604  -1.532  1.00 20.00    -0.099 SA
ENDROOT
BRANCH   4   7
HETATM    7  C10 UNL     1     -33.653  16.885  -3.709  1.00 20.00     0.102 C 
HETATM    8 BR12 UNL     1     -33.714  18.563  -4.720  1.00 20.00    -0.085 Br
BRANCH   7   9
HETATM    9  C7  UNL     1     -34.555  15.872  -4.324  1.00 20.00     0.009 A 
HETATM   10  C5  UNL     1     -34.298  15.381  -5.724  1.00 20.00     0.011 A 
HETATM   11  C6  UNL     1     -34.066  14.465  -4.552  1.00 20.00    -0.013 A 
HETATM   12  C9  UNL     1     -34.976  13.310  -4.313  1.00 20.00     0.010 C 
ENDBRANCH   7   9
ENDBRANCH   4   7
TORSDOF 2
ENDMDL
MODEL 3
REMARK VINA RESULT:      -4.4      2.942      5.841
REMARK  2 active torsions:
REMARK  status: ('A' for Active; 'I' for Inactive)
REMARK    1  A    between atoms: C4_4  and  C10_10 
REMARK    2  A    between atoms: C7_7  and  C10_10 
ROOT
HETATM    1  C1  UNL     1     -33.323  14.763  -3.778  1.00 20.00     0.015 A 
HETATM    2  C2  UNL     1     -33.445  15.819  -2.830  1.00 20.00     0.017 A 
HETATM    3  C3  UNL     1     -34.550  14.285  -4.181  1.00 20.00    -0.021 A 
HETATM    4  C4  UNL     1     -34.761  16.110  -2.545  1.00 20.00    -0.002 A 
HETATM    5  C8  UNL     1     -34.845  13.202  -5.144  1.00 20.00     0.056 C 
HETATM    6  S11 UNL     1     -35.842  15.110  -3.418  1.00 20.00    -0.099 SA
ENDROOT
BRANCH   4   7
HETATM    7  C10 UNL     1     -35.312  17.155  -1.600  1.00 20.00     0.102 C 
HETATM    8 BR12 UNL     1     -35.034  18.930  -2.382  1.00 20.00    -0.085 Br
BRANCH   7   9
HETATM    9  C7  UNL     1     -34.723  17.089  -0.233  1.00 20.00     0.009 A 
HETATM   10  C5  UNL     1     -33.891  18.231   0.288  1.00 20.00     0.011 A 
HETATM   11  C6  UNL     1     -35.259  17.972   0.863  1.00 20.00    -0.013 A 
HETATM   12  C9  UNL     1     -35.400  17.441   2.248  1.00 20.00     0.010 C 
ENDBRANCH   7   9
ENDBRANCH   4   7
TORSDOF 2
ENDMDL
MODEL 4
REMARK VINA RESULT:      -4.3      2.074      2.394
REMARK  2 active torsions:
REMARK  status: ('A' for Active; 'I' for Inactive)
REMARK    1  A    between atoms: C4_4  and  C10_10 
REMARK    2  A    between atoms: C7_7  and  C10_10 
ROOT
HETATM    1  C1  UNL     1     -34.677  16.283  -1.229  1.00 20.00     0.015 A 
HETATM    2  C2  UNL     1     -34.525  16.072  -2.629  1.00 20.00     0.017 A 
HETATM    3  C3  UNL     1     -34.246  17.532  -0.844  1.00 20.00    -0.021 A 
HETATM    4  C4  UNL     1     -33.982  17.168  -3.262  1.00 20.00    -0.002 A 
HETATM    5  C8  UNL     1     -34.238  18.127   0.510  1.00 20.00     0.056 C 
HETATM    6  S11 UNL     1     -33.660  18.446  -2.168  1.00 20.00    -0.099 SA
ENDROOT
BRANCH   4   7
HETATM    7  C10 UNL     1     -33.665  17.348  -4.730  1.00 20.00     0.102 C 
HETATM    8 BR12 UNL     1     -33.568  19.263  -5.133  1.00 20.00    -0.085 Br
BRANCH   7   9
HETATM    9  C7  UNL     1     -34.638  16.673  -5.634  1.00 20.00     0.009 A 
HETATM   10  C5  UNL     1     -34.791  17.134  -7.060  1.00 20.00     0.011 A 
HETATM   11  C6  UNL     1     -34.143  15.807  -6.764  1.00 20.00    -0.013 A 
HETATM   12  C9  UNL     1     -34.850  14.539  -7.097  1.00 20.00     0.010 C 
ENDBRANCH   7   9
ENDBRANCH   4   7
TORSDOF 2
ENDMDL
MODEL 5
REMARK VINA RESULT:      -4.3      3.340      4.723
REMARK  2 active torsions:
REMARK  status: ('A' for Active; 'I' for Inactive)
REMARK    1  A    between atoms: C4_4  and  C10_10 
REMARK    2  A    between atoms: C7_7  and  C10_10 
ROOT
HETATM    1  C1  UNL     1     -31.668  19.190   1.304  1.00 20.00     0.015 A 
HETATM    2  C2  UNL     1     -32.115  18.921  -0.021  1.00 20.00     0.017 A 
HETATM    3  C3  UNL     1     -32.644  18.934   2.241  1.00 20.00    -0.021 A 
HETATM    4  C4  UNL     1     -33.415  18.469  -0.048  1.00 20.00    -0.002 A 
HETATM    5  C8  UNL     1     -32.573  19.085   3.710  1.00 20.00     0.056 C 
HETATM    6  S11 UNL     1     -34.092  18.370   1.522  1.00 20.00    -0.099 SA
ENDROOT
BRANCH   4   7
HETATM    7  C10 UNL     1     -34.251  18.075  -1.245  1.00 20.00     0.102 C 
HETATM    8 BR12 UNL     1     -36.141  18.397  -0.838  1.00 20.00    -0.085 Br
BRANCH   7   9
HETATM    9  C7  UNL     1     -34.044  16.664  -1.675  1.00 20.00     0.009 A 
HETATM   10  C5  UNL     1     -35.150  15.914  -2.370  1.00 20.00     0.011 A 
HETATM   11  C6  UNL     1     -33.925  16.330  -3.140  1.00 20.00    -0.013 A 
HETATM   12  C9  UNL     1     -32.943  15.306  -3.595  1.00 20.00     0.010 C 
ENDBRANCH   7   9
ENDBRANCH   4   7
TORSDOF 2
ENDMDL
MODEL 6
REMARK VINA RESULT:      -4.1      3.499      6.636
REMARK  2 active torsions:
REMARK  status: ('A' for Active; 'I' for Inactive)
REMARK    1  A    between atoms: C4_4  and  C10_10 
REMARK    2  A    between atoms: C7_7  and  C10_10 
ROOT
HETATM    1  C1  UNL     1     -34.407  16.179  -2.410  1.00 20.00     0.015 A 
HETATM    2  C2  UNL     1     -34.414  16.621  -1.057  1.00 20.00     0.017 A 
HETATM    3  C3  UNL     1     -34.010  17.173  -3.277  1.00 20.00    -0.021 A 
HETATM    4  C4  UNL     1     -34.022  17.936  -0.939  1.00 20.00    -0.002 A 
HETATM    5  C8  UNL     1     -33.873  17.111  -4.748  1.00 20.00     0.056 C 
HETATM    6  S11 UNL     1     -33.647  18.632  -2.458  1.00 20.00    -0.099 SA
ENDROOT
BRANCH   4   7
HETATM    7  C10 UNL     1     -33.895  18.773   0.315  1.00 20.00     0.102 C 
HETATM    8 BR12 UNL     1     -32.015  19.263   0.568  1.00 20.00    -0.085 Br
BRANCH   7   9
HETATM    9  C7  UNL     1     -34.428  18.101   1.533  1.00 20.00     0.009 A 
HETATM   10  C5  UNL     1     -33.886  18.458   2.892  1.00 20.00     0.011 A 
HETATM   11  C6  UNL     1     -35.282  18.871   2.507  1.00 20.00    -0.013 A 
HETATM   12  C9  UNL     1     -36.459  18.217   3.146  1.00 20.00     0.010 C 
ENDBRANCH   7   9
ENDBRANCH   4   7
TORSDOF 2
ENDMDL
MODEL 7
REMARK VINA RESULT:      -4.0      3.127      5.309
REMARK  2 active torsions:
REMARK  status: ('A' for Active; 'I' for Inactive)
REMARK    1  A    between atoms: C4_4  and  C10_10 
REMARK    2  A    between atoms: C7_7  and  C10_10 
ROOT
HETATM    1  C1  UNL     1     -39.158  14.679  -4.278  1.00 20.00     0.015 A 
HETATM    2  C2  UNL     1     -37.846  14.904  -3.774  1.00 20.00     0.017 A 
HETATM    3  C3  UNL     1     -39.268  15.024  -5.607  1.00 20.00    -0.021 A 
HETATM    4  C4  UNL     1     -37.001  15.411  -4.736  1.00 20.00    -0.002 A 
HETATM    5  C8  UNL     1     -40.455  14.939  -6.485  1.00 20.00     0.056 C 
HETATM    6  S11 UNL     1     -37.792  15.615  -6.241  1.00 20.00    -0.099 SA
ENDROOT
BRANCH   4   7
HETATM    7  C10 UNL     1     -35.540  15.781  -4.607  1.00 20.00     0.102 C 
HETATM    8 BR12 UNL     1     -34.525  14.875  -6.017  1.00 20.00    -0.085 Br
BRANCH   7   9
HETATM    9  C7  UNL     1     -34.965  15.470  -3.268  1.00 20.00     0.009 A 
HETATM   10  C5  UNL     1     -33.479  15.564  -3.043  1.00 20.00     0.011 A 
HETATM   11  C6  UNL     1     -34.400  16.576  -2.414  1.00 20.00    -0.013 A 
HETATM   12  C9  UNL     1     -34.625  16.569  -0.941  1.00 20.00     0.010 C 
ENDBRANCH   7   9
ENDBRANCH   4   7
TORSDOF 2
ENDMDL
MODEL 8
REMARK VINA RESULT:      -4.0      2.004      2.706
REMARK  2 active torsions:
REMARK  status: ('A' for Active; 'I' for Inactive)
REMARK    1  A    between atoms: C4_4  and  C10_10 
REMARK    2  A    between atoms: C7_7  and  C10_10 
ROOT
HETATM    1  C1  UNL     1     -34.180  17.023  -0.840  1.00 20.00     0.015 A 
HETATM    2  C2  UNL     1     -34.781  16.085  -1.728  1.00 20.00     0.017 A 
HETATM    3  C3  UNL     1     -33.626  18.090  -1.513  1.00 20.00    -0.021 A 
HETATM    4  C4  UNL     1     -34.663  16.469  -3.045  1.00 20.00    -0.002 A 
HETATM    5  C8  UNL     1     -32.919  19.263  -0.956  1.00 20.00     0.056 C 
HETATM    6  S11 UNL     1     -33.831  17.957  -3.208  1.00 20.00    -0.099 SA
ENDROOT
BRANCH   4   7
HETATM    7  C10 UNL     1     -35.163  15.757  -4.282  1.00 20.00     0.102 C 
HETATM    8 BR12 UNL     1     -34.133  16.370  -5.832  1.00 20.00    -0.085 Br
BRANCH   7   9
HETATM    9  C7  UNL     1     -36.622  15.937  -4.521  1.00 20.00     0.009 A 
HETATM   10  C5  UNL     1     -37.271  15.323  -5.734  1.00 20.00     0.011 A 
HETATM   11  C6  UNL     1     -37.563  14.769  -4.365  1.00 20.00    -0.013 A 
HETATM   12  C9  UNL     1     -38.903  14.969  -3.747  1.00 20.00     0.010 C 
ENDBRANCH   7   9
ENDBRANCH   4   7
TORSDOF 2
ENDMDL
MODEL 9
REMARK VINA RESULT:      -3.9      2.510      2.934
REMARK  2 active torsions:
REMARK  status: ('A' for Active; 'I' for Inactive)
REMARK    1  A    between atoms: C4_4  and  C10_10 
REMARK    2  A    between atoms: C7_7  and  C10_10 
ROOT
HETATM    1  C1  UNL     1     -34.192  17.663   0.203  1.00 20.00     0.015 A 
HETATM    2  C2  UNL     1     -35.138  17.001  -0.631  1.00 20.00     0.017 A 
HETATM    3  C3  UNL     1     -33.309  18.430  -0.524  1.00 20.00    -0.021 A 
HETATM    4  C4  UNL     1     -34.943  17.287  -1.964  1.00 20.00    -0.002 A 
HETATM    5  C8  UNL     1     -32.191  19.263  -0.031  1.00 20.00     0.056 C 
HETATM    6  S11 UNL     1     -33.623  18.351  -2.205  1.00 20.00    -0.099 SA
ENDROOT
BRANCH   4   7
HETATM    7  C10 UNL     1     -35.726  16.790  -3.159  1.00 20.00     0.102 C 
HETATM    8 BR12 UNL     1     -37.596  17.346  -2.972  1.00 20.00    -0.085 Br
BRANCH   7   9
HETATM    9  C7  UNL     1     -35.637  15.316  -3.355  1.00 20.00     0.009 A 
HETATM   10  C5  UNL     1     -36.177  14.687  -4.612  1.00 20.00     0.011 A 
HETATM   11  C6  UNL     1     -34.690  14.747  -4.380  1.00 20.00    -0.013 A 
HETATM   12  C9  UNL     1     -33.929  13.501  -4.082  1.00 20.00     0.010 C 
ENDBRANCH   7   9
ENDBRANCH   4   7
TORSDOF 2
ENDMDL
