MODEL 1
REMARK VINA RESULT:      -4.4      0.000      0.000
REMARK  2 active torsions:
REMARK  status: ('A' for Active; 'I' for Inactive)
REMARK    1  A    between atoms: C4_4  and  C9_9 
REMARK    2  A    between atoms: C7_7  and  C9_9 
ROOT
HETATM    1  C1  UNL     1     -34.764  13.530  -5.128  1.00 20.00     0.015 A 
HETATM    2  C2  UNL     1     -34.368  14.068  -3.870  1.00 20.00     0.017 A 
HETATM    3  C3  UNL     1     -34.921  14.511  -6.084  1.00 20.00    -0.021 A 
HETATM    4  C4  UNL     1     -34.237  15.439  -3.911  1.00 20.00    -0.002 A 
HETATM    5  C8  UNL     1     -35.321  14.360  -7.500  1.00 20.00     0.056 C 
HETATM    6  S10 UNL     1     -34.593  16.073  -5.462  1.00 20.00    -0.099 SA
ENDROOT
BRANCH   4   7
HETATM    7  C9  UNL     1     -33.838  16.381  -2.796  1.00 20.00     0.102 C 
HETATM    8 BR11 UNL     1     -33.803  18.215  -3.484  1.00 20.00    -0.085 Br
BRANCH   7   9
HETATM    9  C7  UNL     1     -34.722  16.298  -1.601  1.00 20.00     0.005 A 
HETATM   10  C5  UNL     1     -34.429  17.126  -0.382  1.00 20.00     0.006 A 
HETATM   11  C6  UNL     1     -35.620  17.449  -1.242  1.00 20.00     0.006 A 
ENDBRANCH   7   9
ENDBRANCH   4   7
TORSDOF 2
ENDMDL
MODEL 2
REMARK VINA RESULT:      -4.4      1.799      4.891
REMARK  2 active torsions:
REMARK  status: ('A' for Active; 'I' for Inactive)
REMARK    1  A    between atoms: C4_4  and  C9_9 
REMARK    2  A    between atoms: C7_7  and  C9_9 
ROOT
HETATM    1  C1  UNL     1     -34.872  17.233  -0.391  1.00 20.00     0.015 A 
HETATM    2  C2  UNL     1     -34.454  16.309  -1.393  1.00 20.00     0.017 A 
HETATM    3  C3  UNL     1     -35.878  18.062  -0.839  1.00 20.00    -0.021 A 
HETATM    4  C4  UNL     1     -35.156  16.468  -2.568  1.00 20.00    -0.002 A 
HETATM    5  C8  UNL     1     -36.573  19.143  -0.108  1.00 20.00     0.056 C 
HETATM    6  S10 UNL     1     -36.312  17.726  -2.461  1.00 20.00    -0.099 SA
ENDROOT
BRANCH   4   7
HETATM    7  C9  UNL     1     -35.016  15.693  -3.860  1.00 20.00     0.102 C 
HETATM    8 BR11 UNL     1     -33.514  16.420  -4.886  1.00 20.00    -0.085 Br
BRANCH   7   9
HETATM    9  C7  UNL     1     -34.839  14.228  -3.659  1.00 20.00     0.005 A 
HETATM   10  C5  UNL     1     -34.589  13.326  -4.835  1.00 20.00     0.006 A 
HETATM   11  C6  UNL     1     -33.488  13.596  -3.848  1.00 20.00     0.006 A 
ENDBRANCH   7   9
ENDBRANCH   4   7
TORSDOF 2
ENDMDL
MODEL 3
REMARK VINA RESULT:      -4.4      1.709      4.817
REMARK  2 active torsions:
REMARK  status: ('A' for Active; 'I' for Inactive)
REMARK    1  A    between atoms: C4_4  and  C9_9 
REMARK    2  A    between atoms: C7_7  and  C9_9 
ROOT
HETATM    1  C1  UNL     1     -34.335  17.095  -0.559  1.00 20.00     0.015 A 
HETATM    2  C2  UNL     1     -34.907  16.184  -1.494  1.00 20.00     0.017 A 
HETATM    3  C3  UNL     1     -33.667  18.126  -1.184  1.00 20.00    -0.021 A 
HETATM    4  C4  UNL     1     -34.655  16.554  -2.797  1.00 20.00    -0.002 A 
HETATM    5  C8  UNL     1     -32.947  19.262  -0.568  1.00 20.00     0.056 C 
HETATM    6  S10 UNL     1     -33.731  17.993  -2.890  1.00 20.00    -0.099 SA
ENDROOT
BRANCH   4   7
HETATM    7  C9  UNL     1     -35.084  15.861  -4.072  1.00 20.00     0.102 C 
HETATM    8 BR11 UNL     1     -33.804  16.282  -5.495  1.00 20.00    -0.085 Br
BRANCH   7   9
HETATM    9  C7  UNL     1     -35.225  14.386  -3.929  1.00 20.00     0.005 A 
HETATM   10  C5  UNL     1     -34.880  13.477  -5.075  1.00 20.00     0.006 A 
HETATM   11  C6  UNL     1     -34.004  13.512  -3.853  1.00 20.00     0.006 A 
ENDBRANCH   7   9
ENDBRANCH   4   7
TORSDOF 2
ENDMDL
MODEL 4
REMARK VINA RESULT:      -4.1      1.727      4.857
REMARK  2 active torsions:
REMARK  status: ('A' for Active; 'I' for Inactive)
REMARK    1  A    between atoms: C4_4  and  C9_9 
REMARK    2  A    between atoms: C7_7  and  C9_9 
ROOT
HETATM    1  C1  UNL     1     -34.616  16.327  -1.327  1.00 20.00     0.015 A 
HETATM    2  C2  UNL     1     -34.973  15.851  -2.622  1.00 20.00     0.017 A 
HETATM    3  C3  UNL     1     -33.991  17.554  -1.382  1.00 20.00    -0.021 A 
HETATM    4  C4  UNL     1     -34.608  16.732  -3.616  1.00 20.00    -0.002 A 
HETATM    5  C8  UNL     1     -33.474  18.373  -0.264  1.00 20.00     0.056 C 
HETATM    6  S10 UNL     1     -33.837  18.126  -2.989  1.00 20.00    -0.099 SA
ENDROOT
BRANCH   4   7
HETATM    7  C9  UNL     1     -34.806  16.600  -5.111  1.00 20.00     0.102 C 
HETATM    8 BR11 UNL     1     -33.952  18.117  -6.009  1.00 20.00    -0.085 Br
BRANCH   7   9
HETATM    9  C7  UNL     1     -34.294  15.318  -5.668  1.00 20.00     0.005 A 
HETATM   10  C5  UNL     1     -35.249  14.288  -6.202  1.00 20.00     0.006 A 
HETATM   11  C6  UNL     1     -34.365  15.054  -7.147  1.00 20.00     0.006 A 
ENDBRANCH   7   9
ENDBRANCH   4   7
TORSDOF 2
ENDMDL
MODEL 5
REMARK VINA RESULT:      -4.1      2.074      4.929
REMARK  2 active torsions:
REMARK  status: ('A' for Active; 'I' for Inactive)
REMARK    1  A    between atoms: C4_4  and  C9_9 
REMARK    2  A    between atoms: C7_7  and  C9_9 
ROOT
HETATM    1  C1  UNL     1     -34.404  16.778  -1.485  1.00 20.00     0.015 A 
HETATM    2  C2  UNL     1     -34.519  15.645  -2.342  1.00 20.00     0.017 A 
HETATM    3  C3  UNL     1     -33.965  17.896  -2.162  1.00 20.00    -0.021 A 
HETATM    4  C4  UNL     1     -34.164  15.939  -3.640  1.00 20.00    -0.002 A 
HETATM    5  C8  UNL     1     -33.721  19.255  -1.634  1.00 20.00     0.056 C 
HETATM    6  S10 UNL     1     -33.693  17.575  -3.823  1.00 20.00    -0.099 SA
ENDROOT
BRANCH   4   7
HETATM    7  C9  UNL     1     -34.148  15.021  -4.843  1.00 20.00     0.102 C 
HETATM    8 BR11 UNL     1     -35.025  13.333  -4.374  1.00 20.00    -0.085 Br
BRANCH   7   9
HETATM    9  C7  UNL     1     -34.784  15.612  -6.052  1.00 20.00     0.005 A 
HETATM   10  C5  UNL     1     -34.520  15.027  -7.411  1.00 20.00     0.006 A 
HETATM   11  C6  UNL     1     -35.873  14.868  -6.774  1.00 20.00     0.006 A 
ENDBRANCH   7   9
ENDBRANCH   4   7
TORSDOF 2
ENDMDL
MODEL 6
REMARK VINA RESULT:      -4.0      2.104      5.099
REMARK  2 active torsions:
REMARK  status: ('A' for Active; 'I' for Inactive)
REMARK    1  A    between atoms: C4_4  and  C9_9 
REMARK    2  A    between atoms: C7_7  and  C9_9 
ROOT
HETATM    1  C1  UNL     1     -33.787  17.768  -2.734  1.00 20.00     0.015 A 
HETATM    2  C2  UNL     1     -33.665  17.263  -4.061  1.00 20.00     0.017 A 
HETATM    3  C3  UNL     1     -34.370  16.853  -1.884  1.00 20.00    -0.021 A 
HETATM    4  C4  UNL     1     -34.157  15.981  -4.174  1.00 20.00    -0.002 A 
HETATM    5  C8  UNL     1     -34.668  16.996  -0.442  1.00 20.00     0.056 C 
HETATM    6  S10 UNL     1     -34.766  15.392  -2.686  1.00 20.00    -0.099 SA
ENDROOT
BRANCH   4   7
HETATM    7  C9  UNL     1     -34.212  15.099  -5.402  1.00 20.00     0.102 C 
HETATM    8 BR11 UNL     1     -34.674  13.273  -4.862  1.00 20.00    -0.085 Br
BRANCH   7   9
HETATM    9  C7  UNL     1     -35.162  15.583  -6.441  1.00 20.00     0.005 A 
HETATM   10  C5  UNL     1     -34.678  16.465  -7.558  1.00 20.00     0.006 A 
HETATM   11  C6  UNL     1     -35.087  15.047  -7.844  1.00 20.00     0.006 A 
ENDBRANCH   7   9
ENDBRANCH   4   7
TORSDOF 2
ENDMDL
MODEL 7
REMARK VINA RESULT:      -4.0      1.610      2.657
REMARK  2 active torsions:
REMARK  status: ('A' for Active; 'I' for Inactive)
REMARK    1  A    between atoms: C4_4  and  C9_9 
REMARK    2  A    between atoms: C7_7  and  C9_9 
ROOT
HETATM    1  C1  UNL     1     -35.647  14.533  -7.612  1.00 20.00     0.015 A 
HETATM    2  C2  UNL     1     -34.382  14.829  -7.026  1.00 20.00     0.017 A 
HETATM    3  C3  UNL     1     -36.657  15.304  -7.078  1.00 20.00    -0.021 A 
HETATM    4  C4  UNL     1     -34.473  15.814  -6.067  1.00 20.00    -0.002 A 
HETATM    5  C8  UNL     1     -38.097  15.298  -7.417  1.00 20.00     0.056 C 
HETATM    6  S10 UNL     1     -36.079  16.378  -5.876  1.00 20.00    -0.099 SA
ENDROOT
BRANCH   4   7
HETATM    7  C9  UNL     1     -33.369  16.409  -5.221  1.00 20.00     0.102 C 
HETATM    8 BR11 UNL     1     -33.819  18.267  -4.790  1.00 20.00    -0.085 Br
BRANCH   7   9
HETATM    9  C7  UNL     1     -33.098  15.644  -3.973  1.00 20.00     0.005 A 
HETATM   10  C5  UNL     1     -33.863  15.949  -2.716  1.00 20.00     0.006 A 
HETATM   11  C6  UNL     1     -34.109  14.661  -3.452  1.00 20.00     0.006 A 
ENDBRANCH   7   9
ENDBRANCH   4   7
TORSDOF 2
ENDMDL
MODEL 8
REMARK VINA RESULT:      -4.0      1.830      2.291
REMARK  2 active torsions:
REMARK  status: ('A' for Active; 'I' for Inactive)
REMARK    1  A    between atoms: C4_4  and  C9_9 
REMARK    2  A    between atoms: C7_7  and  C9_9 
ROOT
HETATM    1  C1  UNL     1     -36.462  14.602  -3.897  1.00 20.00     0.015 A 
HETATM    2  C2  UNL     1     -36.549  15.770  -3.084  1.00 20.00     0.017 A 
HETATM    3  C3  UNL     1     -35.156  14.214  -4.105  1.00 20.00    -0.021 A 
HETATM    4  C4  UNL     1     -35.308  16.229  -2.703  1.00 20.00    -0.002 A 
HETATM    5  C8  UNL     1     -34.652  13.063  -4.885  1.00 20.00     0.056 C 
HETATM    6  S10 UNL     1     -34.043  15.256  -3.324  1.00 20.00    -0.099 SA
ENDROOT
BRANCH   4   7
HETATM    7  C9  UNL     1     -34.971  17.430  -1.847  1.00 20.00     0.102 C 
HETATM    8 BR11 UNL     1     -36.558  18.567  -1.681  1.00 20.00    -0.085 Br
BRANCH   7   9
HETATM    9  C7  UNL     1     -34.452  17.073  -0.497  1.00 20.00     0.005 A 
HETATM   10  C5  UNL     1     -33.928  18.142   0.420  1.00 20.00     0.006 A 
HETATM   11  C6  UNL     1     -35.225  17.451   0.735  1.00 20.00     0.006 A 
ENDBRANCH   7   9
ENDBRANCH   4   7
TORSDOF 2
ENDMDL
MODEL 9
REMARK VINA RESULT:      -3.9      2.037      4.878
REMARK  2 active torsions:
REMARK  status: ('A' for Active; 'I' for Inactive)
REMARK    1  A    between atoms: C4_4  and  C9_9 
REMARK    2  A    between atoms: C7_7  and  C9_9 
ROOT
HETATM    1  C1  UNL     1     -34.467  16.219  -1.867  1.00 20.00     0.015 A 
HETATM    2  C2  UNL     1     -34.450  15.256  -2.917  1.00 20.00     0.017 A 
HETATM    3  C3  UNL     1     -35.523  17.097  -1.989  1.00 20.00    -0.021 A 
HETATM    4  C4  UNL     1     -35.491  15.434  -3.801  1.00 20.00    -0.002 A 
HETATM    5  C8  UNL     1     -35.884  18.230  -1.108  1.00 20.00     0.056 C 
HETATM    6  S10 UNL     1     -36.484  16.759  -3.365  1.00 20.00    -0.099 SA
ENDROOT
BRANCH   4   7
HETATM    7  C9  UNL     1     -35.823  14.630  -5.039  1.00 20.00     0.102 C 
HETATM    8 BR11 UNL     1     -37.380  15.425  -5.924  1.00 20.00    -0.085 Br
BRANCH   7   9
HETATM    9  C7  UNL     1     -34.690  14.517  -5.997  1.00 20.00     0.005 A 
HETATM   10  C5  UNL     1     -34.912  14.752  -7.465  1.00 20.00     0.006 A 
HETATM   11  C6  UNL     1     -34.129  15.747  -6.655  1.00 20.00     0.006 A 
ENDBRANCH   7   9
ENDBRANCH   4   7
TORSDOF 2
ENDMDL
