MODEL 1
REMARK VINA RESULT:      -4.5      0.000      0.000
REMARK  2 active torsions:
REMARK  status: ('A' for Active; 'I' for Inactive)
REMARK    1  A    between atoms: C3_3  and  C8_8 
REMARK    2  A    between atoms: C7_7  and  C8_8 
ROOT
HETATM    1  C1  UNL     1     -34.329  14.023  -3.736  1.00 20.00     0.018 A 
HETATM    2  C2  UNL     1     -34.731  13.454  -4.979  1.00 20.00     0.032 A 
HETATM    3  C3  UNL     1     -34.198  15.392  -3.812  1.00 20.00    -0.001 A 
HETATM    4  C4  UNL     1     -34.892  14.409  -5.958  1.00 20.00     0.075 A 
HETATM    5  S9  UNL     1     -34.559  15.985  -5.378  1.00 20.00    -0.081 SA
HETATM    6 CL10 UNL     1     -35.363  14.174  -7.588  1.00 20.00    -0.076 Cl
ENDROOT
BRANCH   3   7
HETATM    7  C8  UNL     1     -33.794  16.361  -2.725  1.00 20.00     0.102 C 
HETATM    8 BR11 UNL     1     -33.775  18.179  -3.457  1.00 20.00    -0.085 Br
BRANCH   7   9
HETATM    9  C7  UNL     1     -34.669  16.303  -1.520  1.00 20.00     0.005 A 
HETATM   10  C5  UNL     1     -34.380  17.176  -0.331  1.00 20.00     0.006 A 
HETATM   11  C6  UNL     1     -35.581  17.451  -1.191  1.00 20.00     0.006 A 
ENDBRANCH   7   9
ENDBRANCH   3   7
TORSDOF 2
ENDMDL
MODEL 2
REMARK VINA RESULT:      -4.4      3.169      4.928
REMARK  2 active torsions:
REMARK  status: ('A' for Active; 'I' for Inactive)
REMARK    1  A    between atoms: C3_3  and  C8_8 
REMARK    2  A    between atoms: C7_7  and  C8_8 
ROOT
HETATM    1  C1  UNL     1     -34.466  16.297  -1.424  1.00 20.00     0.018 A 
HETATM    2  C2  UNL     1     -34.918  17.221  -0.437  1.00 20.00     0.032 A 
HETATM    3  C3  UNL     1     -35.157  16.428  -2.608  1.00 20.00    -0.001 A 
HETATM    4  C4  UNL     1     -35.936  18.022  -0.905  1.00 20.00     0.075 A 
HETATM    5  S9  UNL     1     -36.344  17.660  -2.528  1.00 20.00    -0.081 SA
HETATM    6 CL10 UNL     1     -36.769  19.261  -0.064  1.00 20.00    -0.076 Cl
ENDROOT
BRANCH   3   7
HETATM    7  C8  UNL     1     -34.984  15.644  -3.890  1.00 20.00     0.102 C 
HETATM    8 BR11 UNL     1     -33.462  16.370  -4.888  1.00 20.00    -0.085 Br
BRANCH   7   9
HETATM    9  C7  UNL     1     -34.804  14.181  -3.674  1.00 20.00     0.005 A 
HETATM   10  C5  UNL     1     -34.510  13.274  -4.835  1.00 20.00     0.006 A 
HETATM   11  C6  UNL     1     -33.444  13.556  -3.814  1.00 20.00     0.006 A 
ENDBRANCH   7   9
ENDBRANCH   3   7
TORSDOF 2
ENDMDL
MODEL 3
REMARK VINA RESULT:      -4.2      3.100      4.820
REMARK  2 active torsions:
REMARK  status: ('A' for Active; 'I' for Inactive)
REMARK    1  A    between atoms: C3_3  and  C8_8 
REMARK    2  A    between atoms: C7_7  and  C8_8 
ROOT
HETATM    1  C1  UNL     1     -35.059  16.205  -1.693  1.00 20.00     0.018 A 
HETATM    2  C2  UNL     1     -34.413  17.078  -0.770  1.00 20.00     0.032 A 
HETATM    3  C3  UNL     1     -34.755  16.518  -2.999  1.00 20.00    -0.001 A 
HETATM    4  C4  UNL     1     -33.640  18.024  -1.406  1.00 20.00     0.075 A 
HETATM    5  S9  UNL     1     -33.695  17.859  -3.109  1.00 20.00    -0.081 SA
HETATM    6 CL10 UNL     1     -32.696  19.263  -0.691  1.00 20.00    -0.076 Cl
ENDROOT
BRANCH   3   7
HETATM    7  C8  UNL     1     -35.232  15.842  -4.264  1.00 20.00     0.102 C 
HETATM    8 BR11 UNL     1     -34.044  16.332  -5.744  1.00 20.00    -0.085 Br
BRANCH   7   9
HETATM    9  C7  UNL     1     -35.322  14.359  -4.150  1.00 20.00     0.005 A 
HETATM   10  C5  UNL     1     -34.793  13.481  -5.249  1.00 20.00     0.006 A 
HETATM   11  C6  UNL     1     -34.081  13.540  -3.926  1.00 20.00     0.006 A 
ENDBRANCH   7   9
ENDBRANCH   3   7
TORSDOF 2
ENDMDL
MODEL 4
REMARK VINA RESULT:      -4.1      3.201      4.924
REMARK  2 active torsions:
REMARK  status: ('A' for Active; 'I' for Inactive)
REMARK    1  A    between atoms: C3_3  and  C8_8 
REMARK    2  A    between atoms: C7_7  and  C8_8 
ROOT
HETATM    1  C1  UNL     1     -34.880  15.868  -2.572  1.00 20.00     0.018 A 
HETATM    2  C2  UNL     1     -34.575  16.317  -1.254  1.00 20.00     0.032 A 
HETATM    3  C3  UNL     1     -34.517  16.789  -3.529  1.00 20.00    -0.001 A 
HETATM    4  C4  UNL     1     -33.989  17.564  -1.255  1.00 20.00     0.075 A 
HETATM    5  S9  UNL     1     -33.810  18.188  -2.839  1.00 20.00    -0.081 SA
HETATM    6 CL10 UNL     1     -33.463  18.478   0.096  1.00 20.00    -0.076 Cl
ENDROOT
BRANCH   3   7
HETATM    7  C8  UNL     1     -34.669  16.696  -5.030  1.00 20.00     0.102 C 
HETATM    8 BR11 UNL     1     -33.802  18.245  -5.862  1.00 20.00    -0.085 Br
BRANCH   7   9
HETATM    9  C7  UNL     1     -34.125  15.434  -5.607  1.00 20.00     0.005 A 
HETATM   10  C5  UNL     1     -35.050  14.303  -5.958  1.00 20.00     0.006 A 
HETATM   11  C6  UNL     1     -34.379  15.090  -7.048  1.00 20.00     0.006 A 
ENDBRANCH   7   9
ENDBRANCH   3   7
TORSDOF 2
ENDMDL
MODEL 5
REMARK VINA RESULT:      -4.0      3.200      5.092
REMARK  2 active torsions:
REMARK  status: ('A' for Active; 'I' for Inactive)
REMARK    1  A    between atoms: C3_3  and  C8_8 
REMARK    2  A    between atoms: C7_7  and  C8_8 
ROOT
HETATM    1  C1  UNL     1     -33.651  17.285  -4.103  1.00 20.00     0.018 A 
HETATM    2  C2  UNL     1     -33.823  17.795  -2.783  1.00 20.00     0.032 A 
HETATM    3  C3  UNL     1     -34.059  15.974  -4.207  1.00 20.00    -0.001 A 
HETATM    4  C4  UNL     1     -34.357  16.855  -1.930  1.00 20.00     0.075 A 
HETATM    5  S9  UNL     1     -34.647  15.363  -2.719  1.00 20.00    -0.081 SA
HETATM    6 CL10 UNL     1     -34.728  17.036  -0.267  1.00 20.00    -0.076 Cl
ENDROOT
BRANCH   3   7
HETATM    7  C8  UNL     1     -34.041  15.077  -5.424  1.00 20.00     0.102 C 
HETATM    8 BR11 UNL     1     -34.660  13.288  -4.914  1.00 20.00    -0.085 Br
BRANCH   7   9
HETATM    9  C7  UNL     1     -34.855  15.596  -6.559  1.00 20.00     0.005 A 
HETATM   10  C5  UNL     1     -35.381  14.655  -7.606  1.00 20.00     0.006 A 
HETATM   11  C6  UNL     1     -36.327  15.301  -6.633  1.00 20.00     0.006 A 
ENDBRANCH   7   9
ENDBRANCH   3   7
TORSDOF 2
ENDMDL
MODEL 6
REMARK VINA RESULT:      -4.0      1.874      2.736
REMARK  2 active torsions:
REMARK  status: ('A' for Active; 'I' for Inactive)
REMARK    1  A    between atoms: C3_3  and  C8_8 
REMARK    2  A    between atoms: C7_7  and  C8_8 
ROOT
HETATM    1  C1  UNL     1     -34.371  14.840  -7.015  1.00 20.00     0.018 A 
HETATM    2  C2  UNL     1     -35.634  14.544  -7.606  1.00 20.00     0.032 A 
HETATM    3  C3  UNL     1     -34.467  15.826  -6.059  1.00 20.00    -0.001 A 
HETATM    4  C4  UNL     1     -36.646  15.315  -7.078  1.00 20.00     0.075 A 
HETATM    5  S9  UNL     1     -36.073  16.391  -5.876  1.00 20.00    -0.081 SA
HETATM    6 CL10 UNL     1     -38.309  15.291  -7.492  1.00 20.00    -0.076 Cl
ENDROOT
BRANCH   3   7
HETATM    7  C8  UNL     1     -33.368  16.423  -5.209  1.00 20.00     0.102 C 
HETATM    8 BR11 UNL     1     -33.827  18.278  -4.772  1.00 20.00    -0.085 Br
BRANCH   7   9
HETATM    9  C7  UNL     1     -33.096  15.655  -3.961  1.00 20.00     0.005 A 
HETATM   10  C5  UNL     1     -33.833  15.985  -2.693  1.00 20.00     0.006 A 
HETATM   11  C6  UNL     1     -34.124  14.702  -3.420  1.00 20.00     0.006 A 
ENDBRANCH   7   9
ENDBRANCH   3   7
TORSDOF 2
ENDMDL
MODEL 7
REMARK VINA RESULT:      -3.9      3.215      5.017
REMARK  2 active torsions:
REMARK  status: ('A' for Active; 'I' for Inactive)
REMARK    1  A    between atoms: C3_3  and  C8_8 
REMARK    2  A    between atoms: C7_7  and  C8_8 
ROOT
HETATM    1  C1  UNL     1     -34.693  15.557  -2.505  1.00 20.00     0.018 A 
HETATM    2  C2  UNL     1     -34.506  16.602  -1.554  1.00 20.00     0.032 A 
HETATM    3  C3  UNL     1     -34.280  15.926  -3.766  1.00 20.00    -0.001 A 
HETATM    4  C4  UNL     1     -33.956  17.729  -2.123  1.00 20.00     0.075 A 
HETATM    5  S9  UNL     1     -33.669  17.526  -3.799  1.00 20.00    -0.081 SA
HETATM    6 CL10 UNL     1     -33.563  19.209  -1.355  1.00 20.00    -0.076 Cl
ENDROOT
BRANCH   3   7
HETATM    7  C8  UNL     1     -34.309  15.115  -5.041  1.00 20.00     0.102 C 
HETATM    8 BR11 UNL     1     -34.796  13.265  -4.616  1.00 20.00    -0.085 Br
BRANCH   7   9
HETATM    9  C7  UNL     1     -35.232  15.663  -6.075  1.00 20.00     0.005 A 
HETATM   10  C5  UNL     1     -34.794  15.754  -7.509  1.00 20.00     0.006 A 
HETATM   11  C6  UNL     1     -35.841  14.754  -7.105  1.00 20.00     0.006 A 
ENDBRANCH   7   9
ENDBRANCH   3   7
TORSDOF 2
ENDMDL
MODEL 8
REMARK VINA RESULT:      -3.9     13.872     14.814
REMARK  2 active torsions:
REMARK  status: ('A' for Active; 'I' for Inactive)
REMARK    1  A    between atoms: C3_3  and  C8_8 
REMARK    2  A    between atoms: C7_7  and  C8_8 
ROOT
HETATM    1  C1  UNL     1     -41.190   2.821  -3.193  1.00 20.00     0.018 A 
HETATM    2  C2  UNL     1     -41.366   1.544  -3.800  1.00 20.00     0.032 A 
HETATM    3  C3  UNL     1     -42.232   3.142  -2.352  1.00 20.00    -0.001 A 
HETATM    4  C4  UNL     1     -42.537   0.938  -3.401  1.00 20.00     0.075 A 
HETATM    5  S9  UNL     1     -43.417   1.907  -2.298  1.00 20.00    -0.081 SA
HETATM    6 CL10 UNL     1     -43.143  -0.592  -3.878  1.00 20.00    -0.076 Cl
ENDROOT
BRANCH   3   7
HETATM    7  C8  UNL     1     -42.425   4.394  -1.526  1.00 20.00     0.102 C 
HETATM    8 BR11 UNL     1     -43.241   3.913   0.190  1.00 20.00    -0.085 Br
BRANCH   7   9
HETATM    9  C7  UNL     1     -41.165   5.157  -1.299  1.00 20.00     0.005 A 
HETATM   10  C5  UNL     1     -41.167   6.658  -1.369  1.00 20.00     0.006 A 
HETATM   11  C6  UNL     1     -40.987   5.968  -0.046  1.00 20.00     0.006 A 
ENDBRANCH   7   9
ENDBRANCH   3   7
TORSDOF 2
ENDMDL
MODEL 9
REMARK VINA RESULT:      -3.9      5.459      7.273
REMARK  2 active torsions:
REMARK  status: ('A' for Active; 'I' for Inactive)
REMARK    1  A    between atoms: C3_3  and  C8_8 
REMARK    2  A    between atoms: C7_7  and  C8_8 
ROOT
HETATM    1  C1  UNL     1     -35.510  17.746   2.225  1.00 20.00     0.018 A 
HETATM    2  C2  UNL     1     -35.189  17.890   3.606  1.00 20.00     0.032 A 
HETATM    3  C3  UNL     1     -34.492  18.187   1.409  1.00 20.00    -0.001 A 
HETATM    4  C4  UNL     1     -33.939  18.436   3.792  1.00 20.00     0.075 A 
HETATM    5  S9  UNL     1     -33.157  18.772   2.307  1.00 20.00    -0.081 SA
HETATM    6 CL10 UNL     1     -33.154  18.782   5.276  1.00 20.00    -0.076 Cl
ENDROOT
BRANCH   3   7
HETATM    7  C8  UNL     1     -34.438  18.206  -0.102  1.00 20.00     0.102 C 
HETATM    8 BR11 UNL     1     -32.854  19.208  -0.676  1.00 20.00    -0.085 Br
BRANCH   7   9
HETATM    9  C7  UNL     1     -34.436  16.849  -0.716  1.00 20.00     0.005 A 
HETATM   10  C5  UNL     1     -35.276  16.564  -1.928  1.00 20.00     0.006 A 
HETATM   11  C6  UNL     1     -33.779  16.621  -2.048  1.00 20.00     0.006 A 
ENDBRANCH   7   9
ENDBRANCH   3   7
TORSDOF 2
ENDMDL
