MODEL 1
REMARK VINA RESULT:      -4.5      0.000      0.000
REMARK  2 active torsions:
REMARK  status: ('A' for Active; 'I' for Inactive)
REMARK    1  A    between atoms: C4_4  and  C10_10 
REMARK    2  A    between atoms: C7_7  and  C10_10 
ROOT
HETATM    1  C1  UNL     1     -35.264  15.292  -7.125  1.00 20.00     0.015 A 
HETATM    2  C2  UNL     1     -34.361  15.138  -6.033  1.00 20.00     0.017 A 
HETATM    3  C3  UNL     1     -36.578  15.172  -6.730  1.00 20.00    -0.021 A 
HETATM    4  C4  UNL     1     -35.021  14.905  -4.846  1.00 20.00     0.002 A 
HETATM    5  C8  UNL     1     -37.800  15.267  -7.559  1.00 20.00     0.056 C 
HETATM    6  S11 UNL     1     -36.720  14.873  -5.051  1.00 20.00    -0.098 SA
ENDROOT
BRANCH   4   7
HETATM    7  C10 UNL     1     -34.427  14.687  -3.457  1.00 20.00     0.126 C 
HETATM    8 CL12 UNL     1     -33.015  13.578  -3.614  1.00 20.00    -0.119 Cl
BRANCH   7   9
HETATM    9  C7  UNL     1     -34.049  15.932  -2.732  1.00 20.00     0.013 A 
HETATM   10  C5  UNL     1     -34.798  17.214  -2.988  1.00 20.00     0.011 A 
HETATM   11  C6  UNL     1     -34.960  16.497  -1.674  1.00 20.00    -0.012 A 
HETATM   12  C9  UNL     1     -34.389  17.078  -0.427  1.00 20.00     0.010 C 
ENDBRANCH   7   9
ENDBRANCH   4   7
TORSDOF 2
ENDMDL
MODEL 2
REMARK VINA RESULT:      -4.3      1.794      5.136
REMARK  2 active torsions:
REMARK  status: ('A' for Active; 'I' for Inactive)
REMARK    1  A    between atoms: C4_4  and  C10_10 
REMARK    2  A    between atoms: C7_7  and  C10_10 
ROOT
HETATM    1  C1  UNL     1     -34.790  16.763  -0.952  1.00 20.00     0.015 A 
HETATM    2  C2  UNL     1     -34.662  15.730  -1.925  1.00 20.00     0.017 A 
HETATM    3  C3  UNL     1     -34.289  17.965  -1.402  1.00 20.00    -0.021 A 
HETATM    4  C4  UNL     1     -34.068  16.183  -3.084  1.00 20.00     0.002 A 
HETATM    5  C8  UNL     1     -34.238  19.263  -0.696  1.00 20.00     0.056 C 
HETATM    6  S11 UNL     1     -33.668  17.845  -2.993  1.00 20.00    -0.098 SA
ENDROOT
BRANCH   4   7
HETATM    7  C10 UNL     1     -33.752  15.402  -4.356  1.00 20.00     0.126 C 
HETATM    8 CL12 UNL     1     -33.598  13.660  -3.926  1.00 20.00    -0.119 Cl
BRANCH   7   9
HETATM    9  C7  UNL     1     -34.724  15.593  -5.469  1.00 20.00     0.013 A 
HETATM   10  C5  UNL     1     -34.411  16.545  -6.593  1.00 20.00     0.011 A 
HETATM   11  C6  UNL     1     -34.414  15.060  -6.843  1.00 20.00    -0.012 A 
HETATM   12  C9  UNL     1     -35.490  14.440  -7.666  1.00 20.00     0.010 C 
ENDBRANCH   7   9
ENDBRANCH   4   7
TORSDOF 2
ENDMDL
MODEL 3
REMARK VINA RESULT:      -4.3      1.783      1.935
REMARK  2 active torsions:
REMARK  status: ('A' for Active; 'I' for Inactive)
REMARK    1  A    between atoms: C4_4  and  C10_10 
REMARK    2  A    between atoms: C7_7  and  C10_10 
ROOT
HETATM    1  C1  UNL     1     -35.455  14.488  -7.272  1.00 20.00     0.015 A 
HETATM    2  C2  UNL     1     -34.398  14.922  -6.422  1.00 20.00     0.017 A 
HETATM    3  C3  UNL     1     -36.590  15.255  -7.120  1.00 20.00    -0.021 A 
HETATM    4  C4  UNL     1     -34.765  16.005  -5.652  1.00 20.00     0.002 A 
HETATM    5  C8  UNL     1     -37.889  15.125  -7.816  1.00 20.00     0.056 C 
HETATM    6  S11 UNL     1     -36.377  16.492  -5.956  1.00 20.00    -0.098 SA
ENDROOT
BRANCH   4   7
HETATM    7  C10 UNL     1     -33.932  16.764  -4.622  1.00 20.00     0.126 C 
HETATM    8 CL12 UNL     1     -33.516  18.376  -5.310  1.00 20.00    -0.119 Cl
BRANCH   7   9
HETATM    9  C7  UNL     1     -34.564  16.903  -3.281  1.00 20.00     0.013 A 
HETATM   10  C5  UNL     1     -34.886  15.679  -2.465  1.00 20.00     0.011 A 
HETATM   11  C6  UNL     1     -33.772  16.598  -2.036  1.00 20.00    -0.012 A 
HETATM   12  C9  UNL     1     -33.926  17.448  -0.823  1.00 20.00     0.010 C 
ENDBRANCH   7   9
ENDBRANCH   4   7
TORSDOF 2
ENDMDL
MODEL 4
REMARK VINA RESULT:      -4.3      2.052      2.458
REMARK  2 active torsions:
REMARK  status: ('A' for Active; 'I' for Inactive)
REMARK    1  A    between atoms: C4_4  and  C10_10 
REMARK    2  A    between atoms: C7_7  and  C10_10 
ROOT
HETATM    1  C1  UNL     1     -34.499  13.974  -5.337  1.00 20.00     0.015 A 
HETATM    2  C2  UNL     1     -33.967  14.722  -4.247  1.00 20.00     0.017 A 
HETATM    3  C3  UNL     1     -34.960  14.788  -6.349  1.00 20.00    -0.021 A 
HETATM    4  C4  UNL     1     -34.042  16.081  -4.469  1.00 20.00     0.002 A 
HETATM    5  C8  UNL     1     -35.577  14.397  -7.635  1.00 20.00     0.056 C 
HETATM    6  S11 UNL     1     -34.751  16.447  -5.983  1.00 20.00    -0.098 SA
ENDROOT
BRANCH   4   7
HETATM    7  C10 UNL     1     -33.586  17.217  -3.557  1.00 20.00     0.126 C 
HETATM    8 CL12 UNL     1     -33.493  18.725  -4.539  1.00 20.00    -0.119 Cl
BRANCH   7   9
HETATM    9  C7  UNL     1     -34.422  17.423  -2.342  1.00 20.00     0.013 A 
HETATM   10  C5  UNL     1     -34.699  16.272  -1.410  1.00 20.00     0.011 A 
HETATM   11  C6  UNL     1     -33.789  17.391  -0.975  1.00 20.00    -0.012 A 
HETATM   12  C9  UNL     1     -34.230  18.349   0.076  1.00 20.00     0.010 C 
ENDBRANCH   7   9
ENDBRANCH   4   7
TORSDOF 2
ENDMDL
MODEL 5
REMARK VINA RESULT:      -4.3      2.143      2.780
REMARK  2 active torsions:
REMARK  status: ('A' for Active; 'I' for Inactive)
REMARK    1  A    between atoms: C4_4  and  C10_10 
REMARK    2  A    between atoms: C7_7  and  C10_10 
ROOT
HETATM    1  C1  UNL     1     -34.375  14.062  -4.682  1.00 20.00     0.015 A 
HETATM    2  C2  UNL     1     -34.502  14.779  -3.458  1.00 20.00     0.017 A 
HETATM    3  C3  UNL     1     -34.851  14.781  -5.756  1.00 20.00    -0.021 A 
HETATM    4  C4  UNL     1     -35.071  16.021  -3.644  1.00 20.00     0.002 A 
HETATM    5  C8  UNL     1     -34.895  14.387  -7.181  1.00 20.00     0.056 C 
HETATM    6  S11 UNL     1     -35.448  16.316  -5.287  1.00 20.00    -0.098 SA
ENDROOT
BRANCH   4   7
HETATM    7  C10 UNL     1     -35.377  17.091  -2.599  1.00 20.00     0.126 C 
HETATM    8 CL12 UNL     1     -37.161  17.336  -2.548  1.00 20.00    -0.119 Cl
BRANCH   7   9
HETATM    9  C7  UNL     1     -34.838  16.813  -1.238  1.00 20.00     0.013 A 
HETATM   10  C5  UNL     1     -33.581  17.496  -0.767  1.00 20.00     0.011 A 
HETATM   11  C6  UNL     1     -34.911  17.869  -0.166  1.00 20.00    -0.012 A 
HETATM   12  C9  UNL     1     -35.232  17.489   1.238  1.00 20.00     0.010 C 
ENDBRANCH   7   9
ENDBRANCH   4   7
TORSDOF 2
ENDMDL
MODEL 6
REMARK VINA RESULT:      -4.2      2.115      5.098
REMARK  2 active torsions:
REMARK  status: ('A' for Active; 'I' for Inactive)
REMARK    1  A    between atoms: C4_4  and  C10_10 
REMARK    2  A    between atoms: C7_7  and  C10_10 
ROOT
HETATM    1  C1  UNL     1     -34.432  16.970  -1.070  1.00 20.00     0.015 A 
HETATM    2  C2  UNL     1     -34.456  15.881  -1.987  1.00 20.00     0.017 A 
HETATM    3  C3  UNL     1     -35.454  17.866  -1.302  1.00 20.00    -0.021 A 
HETATM    4  C4  UNL     1     -35.495  15.986  -2.887  1.00 20.00     0.002 A 
HETATM    5  C8  UNL     1     -35.766  19.114  -0.573  1.00 20.00     0.056 C 
HETATM    6  S11 UNL     1     -36.435  17.392  -2.622  1.00 20.00    -0.098 SA
ENDROOT
BRANCH   4   7
HETATM    7  C10 UNL     1     -35.868  15.035  -4.021  1.00 20.00     0.126 C 
HETATM    8 CL12 UNL     1     -37.624  14.654  -3.885  1.00 20.00    -0.119 Cl
BRANCH   7   9
HETATM    9  C7  UNL     1     -35.533  15.524  -5.387  1.00 20.00     0.013 A 
HETATM   10  C5  UNL     1     -34.098  15.779  -5.769  1.00 20.00     0.011 A 
HETATM   11  C6  UNL     1     -34.841  14.613  -6.368  1.00 20.00    -0.012 A 
HETATM   12  C9  UNL     1     -35.228  14.629  -7.806  1.00 20.00     0.010 C 
ENDBRANCH   7   9
ENDBRANCH   4   7
TORSDOF 2
ENDMDL
MODEL 7
REMARK VINA RESULT:      -4.2      2.537      5.578
REMARK  2 active torsions:
REMARK  status: ('A' for Active; 'I' for Inactive)
REMARK    1  A    between atoms: C4_4  and  C10_10 
REMARK    2  A    between atoms: C7_7  and  C10_10 
ROOT
HETATM    1  C1  UNL     1     -34.413  16.719  -0.813  1.00 20.00     0.015 A 
HETATM    2  C2  UNL     1     -35.129  16.239  -1.948  1.00 20.00     0.017 A 
HETATM    3  C3  UNL     1     -33.663  17.837  -1.109  1.00 20.00    -0.021 A 
HETATM    4  C4  UNL     1     -34.898  17.009  -3.067  1.00 20.00     0.002 A 
HETATM    5  C8  UNL     1     -32.790  18.624  -0.210  1.00 20.00     0.056 C 
HETATM    6  S11 UNL     1     -33.824  18.302  -2.748  1.00 20.00    -0.098 SA
ENDROOT
BRANCH   4   7
HETATM    7  C10 UNL     1     -35.468  16.834  -4.473  1.00 20.00     0.126 C 
HETATM    8 CL12 UNL     1     -35.812  18.468  -5.150  1.00 20.00    -0.119 Cl
BRANCH   7   9
HETATM    9  C7  UNL     1     -34.617  16.040  -5.402  1.00 20.00     0.013 A 
HETATM   10  C5  UNL     1     -34.368  14.578  -5.138  1.00 20.00     0.011 A 
HETATM   11  C6  UNL     1     -35.241  14.997  -6.293  1.00 20.00    -0.012 A 
HETATM   12  C9  UNL     1     -34.763  14.826  -7.693  1.00 20.00     0.010 C 
ENDBRANCH   7   9
ENDBRANCH   4   7
TORSDOF 2
ENDMDL
MODEL 8
REMARK VINA RESULT:      -4.2      2.434      5.292
REMARK  2 active torsions:
REMARK  status: ('A' for Active; 'I' for Inactive)
REMARK    1  A    between atoms: C4_4  and  C10_10 
REMARK    2  A    between atoms: C7_7  and  C10_10 
ROOT
HETATM    1  C1  UNL     1     -34.604  16.620  -0.825  1.00 20.00     0.015 A 
HETATM    2  C2  UNL     1     -35.037  16.218  -2.121  1.00 20.00     0.017 A 
HETATM    3  C3  UNL     1     -33.888  17.797  -0.860  1.00 20.00    -0.021 A 
HETATM    4  C4  UNL     1     -34.635  17.103  -3.098  1.00 20.00     0.002 A 
HETATM    5  C8  UNL     1     -33.274  18.535   0.266  1.00 20.00     0.056 C 
HETATM    6  S11 UNL     1     -33.740  18.411  -2.451  1.00 20.00    -0.098 SA
ENDROOT
BRANCH   4   7
HETATM    7  C10 UNL     1     -34.891  17.037  -4.601  1.00 20.00     0.126 C 
HETATM    8 CL12 UNL     1     -33.450  17.708  -5.449  1.00 20.00    -0.119 Cl
BRANCH   7   9
HETATM    9  C7  UNL     1     -35.235  15.685  -5.122  1.00 20.00     0.013 A 
HETATM   10  C5  UNL     1     -34.606  15.181  -6.395  1.00 20.00     0.011 A 
HETATM   11  C6  UNL     1     -34.217  14.575  -5.072  1.00 20.00    -0.012 A 
HETATM   12  C9  UNL     1     -34.639  13.187  -4.730  1.00 20.00     0.010 C 
ENDBRANCH   7   9
ENDBRANCH   4   7
TORSDOF 2
ENDMDL
MODEL 9
REMARK VINA RESULT:      -4.2      1.034      1.420
REMARK  2 active torsions:
REMARK  status: ('A' for Active; 'I' for Inactive)
REMARK    1  A    between atoms: C4_4  and  C10_10 
REMARK    2  A    between atoms: C7_7  and  C10_10 
ROOT
HETATM    1  C1  UNL     1     -37.580  15.146  -5.436  1.00 20.00     0.015 A 
HETATM    2  C2  UNL     1     -36.965  15.016  -4.158  1.00 20.00     0.017 A 
HETATM    3  C3  UNL     1     -36.660  15.103  -6.461  1.00 20.00    -0.021 A 
HETATM    4  C4  UNL     1     -35.597  14.879  -4.255  1.00 20.00     0.002 A 
HETATM    5  C8  UNL     1     -36.900  15.203  -7.917  1.00 20.00     0.056 C 
HETATM    6  S11 UNL     1     -35.062  14.907  -5.881  1.00 20.00    -0.098 SA
ENDROOT
BRANCH   4   7
HETATM    7  C10 UNL     1     -34.577  14.714  -3.131  1.00 20.00     0.126 C 
HETATM    8 CL12 UNL     1     -33.220  13.699  -3.743  1.00 20.00    -0.119 Cl
BRANCH   7   9
HETATM    9  C7  UNL     1     -34.070  15.989  -2.551  1.00 20.00     0.013 A 
HETATM   10  C5  UNL     1     -34.767  17.290  -2.855  1.00 20.00     0.011 A 
HETATM   11  C6  UNL     1     -34.855  16.694  -1.474  1.00 20.00    -0.012 A 
HETATM   12  C9  UNL     1     -34.147  17.340  -0.334  1.00 20.00     0.010 C 
ENDBRANCH   7   9
ENDBRANCH   4   7
TORSDOF 2
ENDMDL
