MODEL 1
REMARK VINA RESULT:      -3.8      0.000      0.000
REMARK  2 active torsions:
REMARK  status: ('A' for Active; 'I' for Inactive)
REMARK    1  A    between atoms: C3_3  and  C5_5 
REMARK    2  A    between atoms: C5_5  and  S6_6 
ROOT
HETATM    1  C1  UNL     1     -35.182   5.013   6.303  1.00 20.00     0.010 A 
HETATM    2  C2  UNL     1     -34.356   3.994   5.571  1.00 20.00     0.010 A 
HETATM    3  C3  UNL     1     -34.597   5.350   4.951  1.00 20.00    -0.036 A 
HETATM    4  C4  UNL     1     -35.536   5.431   3.777  1.00 20.00     0.016 C 
ENDROOT
BRANCH   3   5
HETATM    5  C5  UNL     1     -33.447   6.317   4.900  1.00 20.00     0.079 C 
BRANCH   5   6
HETATM    6  S6  UNL     1     -32.693   6.344   3.246  1.00 20.00    -0.181 SA
HETATM    7  H16 UNL     1     -32.066   5.165   3.359  1.00 20.00     0.101 HD
ENDBRANCH   5   6
ENDBRANCH   3   5
TORSDOF 2
ENDMDL
MODEL 2
REMARK VINA RESULT:      -3.7      0.887      1.701
REMARK  2 active torsions:
REMARK  status: ('A' for Active; 'I' for Inactive)
REMARK    1  A    between atoms: C3_3  and  C5_5 
REMARK    2  A    between atoms: C5_5  and  S6_6 
ROOT
HETATM    1  C1  UNL     1     -33.967   4.169   5.948  1.00 20.00     0.010 A 
HETATM    2  C2  UNL     1     -35.378   4.679   6.014  1.00 20.00     0.010 A 
HETATM    3  C3  UNL     1     -34.283   5.570   5.478  1.00 20.00    -0.036 A 
HETATM    4  C4  UNL     1     -33.828   6.721   6.334  1.00 20.00     0.016 C 
ENDROOT
BRANCH   3   5
HETATM    5  C5  UNL     1     -34.254   5.841   3.999  1.00 20.00     0.079 C 
BRANCH   5   6
HETATM    6  S6  UNL     1     -32.658   6.552   3.499  1.00 20.00    -0.181 SA
HETATM    7  H16 UNL     1     -33.030   6.865   2.250  1.00 20.00     0.101 HD
ENDBRANCH   5   6
ENDBRANCH   3   5
TORSDOF 2
ENDMDL
MODEL 3
REMARK VINA RESULT:      -3.5      2.151      3.074
REMARK  2 active torsions:
REMARK  status: ('A' for Active; 'I' for Inactive)
REMARK    1  A    between atoms: C3_3  and  C5_5 
REMARK    2  A    between atoms: C5_5  and  S6_6 
ROOT
HETATM    1  C1  UNL     1     -32.149   5.944   3.252  1.00 20.00     0.010 A 
HETATM    2  C2  UNL     1     -32.864   7.238   2.987  1.00 20.00     0.010 A 
HETATM    3  C3  UNL     1     -33.550   6.151   3.780  1.00 20.00    -0.036 A 
HETATM    4  C4  UNL     1     -34.671   5.396   3.119  1.00 20.00     0.016 C 
ENDROOT
BRANCH   3   5
HETATM    5  C5  UNL     1     -33.722   6.359   5.259  1.00 20.00     0.079 C 
BRANCH   5   6
HETATM    6  S6  UNL     1     -34.722   5.029   5.991  1.00 20.00    -0.181 SA
HETATM    7  H16 UNL     1     -34.943   5.647   7.159  1.00 20.00     0.101 HD
ENDBRANCH   5   6
ENDBRANCH   3   5
TORSDOF 2
ENDMDL
MODEL 4
REMARK VINA RESULT:      -3.4      1.034      1.856
REMARK  2 active torsions:
REMARK  status: ('A' for Active; 'I' for Inactive)
REMARK    1  A    between atoms: C3_3  and  C5_5 
REMARK    2  A    between atoms: C5_5  and  S6_6 
ROOT
HETATM    1  C1  UNL     1     -34.982   4.310   4.729  1.00 20.00     0.010 A 
HETATM    2  C2  UNL     1     -35.731   5.452   4.105  1.00 20.00     0.010 A 
HETATM    3  C3  UNL     1     -34.262   5.603   4.422  1.00 20.00    -0.036 A 
HETATM    4  C4  UNL     1     -33.877   6.487   5.577  1.00 20.00     0.016 C 
ENDROOT
BRANCH   3   5
HETATM    5  C5  UNL     1     -33.291   5.614   3.274  1.00 20.00     0.079 C 
BRANCH   5   6
HETATM    6  S6  UNL     1     -32.205   7.069   3.355  1.00 20.00    -0.181 SA
HETATM    7  H16 UNL     1     -31.503   6.660   4.421  1.00 20.00     0.101 HD
ENDBRANCH   5   6
ENDBRANCH   3   5
TORSDOF 2
ENDMDL
MODEL 5
REMARK VINA RESULT:      -3.1      2.188      3.261
REMARK  2 active torsions:
REMARK  status: ('A' for Active; 'I' for Inactive)
REMARK    1  A    between atoms: C3_3  and  C5_5 
REMARK    2  A    between atoms: C5_5  and  S6_6 
ROOT
HETATM    1  C1  UNL     1     -32.983   7.209   2.931  1.00 20.00     0.010 A 
HETATM    2  C2  UNL     1     -32.189   5.984   3.284  1.00 20.00     0.010 A 
HETATM    3  C3  UNL     1     -33.506   6.249   3.975  1.00 20.00    -0.036 A 
HETATM    4  C4  UNL     1     -33.471   6.686   5.415  1.00 20.00     0.016 C 
ENDROOT
BRANCH   3   5
HETATM    5  C5  UNL     1     -34.679   5.383   3.612  1.00 20.00     0.079 C 
BRANCH   5   6
HETATM    6  S6  UNL     1     -35.199   4.366   5.027  1.00 20.00    -0.181 SA
HETATM    7  H16 UNL     1     -33.983   4.271   5.584  1.00 20.00     0.101 HD
ENDBRANCH   5   6
ENDBRANCH   3   5
TORSDOF 2
ENDMDL
MODEL 6
REMARK VINA RESULT:      -3.0      1.670      2.195
REMARK  2 active torsions:
REMARK  status: ('A' for Active; 'I' for Inactive)
REMARK    1  A    between atoms: C3_3  and  C5_5 
REMARK    2  A    between atoms: C5_5  and  S6_6 
ROOT
HETATM    1  C1  UNL     1     -35.709   5.297   4.101  1.00 20.00     0.010 A 
HETATM    2  C2  UNL     1     -34.882   4.096   4.458  1.00 20.00     0.010 A 
HETATM    3  C3  UNL     1     -34.411   5.476   4.854  1.00 20.00    -0.036 A 
HETATM    4  C4  UNL     1     -33.240   6.061   4.111  1.00 20.00     0.016 C 
ENDROOT
BRANCH   3   5
HETATM    5  C5  UNL     1     -34.485   5.856   6.307  1.00 20.00     0.079 C 
BRANCH   5   6
HETATM    6  S6  UNL     1     -33.425   7.291   6.657  1.00 20.00    -0.181 SA
HETATM    7  H16 UNL     1     -34.416   8.193   6.681  1.00 20.00     0.101 HD
ENDBRANCH   5   6
ENDBRANCH   3   5
TORSDOF 2
ENDMDL
MODEL 7
REMARK VINA RESULT:      -2.9      1.636      2.538
REMARK  2 active torsions:
REMARK  status: ('A' for Active; 'I' for Inactive)
REMARK    1  A    between atoms: C3_3  and  C5_5 
REMARK    2  A    between atoms: C5_5  and  S6_6 
ROOT
HETATM    1  C1  UNL     1     -34.516   4.969   3.028  1.00 20.00     0.010 A 
HETATM    2  C2  UNL     1     -35.689   5.749   3.550  1.00 20.00     0.010 A 
HETATM    3  C3  UNL     1     -34.556   5.384   4.480  1.00 20.00    -0.036 A 
HETATM    4  C4  UNL     1     -34.807   4.318   5.512  1.00 20.00     0.016 C 
ENDROOT
BRANCH   3   5
HETATM    5  C5  UNL     1     -33.630   6.481   4.926  1.00 20.00     0.079 C 
BRANCH   5   6
HETATM    6  S6  UNL     1     -33.849   6.839   6.695  1.00 20.00    -0.181 SA
HETATM    7  H16 UNL     1     -32.827   7.700   6.791  1.00 20.00     0.101 HD
ENDBRANCH   5   6
ENDBRANCH   3   5
TORSDOF 2
ENDMDL
MODEL 8
REMARK VINA RESULT:      -2.8      9.369      9.990
REMARK  2 active torsions:
REMARK  status: ('A' for Active; 'I' for Inactive)
REMARK    1  A    between atoms: C3_3  and  C5_5 
REMARK    2  A    between atoms: C5_5  and  S6_6 
ROOT
HETATM    1  C1  UNL     1     -40.695   4.549  -1.062  1.00 20.00     0.010 A 
HETATM    2  C2  UNL     1     -41.930   4.751  -0.230  1.00 20.00     0.010 A 
HETATM    3  C3  UNL     1     -41.592   5.738  -1.322  1.00 20.00    -0.036 A 
HETATM    4  C4  UNL     1     -41.095   7.098  -0.913  1.00 20.00     0.016 C 
ENDROOT
BRANCH   3   5
HETATM    5  C5  UNL     1     -42.433   5.727  -2.568  1.00 20.00     0.079 C 
BRANCH   5   6
HETATM    6  S6  UNL     1     -42.585   7.399  -3.264  1.00 20.00    -0.181 SA
HETATM    7  H16 UNL     1     -41.469   7.886  -2.703  1.00 20.00     0.101 HD
ENDBRANCH   5   6
ENDBRANCH   3   5
TORSDOF 2
ENDMDL
MODEL 9
REMARK VINA RESULT:      -2.8     12.582     13.044
REMARK  2 active torsions:
REMARK  status: ('A' for Active; 'I' for Inactive)
REMARK    1  A    between atoms: C3_3  and  C5_5 
REMARK    2  A    between atoms: C5_5  and  S6_6 
ROOT
HETATM    1  C1  UNL     1     -34.520  16.268  -1.543  1.00 20.00     0.010 A 
HETATM    2  C2  UNL     1     -34.684  17.204  -2.706  1.00 20.00     0.010 A 
HETATM    3  C3  UNL     1     -34.472  15.729  -2.954  1.00 20.00    -0.036 A 
HETATM    4  C4  UNL     1     -33.138  15.291  -3.496  1.00 20.00     0.016 C 
ENDROOT
BRANCH   3   5
HETATM    5  C5  UNL     1     -35.642  14.920  -3.441  1.00 20.00     0.079 C 
BRANCH   5   6
HETATM    6  S6  UNL     1     -35.082  13.469  -4.381  1.00 20.00    -0.181 SA
HETATM    7  H16 UNL     1     -34.233  14.136  -5.175  1.00 20.00     0.101 HD
ENDBRANCH   5   6
ENDBRANCH   3   5
TORSDOF 2
ENDMDL
