MODEL 1
REMARK VINA RESULT:      -3.3      0.000      0.000
REMARK  0 active torsions:
REMARK  status: ('A' for Active; 'I' for Inactive)
ROOT
HETATM    1  C1  UNL     1     -34.815   4.911   3.797  1.00 20.00     0.149 A 
HETATM    2  C2  UNL     1     -34.604   5.221   5.124  1.00 20.00     0.094 A 
HETATM    3  C3  UNL     1     -33.311   6.485   3.531  1.00 20.00     0.145 A 
HETATM    4  N4  UNL     1     -34.075   5.635   2.883  1.00 20.00    -0.244 NA
HETATM    5  S5  UNL     1     -33.431   6.468   5.243  1.00 20.00    -0.049 SA
HETATM    6 CL6  UNL     1     -35.324   4.548   6.517  1.00 20.00    -0.075 Cl
HETATM    7 BR7  UNL     1     -32.129   7.676   2.619  1.00 20.00    -0.021 Br
ENDROOT
TORSDOF 0
ENDMDL
MODEL 2
REMARK VINA RESULT:      -3.2     12.684     12.920
REMARK  0 active torsions:
REMARK  status: ('A' for Active; 'I' for Inactive)
ROOT
HETATM    1  C1  UNL     1     -34.581  13.452  -4.828  1.00 20.00     0.149 A 
HETATM    2  C2  UNL     1     -34.998  14.396  -5.744  1.00 20.00     0.094 A 
HETATM    3  C3  UNL     1     -34.701  15.182  -3.485  1.00 20.00     0.145 A 
HETATM    4  N4  UNL     1     -34.410  13.902  -3.533  1.00 20.00    -0.244 NA
HETATM    5  S5  UNL     1     -35.188  15.911  -4.961  1.00 20.00    -0.049 SA
HETATM    6 CL6  UNL     1     -35.313  14.215  -7.411  1.00 20.00    -0.075 Cl
HETATM    7 BR7  UNL     1     -34.588  16.181  -1.861  1.00 20.00    -0.021 Br
ENDROOT
TORSDOF 0
ENDMDL
MODEL 3
REMARK VINA RESULT:      -3.2     12.395     12.765
REMARK  0 active torsions:
REMARK  status: ('A' for Active; 'I' for Inactive)
ROOT
HETATM    1  C1  UNL     1     -34.343  14.077  -3.457  1.00 20.00     0.149 A 
HETATM    2  C2  UNL     1     -34.602  15.387  -3.111  1.00 20.00     0.094 A 
HETATM    3  C3  UNL     1     -34.616  14.902  -5.471  1.00 20.00     0.145 A 
HETATM    4  N4  UNL     1     -34.352  13.798  -4.810  1.00 20.00    -0.244 NA
HETATM    5  S5  UNL     1     -34.865  16.315  -4.530  1.00 20.00    -0.049 SA
HETATM    6 CL6  UNL     1     -34.673  16.099  -1.562  1.00 20.00    -0.075 Cl
HETATM    7 BR7  UNL     1     -34.716  14.935  -7.378  1.00 20.00    -0.021 Br
ENDROOT
TORSDOF 0
ENDMDL
MODEL 4
REMARK VINA RESULT:      -3.1      9.960     10.259
REMARK  0 active torsions:
REMARK  status: ('A' for Active; 'I' for Inactive)
ROOT
HETATM    1  C1  UNL     1     -40.793   5.512  -0.767  1.00 20.00     0.149 A 
HETATM    2  C2  UNL     1     -41.749   6.328  -1.335  1.00 20.00     0.094 A 
HETATM    3  C3  UNL     1     -41.610   4.094  -2.227  1.00 20.00     0.145 A 
HETATM    4  N4  UNL     1     -40.712   4.231  -1.277  1.00 20.00    -0.244 NA
HETATM    5  S5  UNL     1     -42.586   5.466  -2.560  1.00 20.00    -0.049 SA
HETATM    6 CL6  UNL     1     -42.136   7.950  -0.973  1.00 20.00    -0.075 Cl
HETATM    7 BR7  UNL     1     -41.820   2.455  -3.187  1.00 20.00    -0.021 Br
ENDROOT
TORSDOF 0
ENDMDL
MODEL 5
REMARK VINA RESULT:      -3.1     12.546     12.711
REMARK  0 active torsions:
REMARK  status: ('A' for Active; 'I' for Inactive)
ROOT
HETATM    1  C1  UNL     1     -33.328  15.901  -3.184  1.00 20.00     0.149 A 
HETATM    2  C2  UNL     1     -34.492  15.933  -2.446  1.00 20.00     0.094 A 
HETATM    3  C3  UNL     1     -34.703  15.124  -4.706  1.00 20.00     0.145 A 
HETATM    4  N4  UNL     1     -33.447  15.437  -4.480  1.00 20.00    -0.244 NA
HETATM    5  S5  UNL     1     -35.796  15.363  -3.404  1.00 20.00    -0.049 SA
HETATM    6 CL6  UNL     1     -34.734  16.438  -0.833  1.00 20.00    -0.075 Cl
HETATM    7 BR7  UNL     1     -35.283  14.441  -6.392  1.00 20.00    -0.021 Br
ENDROOT
TORSDOF 0
ENDMDL
MODEL 6
REMARK VINA RESULT:      -3.1     12.994     13.164
REMARK  0 active torsions:
REMARK  status: ('A' for Active; 'I' for Inactive)
ROOT
HETATM    1  C1  UNL     1     -35.830  14.772  -4.565  1.00 20.00     0.149 A 
HETATM    2  C2  UNL     1     -34.725  15.212  -5.263  1.00 20.00     0.094 A 
HETATM    3  C3  UNL     1     -34.843  15.884  -2.952  1.00 20.00     0.145 A 
HETATM    4  N4  UNL     1     -35.899  15.156  -3.239  1.00 20.00    -0.244 NA
HETATM    5  S5  UNL     1     -33.726  16.147  -4.228  1.00 20.00    -0.049 SA
HETATM    6 CL6  UNL     1     -34.303  14.943  -6.894  1.00 20.00    -0.075 Cl
HETATM    7 BR7  UNL     1     -34.566  16.611  -1.207  1.00 20.00    -0.021 Br
ENDROOT
TORSDOF 0
ENDMDL
MODEL 7
REMARK VINA RESULT:      -3.1     10.615     10.919
REMARK  0 active torsions:
REMARK  status: ('A' for Active; 'I' for Inactive)
ROOT
HETATM    1  C1  UNL     1     -42.694   6.156  -2.841  1.00 20.00     0.149 A 
HETATM    2  C2  UNL     1     -41.785   6.152  -1.804  1.00 20.00     0.094 A 
HETATM    3  C3  UNL     1     -42.340   3.995  -2.723  1.00 20.00     0.145 A 
HETATM    4  N4  UNL     1     -43.013   4.920  -3.369  1.00 20.00    -0.244 NA
HETATM    5  S5  UNL     1     -41.305   4.539  -1.467  1.00 20.00    -0.049 SA
HETATM    6 CL6  UNL     1     -41.159   7.466  -0.913  1.00 20.00    -0.075 Cl
HETATM    7 BR7  UNL     1     -42.505   2.141  -3.156  1.00 20.00    -0.021 Br
ENDROOT
TORSDOF 0
ENDMDL
MODEL 8
REMARK VINA RESULT:      -3.0      9.989     10.265
REMARK  0 active torsions:
REMARK  status: ('A' for Active; 'I' for Inactive)
ROOT
HETATM    1  C1  UNL     1     -40.675   4.085  -1.488  1.00 20.00     0.149 A 
HETATM    2  C2  UNL     1     -41.657   3.718  -2.384  1.00 20.00     0.094 A 
HETATM    3  C3  UNL     1     -41.767   5.985  -1.574  1.00 20.00     0.145 A 
HETATM    4  N4  UNL     1     -40.737   5.384  -1.023  1.00 20.00    -0.244 NA
HETATM    5  S5  UNL     1     -42.706   5.047  -2.662  1.00 20.00    -0.049 SA
HETATM    6 CL6  UNL     1     -41.902   2.219  -3.162  1.00 20.00    -0.075 Cl
HETATM    7 BR7  UNL     1     -42.199   7.805  -1.186  1.00 20.00    -0.021 Br
ENDROOT
TORSDOF 0
ENDMDL
MODEL 9
REMARK VINA RESULT:      -3.0     13.458     13.860
REMARK  0 active torsions:
REMARK  status: ('A' for Active; 'I' for Inactive)
ROOT
HETATM    1  C1  UNL     1     -33.499  16.924  -5.271  1.00 20.00     0.149 A 
HETATM    2  C2  UNL     1     -34.141  15.751  -5.607  1.00 20.00     0.094 A 
HETATM    3  C3  UNL     1     -34.256  16.384  -3.285  1.00 20.00     0.145 A 
HETATM    4  N4  UNL     1     -33.565  17.289  -3.940  1.00 20.00    -0.244 NA
HETATM    5  S5  UNL     1     -34.858  15.067  -4.206  1.00 20.00    -0.049 SA
HETATM    6 CL6  UNL     1     -34.273  14.992  -7.129  1.00 20.00    -0.075 Cl
HETATM    7 BR7  UNL     1     -34.576  16.525  -1.407  1.00 20.00    -0.021 Br
ENDROOT
TORSDOF 0
ENDMDL
