MODEL 1
REMARK VINA RESULT:      -4.9      0.000      0.000
REMARK  1 active torsions:
REMARK  status: ('A' for Active; 'I' for Inactive)
REMARK    1  A    between atoms: C1_1  and  C2_2 
ROOT
HETATM    1  C1  UNL     1     -34.876   5.239   3.791  1.00 20.00     0.384 C 
HETATM    2  F3  UNL     1     -34.392   4.710   2.636  1.00 20.00    -0.181 F 
HETATM    3  F4  UNL     1     -36.104   5.740   3.489  1.00 20.00    -0.181 F 
HETATM    4 CL6  UNL     1     -35.062   3.939   4.987  1.00 20.00    -0.042 Cl
ENDROOT
BRANCH   1   5
HETATM    5  C2  UNL     1     -33.967   6.378   4.240  1.00 20.00     0.336 C 
HETATM    6  F5  UNL     1     -34.515   7.543   3.789  1.00 20.00    -0.199 F 
HETATM    7 CL7  UNL     1     -32.333   6.238   3.540  1.00 20.00    -0.058 Cl
HETATM    8 CL8  UNL     1     -33.859   6.480   6.017  1.00 20.00    -0.058 Cl
ENDBRANCH   1   5
TORSDOF 1
ENDMDL
MODEL 2
REMARK VINA RESULT:      -4.5      2.265      2.957
REMARK  1 active torsions:
REMARK  status: ('A' for Active; 'I' for Inactive)
REMARK    1  A    between atoms: C1_1  and  C2_2 
ROOT
HETATM    1  C1  UNL     1     -34.557   5.157   5.954  1.00 20.00     0.384 C 
HETATM    2  F3  UNL     1     -33.747   4.174   6.430  1.00 20.00    -0.181 F 
HETATM    3  F4  UNL     1     -35.780   4.935   6.504  1.00 20.00    -0.181 F 
HETATM    4 CL6  UNL     1     -33.947   6.727   6.516  1.00 20.00    -0.042 Cl
ENDROOT
BRANCH   1   5
HETATM    5  C2  UNL     1     -34.659   5.031   4.438  1.00 20.00     0.336 C 
HETATM    6  F5  UNL     1     -34.728   3.702   4.139  1.00 20.00    -0.199 F 
HETATM    7 CL7  UNL     1     -33.223   5.698   3.618  1.00 20.00    -0.058 Cl
HETATM    8 CL8  UNL     1     -36.134   5.807   3.806  1.00 20.00    -0.058 Cl
ENDBRANCH   1   5
TORSDOF 1
ENDMDL
MODEL 3
REMARK VINA RESULT:      -4.3      1.260      3.022
REMARK  1 active torsions:
REMARK  status: ('A' for Active; 'I' for Inactive)
REMARK    1  A    between atoms: C1_1  and  C2_2 
ROOT
HETATM    1  C1  UNL     1     -33.991   6.362   4.495  1.00 20.00     0.384 C 
HETATM    2  F3  UNL     1     -34.383   7.567   4.003  1.00 20.00    -0.181 F 
HETATM    3  F4  UNL     1     -32.693   6.207   4.121  1.00 20.00    -0.181 F 
HETATM    4 CL6  UNL     1     -34.079   6.409   6.269  1.00 20.00    -0.042 Cl
ENDROOT
BRANCH   1   5
HETATM    5  C2  UNL     1     -34.832   5.262   3.856  1.00 20.00     0.336 C 
HETATM    6  F5  UNL     1     -36.083   5.767   3.654  1.00 20.00    -0.199 F 
HETATM    7 CL7  UNL     1     -34.985   3.840   4.919  1.00 20.00    -0.058 Cl
HETATM    8 CL8  UNL     1     -34.183   4.768   2.271  1.00 20.00    -0.058 Cl
ENDBRANCH   1   5
TORSDOF 1
ENDMDL
MODEL 4
REMARK VINA RESULT:      -4.2      1.643      2.228
REMARK  1 active torsions:
REMARK  status: ('A' for Active; 'I' for Inactive)
REMARK    1  A    between atoms: C1_1  and  C2_2 
ROOT
HETATM    1  C1  UNL     1     -34.323   5.531   5.173  1.00 20.00     0.384 C 
HETATM    2  F3  UNL     1     -33.638   4.373   5.368  1.00 20.00    -0.181 F 
HETATM    3  F4  UNL     1     -35.639   5.190   5.152  1.00 20.00    -0.181 F 
HETATM    4 CL6  UNL     1     -34.030   6.612   6.551  1.00 20.00    -0.042 Cl
ENDROOT
BRANCH   1   5
HETATM    5  C2  UNL     1     -33.936   6.120   3.821  1.00 20.00     0.336 C 
HETATM    6  F5  UNL     1     -34.593   7.309   3.688  1.00 20.00    -0.199 F 
HETATM    7 CL7  UNL     1     -34.436   5.069   2.471  1.00 20.00    -0.058 Cl
HETATM    8 CL8  UNL     1     -32.188   6.452   3.718  1.00 20.00    -0.058 Cl
ENDBRANCH   1   5
TORSDOF 1
ENDMDL
MODEL 5
REMARK VINA RESULT:      -4.2      1.357      2.973
REMARK  1 active torsions:
REMARK  status: ('A' for Active; 'I' for Inactive)
REMARK    1  A    between atoms: C1_1  and  C2_2 
ROOT
HETATM    1  C1  UNL     1     -33.864   6.311   4.404  1.00 20.00     0.384 C 
HETATM    2  F3  UNL     1     -34.171   7.498   3.816  1.00 20.00    -0.181 F 
HETATM    3  F4  UNL     1     -32.593   6.018   4.020  1.00 20.00    -0.181 F 
HETATM    4 CL6  UNL     1     -33.901   6.517   6.168  1.00 20.00    -0.042 Cl
ENDROOT
BRANCH   1   5
HETATM    5  C2  UNL     1     -34.807   5.234   3.879  1.00 20.00     0.336 C 
HETATM    6  F5  UNL     1     -34.247   4.712   2.750  1.00 20.00    -0.199 F 
HETATM    7 CL7  UNL     1     -36.399   5.903   3.437  1.00 20.00    -0.058 Cl
HETATM    8 CL8  UNL     1     -35.012   3.904   5.049  1.00 20.00    -0.058 Cl
ENDBRANCH   1   5
TORSDOF 1
ENDMDL
MODEL 6
REMARK VINA RESULT:      -4.2      1.973      3.378
REMARK  1 active torsions:
REMARK  status: ('A' for Active; 'I' for Inactive)
REMARK    1  A    between atoms: C1_1  and  C2_2 
ROOT
HETATM    1  C1  UNL     1     -32.345   6.839   3.506  1.00 20.00     0.384 C 
HETATM    2  F3  UNL     1     -31.720   5.663   3.236  1.00 20.00    -0.181 F 
HETATM    3  F4  UNL     1     -31.664   7.397   4.542  1.00 20.00    -0.181 F 
HETATM    4 CL6  UNL     1     -32.211   7.901   2.089  1.00 20.00    -0.042 Cl
ENDROOT
BRANCH   1   5
HETATM    5  C2  UNL     1     -33.778   6.556   3.943  1.00 20.00     0.336 C 
HETATM    6  F5  UNL     1     -34.530   7.648   3.619  1.00 20.00    -0.199 F 
HETATM    7 CL7  UNL     1     -33.900   6.315   5.705  1.00 20.00    -0.058 Cl
HETATM    8 CL8  UNL     1     -34.467   5.151   3.089  1.00 20.00    -0.058 Cl
ENDBRANCH   1   5
TORSDOF 1
ENDMDL
MODEL 7
REMARK VINA RESULT:      -4.1      0.899      2.629
REMARK  1 active torsions:
REMARK  status: ('A' for Active; 'I' for Inactive)
REMARK    1  A    between atoms: C1_1  and  C2_2 
ROOT
HETATM    1  C1  UNL     1     -33.992   5.922   3.699  1.00 20.00     0.384 C 
HETATM    2  F3  UNL     1     -34.445   7.191   3.520  1.00 20.00    -0.181 F 
HETATM    3  F4  UNL     1     -34.494   5.195   2.665  1.00 20.00    -0.181 F 
HETATM    4 CL6  UNL     1     -32.219   5.925   3.595  1.00 20.00    -0.042 Cl
ENDROOT
BRANCH   1   5
HETATM    5  C2  UNL     1     -34.541   5.373   5.011  1.00 20.00     0.336 C 
HETATM    6  F5  UNL     1     -35.900   5.331   4.901  1.00 20.00    -0.199 F 
HETATM    7 CL7  UNL     1     -34.140   6.428   6.391  1.00 20.00    -0.058 Cl
HETATM    8 CL8  UNL     1     -33.969   3.715   5.328  1.00 20.00    -0.058 Cl
ENDBRANCH   1   5
TORSDOF 1
ENDMDL
MODEL 8
REMARK VINA RESULT:      -4.1      1.299      3.019
REMARK  1 active torsions:
REMARK  status: ('A' for Active; 'I' for Inactive)
REMARK    1  A    between atoms: C1_1  and  C2_2 
ROOT
HETATM    1  C1  UNL     1     -33.762   6.361   4.135  1.00 20.00     0.384 C 
HETATM    2  F3  UNL     1     -33.587   6.413   5.483  1.00 20.00    -0.181 F 
HETATM    3  F4  UNL     1     -34.274   7.569   3.776  1.00 20.00    -0.181 F 
HETATM    4 CL6  UNL     1     -32.179   6.151   3.357  1.00 20.00    -0.042 Cl
ENDROOT
BRANCH   1   5
HETATM    5  C2  UNL     1     -34.773   5.269   3.803  1.00 20.00     0.336 C 
HETATM    6  F5  UNL     1     -34.318   4.612   2.697  1.00 20.00    -0.199 F 
HETATM    7 CL7  UNL     1     -36.376   5.945   3.413  1.00 20.00    -0.058 Cl
HETATM    8 CL8  UNL     1     -34.920   4.078   5.121  1.00 20.00    -0.058 Cl
ENDBRANCH   1   5
TORSDOF 1
ENDMDL
MODEL 9
REMARK VINA RESULT:      -3.9      8.111      8.866
REMARK  1 active torsions:
REMARK  status: ('A' for Active; 'I' for Inactive)
REMARK    1  A    between atoms: C1_1  and  C2_2 
ROOT
HETATM    1  C1  UNL     1     -41.558   7.190  -1.048  1.00 20.00     0.384 C 
HETATM    2  F3  UNL     1     -41.277   6.929  -2.353  1.00 20.00    -0.181 F 
HETATM    3  F4  UNL     1     -40.723   8.198  -0.679  1.00 20.00    -0.181 F 
HETATM    4 CL6  UNL     1     -43.237   7.756  -0.924  1.00 20.00    -0.042 Cl
ENDROOT
BRANCH   1   5
HETATM    5  C2  UNL     1     -41.251   5.953  -0.213  1.00 20.00     0.336 C 
HETATM    6  F5  UNL     1     -40.220   6.267   0.623  1.00 20.00    -0.199 F 
HETATM    7 CL7  UNL     1     -40.731   4.580  -1.225  1.00 20.00    -0.058 Cl
HETATM    8 CL8  UNL     1     -42.640   5.471   0.795  1.00 20.00    -0.058 Cl
ENDBRANCH   1   5
TORSDOF 1
ENDMDL
