MODEL 1
REMARK VINA RESULT:      -3.9      0.000      0.000
REMARK  1 active torsions:
REMARK  status: ('A' for Active; 'I' for Inactive)
REMARK    1  A    between atoms: C2_2  and  C6_6 
ROOT
HETATM    1  C1  UNL     1     -34.372  14.066  -3.393  1.00 20.00     0.080 A 
HETATM    2  C2  UNL     1     -34.118  15.404  -3.607  1.00 20.00     0.047 A 
HETATM    3  C3  UNL     1     -34.558  14.816  -5.674  1.00 20.00     0.144 A 
HETATM    4  N7  UNL     1     -34.224  15.836  -4.915  1.00 20.00    -0.238 NA
HETATM    5  S8  UNL     1     -34.762  13.308  -4.881  1.00 20.00    -0.073 SA
HETATM    6 BR9  UNL     1     -34.803  15.004  -7.559  1.00 20.00    -0.021 Br
ENDROOT
BRANCH   2   7
HETATM    7  C6  UNL     1     -33.740  16.364  -2.467  1.00 20.00     0.038 A 
HETATM    8  C4  UNL     1     -34.614  16.406  -1.237  1.00 20.00     0.011 A 
HETATM    9  C5  UNL     1     -34.631  17.554  -2.197  1.00 20.00     0.011 A 
ENDBRANCH   2   7
TORSDOF 1
ENDMDL
MODEL 2
REMARK VINA RESULT:      -3.8      3.410      4.471
REMARK  1 active torsions:
REMARK  status: ('A' for Active; 'I' for Inactive)
REMARK    1  A    between atoms: C2_2  and  C6_6 
ROOT
HETATM    1  C1  UNL     1     -33.682  16.730  -4.020  1.00 20.00     0.080 A 
HETATM    2  C2  UNL     1     -33.996  15.539  -3.400  1.00 20.00     0.047 A 
HETATM    3  C3  UNL     1     -34.387  16.898  -1.723  1.00 20.00     0.144 A 
HETATM    4  N7  UNL     1     -34.400  15.633  -2.083  1.00 20.00    -0.238 NA
HETATM    5  S8  UNL     1     -33.900  18.027  -2.920  1.00 20.00    -0.073 SA
HETATM    6 BR9  UNL     1     -34.884  17.447   0.037  1.00 20.00    -0.021 Br
ENDROOT
BRANCH   2   7
HETATM    7  C6  UNL     1     -33.904  14.185  -4.122  1.00 20.00     0.038 A 
HETATM    8  C4  UNL     1     -34.550  14.044  -5.480  1.00 20.00     0.011 A 
HETATM    9  C5  UNL     1     -35.164  13.369  -4.294  1.00 20.00     0.011 A 
ENDBRANCH   2   7
TORSDOF 1
ENDMDL
MODEL 3
REMARK VINA RESULT:      -3.7      1.950      2.322
REMARK  1 active torsions:
REMARK  status: ('A' for Active; 'I' for Inactive)
REMARK    1  A    between atoms: C2_2  and  C6_6 
ROOT
HETATM    1  C1  UNL     1     -33.589  17.386  -3.862  1.00 20.00     0.080 A 
HETATM    2  C2  UNL     1     -33.878  16.711  -2.695  1.00 20.00     0.047 A 
HETATM    3  C3  UNL     1     -34.246  15.084  -4.119  1.00 20.00     0.144 A 
HETATM    4  N7  UNL     1     -34.256  15.391  -2.841  1.00 20.00    -0.238 NA
HETATM    5  S8  UNL     1     -33.792  16.336  -5.201  1.00 20.00    -0.073 SA
HETATM    6 BR9  UNL     1     -34.713  13.338  -4.737  1.00 20.00    -0.021 Br
ENDROOT
BRANCH   2   7
HETATM    7  C6  UNL     1     -33.789  17.378  -1.313  1.00 20.00     0.038 A 
HETATM    8  C4  UNL     1     -34.748  16.936  -0.233  1.00 20.00     0.011 A 
HETATM    9  C5  UNL     1     -34.918  18.279  -0.870  1.00 20.00     0.011 A 
ENDBRANCH   2   7
TORSDOF 1
ENDMDL
MODEL 4
REMARK VINA RESULT:      -3.7      1.251      1.294
REMARK  1 active torsions:
REMARK  status: ('A' for Active; 'I' for Inactive)
REMARK    1  A    between atoms: C2_2  and  C6_6 
ROOT
HETATM    1  C1  UNL     1     -36.123  15.501  -3.217  1.00 20.00     0.080 A 
HETATM    2  C2  UNL     1     -34.768  15.747  -3.270  1.00 20.00     0.047 A 
HETATM    3  C3  UNL     1     -35.100  15.266  -5.384  1.00 20.00     0.144 A 
HETATM    4  N7  UNL     1     -34.179  15.612  -4.512  1.00 20.00    -0.238 NA
HETATM    5  S8  UNL     1     -36.695  15.085  -4.779  1.00 20.00    -0.073 SA
HETATM    6 BR9  UNL     1     -34.682  14.979  -7.225  1.00 20.00    -0.021 Br
ENDROOT
BRANCH   2   7
HETATM    7  C6  UNL     1     -33.953  16.147  -2.029  1.00 20.00     0.038 A 
HETATM    8  C4  UNL     1     -34.686  16.701  -0.830  1.00 20.00     0.011 A 
HETATM    9  C5  UNL     1     -33.850  17.612  -1.671  1.00 20.00     0.011 A 
ENDBRANCH   2   7
TORSDOF 1
ENDMDL
MODEL 5
REMARK VINA RESULT:      -3.5      3.059      4.519
REMARK  1 active torsions:
REMARK  status: ('A' for Active; 'I' for Inactive)
REMARK    1  A    between atoms: C2_2  and  C6_6 
ROOT
HETATM    1  C1  UNL     1     -33.836  16.994  -5.271  1.00 20.00     0.080 A 
HETATM    2  C2  UNL     1     -34.289  15.730  -4.962  1.00 20.00     0.047 A 
HETATM    3  C3  UNL     1     -34.335  16.599  -2.949  1.00 20.00     0.144 A 
HETATM    4  N7  UNL     1     -34.575  15.501  -3.630  1.00 20.00    -0.238 NA
HETATM    5  S8  UNL     1     -33.764  17.945  -3.846  1.00 20.00    -0.073 SA
HETATM    6 BR9  UNL     1     -34.609  16.689  -1.061  1.00 20.00    -0.021 Br
ENDROOT
BRANCH   2   7
HETATM    7  C6  UNL     1     -34.466  14.634  -6.026  1.00 20.00     0.038 A 
HETATM    8  C4  UNL     1     -34.559  15.044  -7.477  1.00 20.00     0.011 A 
HETATM    9  C5  UNL     1     -35.781  14.551  -6.767  1.00 20.00     0.011 A 
ENDBRANCH   2   7
TORSDOF 1
ENDMDL
MODEL 6
REMARK VINA RESULT:      -3.5      1.447      1.520
REMARK  1 active torsions:
REMARK  status: ('A' for Active; 'I' for Inactive)
REMARK    1  A    between atoms: C2_2  and  C6_6 
ROOT
HETATM    1  C1  UNL     1     -34.146  14.444  -3.416  1.00 20.00     0.080 A 
HETATM    2  C2  UNL     1     -34.928  15.475  -2.942  1.00 20.00     0.047 A 
HETATM    3  C3  UNL     1     -35.913  15.176  -4.878  1.00 20.00     0.144 A 
HETATM    4  N7  UNL     1     -35.942  15.897  -3.779  1.00 20.00    -0.238 NA
HETATM    5  S8  UNL     1     -34.693  13.973  -4.971  1.00 20.00    -0.073 SA
HETATM    6 BR9  UNL     1     -37.163  15.455  -6.296  1.00 20.00    -0.021 Br
ENDROOT
BRANCH   2   7
HETATM    7  C6  UNL     1     -34.694  16.123  -1.567  1.00 20.00     0.038 A 
HETATM    8  C4  UNL     1     -35.191  17.531  -1.336  1.00 20.00     0.011 A 
HETATM    9  C5  UNL     1     -33.722  17.276  -1.466  1.00 20.00     0.011 A 
ENDBRANCH   2   7
TORSDOF 1
ENDMDL
MODEL 7
REMARK VINA RESULT:      -3.5      3.240      3.820
REMARK  1 active torsions:
REMARK  status: ('A' for Active; 'I' for Inactive)
REMARK    1  A    between atoms: C2_2  and  C6_6 
ROOT
HETATM    1  C1  UNL     1     -36.076  16.199  -4.527  1.00 20.00     0.080 A 
HETATM    2  C2  UNL     1     -36.063  14.961  -3.919  1.00 20.00     0.047 A 
HETATM    3  C3  UNL     1     -38.182  15.032  -4.480  1.00 20.00     0.144 A 
HETATM    4  N7  UNL     1     -37.270  14.291  -3.890  1.00 20.00    -0.238 NA
HETATM    5  S8  UNL     1     -37.656  16.547  -5.091  1.00 20.00    -0.073 SA
HETATM    6 BR9  UNL     1     -39.995  14.453  -4.645  1.00 20.00    -0.021 Br
ENDROOT
BRANCH   2   7
HETATM    7  C6  UNL     1     -34.789  14.356  -3.306  1.00 20.00     0.038 A 
HETATM    8  C4  UNL     1     -33.448  14.892  -3.750  1.00 20.00     0.011 A 
HETATM    9  C5  UNL     1     -33.883  13.529  -4.190  1.00 20.00     0.011 A 
ENDBRANCH   2   7
TORSDOF 1
ENDMDL
MODEL 8
REMARK VINA RESULT:      -3.4      1.949      2.106
REMARK  1 active torsions:
REMARK  status: ('A' for Active; 'I' for Inactive)
REMARK    1  A    between atoms: C2_2  and  C6_6 
ROOT
HETATM    1  C1  UNL     1     -33.438  16.988  -4.800  1.00 20.00     0.080 A 
HETATM    2  C2  UNL     1     -34.186  16.399  -3.803  1.00 20.00     0.047 A 
HETATM    3  C3  UNL     1     -35.553  16.062  -5.485  1.00 20.00     0.144 A 
HETATM    4  N7  UNL     1     -35.400  15.868  -4.194  1.00 20.00    -0.238 NA
HETATM    5  S8  UNL     1     -34.276  16.876  -6.292  1.00 20.00    -0.073 SA
HETATM    6 BR9  UNL     1     -37.114  15.468  -6.412  1.00 20.00    -0.021 Br
ENDROOT
BRANCH   2   7
HETATM    7  C6  UNL     1     -33.708  16.334  -2.343  1.00 20.00     0.038 A 
HETATM    8  C4  UNL     1     -34.737  16.416  -1.241  1.00 20.00     0.011 A 
HETATM    9  C5  UNL     1     -33.822  17.574  -1.488  1.00 20.00     0.011 A 
ENDBRANCH   2   7
TORSDOF 1
ENDMDL
MODEL 9
REMARK VINA RESULT:      -3.4      2.480      4.131
REMARK  1 active torsions:
REMARK  status: ('A' for Active; 'I' for Inactive)
REMARK    1  A    between atoms: C2_2  and  C6_6 
ROOT
HETATM    1  C1  UNL     1     -34.473  13.809  -5.299  1.00 20.00     0.080 A 
HETATM    2  C2  UNL     1     -34.391  15.093  -5.795  1.00 20.00     0.047 A 
HETATM    3  C3  UNL     1     -34.216  15.553  -3.658  1.00 20.00     0.144 A 
HETATM    4  N7  UNL     1     -34.244  16.094  -4.855  1.00 20.00    -0.238 NA
HETATM    5  S8  UNL     1     -34.360  13.844  -3.588  1.00 20.00    -0.073 SA
HETATM    6 BR9  UNL     1     -34.025  16.613  -2.080  1.00 20.00    -0.021 Br
ENDROOT
BRANCH   2   7
HETATM    7  C6  UNL     1     -34.458  15.401  -7.300  1.00 20.00     0.038 A 
HETATM    8  C4  UNL     1     -34.808  16.804  -7.736  1.00 20.00     0.011 A 
HETATM    9  C5  UNL     1     -35.804  15.703  -7.918  1.00 20.00     0.011 A 
ENDBRANCH   2   7
TORSDOF 1
ENDMDL
