MODEL 1
REMARK VINA RESULT:      -4.2      0.000      0.000
REMARK  1 active torsions:
REMARK  status: ('A' for Active; 'I' for Inactive)
REMARK    1  A    between atoms: C4_4  and  C7_7 
ROOT
HETATM    1  C1  UNL     1     -34.624  13.632  -4.930  1.00 20.00     0.069 C 
HETATM    2  C6  UNL     1     -35.549  15.574  -6.148  1.00 20.00     0.031 C 
HETATM    3  C7  UNL     1     -34.404  15.073  -5.239  1.00 20.00     0.128 C 
HETATM    4  N8  UNL     1     -34.792  12.514  -4.665  1.00 20.00    -0.197 NA
ENDROOT
BRANCH   3   5
HETATM    5  C4  UNL     1     -34.218  15.897  -4.025  1.00 20.00     0.001 A 
HETATM    6  C2  UNL     1     -34.419  15.543  -2.709  1.00 20.00     0.018 A 
HETATM    7  C3  UNL     1     -34.131  16.616  -1.817  1.00 20.00     0.032 A 
HETATM    8  C5  UNL     1     -33.720  17.749  -2.485  1.00 20.00     0.075 A 
HETATM    9  S9  UNL     1     -33.683  17.516  -4.181  1.00 20.00    -0.081 SA
HETATM   10 CL10 UNL     1     -33.275  19.261  -1.812  1.00 20.00    -0.076 Cl
ENDBRANCH   3   5
TORSDOF 1
ENDMDL
MODEL 2
REMARK VINA RESULT:      -4.2      3.361      4.571
REMARK  1 active torsions:
REMARK  status: ('A' for Active; 'I' for Inactive)
REMARK    1  A    between atoms: C4_4  and  C7_7 
ROOT
HETATM    1  C1  UNL     1     -33.733  17.821  -2.958  1.00 20.00     0.069 C 
HETATM    2  C6  UNL     1     -34.738  16.326  -1.264  1.00 20.00     0.031 C 
HETATM    3  C7  UNL     1     -33.792  16.410  -2.484  1.00 20.00     0.128 C 
HETATM    4  N8  UNL     1     -33.693  18.913  -3.350  1.00 20.00    -0.197 NA
ENDROOT
BRANCH   3   5
HETATM    5  C4  UNL     1     -34.140  15.457  -3.560  1.00 20.00     0.001 A 
HETATM    6  C2  UNL     1     -34.109  14.080  -3.529  1.00 20.00     0.018 A 
HETATM    7  C3  UNL     1     -34.518  13.508  -4.768  1.00 20.00     0.032 A 
HETATM    8  C5  UNL     1     -34.846  14.470  -5.699  1.00 20.00     0.075 A 
HETATM    9  S9  UNL     1     -34.661  16.054  -5.077  1.00 20.00    -0.081 SA
HETATM   10 CL10 UNL     1     -35.386  14.233  -7.308  1.00 20.00    -0.076 Cl
ENDBRANCH   3   5
TORSDOF 1
ENDMDL
MODEL 3
REMARK VINA RESULT:      -4.2      1.441      1.653
REMARK  1 active torsions:
REMARK  status: ('A' for Active; 'I' for Inactive)
REMARK    1  A    between atoms: C4_4  and  C7_7 
ROOT
HETATM    1  C1  UNL     1     -34.594  13.767  -5.123  1.00 20.00     0.069 C 
HETATM    2  C6  UNL     1     -35.435  15.718  -6.386  1.00 20.00     0.031 C 
HETATM    3  C7  UNL     1     -34.352  15.209  -5.408  1.00 20.00     0.128 C 
HETATM    4  N8  UNL     1     -34.781  12.648  -4.877  1.00 20.00    -0.197 NA
ENDROOT
BRANCH   3   5
HETATM    5  C4  UNL     1     -34.243  16.026  -4.180  1.00 20.00     0.001 A 
HETATM    6  C2  UNL     1     -33.672  17.270  -4.026  1.00 20.00     0.018 A 
HETATM    7  C3  UNL     1     -33.762  17.737  -2.683  1.00 20.00     0.032 A 
HETATM    8  C5  UNL     1     -34.398  16.832  -1.861  1.00 20.00     0.075 A 
HETATM    9  S9  UNL     1     -34.883  15.426  -2.710  1.00 20.00    -0.081 SA
HETATM   10 CL10 UNL     1     -34.721  16.981  -0.185  1.00 20.00    -0.076 Cl
ENDBRANCH   3   5
TORSDOF 1
ENDMDL
MODEL 4
REMARK VINA RESULT:      -4.0      1.591      1.630
REMARK  1 active torsions:
REMARK  status: ('A' for Active; 'I' for Inactive)
REMARK    1  A    between atoms: C4_4  and  C7_7 
ROOT
HETATM    1  C1  UNL     1     -34.461  13.780  -4.844  1.00 20.00     0.069 C 
HETATM    2  C6  UNL     1     -34.493  15.875  -6.156  1.00 20.00     0.031 C 
HETATM    3  C7  UNL     1     -34.025  15.205  -4.844  1.00 20.00     0.128 C 
HETATM    4  N8  UNL     1     -34.810  12.674  -4.822  1.00 20.00    -0.197 NA
ENDROOT
BRANCH   3   5
HETATM    5  C4  UNL     1     -34.451  15.935  -3.631  1.00 20.00     0.001 A 
HETATM    6  C2  UNL     1     -33.826  15.998  -2.405  1.00 20.00     0.018 A 
HETATM    7  C3  UNL     1     -34.545  16.808  -1.479  1.00 20.00     0.032 A 
HETATM    8  C5  UNL     1     -35.692  17.332  -2.032  1.00 20.00     0.075 A 
HETATM    9  S9  UNL     1     -35.898  16.849  -3.662  1.00 20.00    -0.081 SA
HETATM   10 CL10 UNL     1     -36.847  18.354  -1.284  1.00 20.00    -0.076 Cl
ENDBRANCH   3   5
TORSDOF 1
ENDMDL
MODEL 5
REMARK VINA RESULT:      -4.0      1.699      2.164
REMARK  1 active torsions:
REMARK  status: ('A' for Active; 'I' for Inactive)
REMARK    1  A    between atoms: C4_4  and  C7_7 
ROOT
HETATM    1  C1  UNL     1     -34.746  13.595  -5.190  1.00 20.00     0.069 C 
HETATM    2  C6  UNL     1     -35.463  14.491  -7.380  1.00 20.00     0.031 C 
HETATM    3  C7  UNL     1     -34.404  14.577  -6.258  1.00 20.00     0.128 C 
HETATM    4  N8  UNL     1     -35.010  12.848  -4.342  1.00 20.00    -0.197 NA
ENDROOT
BRANCH   3   5
HETATM    5  C4  UNL     1     -34.216  15.948  -5.736  1.00 20.00     0.001 A 
HETATM    6  C2  UNL     1     -34.295  17.143  -6.418  1.00 20.00     0.018 A 
HETATM    7  C3  UNL     1     -34.051  18.260  -5.568  1.00 20.00     0.032 A 
HETATM    8  C5  UNL     1     -33.796  17.877  -4.269  1.00 20.00     0.075 A 
HETATM    9  S9  UNL     1     -33.851  16.176  -4.079  1.00 20.00    -0.081 SA
HETATM   10 CL10 UNL     1     -33.454  18.884  -2.925  1.00 20.00    -0.076 Cl
ENDBRANCH   3   5
TORSDOF 1
ENDMDL
MODEL 6
REMARK VINA RESULT:      -4.0     11.879     12.661
REMARK  1 active torsions:
REMARK  status: ('A' for Active; 'I' for Inactive)
REMARK    1  A    between atoms: C4_4  and  C7_7 
ROOT
HETATM    1  C1  UNL     1     -32.203   8.326   2.093  1.00 20.00     0.069 C 
HETATM    2  C6  UNL     1     -30.976   7.928   4.202  1.00 20.00     0.031 C 
HETATM    3  C7  UNL     1     -31.793   7.274   3.065  1.00 20.00     0.128 C 
HETATM    4  N8  UNL     1     -32.545   9.138   1.337  1.00 20.00    -0.197 NA
ENDROOT
BRANCH   3   5
HETATM    5  C4  UNL     1     -32.934   6.469   3.553  1.00 20.00     0.001 A 
HETATM    6  C2  UNL     1     -33.874   5.782   2.817  1.00 20.00     0.018 A 
HETATM    7  C3  UNL     1     -34.824   5.120   3.649  1.00 20.00     0.032 A 
HETATM    8  C5  UNL     1     -34.573   5.327   4.987  1.00 20.00     0.075 A 
HETATM    9  S9  UNL     1     -33.197   6.315   5.237  1.00 20.00    -0.081 SA
HETATM   10 CL10 UNL     1     -35.455   4.723   6.327  1.00 20.00    -0.076 Cl
ENDBRANCH   3   5
TORSDOF 1
ENDMDL
MODEL 7
REMARK VINA RESULT:      -3.9      2.282      2.586
REMARK  1 active torsions:
REMARK  status: ('A' for Active; 'I' for Inactive)
REMARK    1  A    between atoms: C4_4  and  C7_7 
ROOT
HETATM    1  C1  UNL     1     -36.770  15.171  -6.192  1.00 20.00     0.069 C 
HETATM    2  C6  UNL     1     -34.519  14.883  -7.171  1.00 20.00     0.031 C 
HETATM    3  C7  UNL     1     -35.406  14.631  -5.931  1.00 20.00     0.128 C 
HETATM    4  N8  UNL     1     -37.832  15.604  -6.373  1.00 20.00    -0.197 NA
ENDROOT
BRANCH   3   5
HETATM    5  C4  UNL     1     -34.816  15.146  -4.677  1.00 20.00     0.001 A 
HETATM    6  C2  UNL     1     -33.498  15.444  -4.408  1.00 20.00     0.018 A 
HETATM    7  C3  UNL     1     -33.318  15.920  -3.078  1.00 20.00     0.032 A 
HETATM    8  C5  UNL     1     -34.504  15.967  -2.380  1.00 20.00     0.075 A 
HETATM    9  S9  UNL     1     -35.829  15.440  -3.328  1.00 20.00    -0.081 SA
HETATM   10 CL10 UNL     1     -34.751  16.473  -0.760  1.00 20.00    -0.076 Cl
ENDBRANCH   3   5
TORSDOF 1
ENDMDL
MODEL 8
REMARK VINA RESULT:      -3.8      2.742      3.881
REMARK  1 active torsions:
REMARK  status: ('A' for Active; 'I' for Inactive)
REMARK    1  A    between atoms: C4_4  and  C7_7 
ROOT
HETATM    1  C1  UNL     1     -34.029  15.790  -2.640  1.00 20.00     0.069 C 
HETATM    2  C6  UNL     1     -33.513  13.687  -3.833  1.00 20.00     0.031 C 
HETATM    3  C7  UNL     1     -33.344  15.223  -3.836  1.00 20.00     0.128 C 
HETATM    4  N8  UNL     1     -34.574  16.248  -1.723  1.00 20.00    -0.197 NA
ENDROOT
BRANCH   3   5
HETATM    5  C4  UNL     1     -33.780  15.856  -5.100  1.00 20.00     0.001 A 
HETATM    6  C2  UNL     1     -34.306  15.255  -6.222  1.00 20.00     0.018 A 
HETATM    7  C3  UNL     1     -34.607  16.201  -7.244  1.00 20.00     0.032 A 
HETATM    8  C5  UNL     1     -34.299  17.489  -6.864  1.00 20.00     0.075 A 
HETATM    9  S9  UNL     1     -33.651  17.553  -5.280  1.00 20.00    -0.081 SA
HETATM   10 CL10 UNL     1     -34.496  18.929  -7.773  1.00 20.00    -0.076 Cl
ENDBRANCH   3   5
TORSDOF 1
ENDMDL
MODEL 9
REMARK VINA RESULT:      -3.8     12.742     13.515
REMARK  1 active torsions:
REMARK  status: ('A' for Active; 'I' for Inactive)
REMARK    1  A    between atoms: C4_4  and  C7_7 
ROOT
HETATM    1  C1  UNL     1     -42.891   8.110  -3.074  1.00 20.00     0.069 C 
HETATM    2  C6  UNL     1     -43.417   7.938  -0.665  1.00 20.00     0.031 C 
HETATM    3  C7  UNL     1     -42.365   7.648  -1.759  1.00 20.00     0.128 C 
HETATM    4  N8  UNL     1     -43.295   8.448  -4.108  1.00 20.00    -0.197 NA
ENDROOT
BRANCH   3   5
HETATM    5  C4  UNL     1     -41.920   6.238  -1.783  1.00 20.00     0.001 A 
HETATM    6  C2  UNL     1     -40.935   5.637  -1.030  1.00 20.00     0.018 A 
HETATM    7  C3  UNL     1     -40.796   4.253  -1.338  1.00 20.00     0.032 A 
HETATM    8  C5  UNL     1     -41.680   3.849  -2.314  1.00 20.00     0.075 A 
HETATM    9  S9  UNL     1     -42.672   5.135  -2.854  1.00 20.00    -0.081 SA
HETATM   10 CL10 UNL     1     -41.859   2.282  -2.985  1.00 20.00    -0.076 Cl
ENDBRANCH   3   5
TORSDOF 1
ENDMDL
