MODEL 1
REMARK VINA RESULT:      -3.9      0.000      0.000
REMARK  3 active torsions:
REMARK  status: ('A' for Active; 'I' for Inactive)
REMARK    1  A    between atoms: C4_4  and  C7_7 
REMARK    2  A    between atoms: C6_6  and  N9_9 
REMARK    3  A    between atoms: C7_7  and  N9_9 
ROOT
HETATM    1  C1  UNL     1     -36.787  14.507  -4.050  1.00 20.00     0.095 C 
HETATM    2  C7  UNL     1     -35.389  14.746  -4.475  1.00 20.00     0.330 C 
HETATM    3  N8  UNL     1     -37.884  14.300  -3.733  1.00 20.00    -0.195 NA
ENDROOT
BRANCH   2   4
HETATM    4  C4  UNL     1     -34.438  14.708  -3.330  1.00 20.00     0.033 A 
HETATM    5  C2  UNL     1     -32.958  14.824  -3.570  1.00 20.00     0.008 A 
HETATM    6  C3  UNL     1     -33.703  15.953  -2.914  1.00 20.00     0.008 A 
ENDBRANCH   2   4
BRANCH   2   7
HETATM    7  N9  UNL     1     -35.042  13.773  -5.497  1.00 20.00     0.101 N 
HETATM    8  H21 UNL     1     -34.077  13.470  -5.362  1.00 20.00     0.317 HD
BRANCH   7   9
HETATM    9  C6  UNL     1     -35.179  14.343  -6.832  1.00 20.00     0.267 C 
HETATM   10  C5  UNL     1     -34.288  15.526  -7.006  1.00 20.00     0.037 C 
ENDBRANCH   7   9
ENDBRANCH   2   7
TORSDOF 3
ENDMDL
MODEL 2
REMARK VINA RESULT:      -3.9      1.906      2.395
REMARK  3 active torsions:
REMARK  status: ('A' for Active; 'I' for Inactive)
REMARK    1  A    between atoms: C4_4  and  C7_7 
REMARK    2  A    between atoms: C6_6  and  N9_9 
REMARK    3  A    between atoms: C7_7  and  N9_9 
ROOT
HETATM    1  C1  UNL     1     -34.709  13.864  -4.241  1.00 20.00     0.095 C 
HETATM    2  C7  UNL     1     -34.381  15.289  -4.010  1.00 20.00     0.330 C 
HETATM    3  N8  UNL     1     -34.950  12.746  -4.440  1.00 20.00    -0.195 NA
ENDROOT
BRANCH   2   4
HETATM    4  C4  UNL     1     -33.987  15.555  -2.599  1.00 20.00     0.033 A 
HETATM    5  C2  UNL     1     -33.672  16.956  -2.151  1.00 20.00     0.008 A 
HETATM    6  C3  UNL     1     -34.927  16.279  -1.674  1.00 20.00     0.008 A 
ENDBRANCH   2   4
BRANCH   2   7
HETATM    7  N9  UNL     1     -33.338  15.682  -4.943  1.00 20.00     0.101 N 
HETATM    8  H21 UNL     1     -32.610  16.193  -4.443  1.00 20.00     0.317 HD
BRANCH   7   9
HETATM    9  C6  UNL     1     -33.874  16.532  -6.000  1.00 20.00     0.267 C 
HETATM   10  C5  UNL     1     -33.640  17.974  -5.703  1.00 20.00     0.037 C 
ENDBRANCH   7   9
ENDBRANCH   2   7
TORSDOF 3
ENDMDL
MODEL 3
REMARK VINA RESULT:      -3.9      2.286      3.571
REMARK  3 active torsions:
REMARK  status: ('A' for Active; 'I' for Inactive)
REMARK    1  A    between atoms: C4_4  and  C7_7 
REMARK    2  A    between atoms: C6_6  and  N9_9 
REMARK    3  A    between atoms: C7_7  and  N9_9 
ROOT
HETATM    1  C1  UNL     1     -33.373  16.568  -4.221  1.00 20.00     0.095 C 
HETATM    2  C7  UNL     1     -33.711  16.035  -2.881  1.00 20.00     0.330 C 
HETATM    3  N8  UNL     1     -33.122  16.968  -5.281  1.00 20.00    -0.195 NA
ENDROOT
BRANCH   2   4
HETATM    4  C4  UNL     1     -34.319  17.070  -2.000  1.00 20.00     0.033 A 
HETATM    5  C2  UNL     1     -34.684  16.737  -0.580  1.00 20.00     0.008 A 
HETATM    6  C3  UNL     1     -33.528  17.656  -0.862  1.00 20.00     0.008 A 
ENDBRANCH   2   4
BRANCH   2   7
HETATM    7  N9  UNL     1     -34.585  14.886  -3.046  1.00 20.00     0.101 N 
HETATM    8  H21 UNL     1     -34.897  14.563  -2.130  1.00 20.00     0.317 HD
BRANCH   7   9
HETATM    9  C6  UNL     1     -33.895  13.796  -3.725  1.00 20.00     0.267 C 
HETATM   10  C5  UNL     1     -34.750  13.201  -4.793  1.00 20.00     0.037 C 
ENDBRANCH   7   9
ENDBRANCH   2   7
TORSDOF 3
ENDMDL
MODEL 4
REMARK VINA RESULT:      -3.8     12.264     13.164
REMARK  3 active torsions:
REMARK  status: ('A' for Active; 'I' for Inactive)
REMARK    1  A    between atoms: C4_4  and  C7_7 
REMARK    2  A    between atoms: C6_6  and  N9_9 
REMARK    3  A    between atoms: C7_7  and  N9_9 
ROOT
HETATM    1  C1  UNL     1     -33.515   6.900   6.187  1.00 20.00     0.095 C 
HETATM    2  C7  UNL     1     -33.716   5.994   5.034  1.00 20.00     0.330 C 
HETATM    3  N8  UNL     1     -33.354   7.630   7.076  1.00 20.00    -0.195 NA
ENDROOT
BRANCH   2   4
HETATM    4  C4  UNL     1     -34.998   5.241   5.126  1.00 20.00     0.033 A 
HETATM    5  C2  UNL     1     -35.065   3.804   4.688  1.00 20.00     0.008 A 
HETATM    6  C3  UNL     1     -35.162   4.149   6.148  1.00 20.00     0.008 A 
ENDBRANCH   2   4
BRANCH   2   7
HETATM    7  N9  UNL     1     -33.637   6.775   3.811  1.00 20.00     0.101 N 
HETATM    8  H21 UNL     1     -34.268   6.378   3.114  1.00 20.00     0.317 HD
BRANCH   7   9
HETATM    9  C6  UNL     1     -32.280   6.778   3.278  1.00 20.00     0.267 C 
HETATM   10  C5  UNL     1     -32.075   7.914   2.335  1.00 20.00     0.037 C 
ENDBRANCH   7   9
ENDBRANCH   2   7
TORSDOF 3
ENDMDL
MODEL 5
REMARK VINA RESULT:      -3.7      1.431      1.674
REMARK  3 active torsions:
REMARK  status: ('A' for Active; 'I' for Inactive)
REMARK    1  A    between atoms: C4_4  and  C7_7 
REMARK    2  A    between atoms: C6_6  and  N9_9 
REMARK    3  A    between atoms: C7_7  and  N9_9 
ROOT
HETATM    1  C1  UNL     1     -36.899  15.065  -3.621  1.00 20.00     0.095 C 
HETATM    2  C7  UNL     1     -35.812  16.065  -3.513  1.00 20.00     0.330 C 
HETATM    3  N8  UNL     1     -37.745  14.278  -3.730  1.00 20.00    -0.195 NA
ENDROOT
BRANCH   2   4
HETATM    4  C4  UNL     1     -34.811  15.699  -2.473  1.00 20.00     0.033 A 
HETATM    5  C2  UNL     1     -33.647  16.608  -2.190  1.00 20.00     0.008 A 
HETATM    6  C3  UNL     1     -34.751  16.463  -1.179  1.00 20.00     0.008 A 
ENDBRANCH   2   4
BRANCH   2   7
HETATM    7  N9  UNL     1     -35.198  16.225  -4.820  1.00 20.00     0.101 N 
HETATM    8  H21 UNL     1     -35.904  16.528  -5.492  1.00 20.00     0.317 HD
BRANCH   7   9
HETATM    9  C6  UNL     1     -34.610  14.973  -5.280  1.00 20.00     0.267 C 
HETATM   10  C5  UNL     1     -34.491  14.948  -6.766  1.00 20.00     0.037 C 
ENDBRANCH   7   9
ENDBRANCH   2   7
TORSDOF 3
ENDMDL
MODEL 6
REMARK VINA RESULT:      -3.7      1.894      3.253
REMARK  3 active torsions:
REMARK  status: ('A' for Active; 'I' for Inactive)
REMARK    1  A    between atoms: C4_4  and  C7_7 
REMARK    2  A    between atoms: C6_6  and  N9_9 
REMARK    3  A    between atoms: C7_7  and  N9_9 
ROOT
HETATM    1  C1  UNL     1     -36.717  14.775  -3.557  1.00 20.00     0.095 C 
HETATM    2  C7  UNL     1     -35.381  15.313  -3.213  1.00 20.00     0.330 C 
HETATM    3  N8  UNL     1     -37.773  14.376  -3.828  1.00 20.00    -0.195 NA
ENDROOT
BRANCH   2   4
HETATM    4  C4  UNL     1     -34.321  14.824  -4.138  1.00 20.00     0.033 A 
HETATM    5  C2  UNL     1     -32.876  15.142  -3.869  1.00 20.00     0.008 A 
HETATM    6  C3  UNL     1     -33.380  13.735  -3.701  1.00 20.00     0.008 A 
ENDBRANCH   2   4
BRANCH   2   7
HETATM    7  N9  UNL     1     -35.456  16.764  -3.198  1.00 20.00     0.101 N 
HETATM    8  H21 UNL     1     -34.605  17.152  -3.608  1.00 20.00     0.317 HD
BRANCH   7   9
HETATM    9  C6  UNL     1     -35.599  17.268  -1.837  1.00 20.00     0.267 C 
HETATM   10  C5  UNL     1     -34.620  16.620  -0.917  1.00 20.00     0.037 C 
ENDBRANCH   7   9
ENDBRANCH   2   7
TORSDOF 3
ENDMDL
MODEL 7
REMARK VINA RESULT:      -3.7      1.894      3.675
REMARK  3 active torsions:
REMARK  status: ('A' for Active; 'I' for Inactive)
REMARK    1  A    between atoms: C4_4  and  C7_7 
REMARK    2  A    between atoms: C6_6  and  N9_9 
REMARK    3  A    between atoms: C7_7  and  N9_9 
ROOT
HETATM    1  C1  UNL     1     -34.417  13.791  -4.383  1.00 20.00     0.095 C 
HETATM    2  C7  UNL     1     -33.730  15.101  -4.429  1.00 20.00     0.330 C 
HETATM    3  N8  UNL     1     -34.956  12.764  -4.322  1.00 20.00    -0.195 NA
ENDROOT
BRANCH   2   4
HETATM    4  C4  UNL     1     -34.481  16.102  -5.237  1.00 20.00     0.033 A 
HETATM    5  C2  UNL     1     -33.810  17.373  -5.682  1.00 20.00     0.008 A 
HETATM    6  C3  UNL     1     -34.145  16.308  -6.689  1.00 20.00     0.008 A 
ENDBRANCH   2   4
BRANCH   2   7
HETATM    7  N9  UNL     1     -33.514  15.560  -3.068  1.00 20.00     0.101 N 
HETATM    8  H21 UNL     1     -32.998  14.849  -2.549  1.00 20.00     0.317 HD
BRANCH   7   9
HETATM    9  C6  UNL     1     -34.781  15.814  -2.393  1.00 20.00     0.267 C 
HETATM   10  C5  UNL     1     -34.571  16.547  -1.112  1.00 20.00     0.037 C 
ENDBRANCH   7   9
ENDBRANCH   2   7
TORSDOF 3
ENDMDL
MODEL 8
REMARK VINA RESULT:      -3.6      1.511      3.227
REMARK  3 active torsions:
REMARK  status: ('A' for Active; 'I' for Inactive)
REMARK    1  A    between atoms: C4_4  and  C7_7 
REMARK    2  A    between atoms: C6_6  and  N9_9 
REMARK    3  A    between atoms: C7_7  and  N9_9 
ROOT
HETATM    1  C1  UNL     1     -36.681  14.481  -3.998  1.00 20.00     0.095 C 
HETATM    2  C7  UNL     1     -35.239  14.707  -4.243  1.00 20.00     0.330 C 
HETATM    3  N8  UNL     1     -37.809  14.308  -3.783  1.00 20.00    -0.195 NA
ENDROOT
BRANCH   2   4
HETATM    4  C4  UNL     1     -35.000  15.752  -5.276  1.00 20.00     0.033 A 
HETATM    5  C2  UNL     1     -33.602  16.225  -5.565  1.00 20.00     0.008 A 
HETATM    6  C3  UNL     1     -34.337  15.392  -6.578  1.00 20.00     0.008 A 
ENDBRANCH   2   4
BRANCH   2   7
HETATM    7  N9  UNL     1     -34.602  15.041  -2.980  1.00 20.00     0.101 N 
HETATM    8  H21 UNL     1     -34.668  14.245  -2.346  1.00 20.00     0.317 HD
BRANCH   7   9
HETATM    9  C6  UNL     1     -35.240  16.197  -2.361  1.00 20.00     0.267 C 
HETATM   10  C5  UNL     1     -34.585  16.544  -1.067  1.00 20.00     0.037 C 
ENDBRANCH   7   9
ENDBRANCH   2   7
TORSDOF 3
ENDMDL
MODEL 9
REMARK VINA RESULT:      -3.5      1.976      2.286
REMARK  3 active torsions:
REMARK  status: ('A' for Active; 'I' for Inactive)
REMARK    1  A    between atoms: C4_4  and  C7_7 
REMARK    2  A    between atoms: C6_6  and  N9_9 
REMARK    3  A    between atoms: C7_7  and  N9_9 
ROOT
HETATM    1  C1  UNL     1     -34.692  13.777  -4.966  1.00 20.00     0.095 C 
HETATM    2  C7  UNL     1     -34.526  15.113  -5.584  1.00 20.00     0.330 C 
HETATM    3  N8  UNL     1     -34.813  12.720  -4.502  1.00 20.00    -0.195 NA
ENDROOT
BRANCH   2   4
HETATM    4  C4  UNL     1     -33.644  16.001  -4.778  1.00 20.00     0.033 A 
HETATM    5  C2  UNL     1     -33.410  17.424  -5.203  1.00 20.00     0.008 A 
HETATM    6  C3  UNL     1     -34.234  17.132  -3.980  1.00 20.00     0.008 A 
ENDBRANCH   2   4
BRANCH   2   7
HETATM    7  N9  UNL     1     -34.025  14.939  -6.936  1.00 20.00     0.101 N 
HETATM    8  H21 UNL     1     -33.462  15.749  -7.196  1.00 20.00     0.317 HD
BRANCH   7   9
HETATM    9  C6  UNL     1     -35.121  14.796  -7.888  1.00 20.00     0.267 C 
HETATM   10  C5  UNL     1     -36.117  15.894  -7.730  1.00 20.00     0.037 C 
ENDBRANCH   7   9
ENDBRANCH   2   7
TORSDOF 3
ENDMDL
