MODEL 1
REMARK VINA RESULT:      -4.5      0.000      0.000
REMARK  3 active torsions:
REMARK  status: ('A' for Active; 'I' for Inactive)
REMARK    1  A    between atoms: C6_6  and  C8_8 
REMARK    2  A    between atoms: C7_7  and  N10_10 
REMARK    3  A    between atoms: C8_8  and  N10_10 
ROOT
HETATM    1  C1  UNL     1     -33.625   6.852   6.161  1.00 20.00     0.095 C 
HETATM    2  C8  UNL     1     -33.803   6.000   4.962  1.00 20.00     0.330 C 
HETATM    3  N9  UNL     1     -33.487   7.539   7.085  1.00 20.00    -0.195 NA
ENDROOT
BRANCH   2   4
HETATM    4  C6  UNL     1     -35.006   5.127   5.063  1.00 20.00     0.033 A 
HETATM    5  C2  UNL     1     -34.866   3.632   4.985  1.00 20.00     0.008 A 
HETATM    6  C3  UNL     1     -35.229   4.287   6.289  1.00 20.00     0.008 A 
ENDBRANCH   2   4
BRANCH   2   7
HETATM    7  N10 UNL     1     -33.855   6.857   3.789  1.00 20.00     0.106 N 
HETATM    8  H22 UNL     1     -34.010   7.823   4.081  1.00 20.00     0.318 HD
BRANCH   7   9
HETATM    9  C7  UNL     1     -32.614   6.782   3.030  1.00 20.00     0.222 A 
HETATM   10  C4  UNL     1     -32.136   7.964   2.232  1.00 20.00     0.038 A 
HETATM   11  C5  UNL     1     -31.399   7.551   3.473  1.00 20.00     0.038 A 
ENDBRANCH   7   9
ENDBRANCH   2   7
TORSDOF 3
ENDMDL
MODEL 2
REMARK VINA RESULT:      -4.3     11.798     12.443
REMARK  3 active torsions:
REMARK  status: ('A' for Active; 'I' for Inactive)
REMARK    1  A    between atoms: C6_6  and  C8_8 
REMARK    2  A    between atoms: C7_7  and  N10_10 
REMARK    3  A    between atoms: C8_8  and  N10_10 
ROOT
HETATM    1  C1  UNL     1     -37.064  14.657  -3.614  1.00 20.00     0.095 C 
HETATM    2  C8  UNL     1     -35.709  14.892  -3.060  1.00 20.00     0.330 C 
HETATM    3  N9  UNL     1     -38.130  14.497  -4.040  1.00 20.00    -0.195 NA
ENDROOT
BRANCH   2   4
HETATM    4  C6  UNL     1     -34.645  14.745  -4.092  1.00 20.00     0.033 A 
HETATM    5  C2  UNL     1     -33.499  13.798  -3.869  1.00 20.00     0.008 A 
HETATM    6  C3  UNL     1     -34.546  13.483  -4.902  1.00 20.00     0.008 A 
ENDBRANCH   2   4
BRANCH   2   7
HETATM    7  N10 UNL     1     -35.683  16.207  -2.441  1.00 20.00     0.106 N 
HETATM    8  H22 UNL     1     -36.593  16.401  -2.020  1.00 20.00     0.318 HD
BRANCH   7   9
HETATM    9  C7  UNL     1     -34.655  16.280  -1.411  1.00 20.00     0.222 A 
HETATM   10  C4  UNL     1     -33.758  17.484  -1.315  1.00 20.00     0.038 A 
HETATM   11  C5  UNL     1     -34.796  17.235  -0.258  1.00 20.00     0.038 A 
ENDBRANCH   7   9
ENDBRANCH   2   7
TORSDOF 3
ENDMDL
MODEL 3
REMARK VINA RESULT:      -4.3     11.862     12.794
REMARK  3 active torsions:
REMARK  status: ('A' for Active; 'I' for Inactive)
REMARK    1  A    between atoms: C6_6  and  C8_8 
REMARK    2  A    between atoms: C7_7  and  N10_10 
REMARK    3  A    between atoms: C8_8  and  N10_10 
ROOT
HETATM    1  C1  UNL     1     -33.955  16.495  -4.552  1.00 20.00     0.095 C 
HETATM    2  C8  UNL     1     -35.063  15.870  -3.792  1.00 20.00     0.330 C 
HETATM    3  N9  UNL     1     -33.087  17.003  -5.129  1.00 20.00    -0.195 NA
ENDROOT
BRANCH   2   4
HETATM    4  C6  UNL     1     -34.740  14.481  -3.364  1.00 20.00     0.033 A 
HETATM    5  C2  UNL     1     -35.157  13.310  -4.211  1.00 20.00     0.008 A 
HETATM    6  C3  UNL     1     -33.704  13.682  -4.105  1.00 20.00     0.008 A 
ENDBRANCH   2   4
BRANCH   2   7
HETATM    7  N10 UNL     1     -35.387  16.722  -2.660  1.00 20.00     0.106 N 
HETATM    8  H22 UNL     1     -36.349  16.544  -2.366  1.00 20.00     0.318 HD
BRANCH   7   9
HETATM    9  C7  UNL     1     -34.492  16.466  -1.540  1.00 20.00     0.222 A 
HETATM   10  C4  UNL     1     -33.646  17.573  -0.973  1.00 20.00     0.038 A 
HETATM   11  C5  UNL     1     -34.794  17.025  -0.176  1.00 20.00     0.038 A 
ENDBRANCH   7   9
ENDBRANCH   2   7
TORSDOF 3
ENDMDL
MODEL 4
REMARK VINA RESULT:      -4.2     11.891     13.278
REMARK  3 active torsions:
REMARK  status: ('A' for Active; 'I' for Inactive)
REMARK    1  A    between atoms: C6_6  and  C8_8 
REMARK    2  A    between atoms: C7_7  and  N10_10 
REMARK    3  A    between atoms: C8_8  and  N10_10 
ROOT
HETATM    1  C1  UNL     1     -34.711  13.741  -4.325  1.00 20.00     0.095 C 
HETATM    2  C8  UNL     1     -34.579  15.173  -3.967  1.00 20.00     0.330 C 
HETATM    3  N9  UNL     1     -34.832  12.617  -4.586  1.00 20.00    -0.195 NA
ENDROOT
BRANCH   2   4
HETATM    4  C6  UNL     1     -34.820  16.069  -5.132  1.00 20.00     0.033 A 
HETATM    5  C2  UNL     1     -33.730  16.977  -5.629  1.00 20.00     0.008 A 
HETATM    6  C3  UNL     1     -34.154  15.792  -6.451  1.00 20.00     0.008 A 
ENDBRANCH   2   4
BRANCH   2   7
HETATM    7  N10 UNL     1     -35.484  15.462  -2.868  1.00 20.00     0.106 N 
HETATM    8  H22 UNL     1     -35.461  14.691  -2.199  1.00 20.00     0.318 HD
BRANCH   7   9
HETATM    9  C7  UNL     1     -35.105  16.693  -2.188  1.00 20.00     0.222 A 
HETATM   10  C4  UNL     1     -34.746  16.677  -0.727  1.00 20.00     0.038 A 
HETATM   11  C5  UNL     1     -33.682  16.922  -1.758  1.00 20.00     0.038 A 
ENDBRANCH   7   9
ENDBRANCH   2   7
TORSDOF 3
ENDMDL
MODEL 5
REMARK VINA RESULT:      -4.2     12.142     13.266
REMARK  3 active torsions:
REMARK  status: ('A' for Active; 'I' for Inactive)
REMARK    1  A    between atoms: C6_6  and  C8_8 
REMARK    2  A    between atoms: C7_7  and  N10_10 
REMARK    3  A    between atoms: C8_8  and  N10_10 
ROOT
HETATM    1  C1  UNL     1     -36.973  14.633  -3.954  1.00 20.00     0.095 C 
HETATM    2  C8  UNL     1     -35.579  14.965  -4.334  1.00 20.00     0.330 C 
HETATM    3  N9  UNL     1     -38.063  14.355  -3.673  1.00 20.00    -0.195 NA
ENDROOT
BRANCH   2   4
HETATM    4  C6  UNL     1     -34.654  14.934  -3.168  1.00 20.00     0.033 A 
HETATM    5  C2  UNL     1     -33.631  16.019  -2.983  1.00 20.00     0.008 A 
HETATM    6  C3  UNL     1     -34.808  15.930  -2.053  1.00 20.00     0.008 A 
ENDBRANCH   2   4
BRANCH   2   7
HETATM    7  N10 UNL     1     -35.156  14.053  -5.384  1.00 20.00     0.106 N 
HETATM    8  H22 UNL     1     -35.976  13.601  -5.791  1.00 20.00     0.318 HD
BRANCH   7   9
HETATM    9  C7  UNL     1     -34.433  14.761  -6.432  1.00 20.00     0.222 A 
HETATM   10  C4  UNL     1     -34.996  14.842  -7.824  1.00 20.00     0.038 A 
HETATM   11  C5  UNL     1     -34.947  16.071  -6.964  1.00 20.00     0.038 A 
ENDBRANCH   7   9
ENDBRANCH   2   7
TORSDOF 3
ENDMDL
MODEL 6
REMARK VINA RESULT:      -4.1     12.046     13.180
REMARK  3 active torsions:
REMARK  status: ('A' for Active; 'I' for Inactive)
REMARK    1  A    between atoms: C6_6  and  C8_8 
REMARK    2  A    between atoms: C7_7  and  N10_10 
REMARK    3  A    between atoms: C8_8  and  N10_10 
ROOT
HETATM    1  C1  UNL     1     -36.780  14.393  -4.016  1.00 20.00     0.095 C 
HETATM    2  C8  UNL     1     -35.342  14.423  -4.374  1.00 20.00     0.330 C 
HETATM    3  N9  UNL     1     -37.899  14.374  -3.711  1.00 20.00    -0.195 NA
ENDROOT
BRANCH   2   4
HETATM    4  C6  UNL     1     -35.053  15.401  -5.459  1.00 20.00     0.033 A 
HETATM    5  C2  UNL     1     -34.420  14.943  -6.744  1.00 20.00     0.008 A 
HETATM    6  C3  UNL     1     -35.857  15.383  -6.729  1.00 20.00     0.008 A 
ENDBRANCH   2   4
BRANCH   2   7
HETATM    7  N10 UNL     1     -34.572  14.704  -3.174  1.00 20.00     0.106 N 
HETATM    8  H22 UNL     1     -33.578  14.579  -3.373  1.00 20.00     0.318 HD
BRANCH   7   9
HETATM    9  C7  UNL     1     -34.798  16.069  -2.715  1.00 20.00     0.222 A 
HETATM   10  C4  UNL     1     -34.754  16.395  -1.247  1.00 20.00     0.038 A 
HETATM   11  C5  UNL     1     -33.664  16.885  -2.157  1.00 20.00     0.038 A 
ENDBRANCH   7   9
ENDBRANCH   2   7
TORSDOF 3
ENDMDL
MODEL 7
REMARK VINA RESULT:      -4.0     11.886     13.512
REMARK  3 active torsions:
REMARK  status: ('A' for Active; 'I' for Inactive)
REMARK    1  A    between atoms: C6_6  and  C8_8 
REMARK    2  A    between atoms: C7_7  and  N10_10 
REMARK    3  A    between atoms: C8_8  and  N10_10 
ROOT
HETATM    1  C1  UNL     1     -34.601  14.017  -4.132  1.00 20.00     0.095 C 
HETATM    2  C8  UNL     1     -34.264  15.459  -4.099  1.00 20.00     0.330 C 
HETATM    3  N9  UNL     1     -34.849  12.885  -4.178  1.00 20.00    -0.195 NA
ENDROOT
BRANCH   2   4
HETATM    4  C6  UNL     1     -33.717  15.880  -2.779  1.00 20.00     0.033 A 
HETATM    5  C2  UNL     1     -33.914  17.288  -2.291  1.00 20.00     0.008 A 
HETATM    6  C3  UNL     1     -34.644  16.154  -1.628  1.00 20.00     0.008 A 
ENDBRANCH   2   4
BRANCH   2   7
HETATM    7  N10 UNL     1     -33.339  15.744  -5.182  1.00 20.00     0.106 N 
HETATM    8  H22 UNL     1     -33.259  14.924  -5.785  1.00 20.00     0.318 HD
BRANCH   7   9
HETATM    9  C7  UNL     1     -33.797  16.876  -5.977  1.00 20.00     0.222 A 
HETATM   10  C4  UNL     1     -34.491  16.652  -7.293  1.00 20.00     0.038 A 
HETATM   11  C5  UNL     1     -35.266  17.169  -6.116  1.00 20.00     0.038 A 
ENDBRANCH   7   9
ENDBRANCH   2   7
TORSDOF 3
ENDMDL
MODEL 8
REMARK VINA RESULT:      -4.0     11.832     12.739
REMARK  3 active torsions:
REMARK  status: ('A' for Active; 'I' for Inactive)
REMARK    1  A    between atoms: C6_6  and  C8_8 
REMARK    2  A    between atoms: C7_7  and  N10_10 
REMARK    3  A    between atoms: C8_8  and  N10_10 
ROOT
HETATM    1  C1  UNL     1     -36.352  17.044  -2.872  1.00 20.00     0.095 C 
HETATM    2  C8  UNL     1     -34.880  16.907  -2.969  1.00 20.00     0.330 C 
HETATM    3  N9  UNL     1     -37.507  17.132  -2.813  1.00 20.00    -0.195 NA
ENDROOT
BRANCH   2   4
HETATM    4  C6  UNL     1     -34.257  16.571  -1.659  1.00 20.00     0.033 A 
HETATM    5  C2  UNL     1     -33.540  17.629  -0.866  1.00 20.00     0.008 A 
HETATM    6  C3  UNL     1     -34.857  17.088  -0.381  1.00 20.00     0.008 A 
ENDBRANCH   2   4
BRANCH   2   7
HETATM    7  N10 UNL     1     -34.573  15.913  -3.984  1.00 20.00     0.106 N 
HETATM    8  H22 UNL     1     -33.651  16.106  -4.378  1.00 20.00     0.318 HD
BRANCH   7   9
HETATM    9  C7  UNL     1     -34.578  14.570  -3.419  1.00 20.00     0.222 A 
HETATM   10  C4  UNL     1     -35.024  13.397  -4.249  1.00 20.00     0.038 A 
HETATM   11  C5  UNL     1     -33.577  13.545  -3.876  1.00 20.00     0.038 A 
ENDBRANCH   7   9
ENDBRANCH   2   7
TORSDOF 3
ENDMDL
MODEL 9
REMARK VINA RESULT:      -3.9     12.032     13.111
REMARK  3 active torsions:
REMARK  status: ('A' for Active; 'I' for Inactive)
REMARK    1  A    between atoms: C6_6  and  C8_8 
REMARK    2  A    between atoms: C7_7  and  N10_10 
REMARK    3  A    between atoms: C8_8  and  N10_10 
ROOT
HETATM    1  C1  UNL     1     -33.478  15.993  -4.012  1.00 20.00     0.095 C 
HETATM    2  C8  UNL     1     -34.303  15.529  -2.871  1.00 20.00     0.330 C 
HETATM    3  N9  UNL     1     -32.848  16.342  -4.921  1.00 20.00    -0.195 NA
ENDROOT
BRANCH   2   4
HETATM    4  C6  UNL     1     -34.835  16.662  -2.064  1.00 20.00     0.033 A 
HETATM    5  C2  UNL     1     -34.654  16.681  -0.572  1.00 20.00     0.008 A 
HETATM    6  C3  UNL     1     -33.894  17.650  -1.433  1.00 20.00     0.008 A 
ENDBRANCH   2   4
BRANCH   2   7
HETATM    7  N10 UNL     1     -35.368  14.684  -3.383  1.00 20.00     0.106 N 
HETATM    8  H22 UNL     1     -35.643  14.014  -2.664  1.00 20.00     0.318 HD
BRANCH   7   9
HETATM    9  C7  UNL     1     -36.529  15.477  -3.764  1.00 20.00     0.222 A 
HETATM   10  C4  UNL     1     -37.228  15.225  -5.072  1.00 20.00     0.038 A 
HETATM   11  C5  UNL     1     -37.902  14.864  -3.780  1.00 20.00     0.038 A 
ENDBRANCH   7   9
ENDBRANCH   2   7
TORSDOF 3
ENDMDL
