MODEL 1
REMARK VINA RESULT:      -5.2      0.000      0.000
REMARK  0 active torsions:
REMARK  status: ('A' for Active; 'I' for Inactive)
ROOT
HETATM    1  C1  UNL     1     -32.404  19.231  -0.107  1.00 20.00     0.068 C 
HETATM    2  C2  UNL     1     -34.845  15.893  -1.926  1.00 20.00     0.009 A 
HETATM    3  C3  UNL     1     -34.475  15.942  -3.272  1.00 20.00     0.024 A 
HETATM    4  C4  UNL     1     -33.601  18.196  -2.996  1.00 20.00     0.033 A 
HETATM    5  C5  UNL     1     -34.597  17.002  -1.135  1.00 20.00    -0.050 A 
HETATM    6  C6  UNL     1     -33.975  18.143  -1.662  1.00 20.00    -0.033 A 
HETATM    7  C7  UNL     1     -33.858  17.085  -3.802  1.00 20.00     0.034 A 
HETATM    8  C8  UNL     1     -34.871  17.169   0.326  1.00 20.00     0.041 C 
HETATM    9  C9  UNL     1     -34.767  18.696   0.476  1.00 20.00     0.028 C 
HETATM   10  C10 UNL     1     -33.784  19.193  -0.605  1.00 20.00     0.126 C 
HETATM   11  N11 UNL     1     -31.313  19.263   0.288  1.00 20.00    -0.197 NA
HETATM   12 CL12 UNL     1     -33.407  17.115  -5.465  1.00 20.00    -0.084 Cl
ENDROOT
TORSDOF 0
ENDMDL
MODEL 2
REMARK VINA RESULT:      -5.1      3.040      4.925
REMARK  0 active torsions:
REMARK  status: ('A' for Active; 'I' for Inactive)
ROOT
HETATM    1  C1  UNL     1     -33.675  13.907  -3.793  1.00 20.00     0.068 C 
HETATM    2  C2  UNL     1     -33.533  18.312  -2.801  1.00 20.00     0.009 A 
HETATM    3  C3  UNL     1     -33.914  18.336  -1.457  1.00 20.00     0.024 A 
HETATM    4  C4  UNL     1     -34.860  16.101  -1.640  1.00 20.00     0.033 A 
HETATM    5  C5  UNL     1     -33.831  17.186  -3.549  1.00 20.00    -0.050 A 
HETATM    6  C6  UNL     1     -34.483  16.086  -2.974  1.00 20.00    -0.033 A 
HETATM    7  C7  UNL     1     -34.573  17.239  -0.882  1.00 20.00     0.034 A 
HETATM    8  C8  UNL     1     -33.496  16.920  -4.982  1.00 20.00     0.041 C 
HETATM    9  C9  UNL     1     -34.437  15.743  -5.295  1.00 20.00     0.028 C 
HETATM   10  C10 UNL     1     -34.661  14.979  -3.973  1.00 20.00     0.126 C 
HETATM   11  N11 UNL     1     -32.896  13.059  -3.650  1.00 20.00    -0.197 NA
HETATM   12 CL12 UNL     1     -35.026  17.293   0.780  1.00 20.00    -0.084 Cl
ENDROOT
TORSDOF 0
ENDMDL
MODEL 3
REMARK VINA RESULT:      -4.9      3.464      5.449
REMARK  0 active torsions:
REMARK  status: ('A' for Active; 'I' for Inactive)
ROOT
HETATM    1  C1  UNL     1     -35.129  13.625  -4.796  1.00 20.00     0.068 C 
HETATM    2  C2  UNL     1     -33.672  17.789  -3.824  1.00 20.00     0.009 A 
HETATM    3  C3  UNL     1     -33.804  17.842  -2.434  1.00 20.00     0.024 A 
HETATM    4  C4  UNL     1     -35.320  15.940  -2.460  1.00 20.00     0.033 A 
HETATM    5  C5  UNL     1     -34.375  16.816  -4.514  1.00 20.00    -0.050 A 
HETATM    6  C6  UNL     1     -35.188  15.895  -3.840  1.00 20.00    -0.033 A 
HETATM    7  C7  UNL     1     -34.623  16.925  -1.758  1.00 20.00     0.034 A 
HETATM    8  C8  UNL     1     -34.365  16.546  -5.985  1.00 20.00     0.041 C 
HETATM    9  C9  UNL     1     -35.621  15.669  -6.135  1.00 20.00     0.028 C 
HETATM   10  C10 UNL     1     -35.815  14.922  -4.797  1.00 20.00     0.126 C 
HETATM   11  N11 UNL     1     -34.588  12.598  -4.796  1.00 20.00    -0.197 NA
HETATM   12 CL12 UNL     1     -34.762  17.011  -0.043  1.00 20.00    -0.084 Cl
ENDROOT
TORSDOF 0
ENDMDL
MODEL 4
REMARK VINA RESULT:      -4.7      2.085      2.934
REMARK  0 active torsions:
REMARK  status: ('A' for Active; 'I' for Inactive)
ROOT
HETATM    1  C1  UNL     1     -35.423  17.876   0.039  1.00 20.00     0.068 C 
HETATM    2  C2  UNL     1     -33.810  17.459  -4.161  1.00 20.00     0.009 A 
HETATM    3  C3  UNL     1     -34.241  16.183  -4.529  1.00 20.00     0.024 A 
HETATM    4  C4  UNL     1     -34.629  15.593  -2.200  1.00 20.00     0.033 A 
HETATM    5  C5  UNL     1     -33.784  17.781  -2.814  1.00 20.00    -0.050 A 
HETATM    6  C6  UNL     1     -34.195  16.861  -1.841  1.00 20.00    -0.033 A 
HETATM    7  C7  UNL     1     -34.647  15.257  -3.556  1.00 20.00     0.034 A 
HETATM    8  C8  UNL     1     -33.396  19.084  -2.189  1.00 20.00     0.041 C 
HETATM    9  C9  UNL     1     -33.183  18.659  -0.725  1.00 20.00     0.028 C 
HETATM   10  C10 UNL     1     -34.110  17.453  -0.464  1.00 20.00     0.126 C 
HETATM   11  N11 UNL     1     -36.460  18.210   0.437  1.00 20.00    -0.197 NA
HETATM   12 CL12 UNL     1     -35.180  13.692  -4.040  1.00 20.00    -0.084 Cl
ENDROOT
TORSDOF 0
ENDMDL
MODEL 5
REMARK VINA RESULT:      -4.7      3.600      5.437
REMARK  0 active torsions:
REMARK  status: ('A' for Active; 'I' for Inactive)
ROOT
HETATM    1  C1  UNL     1     -35.685  14.984  -6.626  1.00 20.00     0.068 C 
HETATM    2  C2  UNL     1     -34.492  15.600  -2.313  1.00 20.00     0.009 A 
HETATM    3  C3  UNL     1     -34.092  16.938  -2.294  1.00 20.00     0.024 A 
HETATM    4  C4  UNL     1     -33.856  16.948  -4.716  1.00 20.00     0.033 A 
HETATM    5  C5  UNL     1     -34.558  14.951  -3.534  1.00 20.00    -0.050 A 
HETATM    6  C6  UNL     1     -34.249  15.619  -4.727  1.00 20.00    -0.033 A 
HETATM    7  C7  UNL     1     -33.777  17.607  -3.487  1.00 20.00     0.034 A 
HETATM    8  C8  UNL     1     -34.987  13.544  -3.804  1.00 20.00     0.041 C 
HETATM    9  C9  UNL     1     -34.445  13.335  -5.228  1.00 20.00     0.028 C 
HETATM   10  C10 UNL     1     -34.429  14.718  -5.915  1.00 20.00     0.126 C 
HETATM   11  N11 UNL     1     -36.677  15.195  -7.190  1.00 20.00    -0.197 NA
HETATM   12 CL12 UNL     1     -33.292  19.260  -3.433  1.00 20.00    -0.084 Cl
ENDROOT
TORSDOF 0
ENDMDL
MODEL 6
REMARK VINA RESULT:      -4.6      3.960      5.741
REMARK  0 active torsions:
REMARK  status: ('A' for Active; 'I' for Inactive)
ROOT
HETATM    1  C1  UNL     1     -38.042  14.910  -4.440  1.00 20.00     0.068 C 
HETATM    2  C2  UNL     1     -33.532  14.766  -4.228  1.00 20.00     0.009 A 
HETATM    3  C3  UNL     1     -33.258  15.468  -3.052  1.00 20.00     0.024 A 
HETATM    4  C4  UNL     1     -35.477  16.466  -3.079  1.00 20.00     0.033 A 
HETATM    5  C5  UNL     1     -34.773  14.932  -4.819  1.00 20.00    -0.050 A 
HETATM    6  C6  UNL     1     -35.741  15.769  -4.249  1.00 20.00    -0.033 A 
HETATM    7  C7  UNL     1     -34.224  16.312  -2.483  1.00 20.00     0.034 A 
HETATM    8  C8  UNL     1     -35.300  14.265  -6.050  1.00 20.00     0.041 C 
HETATM    9  C9  UNL     1     -36.503  15.164  -6.384  1.00 20.00     0.028 C 
HETATM   10  C10 UNL     1     -37.010  15.756  -5.051  1.00 20.00     0.126 C 
HETATM   11  N11 UNL     1     -38.859  14.242  -3.957  1.00 20.00    -0.197 NA
HETATM   12 CL12 UNL     1     -33.860  17.163  -1.029  1.00 20.00    -0.084 Cl
ENDROOT
TORSDOF 0
ENDMDL
MODEL 7
REMARK VINA RESULT:      -4.6      3.748      5.182
REMARK  0 active torsions:
REMARK  status: ('A' for Active; 'I' for Inactive)
ROOT
HETATM    1  C1  UNL     1     -37.341  15.145  -3.926  1.00 20.00     0.068 C 
HETATM    2  C2  UNL     1     -34.303  16.727  -0.979  1.00 20.00     0.009 A 
HETATM    3  C3  UNL     1     -35.049  17.642  -0.233  1.00 20.00     0.024 A 
HETATM    4  C4  UNL     1     -36.760  17.725  -1.961  1.00 20.00     0.033 A 
HETATM    5  C5  UNL     1     -34.793  16.331  -2.213  1.00 20.00    -0.050 A 
HETATM    6  C6  UNL     1     -36.013  16.819  -2.698  1.00 20.00    -0.033 A 
HETATM    7  C7  UNL     1     -36.268  18.137  -0.721  1.00 20.00     0.034 A 
HETATM    8  C8  UNL     1     -34.193  15.346  -3.165  1.00 20.00     0.041 C 
HETATM    9  C9  UNL     1     -34.963  15.673  -4.456  1.00 20.00     0.028 C 
HETATM   10  C10 UNL     1     -36.345  16.218  -4.034  1.00 20.00     0.126 C 
HETATM   11  N11 UNL     1     -38.128  14.297  -3.842  1.00 20.00    -0.197 NA
HETATM   12 CL12 UNL     1     -37.169  19.261   0.224  1.00 20.00    -0.084 Cl
ENDROOT
TORSDOF 0
ENDMDL
MODEL 8
REMARK VINA RESULT:      -4.6      2.747      3.993
REMARK  0 active torsions:
REMARK  status: ('A' for Active; 'I' for Inactive)
ROOT
HETATM    1  C1  UNL     1     -36.793  18.454   2.296  1.00 20.00     0.068 C 
HETATM    2  C2  UNL     1     -32.635  18.889   0.584  1.00 20.00     0.009 A 
HETATM    3  C3  UNL     1     -32.762  18.308  -0.680  1.00 20.00     0.024 A 
HETATM    4  C4  UNL     1     -34.809  17.179  -0.004  1.00 20.00     0.033 A 
HETATM    5  C5  UNL     1     -33.593  18.598   1.541  1.00 20.00    -0.050 A 
HETATM    6  C6  UNL     1     -34.674  17.756   1.250  1.00 20.00    -0.033 A 
HETATM    7  C7  UNL     1     -33.841  17.459  -0.971  1.00 20.00     0.034 A 
HETATM    8  C8  UNL     1     -33.684  19.123   2.938  1.00 20.00     0.041 C 
HETATM    9  C9  UNL     1     -34.674  18.127   3.566  1.00 20.00     0.028 C 
HETATM   10  C10 UNL     1     -35.591  17.622   2.432  1.00 20.00     0.126 C 
HETATM   11  N11 UNL     1     -37.744  19.110   2.190  1.00 20.00    -0.197 NA
HETATM   12 CL12 UNL     1     -33.975  16.761  -2.541  1.00 20.00    -0.084 Cl
ENDROOT
TORSDOF 0
ENDMDL
MODEL 9
REMARK VINA RESULT:      -4.5      3.703      5.525
REMARK  0 active torsions:
REMARK  status: ('A' for Active; 'I' for Inactive)
ROOT
HETATM    1  C1  UNL     1     -34.916  17.488  -7.069  1.00 20.00     0.068 C 
HETATM    2  C2  UNL     1     -35.286  14.535  -3.670  1.00 20.00     0.009 A 
HETATM    3  C3  UNL     1     -34.834  15.272  -2.573  1.00 20.00     0.024 A 
HETATM    4  C4  UNL     1     -33.758  16.885  -4.044  1.00 20.00     0.033 A 
HETATM    5  C5  UNL     1     -34.958  14.978  -4.940  1.00 20.00    -0.050 A 
HETATM    6  C6  UNL     1     -34.206  16.146  -5.128  1.00 20.00    -0.033 A 
HETATM    7  C7  UNL     1     -34.076  16.438  -2.760  1.00 20.00     0.034 A 
HETATM    8  C8  UNL     1     -35.353  14.378  -6.252  1.00 20.00     0.041 C 
HETATM    9  C9  UNL     1     -34.357  15.063  -7.205  1.00 20.00     0.028 C 
HETATM   10  C10 UNL     1     -34.012  16.436  -6.589  1.00 20.00     0.126 C 
HETATM   11  N11 UNL     1     -35.630  18.321  -7.449  1.00 20.00    -0.197 NA
HETATM   12 CL12 UNL     1     -33.537  17.331  -1.388  1.00 20.00    -0.084 Cl
ENDROOT
TORSDOF 0
ENDMDL
