MODEL 1
REMARK VINA RESULT:      -4.0      0.000      0.000
REMARK  2 active torsions:
REMARK  status: ('A' for Active; 'I' for Inactive)
REMARK    1  A    between atoms: C5_5  and  N8_8 
REMARK    2  A    between atoms: C7_7  and  N8_8 
ROOT
HETATM    1  C1  UNL     1     -32.110   8.536   1.727  1.00 20.00     0.013 C 
HETATM    2  C2  UNL     1     -32.186   7.665   2.549  1.00 20.00    -0.087 C 
HETATM    3  C7  UNL     1     -32.272   6.600   3.551  1.00 20.00     0.364 C 
ENDROOT
BRANCH   3   4
HETATM    4  N8  UNL     1     -33.582   6.610   4.204  1.00 20.00     0.099 N 
HETATM    5  C6  UNL     1     -33.429   6.674   5.657  1.00 20.00     0.311 C 
BRANCH   4   6
HETATM    6  C5  UNL     1     -34.352   5.427   3.821  1.00 20.00     0.223 A 
HETATM    7  C3  UNL     1     -35.241   4.742   4.821  1.00 20.00     0.038 A 
HETATM    8  C4  UNL     1     -35.846   5.501   3.677  1.00 20.00     0.038 A 
ENDBRANCH   4   6
ENDBRANCH   3   4
TORSDOF 2
ENDMDL
MODEL 2
REMARK VINA RESULT:      -3.9      0.893      4.123
REMARK  2 active torsions:
REMARK  status: ('A' for Active; 'I' for Inactive)
REMARK    1  A    between atoms: C5_5  and  N8_8 
REMARK    2  A    between atoms: C7_7  and  N8_8 
ROOT
HETATM    1  C1  UNL     1     -35.188   4.241   6.205  1.00 20.00     0.013 C 
HETATM    2  C2  UNL     1     -34.558   5.195   5.841  1.00 20.00    -0.087 C 
HETATM    3  C7  UNL     1     -33.786   6.361   5.401  1.00 20.00     0.364 C 
ENDROOT
BRANCH   3   4
HETATM    4  N8  UNL     1     -33.881   6.526   3.950  1.00 20.00     0.099 N 
HETATM    5  C6  UNL     1     -34.697   5.462   3.367  1.00 20.00     0.311 C 
BRANCH   4   6
HETATM    6  C5  UNL     1     -32.548   6.537   3.349  1.00 20.00     0.223 A 
HETATM    7  C3  UNL     1     -32.176   7.591   2.344  1.00 20.00     0.038 A 
HETATM    8  C4  UNL     1     -31.556   7.607   3.710  1.00 20.00     0.038 A 
ENDBRANCH   4   6
ENDBRANCH   3   4
TORSDOF 2
ENDMDL
MODEL 3
REMARK VINA RESULT:      -3.7     10.883     11.869
REMARK  2 active torsions:
REMARK  status: ('A' for Active; 'I' for Inactive)
REMARK    1  A    between atoms: C5_5  and  N8_8 
REMARK    2  A    between atoms: C7_7  and  N8_8 
ROOT
HETATM    1  C1  UNL     1     -33.537  13.699  -3.828  1.00 20.00     0.013 C 
HETATM    2  C2  UNL     1     -34.502  14.366  -3.572  1.00 20.00    -0.087 C 
HETATM    3  C7  UNL     1     -35.683  15.174  -3.260  1.00 20.00     0.364 C 
ENDROOT
BRANCH   3   4
HETATM    4  N8  UNL     1     -35.289  16.487  -2.747  1.00 20.00     0.099 N 
HETATM    5  C6  UNL     1     -34.591  17.251  -3.780  1.00 20.00     0.311 C 
BRANCH   4   6
HETATM    6  C5  UNL     1     -34.446  16.340  -1.561  1.00 20.00     0.223 A 
HETATM    7  C3  UNL     1     -33.639  17.501  -1.052  1.00 20.00     0.038 A 
HETATM    8  C4  UNL     1     -34.821  17.011  -0.269  1.00 20.00     0.038 A 
ENDBRANCH   4   6
ENDBRANCH   3   4
TORSDOF 2
ENDMDL
MODEL 4
REMARK VINA RESULT:      -3.7     10.906     11.852
REMARK  2 active torsions:
REMARK  status: ('A' for Active; 'I' for Inactive)
REMARK    1  A    between atoms: C5_5  and  N8_8 
REMARK    2  A    between atoms: C7_7  and  N8_8 
ROOT
HETATM    1  C1  UNL     1     -34.448  16.668  -0.914  1.00 20.00     0.013 C 
HETATM    2  C2  UNL     1     -35.144  16.475  -1.872  1.00 20.00    -0.087 C 
HETATM    3  C7  UNL     1     -35.999  16.243  -3.039  1.00 20.00     0.364 C 
ENDROOT
BRANCH   3   4
HETATM    4  N8  UNL     1     -35.244  15.590  -4.110  1.00 20.00     0.099 N 
HETATM    5  C6  UNL     1     -36.006  15.610  -5.358  1.00 20.00     0.311 C 
BRANCH   4   6
HETATM    6  C5  UNL     1     -34.911  14.216  -3.735  1.00 20.00     0.223 A 
HETATM    7  C3  UNL     1     -34.501  13.220  -4.784  1.00 20.00     0.038 A 
HETATM    8  C4  UNL     1     -33.490  13.730  -3.800  1.00 20.00     0.038 A 
ENDBRANCH   4   6
ENDBRANCH   3   4
TORSDOF 2
ENDMDL
MODEL 5
REMARK VINA RESULT:      -3.6      1.459      2.262
REMARK  2 active torsions:
REMARK  status: ('A' for Active; 'I' for Inactive)
REMARK    1  A    between atoms: C5_5  and  N8_8 
REMARK    2  A    between atoms: C7_7  and  N8_8 
ROOT
HETATM    1  C1  UNL     1     -32.072   7.142   3.364  1.00 20.00     0.013 C 
HETATM    2  C2  UNL     1     -32.857   6.292   3.045  1.00 20.00    -0.087 C 
HETATM    3  C7  UNL     1     -33.813   5.254   2.652  1.00 20.00     0.364 C 
ENDROOT
BRANCH   3   4
HETATM    4  N8  UNL     1     -34.775   5.003   3.726  1.00 20.00     0.099 N 
HETATM    5  C6  UNL     1     -35.857   5.985   3.683  1.00 20.00     0.311 C 
BRANCH   4   6
HETATM    6  C5  UNL     1     -34.106   5.034   5.027  1.00 20.00     0.223 A 
HETATM    7  C3  UNL     1     -34.831   5.542   6.242  1.00 20.00     0.038 A 
HETATM    8  C4  UNL     1     -34.511   4.082   6.117  1.00 20.00     0.038 A 
ENDBRANCH   4   6
ENDBRANCH   3   4
TORSDOF 2
ENDMDL
MODEL 6
REMARK VINA RESULT:      -3.6      1.154      1.848
REMARK  2 active torsions:
REMARK  status: ('A' for Active; 'I' for Inactive)
REMARK    1  A    between atoms: C5_5  and  N8_8 
REMARK    2  A    between atoms: C7_7  and  N8_8 
ROOT
HETATM    1  C1  UNL     1     -31.809   7.702   2.043  1.00 20.00     0.013 C 
HETATM    2  C2  UNL     1     -32.401   7.378   3.035  1.00 20.00    -0.087 C 
HETATM    3  C7  UNL     1     -33.124   6.989   4.249  1.00 20.00     0.364 C 
ENDROOT
BRANCH   3   4
HETATM    4  N8  UNL     1     -33.661   5.634   4.118  1.00 20.00     0.099 N 
HETATM    5  C6  UNL     1     -34.197   5.424   2.774  1.00 20.00     0.311 C 
BRANCH   4   6
HETATM    6  C5  UNL     1     -34.694   5.394   5.125  1.00 20.00     0.223 A 
HETATM    7  C3  UNL     1     -35.125   3.992   5.454  1.00 20.00     0.038 A 
HETATM    8  C4  UNL     1     -34.340   4.788   6.454  1.00 20.00     0.038 A 
ENDBRANCH   4   6
ENDBRANCH   3   4
TORSDOF 2
ENDMDL
MODEL 7
REMARK VINA RESULT:      -3.5     11.314     12.336
REMARK  2 active torsions:
REMARK  status: ('A' for Active; 'I' for Inactive)
REMARK    1  A    between atoms: C5_5  and  N8_8 
REMARK    2  A    between atoms: C7_7  and  N8_8 
ROOT
HETATM    1  C1  UNL     1     -34.728  16.586  -1.304  1.00 20.00     0.013 C 
HETATM    2  C2  UNL     1     -34.477  15.827  -2.199  1.00 20.00    -0.087 C 
HETATM    3  C7  UNL     1     -34.168  14.897  -3.289  1.00 20.00     0.364 C 
ENDROOT
BRANCH   3   4
HETATM    4  N8  UNL     1     -35.099  15.079  -4.403  1.00 20.00     0.099 N 
HETATM    5  C6  UNL     1     -36.399  14.490  -4.083  1.00 20.00     0.311 C 
BRANCH   4   6
HETATM    6  C5  UNL     1     -34.555  14.486  -5.624  1.00 20.00     0.223 A 
HETATM    7  C3  UNL     1     -35.408  14.369  -6.857  1.00 20.00     0.038 A 
HETATM    8  C4  UNL     1     -34.266  15.342  -6.826  1.00 20.00     0.038 A 
ENDBRANCH   4   6
ENDBRANCH   3   4
TORSDOF 2
ENDMDL
MODEL 8
REMARK VINA RESULT:      -3.5     11.124     12.327
REMARK  2 active torsions:
REMARK  status: ('A' for Active; 'I' for Inactive)
REMARK    1  A    between atoms: C5_5  and  N8_8 
REMARK    2  A    between atoms: C7_7  and  N8_8 
ROOT
HETATM    1  C1  UNL     1     -35.035  13.352  -4.276  1.00 20.00     0.013 C 
HETATM    2  C2  UNL     1     -34.449  14.382  -4.464  1.00 20.00    -0.087 C 
HETATM    3  C7  UNL     1     -33.731  15.638  -4.698  1.00 20.00     0.364 C 
ENDROOT
BRANCH   3   4
HETATM    4  N8  UNL     1     -34.192  16.675  -3.775  1.00 20.00     0.099 N 
HETATM    5  C6  UNL     1     -33.707  17.988  -4.198  1.00 20.00     0.311 C 
BRANCH   4   6
HETATM    6  C5  UNL     1     -33.748  16.379  -2.413  1.00 20.00     0.223 A 
HETATM    7  C3  UNL     1     -33.697  17.467  -1.377  1.00 20.00     0.038 A 
HETATM    8  C4  UNL     1     -34.728  16.382  -1.273  1.00 20.00     0.038 A 
ENDBRANCH   4   6
ENDBRANCH   3   4
TORSDOF 2
ENDMDL
MODEL 9
REMARK VINA RESULT:      -3.5     11.007     11.619
REMARK  2 active torsions:
REMARK  status: ('A' for Active; 'I' for Inactive)
REMARK    1  A    between atoms: C5_5  and  N8_8 
REMARK    2  A    between atoms: C7_7  and  N8_8 
ROOT
HETATM    1  C1  UNL     1     -34.786  17.022  -0.216  1.00 20.00     0.013 C 
HETATM    2  C2  UNL     1     -34.321  16.658  -1.261  1.00 20.00    -0.087 C 
HETATM    3  C7  UNL     1     -33.748  16.218  -2.535  1.00 20.00     0.364 C 
ENDROOT
BRANCH   3   4
HETATM    4  N8  UNL     1     -34.467  15.050  -3.048  1.00 20.00     0.099 N 
HETATM    5  C6  UNL     1     -33.563  14.185  -3.804  1.00 20.00     0.311 C 
BRANCH   4   6
HETATM    6  C5  UNL     1     -35.592  15.470  -3.883  1.00 20.00     0.223 A 
HETATM    7  C3  UNL     1     -36.246  14.496  -4.823  1.00 20.00     0.038 A 
HETATM    8  C4  UNL     1     -36.981  14.967  -3.603  1.00 20.00     0.038 A 
ENDBRANCH   4   6
ENDBRANCH   3   4
TORSDOF 2
ENDMDL
