MODEL 1
REMARK VINA RESULT:      -4.5      0.000      0.000
REMARK  1 active torsions:
REMARK  status: ('A' for Active; 'I' for Inactive)
REMARK    1  A    between atoms: C6_6  and  N8_8 
ROOT
HETATM    1  C1  UNL     1     -32.345   8.939   1.225  1.00 20.00     0.014 C 
HETATM    2  C2  UNL     1     -32.062   8.203   2.130  1.00 20.00    -0.096 C 
HETATM    3  C6  UNL     1     -31.716   7.305   3.236  1.00 20.00     0.243 C 
ENDROOT
BRANCH   3   4
HETATM    4  N8  UNL     1     -32.847   6.521   3.670  1.00 20.00    -0.269 N 
HETATM    5  C4  UNL     1     -33.241   6.314   4.960  1.00 20.00     0.138 A 
HETATM    6  C5  UNL     1     -34.354   5.512   4.888  1.00 20.00     0.070 A 
HETATM    7  C3  UNL     1     -34.544   5.296   3.509  1.00 20.00     0.164 A 
HETATM    8 CL9  UNL     1     -35.302   4.905   6.147  1.00 20.00    -0.081 Cl
HETATM    9  N7  UNL     1     -33.625   5.911   2.760  1.00 20.00    -0.183 NA
ENDBRANCH   3   4
TORSDOF 1
ENDMDL
MODEL 2
REMARK VINA RESULT:      -4.0     11.511     12.046
REMARK  1 active torsions:
REMARK  status: ('A' for Active; 'I' for Inactive)
REMARK    1  A    between atoms: C6_6  and  N8_8 
ROOT
HETATM    1  C1  UNL     1     -34.835  16.503  -1.266  1.00 20.00     0.014 C 
HETATM    2  C2  UNL     1     -34.091  16.140  -2.137  1.00 20.00    -0.096 C 
HETATM    3  C6  UNL     1     -33.183  15.698  -3.198  1.00 20.00     0.243 C 
ENDROOT
BRANCH   3   4
HETATM    4  N8  UNL     1     -33.864  14.918  -4.203  1.00 20.00    -0.269 N 
HETATM    5  C4  UNL     1     -34.261  15.353  -5.433  1.00 20.00     0.138 A 
HETATM    6  C5  UNL     1     -34.862  14.275  -6.037  1.00 20.00     0.070 A 
HETATM    7  C3  UNL     1     -34.772  13.243  -5.083  1.00 20.00     0.164 A 
HETATM    8 CL9  UNL     1     -35.560  14.177  -7.572  1.00 20.00    -0.081 Cl
HETATM    9  N7  UNL     1     -34.162  13.631  -3.960  1.00 20.00    -0.183 NA
ENDBRANCH   3   4
TORSDOF 1
ENDMDL
MODEL 3
REMARK VINA RESULT:      -3.8     11.234     11.555
REMARK  1 active torsions:
REMARK  status: ('A' for Active; 'I' for Inactive)
REMARK    1  A    between atoms: C6_6  and  N8_8 
ROOT
HETATM    1  C1  UNL     1     -34.785  17.119  -0.019  1.00 20.00     0.014 C 
HETATM    2  C2  UNL     1     -34.424  16.711  -1.089  1.00 20.00    -0.096 C 
HETATM    3  C6  UNL     1     -33.982  16.212  -2.394  1.00 20.00     0.243 C 
ENDROOT
BRANCH   3   4
HETATM    4  N8  UNL     1     -35.008  15.440  -3.054  1.00 20.00    -0.269 N 
HETATM    5  C4  UNL     1     -36.320  15.786  -3.188  1.00 20.00     0.138 A 
HETATM    6  C5  UNL     1     -36.911  14.756  -3.880  1.00 20.00     0.070 A 
HETATM    7  C3  UNL     1     -35.864  13.843  -4.112  1.00 20.00     0.164 A 
HETATM    8 CL9  UNL     1     -38.523  14.592  -4.357  1.00 20.00    -0.081 Cl
HETATM    9  N7  UNL     1     -34.698  14.257  -3.610  1.00 20.00    -0.183 NA
ENDBRANCH   3   4
TORSDOF 1
ENDMDL
MODEL 4
REMARK VINA RESULT:      -3.8     11.177     11.511
REMARK  1 active torsions:
REMARK  status: ('A' for Active; 'I' for Inactive)
REMARK    1  A    between atoms: C6_6  and  N8_8 
ROOT
HETATM    1  C1  UNL     1     -35.068  17.385   0.619  1.00 20.00     0.014 C 
HETATM    2  C2  UNL     1     -34.488  17.205  -0.417  1.00 20.00    -0.096 C 
HETATM    3  C6  UNL     1     -33.778  16.987  -1.680  1.00 20.00     0.243 C 
ENDROOT
BRANCH   3   4
HETATM    4  N8  UNL     1     -34.442  16.013  -2.513  1.00 20.00    -0.269 N 
HETATM    5  C4  UNL     1     -33.846  15.006  -3.213  1.00 20.00     0.138 A 
HETATM    6  C5  UNL     1     -34.863  14.340  -3.853  1.00 20.00     0.070 A 
HETATM    7  C3  UNL     1     -36.030  15.029  -3.470  1.00 20.00     0.164 A 
HETATM    8 CL9  UNL     1     -34.769  12.999  -4.875  1.00 20.00    -0.081 Cl
HETATM    9  N7  UNL     1     -35.778  16.052  -2.650  1.00 20.00    -0.183 NA
ENDBRANCH   3   4
TORSDOF 1
ENDMDL
MODEL 5
REMARK VINA RESULT:      -3.7      0.915      1.465
REMARK  1 active torsions:
REMARK  status: ('A' for Active; 'I' for Inactive)
REMARK    1  A    between atoms: C6_6  and  N8_8 
ROOT
HETATM    1  C1  UNL     1     -32.551   9.606   1.478  1.00 20.00     0.014 C 
HETATM    2  C2  UNL     1     -32.168   8.576   1.963  1.00 20.00    -0.096 C 
HETATM    3  C6  UNL     1     -31.700   7.320   2.555  1.00 20.00     0.243 C 
ENDROOT
BRANCH   3   4
HETATM    4  N8  UNL     1     -32.671   6.752   3.459  1.00 20.00    -0.269 N 
HETATM    5  C4  UNL     1     -33.589   5.789   3.160  1.00 20.00     0.138 A 
HETATM    6  C5  UNL     1     -34.291   5.567   4.320  1.00 20.00     0.070 A 
HETATM    7  C3  UNL     1     -33.714   6.448   5.254  1.00 20.00     0.164 A 
HETATM    8 CL9  UNL     1     -35.562   4.489   4.595  1.00 20.00    -0.081 Cl
HETATM    9  N7  UNL     1     -32.723   7.175   4.734  1.00 20.00    -0.183 NA
ENDBRANCH   3   4
TORSDOF 1
ENDMDL
MODEL 6
REMARK VINA RESULT:      -3.7     11.192     12.172
REMARK  1 active torsions:
REMARK  status: ('A' for Active; 'I' for Inactive)
REMARK    1  A    between atoms: C6_6  and  N8_8 
ROOT
HETATM    1  C1  UNL     1     -35.134  14.834  -7.841  1.00 20.00     0.014 C 
HETATM    2  C2  UNL     1     -34.950  14.350  -6.758  1.00 20.00    -0.096 C 
HETATM    3  C6  UNL     1     -34.725  13.758  -5.437  1.00 20.00     0.243 C 
ENDROOT
BRANCH   3   4
HETATM    4  N8  UNL     1     -34.426  14.757  -4.439  1.00 20.00    -0.269 N 
HETATM    5  C4  UNL     1     -34.906  14.795  -3.163  1.00 20.00     0.138 A 
HETATM    6  C5  UNL     1     -34.355  15.916  -2.589  1.00 20.00     0.070 A 
HETATM    7  C3  UNL     1     -33.560  16.478  -3.606  1.00 20.00     0.164 A 
HETATM    8 CL9  UNL     1     -34.564  16.511  -1.022  1.00 20.00    -0.081 Cl
HETATM    9  N7  UNL     1     -33.599  15.773  -4.740  1.00 20.00    -0.183 NA
ENDBRANCH   3   4
TORSDOF 1
ENDMDL
MODEL 7
REMARK VINA RESULT:      -3.7     11.130     11.969
REMARK  1 active torsions:
REMARK  status: ('A' for Active; 'I' for Inactive)
REMARK    1  A    between atoms: C6_6  and  N8_8 
ROOT
HETATM    1  C1  UNL     1     -34.823  14.882  -7.653  1.00 20.00     0.014 C 
HETATM    2  C2  UNL     1     -34.866  14.337  -6.584  1.00 20.00    -0.096 C 
HETATM    3  C6  UNL     1     -34.917  13.671  -5.280  1.00 20.00     0.243 C 
ENDROOT
BRANCH   3   4
HETATM    4  N8  UNL     1     -35.178  14.600  -4.207  1.00 20.00    -0.269 N 
HETATM    5  C4  UNL     1     -34.358  14.867  -3.150  1.00 20.00     0.138 A 
HETATM    6  C5  UNL     1     -35.016  15.807  -2.393  1.00 20.00     0.070 A 
HETATM    7  C3  UNL     1     -36.221  16.035  -3.085  1.00 20.00     0.164 A 
HETATM    8 CL9  UNL     1     -34.520  16.541  -0.955  1.00 20.00    -0.081 Cl
HETATM    9  N7  UNL     1     -36.325  15.300  -4.195  1.00 20.00    -0.183 NA
ENDBRANCH   3   4
TORSDOF 1
ENDMDL
MODEL 8
REMARK VINA RESULT:      -3.6      9.993     10.818
REMARK  1 active torsions:
REMARK  status: ('A' for Active; 'I' for Inactive)
REMARK    1  A    between atoms: C6_6  and  N8_8 
ROOT
HETATM    1  C1  UNL     1     -42.691   8.320  -4.475  1.00 20.00     0.014 C 
HETATM    2  C2  UNL     1     -42.468   7.925  -3.363  1.00 20.00    -0.096 C 
HETATM    3  C6  UNL     1     -42.198   7.446  -2.005  1.00 20.00     0.243 C 
ENDROOT
BRANCH   3   4
HETATM    4  N8  UNL     1     -41.858   6.043  -1.984  1.00 20.00    -0.269 N 
HETATM    5  C4  UNL     1     -42.473   5.051  -2.690  1.00 20.00     0.138 A 
HETATM    6  C5  UNL     1     -41.817   3.891  -2.356  1.00 20.00     0.070 A 
HETATM    7  C3  UNL     1     -40.825   4.298  -1.444  1.00 20.00     0.164 A 
HETATM    8 CL9  UNL     1     -42.110   2.318  -2.899  1.00 20.00    -0.081 Cl
HETATM    9  N7  UNL     1     -40.846   5.613  -1.213  1.00 20.00    -0.183 NA
ENDBRANCH   3   4
TORSDOF 1
ENDMDL
MODEL 9
REMARK VINA RESULT:      -3.6     10.455     11.506
REMARK  1 active torsions:
REMARK  status: ('A' for Active; 'I' for Inactive)
REMARK    1  A    between atoms: C6_6  and  N8_8 
ROOT
HETATM    1  C1  UNL     1     -41.169   1.577  -4.163  1.00 20.00     0.014 C 
HETATM    2  C2  UNL     1     -41.988   2.157  -3.504  1.00 20.00    -0.096 C 
HETATM    3  C6  UNL     1     -42.988   2.863  -2.698  1.00 20.00     0.243 C 
ENDROOT
BRANCH   3   4
HETATM    4  N8  UNL     1     -42.649   4.254  -2.512  1.00 20.00    -0.269 N 
HETATM    5  C4  UNL     1     -41.843   4.767  -1.540  1.00 20.00     0.138 A 
HETATM    6  C5  UNL     1     -41.812   6.124  -1.755  1.00 20.00     0.070 A 
HETATM    7  C3  UNL     1     -42.634   6.320  -2.881  1.00 20.00     0.164 A 
HETATM    8 CL9  UNL     1     -40.988   7.313  -0.884  1.00 20.00    -0.081 Cl
HETATM    9  N7  UNL     1     -43.148   5.180  -3.349  1.00 20.00    -0.183 NA
ENDBRANCH   3   4
TORSDOF 1
ENDMDL
