MODEL 1
REMARK VINA RESULT:      -5.0      0.000      0.000
REMARK  3 active torsions:
REMARK  status: ('A' for Active; 'I' for Inactive)
REMARK    1  A    between atoms: C6_6  and  N11_11 
REMARK    2  A    between atoms: C8_8  and  C9_9 
REMARK    3  A    between atoms: C9_9  and  N11_11 
ROOT
HETATM    1  C1  UNL     1     -32.241   8.749   1.838  1.00 20.00     0.060 C 
HETATM    2  C8  UNL     1     -31.864   7.372   2.189  1.00 20.00     0.153 C 
HETATM    3  N10 UNL     1     -32.537   9.837   1.559  1.00 20.00    -0.197 NA
ENDROOT
BRANCH   2   4
HETATM    4  C9  UNL     1     -32.628   6.866   3.409  1.00 20.00     0.284 C 
BRANCH   4   5
HETATM    5  N11 UNL     1     -33.509   5.768   3.048  1.00 20.00     0.093 N 
HETATM    6  H27 UNL     1     -32.963   4.922   2.910  1.00 20.00     0.316 HD
BRANCH   5   7
HETATM    7  C6  UNL     1     -34.474   5.528   4.096  1.00 20.00     0.154 C 
HETATM    8  C4  UNL     1     -34.083   6.258   5.386  1.00 20.00     0.041 C 
HETATM    9  C2  UNL     1     -34.769   5.484   6.507  1.00 20.00     0.003 C 
HETATM   10  C3  UNL     1     -35.003   4.072   5.968  1.00 20.00     0.003 C 
HETATM   11  C5  UNL     1     -34.447   4.063   4.547  1.00 20.00     0.041 C 
HETATM   12  C7  UNL     1     -35.865   5.946   3.607  1.00 20.00     0.049 C 
ENDBRANCH   5   7
ENDBRANCH   4   5
ENDBRANCH   2   4
TORSDOF 3
ENDMDL
MODEL 2
REMARK VINA RESULT:      -4.5     11.020     12.372
REMARK  3 active torsions:
REMARK  status: ('A' for Active; 'I' for Inactive)
REMARK    1  A    between atoms: C6_6  and  N11_11 
REMARK    2  A    between atoms: C8_8  and  C9_9 
REMARK    3  A    between atoms: C9_9  and  N11_11 
ROOT
HETATM    1  C1  UNL     1     -33.968  13.639  -4.050  1.00 20.00     0.060 C 
HETATM    2  C8  UNL     1     -32.874  14.587  -3.793  1.00 20.00     0.153 C 
HETATM    3  N10 UNL     1     -34.830  12.888  -4.252  1.00 20.00    -0.197 NA
ENDROOT
BRANCH   2   4
HETATM    4  C9  UNL     1     -33.292  16.027  -4.071  1.00 20.00     0.284 C 
BRANCH   4   5
HETATM    5  N11 UNL     1     -34.703  16.222  -3.779  1.00 20.00     0.093 N 
HETATM    6  H27 UNL     1     -35.137  15.327  -3.572  1.00 20.00     0.316 HD
BRANCH   5   7
HETATM    7  C6  UNL     1     -34.867  17.090  -2.635  1.00 20.00     0.154 C 
HETATM    8  C4  UNL     1     -33.677  18.046  -2.491  1.00 20.00     0.041 C 
HETATM    9  C2  UNL     1     -33.658  18.438  -1.016  1.00 20.00     0.003 C 
HETATM   10  C3  UNL     1     -34.375  17.315  -0.267  1.00 20.00     0.003 C 
HETATM   11  C5  UNL     1     -34.793  16.297  -1.325  1.00 20.00     0.041 C 
HETATM   12  C7  UNL     1     -36.192  17.850  -2.765  1.00 20.00     0.049 C 
ENDBRANCH   5   7
ENDBRANCH   4   5
ENDBRANCH   2   4
TORSDOF 3
ENDMDL
MODEL 3
REMARK VINA RESULT:      -4.5      1.204      2.027
REMARK  3 active torsions:
REMARK  status: ('A' for Active; 'I' for Inactive)
REMARK    1  A    between atoms: C6_6  and  N11_11 
REMARK    2  A    between atoms: C8_8  and  C9_9 
REMARK    3  A    between atoms: C9_9  and  N11_11 
ROOT
HETATM    1  C1  UNL     1     -32.512   9.077   0.553  1.00 20.00     0.060 C 
HETATM    2  C8  UNL     1     -32.052   9.030   1.949  1.00 20.00     0.153 C 
HETATM    3  N10 UNL     1     -32.875   9.118  -0.549  1.00 20.00    -0.197 NA
ENDROOT
BRANCH   2   4
HETATM    4  C9  UNL     1     -32.218   7.640   2.556  1.00 20.00     0.284 C 
BRANCH   4   5
HETATM    5  N11 UNL     1     -33.542   7.483   3.135  1.00 20.00     0.093 N 
HETATM    6  H27 UNL     1     -34.240   7.477   2.397  1.00 20.00     0.316 HD
BRANCH   5   7
HETATM    7  C6  UNL     1     -33.631   6.239   3.865  1.00 20.00     0.154 C 
HETATM    8  C4  UNL     1     -34.939   5.505   3.549  1.00 20.00     0.041 C 
HETATM    9  C2  UNL     1     -35.191   4.603   4.754  1.00 20.00     0.003 C 
HETATM   10  C3  UNL     1     -34.440   5.237   5.925  1.00 20.00     0.003 C 
HETATM   11  C5  UNL     1     -33.770   6.492   5.370  1.00 20.00     0.041 C 
HETATM   12  C7  UNL     1     -32.405   5.376   3.544  1.00 20.00     0.049 C 
ENDBRANCH   5   7
ENDBRANCH   4   5
ENDBRANCH   2   4
TORSDOF 3
ENDMDL
MODEL 4
REMARK VINA RESULT:      -4.5     11.392     12.292
REMARK  3 active torsions:
REMARK  status: ('A' for Active; 'I' for Inactive)
REMARK    1  A    between atoms: C6_6  and  N11_11 
REMARK    2  A    between atoms: C8_8  and  C9_9 
REMARK    3  A    between atoms: C9_9  and  N11_11 
ROOT
HETATM    1  C1  UNL     1     -33.108  18.570  -0.326  1.00 20.00     0.060 C 
HETATM    2  C8  UNL     1     -34.275  17.709  -0.081  1.00 20.00     0.153 C 
HETATM    3  N10 UNL     1     -32.188  19.251  -0.518  1.00 20.00    -0.197 NA
ENDROOT
BRANCH   2   4
HETATM    4  C9  UNL     1     -34.398  16.606  -1.128  1.00 20.00     0.284 C 
BRANCH   4   5
HETATM    5  N11 UNL     1     -33.718  16.980  -2.356  1.00 20.00     0.093 N 
HETATM    6  H27 UNL     1     -32.713  16.975  -2.208  1.00 20.00     0.316 HD
BRANCH   5   7
HETATM    7  C6  UNL     1     -34.033  16.047  -3.414  1.00 20.00     0.154 C 
HETATM    8  C4  UNL     1     -35.326  15.281  -3.109  1.00 20.00     0.041 C 
HETATM    9  C2  UNL     1     -35.222  13.988  -3.912  1.00 20.00     0.003 C 
HETATM   10  C3  UNL     1     -33.730  13.750  -4.146  1.00 20.00     0.003 C 
HETATM   11  C5  UNL     1     -33.004  14.912  -3.472  1.00 20.00     0.041 C 
HETATM   12  C7  UNL     1     -34.122  16.803  -4.744  1.00 20.00     0.049 C 
ENDBRANCH   5   7
ENDBRANCH   4   5
ENDBRANCH   2   4
TORSDOF 3
ENDMDL
MODEL 5
REMARK VINA RESULT:      -4.4      9.414     11.281
REMARK  3 active torsions:
REMARK  status: ('A' for Active; 'I' for Inactive)
REMARK    1  A    between atoms: C6_6  and  N11_11 
REMARK    2  A    between atoms: C8_8  and  C9_9 
REMARK    3  A    between atoms: C9_9  and  N11_11 
ROOT
HETATM    1  C1  UNL     1     -42.572   1.875  -4.885  1.00 20.00     0.060 C 
HETATM    2  C8  UNL     1     -41.810   1.847  -3.628  1.00 20.00     0.153 C 
HETATM    3  N10 UNL     1     -43.172   1.895  -5.878  1.00 20.00    -0.197 NA
ENDROOT
BRANCH   2   4
HETATM    4  C9  UNL     1     -42.375   2.819  -2.597  1.00 20.00     0.284 C 
BRANCH   4   5
HETATM    5  N11 UNL     1     -41.306   3.529  -1.916  1.00 20.00     0.093 N 
HETATM    6  H27 UNL     1     -40.549   3.717  -2.567  1.00 20.00     0.316 HD
BRANCH   5   7
HETATM    7  C6  UNL     1     -41.787   4.787  -1.392  1.00 20.00     0.154 C 
HETATM    8  C4  UNL     1     -42.181   5.743  -2.525  1.00 20.00     0.041 C 
HETATM    9  C2  UNL     1     -42.076   7.141  -1.922  1.00 20.00     0.003 C 
HETATM   10  C3  UNL     1     -41.099   7.028  -0.751  1.00 20.00     0.003 C 
HETATM   11  C5  UNL     1     -40.660   5.566  -0.704  1.00 20.00     0.041 C 
HETATM   12  C7  UNL     1     -42.959   4.523  -0.440  1.00 20.00     0.049 C 
ENDBRANCH   5   7
ENDBRANCH   4   5
ENDBRANCH   2   4
TORSDOF 3
ENDMDL
MODEL 6
REMARK VINA RESULT:      -4.4     11.356     12.668
REMARK  3 active torsions:
REMARK  status: ('A' for Active; 'I' for Inactive)
REMARK    1  A    between atoms: C6_6  and  N11_11 
REMARK    2  A    between atoms: C8_8  and  C9_9 
REMARK    3  A    between atoms: C9_9  and  N11_11 
ROOT
HETATM    1  C1  UNL     1     -34.802  13.621  -5.310  1.00 20.00     0.060 C 
HETATM    2  C8  UNL     1     -34.775  14.696  -6.313  1.00 20.00     0.153 C 
HETATM    3  N10 UNL     1     -34.825  12.771  -4.520  1.00 20.00    -0.197 NA
ENDROOT
BRANCH   2   4
HETATM    4  C9  UNL     1     -34.633  16.072  -5.670  1.00 20.00     0.284 C 
BRANCH   4   5
HETATM    5  N11 UNL     1     -33.823  15.998  -4.465  1.00 20.00     0.093 N 
HETATM    6  H27 UNL     1     -32.935  16.466  -4.620  1.00 20.00     0.316 HD
BRANCH   5   7
HETATM    7  C6  UNL     1     -34.498  16.642  -3.361  1.00 20.00     0.154 C 
HETATM    8  C4  UNL     1     -33.683  17.828  -2.831  1.00 20.00     0.041 C 
HETATM    9  C2  UNL     1     -34.144  18.015  -1.389  1.00 20.00     0.003 C 
HETATM   10  C3  UNL     1     -34.700  16.663  -0.940  1.00 20.00     0.003 C 
HETATM   11  C5  UNL     1     -34.548  15.724  -2.134  1.00 20.00     0.041 C 
HETATM   12  C7  UNL     1     -35.900  17.071  -3.808  1.00 20.00     0.049 C 
ENDBRANCH   5   7
ENDBRANCH   4   5
ENDBRANCH   2   4
TORSDOF 3
ENDMDL
MODEL 7
REMARK VINA RESULT:      -4.4     11.324     12.491
REMARK  3 active torsions:
REMARK  status: ('A' for Active; 'I' for Inactive)
REMARK    1  A    between atoms: C6_6  and  N11_11 
REMARK    2  A    between atoms: C8_8  and  C9_9 
REMARK    3  A    between atoms: C9_9  and  N11_11 
ROOT
HETATM    1  C1  UNL     1     -35.654  13.750  -4.478  1.00 20.00     0.060 C 
HETATM    2  C8  UNL     1     -36.570  14.847  -4.821  1.00 20.00     0.153 C 
HETATM    3  N10 UNL     1     -34.931  12.882  -4.209  1.00 20.00    -0.197 NA
ENDROOT
BRANCH   2   4
HETATM    4  C9  UNL     1     -36.458  16.010  -3.841  1.00 20.00     0.284 C 
BRANCH   4   5
HETATM    5  N11 UNL     1     -35.831  15.583  -2.601  1.00 20.00     0.093 N 
HETATM    6  H27 UNL     1     -35.429  14.658  -2.721  1.00 20.00     0.316 HD
BRANCH   5   7
HETATM    7  C6  UNL     1     -34.778  16.498  -2.225  1.00 20.00     0.154 C 
HETATM    8  C4  UNL     1     -34.659  16.608  -0.700  1.00 20.00     0.041 C 
HETATM    9  C2  UNL     1     -34.006  17.964  -0.447  1.00 20.00     0.003 C 
HETATM   10  C3  UNL     1     -34.310  18.819  -1.678  1.00 20.00     0.003 C 
HETATM   11  C5  UNL     1     -35.133  17.938  -2.615  1.00 20.00     0.041 C 
HETATM   12  C7  UNL     1     -33.462  16.044  -2.865  1.00 20.00     0.049 C 
ENDBRANCH   5   7
ENDBRANCH   4   5
ENDBRANCH   2   4
TORSDOF 3
ENDMDL
MODEL 8
REMARK VINA RESULT:      -4.3     10.984     13.775
REMARK  3 active torsions:
REMARK  status: ('A' for Active; 'I' for Inactive)
REMARK    1  A    between atoms: C6_6  and  N11_11 
REMARK    2  A    between atoms: C8_8  and  C9_9 
REMARK    3  A    between atoms: C9_9  and  N11_11 
ROOT
HETATM    1  C1  UNL     1     -34.078  13.667  -3.989  1.00 20.00     0.060 C 
HETATM    2  C8  UNL     1     -33.194  14.809  -3.712  1.00 20.00     0.153 C 
HETATM    3  N10 UNL     1     -34.773  12.763  -4.207  1.00 20.00    -0.197 NA
ENDROOT
BRANCH   2   4
HETATM    4  C9  UNL     1     -33.728  16.102  -4.319  1.00 20.00     0.284 C 
BRANCH   4   5
HETATM    5  N11 UNL     1     -33.328  16.225  -5.711  1.00 20.00     0.093 N 
HETATM    6  H27 UNL     1     -32.731  15.443  -5.966  1.00 20.00     0.316 HD
BRANCH   5   7
HETATM    7  C6  UNL     1     -34.487  16.221  -6.573  1.00 20.00     0.154 C 
HETATM    8  C4  UNL     1     -35.784  16.199  -5.756  1.00 20.00     0.041 C 
HETATM    9  C2  UNL     1     -36.833  15.602  -6.690  1.00 20.00     0.003 C 
HETATM   10  C3  UNL     1     -36.066  14.772  -7.718  1.00 20.00     0.003 C 
HETATM   11  C5  UNL     1     -34.589  14.907  -7.356  1.00 20.00     0.041 C 
HETATM   12  C7  UNL     1     -34.426  17.435  -7.507  1.00 20.00     0.049 C 
ENDBRANCH   5   7
ENDBRANCH   4   5
ENDBRANCH   2   4
TORSDOF 3
ENDMDL
MODEL 9
REMARK VINA RESULT:      -4.2     11.080     12.164
REMARK  3 active torsions:
REMARK  status: ('A' for Active; 'I' for Inactive)
REMARK    1  A    between atoms: C6_6  and  N11_11 
REMARK    2  A    between atoms: C8_8  and  C9_9 
REMARK    3  A    between atoms: C9_9  and  N11_11 
ROOT
HETATM    1  C1  UNL     1     -34.567  17.289  -0.271  1.00 20.00     0.060 C 
HETATM    2  C8  UNL     1     -33.729  17.358  -1.477  1.00 20.00     0.153 C 
HETATM    3  N10 UNL     1     -35.227  17.237   0.683  1.00 20.00    -0.197 NA
ENDROOT
BRANCH   2   4
HETATM    4  C9  UNL     1     -33.928  16.145  -2.379  1.00 20.00     0.284 C 
BRANCH   4   5
HETATM    5  N11 UNL     1     -35.325  15.745  -2.407  1.00 20.00     0.093 N 
HETATM    6  H27 UNL     1     -35.918  16.567  -2.342  1.00 20.00     0.316 HD
BRANCH   5   7
HETATM    7  C6  UNL     1     -35.629  15.054  -3.639  1.00 20.00     0.154 C 
HETATM    8  C4  UNL     1     -34.843  13.741  -3.745  1.00 20.00     0.041 C 
HETATM    9  C2  UNL     1     -34.765  13.443  -5.239  1.00 20.00     0.003 C 
HETATM   10  C3  UNL     1     -34.932  14.785  -5.951  1.00 20.00     0.003 C 
HETATM   11  C5  UNL     1     -35.104  15.830  -4.852  1.00 20.00     0.041 C 
HETATM   12  C7  UNL     1     -37.141  14.818  -3.726  1.00 20.00     0.049 C 
ENDBRANCH   5   7
ENDBRANCH   4   5
ENDBRANCH   2   4
TORSDOF 3
ENDMDL
