MODEL 1
REMARK VINA RESULT:      -4.5      0.000      0.000
REMARK  4 active torsions:
REMARK  status: ('A' for Active; 'I' for Inactive)
REMARK    1  A    between atoms: C6_6  and  N10_10 
REMARK    2  A    between atoms: C7_7  and  C8_8 
REMARK    3  A    between atoms: C7_7  and  C9_9 
REMARK    4  A    between atoms: C8_8  and  N10_10 
ROOT
HETATM    1  C1  UNL     1     -32.201   9.889   1.082  1.00 20.00     0.013 C 
HETATM    2  C2  UNL     1     -32.189   8.750   1.460  1.00 20.00    -0.087 C 
HETATM    3  C6  UNL     1     -32.174   7.358   1.918  1.00 20.00     0.364 C 
ENDROOT
BRANCH   3   4
HETATM    4  N10 UNL     1     -32.510   7.277   3.348  1.00 20.00     0.095 N 
HETATM    5  C5  UNL     1     -31.352   7.708   4.148  1.00 20.00     0.310 C 
BRANCH   4   6
HETATM    6  C8  UNL     1     -32.936   5.954   3.712  1.00 20.00     0.273 C 
BRANCH   6   7
HETATM    7  C7  UNL     1     -34.451   5.851   3.871  1.00 20.00     0.034 C 
BRANCH   7   8
HETATM    8  C9  UNL     1     -34.933   5.442   5.277  1.00 20.00    -0.021 C 
HETATM    9  C3  UNL     1     -34.150   6.220   6.338  1.00 20.00     0.009 C 
HETATM   10  C4  UNL     1     -34.793   3.940   5.530  1.00 20.00     0.009 C 
ENDBRANCH   7   8
ENDBRANCH   6   7
ENDBRANCH   4   6
ENDBRANCH   3   4
TORSDOF 4
ENDMDL
MODEL 2
REMARK VINA RESULT:      -4.4      1.026      5.220
REMARK  4 active torsions:
REMARK  status: ('A' for Active; 'I' for Inactive)
REMARK    1  A    between atoms: C6_6  and  N10_10 
REMARK    2  A    between atoms: C7_7  and  C8_8 
REMARK    3  A    between atoms: C7_7  and  C9_9 
REMARK    4  A    between atoms: C8_8  and  N10_10 
ROOT
HETATM    1  C1  UNL     1     -35.083   4.292   6.149  1.00 20.00     0.013 C 
HETATM    2  C2  UNL     1     -34.496   5.262   5.754  1.00 20.00    -0.087 C 
HETATM    3  C6  UNL     1     -33.778   6.447   5.276  1.00 20.00     0.364 C 
ENDROOT
BRANCH   3   4
HETATM    4  N10 UNL     1     -33.793   6.505   3.806  1.00 20.00     0.095 N 
HETATM    5  C5  UNL     1     -34.682   5.456   3.283  1.00 20.00     0.310 C 
BRANCH   4   6
HETATM    6  C8  UNL     1     -32.467   6.388   3.264  1.00 20.00     0.273 C 
BRANCH   6   7
HETATM    7  C7  UNL     1     -31.834   7.746   2.970  1.00 20.00     0.034 C 
BRANCH   7   8
HETATM    8  C9  UNL     1     -32.442   8.504   1.774  1.00 20.00    -0.021 C 
HETATM    9  C3  UNL     1     -31.493   8.424   0.575  1.00 20.00     0.009 C 
HETATM   10  C4  UNL     1     -32.739   9.969   2.100  1.00 20.00     0.009 C 
ENDBRANCH   7   8
ENDBRANCH   6   7
ENDBRANCH   4   6
ENDBRANCH   3   4
TORSDOF 4
ENDMDL
MODEL 3
REMARK VINA RESULT:      -4.1     10.676     11.899
REMARK  4 active torsions:
REMARK  status: ('A' for Active; 'I' for Inactive)
REMARK    1  A    between atoms: C6_6  and  N10_10 
REMARK    2  A    between atoms: C7_7  and  C8_8 
REMARK    3  A    between atoms: C7_7  and  C9_9 
REMARK    4  A    between atoms: C8_8  and  N10_10 
ROOT
HETATM    1  C1  UNL     1     -34.168  15.849  -6.595  1.00 20.00     0.013 C 
HETATM    2  C2  UNL     1     -34.477  14.797  -6.107  1.00 20.00    -0.087 C 
HETATM    3  C6  UNL     1     -34.854  13.510  -5.515  1.00 20.00     0.364 C 
ENDROOT
BRANCH   3   4
HETATM    4  N10 UNL     1     -35.318  13.691  -4.130  1.00 20.00     0.095 N 
HETATM    5  C5  UNL     1     -36.575  14.457  -4.131  1.00 20.00     0.310 C 
BRANCH   4   6
HETATM    6  C8  UNL     1     -34.316  14.328  -3.321  1.00 20.00     0.273 C 
BRANCH   6   7
HETATM    7  C7  UNL     1     -34.879  15.482  -2.494  1.00 20.00     0.034 C 
BRANCH   7   8
HETATM    8  C9  UNL     1     -33.863  16.585  -2.137  1.00 20.00    -0.021 C 
HETATM    9  C3  UNL     1     -34.204  17.176  -0.766  1.00 20.00     0.009 C 
HETATM   10  C4  UNL     1     -33.818  17.699  -3.183  1.00 20.00     0.009 C 
ENDBRANCH   7   8
ENDBRANCH   6   7
ENDBRANCH   4   6
ENDBRANCH   3   4
TORSDOF 4
ENDMDL
MODEL 4
REMARK VINA RESULT:      -4.1     10.830     12.391
REMARK  4 active torsions:
REMARK  status: ('A' for Active; 'I' for Inactive)
REMARK    1  A    between atoms: C6_6  and  N10_10 
REMARK    2  A    between atoms: C7_7  and  C8_8 
REMARK    3  A    between atoms: C7_7  and  C9_9 
REMARK    4  A    between atoms: C8_8  and  N10_10 
ROOT
HETATM    1  C1  UNL     1     -34.679  16.303  -1.434  1.00 20.00     0.013 C 
HETATM    2  C2  UNL     1     -34.240  17.091  -2.226  1.00 20.00    -0.087 C 
HETATM    3  C6  UNL     1     -33.703  18.056  -3.189  1.00 20.00     0.364 C 
ENDROOT
BRANCH   3   4
HETATM    4  N10 UNL     1     -33.918  17.589  -4.567  1.00 20.00     0.095 N 
HETATM    5  C5  UNL     1     -35.363  17.507  -4.837  1.00 20.00     0.310 C 
BRANCH   4   6
HETATM    6  C8  UNL     1     -33.268  16.329  -4.801  1.00 20.00     0.273 C 
BRANCH   6   7
HETATM    7  C7  UNL     1     -34.178  15.324  -5.505  1.00 20.00     0.034 C 
BRANCH   7   8
HETATM    8  C9  UNL     1     -34.309  13.959  -4.801  1.00 20.00    -0.021 C 
HETATM    9  C3  UNL     1     -35.701  13.830  -4.179  1.00 20.00     0.009 C 
HETATM   10  C4  UNL     1     -33.241  13.751  -3.726  1.00 20.00     0.009 C 
ENDBRANCH   7   8
ENDBRANCH   6   7
ENDBRANCH   4   6
ENDBRANCH   3   4
TORSDOF 4
ENDMDL
MODEL 5
REMARK VINA RESULT:      -4.0     10.454     12.300
REMARK  4 active torsions:
REMARK  status: ('A' for Active; 'I' for Inactive)
REMARK    1  A    between atoms: C6_6  and  N10_10 
REMARK    2  A    between atoms: C7_7  and  C8_8 
REMARK    3  A    between atoms: C7_7  and  C9_9 
REMARK    4  A    between atoms: C8_8  and  N10_10 
ROOT
HETATM    1  C1  UNL     1     -34.753  16.743  -0.649  1.00 20.00     0.013 C 
HETATM    2  C2  UNL     1     -34.348  16.365  -1.714  1.00 20.00    -0.087 C 
HETATM    3  C6  UNL     1     -33.852  15.906  -3.014  1.00 20.00     0.364 C 
ENDROOT
BRANCH   3   4
HETATM    4  N10 UNL     1     -34.349  14.554  -3.313  1.00 20.00     0.095 N 
HETATM    5  C5  UNL     1     -33.222  13.693  -3.706  1.00 20.00     0.310 C 
BRANCH   4   6
HETATM    6  C8  UNL     1     -35.366  14.583  -4.328  1.00 20.00     0.273 C 
BRANCH   6   7
HETATM    7  C7  UNL     1     -34.975  13.783  -5.569  1.00 20.00     0.034 C 
BRANCH   7   8
HETATM    8  C9  UNL     1     -35.032  14.568  -6.895  1.00 20.00    -0.021 C 
HETATM    9  C3  UNL     1     -34.171  15.829  -6.785  1.00 20.00     0.009 C 
HETATM   10  C4  UNL     1     -36.459  14.950  -7.288  1.00 20.00     0.009 C 
ENDBRANCH   7   8
ENDBRANCH   6   7
ENDBRANCH   4   6
ENDBRANCH   3   4
TORSDOF 4
ENDMDL
MODEL 6
REMARK VINA RESULT:      -4.0     11.118     12.261
REMARK  4 active torsions:
REMARK  status: ('A' for Active; 'I' for Inactive)
REMARK    1  A    between atoms: C6_6  and  N10_10 
REMARK    2  A    between atoms: C7_7  and  C8_8 
REMARK    3  A    between atoms: C7_7  and  C9_9 
REMARK    4  A    between atoms: C8_8  and  N10_10 
ROOT
HETATM    1  C1  UNL     1     -34.843  17.379   0.215  1.00 20.00     0.013 C 
HETATM    2  C2  UNL     1     -34.758  16.744  -0.800  1.00 20.00    -0.087 C 
HETATM    3  C6  UNL     1     -34.657  15.967  -2.038  1.00 20.00     0.364 C 
ENDROOT
BRANCH   3   4
HETATM    4  N10 UNL     1     -33.567  16.477  -2.885  1.00 20.00     0.095 N 
HETATM    5  C5  UNL     1     -33.989  17.734  -3.523  1.00 20.00     0.310 C 
BRANCH   4   6
HETATM    6  C8  UNL     1     -33.162  15.503  -3.861  1.00 20.00     0.273 C 
BRANCH   6   7
HETATM    7  C7  UNL     1     -33.851  15.707  -5.209  1.00 20.00     0.034 C 
BRANCH   7   8
HETATM    8  C9  UNL     1     -34.916  14.651  -5.563  1.00 20.00    -0.021 C 
HETATM    9  C3  UNL     1     -34.564  13.318  -4.896  1.00 20.00     0.009 C 
HETATM   10  C4  UNL     1     -35.063  14.450  -7.072  1.00 20.00     0.009 C 
ENDBRANCH   7   8
ENDBRANCH   6   7
ENDBRANCH   4   6
ENDBRANCH   3   4
TORSDOF 4
ENDMDL
MODEL 7
REMARK VINA RESULT:      -3.9     11.009     12.050
REMARK  4 active torsions:
REMARK  status: ('A' for Active; 'I' for Inactive)
REMARK    1  A    between atoms: C6_6  and  N10_10 
REMARK    2  A    between atoms: C7_7  and  C8_8 
REMARK    3  A    between atoms: C7_7  and  C9_9 
REMARK    4  A    between atoms: C8_8  and  N10_10 
ROOT
HETATM    1  C1  UNL     1     -34.732  17.375   0.185  1.00 20.00     0.013 C 
HETATM    2  C2  UNL     1     -34.718  16.706  -0.812  1.00 20.00    -0.087 C 
HETATM    3  C6  UNL     1     -34.705  15.887  -2.027  1.00 20.00     0.364 C 
ENDROOT
BRANCH   3   4
HETATM    4  N10 UNL     1     -33.583  16.268  -2.898  1.00 20.00     0.095 N 
HETATM    5  C5  UNL     1     -33.907  17.524  -3.594  1.00 20.00     0.310 C 
BRANCH   4   6
HETATM    6  C8  UNL     1     -33.263  15.220  -3.828  1.00 20.00     0.273 C 
BRANCH   6   7
HETATM    7  C7  UNL     1     -34.376  14.182  -3.945  1.00 20.00     0.034 C 
BRANCH   7   8
HETATM    8  C9  UNL     1     -35.201  14.255  -5.245  1.00 20.00    -0.021 C 
HETATM    9  C3  UNL     1     -34.392  14.968  -6.332  1.00 20.00     0.009 C 
HETATM   10  C4  UNL     1     -36.541  14.966  -5.049  1.00 20.00     0.009 C 
ENDBRANCH   7   8
ENDBRANCH   6   7
ENDBRANCH   4   6
ENDBRANCH   3   4
TORSDOF 4
ENDMDL
MODEL 8
REMARK VINA RESULT:      -3.8     10.963     12.435
REMARK  4 active torsions:
REMARK  status: ('A' for Active; 'I' for Inactive)
REMARK    1  A    between atoms: C6_6  and  N10_10 
REMARK    2  A    between atoms: C7_7  and  C8_8 
REMARK    3  A    between atoms: C7_7  and  C9_9 
REMARK    4  A    between atoms: C8_8  and  N10_10 
ROOT
HETATM    1  C1  UNL     1     -34.064  17.425  -6.190  1.00 20.00     0.013 C 
HETATM    2  C2  UNL     1     -34.310  16.373  -6.712  1.00 20.00    -0.087 C 
HETATM    3  C6  UNL     1     -34.609  15.091  -7.354  1.00 20.00     0.364 C 
ENDROOT
BRANCH   3   4
HETATM    4  N10 UNL     1     -35.447  14.255  -6.480  1.00 20.00     0.095 N 
HETATM    5  C5  UNL     1     -36.588  15.046  -5.993  1.00 20.00     0.310 C 
BRANCH   4   6
HETATM    6  C8  UNL     1     -34.686  13.707  -5.392  1.00 20.00     0.273 C 
BRANCH   6   7
HETATM    7  C7  UNL     1     -35.280  14.055  -4.029  1.00 20.00     0.034 C 
BRANCH   7   8
HETATM    8  C9  UNL     1     -34.292  14.686  -3.028  1.00 20.00    -0.021 C 
HETATM    9  C3  UNL     1     -34.863  16.005  -2.500  1.00 20.00     0.009 C 
HETATM   10  C4  UNL     1     -32.913  14.930  -3.643  1.00 20.00     0.009 C 
ENDBRANCH   7   8
ENDBRANCH   6   7
ENDBRANCH   4   6
ENDBRANCH   3   4
TORSDOF 4
ENDMDL
MODEL 9
REMARK VINA RESULT:      -3.8      1.362      4.708
REMARK  4 active torsions:
REMARK  status: ('A' for Active; 'I' for Inactive)
REMARK    1  A    between atoms: C6_6  and  N10_10 
REMARK    2  A    between atoms: C7_7  and  C8_8 
REMARK    3  A    between atoms: C7_7  and  C9_9 
REMARK    4  A    between atoms: C8_8  and  N10_10 
ROOT
HETATM    1  C1  UNL     1     -33.284   7.650   7.114  1.00 20.00     0.013 C 
HETATM    2  C2  UNL     1     -33.910   6.706   6.716  1.00 20.00    -0.087 C 
HETATM    3  C6  UNL     1     -34.674   5.553   6.234  1.00 20.00     0.364 C 
ENDROOT
BRANCH   3   4
HETATM    4  N10 UNL     1     -34.679   5.510   4.763  1.00 20.00     0.095 N 
HETATM    5  C5  UNL     1     -35.235   4.224   4.312  1.00 20.00     0.310 C 
BRANCH   4   6
HETATM    6  C8  UNL     1     -33.363   5.729   4.228  1.00 20.00     0.273 C 
BRANCH   6   7
HETATM    7  C7  UNL     1     -33.380   6.592   2.969  1.00 20.00     0.034 C 
BRANCH   7   8
HETATM    8  C9  UNL     1     -32.052   7.305   2.649  1.00 20.00    -0.021 C 
HETATM    9  C3  UNL     1     -31.328   7.659   3.951  1.00 20.00     0.009 C 
HETATM   10  C4  UNL     1     -32.254   8.569   1.811  1.00 20.00     0.009 C 
ENDBRANCH   7   8
ENDBRANCH   6   7
ENDBRANCH   4   6
ENDBRANCH   3   4
TORSDOF 4
ENDMDL
