MODEL 1
REMARK VINA RESULT:      -5.4      0.000      0.000
REMARK  3 active torsions:
REMARK  status: ('A' for Active; 'I' for Inactive)
REMARK    1  A    between atoms: C5_5  and  C8_8 
REMARK    2  A    between atoms: C8_8  and  C9_9 
REMARK    3  A    between atoms: C9_9  and  C10_10 
ROOT
HETATM    1  C1  UNL     1     -34.513   5.389   3.719  1.00 20.00     0.131 C 
HETATM    2  C2  UNL     1     -35.124   4.725   4.927  1.00 20.00     0.079 C 
HETATM    3  C3  UNL     1     -34.719   5.674   6.048  1.00 20.00     0.008 C 
HETATM    4  C4  UNL     1     -33.381   6.244   5.596  1.00 20.00     0.013 C 
HETATM    5  C5  UNL     1     -33.575   6.514   4.103  1.00 20.00     0.055 C 
HETATM    6  O11 UNL     1     -34.753   5.049   2.567  1.00 20.00    -0.298 OA
ENDROOT
BRANCH   5   7
HETATM    7  C8  UNL     1     -32.275   6.493   3.324  1.00 20.00     0.012 C 
BRANCH   7   8
HETATM    8  C9  UNL     1     -31.768   7.910   3.048  1.00 20.00     0.005 C 
BRANCH   8   9
HETATM    9  C10 UNL     1     -32.418   8.564   1.815  1.00 20.00    -0.023 C 
HETATM   10  C6  UNL     1     -31.483   8.440   0.608  1.00 20.00     0.009 C 
HETATM   11  C7  UNL     1     -32.765  10.035   2.048  1.00 20.00     0.009 C 
ENDBRANCH   8   9
ENDBRANCH   7   8
ENDBRANCH   5   7
TORSDOF 3
ENDMDL
MODEL 2
REMARK VINA RESULT:      -5.3      1.485      2.190
REMARK  3 active torsions:
REMARK  status: ('A' for Active; 'I' for Inactive)
REMARK    1  A    between atoms: C5_5  and  C8_8 
REMARK    2  A    between atoms: C8_8  and  C9_9 
REMARK    3  A    between atoms: C9_9  and  C10_10 
ROOT
HETATM    1  C1  UNL     1     -33.871   6.170   5.692  1.00 20.00     0.131 C 
HETATM    2  C2  UNL     1     -34.985   5.261   6.144  1.00 20.00     0.079 C 
HETATM    3  C3  UNL     1     -35.146   4.337   4.942  1.00 20.00     0.008 C 
HETATM    4  C4  UNL     1     -34.775   5.204   3.746  1.00 20.00     0.013 C 
HETATM    5  C5  UNL     1     -33.554   5.993   4.222  1.00 20.00     0.055 C 
HETATM    6  O11 UNL     1     -33.297   6.957   6.435  1.00 20.00    -0.298 OA
ENDROOT
BRANCH   5   7
HETATM    7  C8  UNL     1     -33.379   7.310   3.491  1.00 20.00     0.012 C 
BRANCH   7   8
HETATM    8  C9  UNL     1     -32.104   7.312   2.645  1.00 20.00     0.005 C 
BRANCH   8   9
HETATM    9  C10 UNL     1     -31.866   8.638   1.899  1.00 20.00    -0.023 C 
HETATM   10  C6  UNL     1     -32.983   9.630   2.234  1.00 20.00     0.009 C 
HETATM   11  C7  UNL     1     -31.783   8.449   0.383  1.00 20.00     0.009 C 
ENDBRANCH   8   9
ENDBRANCH   7   8
ENDBRANCH   5   7
TORSDOF 3
ENDMDL
MODEL 3
REMARK VINA RESULT:      -5.1      1.238      1.825
REMARK  3 active torsions:
REMARK  status: ('A' for Active; 'I' for Inactive)
REMARK    1  A    between atoms: C5_5  and  C8_8 
REMARK    2  A    between atoms: C8_8  and  C9_9 
REMARK    3  A    between atoms: C9_9  and  C10_10 
ROOT
HETATM    1  C1  UNL     1     -34.851   4.482   4.971  1.00 20.00     0.131 C 
HETATM    2  C2  UNL     1     -34.542   4.573   6.444  1.00 20.00     0.079 C 
HETATM    3  C3  UNL     1     -34.397   6.077   6.644  1.00 20.00     0.008 C 
HETATM    4  C4  UNL     1     -33.852   6.584   5.315  1.00 20.00     0.013 C 
HETATM    5  C5  UNL     1     -34.644   5.805   4.265  1.00 20.00     0.055 C 
HETATM    6  O11 UNL     1     -35.222   3.452   4.421  1.00 20.00    -0.298 OA
ENDROOT
BRANCH   5   7
HETATM    7  C8  UNL     1     -33.904   5.665   2.949  1.00 20.00     0.012 C 
BRANCH   7   8
HETATM    8  C9  UNL     1     -32.428   6.039   3.098  1.00 20.00     0.005 C 
BRANCH   8   9
HETATM    9  C10 UNL     1     -32.174   7.557   3.072  1.00 20.00    -0.023 C 
HETATM   10  C6  UNL     1     -31.952   8.022   1.630  1.00 20.00     0.009 C 
HETATM   11  C7  UNL     1     -30.979   7.965   3.935  1.00 20.00     0.009 C 
ENDBRANCH   8   9
ENDBRANCH   7   8
ENDBRANCH   5   7
TORSDOF 3
ENDMDL
MODEL 4
REMARK VINA RESULT:      -5.0     10.527     11.956
REMARK  3 active torsions:
REMARK  status: ('A' for Active; 'I' for Inactive)
REMARK    1  A    between atoms: C5_5  and  C8_8 
REMARK    2  A    between atoms: C8_8  and  C9_9 
REMARK    3  A    between atoms: C9_9  and  C10_10 
ROOT
HETATM    1  C1  UNL     1     -34.628  13.726  -5.226  1.00 20.00     0.131 C 
HETATM    2  C2  UNL     1     -35.039  14.277  -6.568  1.00 20.00     0.079 C 
HETATM    3  C3  UNL     1     -34.266  15.589  -6.621  1.00 20.00     0.008 C 
HETATM    4  C4  UNL     1     -34.176  16.035  -5.168  1.00 20.00     0.013 C 
HETATM    5  C5  UNL     1     -33.873  14.746  -4.401  1.00 20.00     0.055 C 
HETATM    6  O11 UNL     1     -34.882  12.586  -4.857  1.00 20.00    -0.298 OA
ENDROOT
BRANCH   5   7
HETATM    7  C8  UNL     1     -34.331  14.796  -2.956  1.00 20.00     0.012 C 
BRANCH   7   8
HETATM    8  C9  UNL     1     -34.862  16.183  -2.587  1.00 20.00     0.005 C 
BRANCH   8   9
HETATM    9  C10 UNL     1     -34.000  16.911  -1.540  1.00 20.00    -0.023 C 
HETATM   10  C6  UNL     1     -34.764  17.006  -0.216  1.00 20.00     0.009 C 
HETATM   11  C7  UNL     1     -33.584  18.310  -1.996  1.00 20.00     0.009 C 
ENDBRANCH   8   9
ENDBRANCH   7   8
ENDBRANCH   5   7
TORSDOF 3
ENDMDL
MODEL 5
REMARK VINA RESULT:      -4.9     10.332     11.857
REMARK  3 active torsions:
REMARK  status: ('A' for Active; 'I' for Inactive)
REMARK    1  A    between atoms: C5_5  and  C8_8 
REMARK    2  A    between atoms: C8_8  and  C9_9 
REMARK    3  A    between atoms: C9_9  and  C10_10 
ROOT
HETATM    1  C1  UNL     1     -36.499  14.353  -4.656  1.00 20.00     0.131 C 
HETATM    2  C2  UNL     1     -36.847  15.138  -5.895  1.00 20.00     0.079 C 
HETATM    3  C3  UNL     1     -35.738  14.723  -6.854  1.00 20.00     0.008 C 
HETATM    4  C4  UNL     1     -34.539  14.458  -5.953  1.00 20.00     0.013 C 
HETATM    5  C5  UNL     1     -35.130  13.714  -4.754  1.00 20.00     0.055 C 
HETATM    6  O11 UNL     1     -37.243  14.252  -3.688  1.00 20.00    -0.298 OA
ENDROOT
BRANCH   5   7
HETATM    7  C8  UNL     1     -34.307  13.879  -3.492  1.00 20.00     0.012 C 
BRANCH   7   8
HETATM    8  C9  UNL     1     -33.254  14.978  -3.652  1.00 20.00     0.005 C 
BRANCH   8   9
HETATM    9  C10 UNL     1     -33.599  16.273  -2.894  1.00 20.00    -0.023 C 
HETATM   10  C6  UNL     1     -34.705  15.996  -1.871  1.00 20.00     0.009 C 
HETATM   11  C7  UNL     1     -34.035  17.401  -3.831  1.00 20.00     0.009 C 
ENDBRANCH   8   9
ENDBRANCH   7   8
ENDBRANCH   5   7
TORSDOF 3
ENDMDL
MODEL 6
REMARK VINA RESULT:      -4.9     10.466     11.332
REMARK  3 active torsions:
REMARK  status: ('A' for Active; 'I' for Inactive)
REMARK    1  A    between atoms: C5_5  and  C8_8 
REMARK    2  A    between atoms: C8_8  and  C9_9 
REMARK    3  A    between atoms: C9_9  and  C10_10 
ROOT
HETATM    1  C1  UNL     1     -33.437  14.707  -3.630  1.00 20.00     0.131 C 
HETATM    2  C2  UNL     1     -34.316  13.532  -3.975  1.00 20.00     0.079 C 
HETATM    3  C3  UNL     1     -35.687  14.186  -4.090  1.00 20.00     0.008 C 
HETATM    4  C4  UNL     1     -35.640  15.341  -3.100  1.00 20.00     0.013 C 
HETATM    5  C5  UNL     1     -34.246  15.941  -3.292  1.00 20.00     0.055 C 
HETATM    6  O11 UNL     1     -32.213  14.658  -3.624  1.00 20.00    -0.298 OA
ENDROOT
BRANCH   5   7
HETATM    7  C8  UNL     1     -33.738  16.664  -2.060  1.00 20.00     0.012 C 
BRANCH   7   8
HETATM    8  C9  UNL     1     -34.749  16.590  -0.914  1.00 20.00     0.005 C 
BRANCH   8   9
HETATM    9  C10 UNL     1     -34.712  17.816   0.017  1.00 20.00    -0.023 C 
HETATM   10  C6  UNL     1     -33.272  18.319   0.156  1.00 20.00     0.009 C 
HETATM   11  C7  UNL     1     -35.289  17.517   1.401  1.00 20.00     0.009 C 
ENDBRANCH   8   9
ENDBRANCH   7   8
ENDBRANCH   5   7
TORSDOF 3
ENDMDL
MODEL 7
REMARK VINA RESULT:      -4.6     10.592     11.722
REMARK  3 active torsions:
REMARK  status: ('A' for Active; 'I' for Inactive)
REMARK    1  A    between atoms: C5_5  and  C8_8 
REMARK    2  A    between atoms: C8_8  and  C9_9 
REMARK    3  A    between atoms: C9_9  and  C10_10 
ROOT
HETATM    1  C1  UNL     1     -35.022  15.590  -4.688  1.00 20.00     0.131 C 
HETATM    2  C2  UNL     1     -34.666  14.523  -5.692  1.00 20.00     0.079 C 
HETATM    3  C3  UNL     1     -34.429  13.313  -4.797  1.00 20.00     0.008 C 
HETATM    4  C4  UNL     1     -33.895  13.902  -3.498  1.00 20.00     0.013 C 
HETATM    5  C5  UNL     1     -34.761  15.141  -3.266  1.00 20.00     0.055 C 
HETATM    6  O11 UNL     1     -35.468  16.688  -4.998  1.00 20.00    -0.298 OA
ENDROOT
BRANCH   5   7
HETATM    7  C8  UNL     1     -34.069  16.198  -2.428  1.00 20.00     0.012 C 
BRANCH   7   8
HETATM    8  C9  UNL     1     -34.748  16.363  -1.067  1.00 20.00     0.005 C 
BRANCH   8   9
HETATM    9  C10 UNL     1     -34.536  17.753  -0.440  1.00 20.00    -0.023 C 
HETATM   10  C6  UNL     1     -33.077  18.185  -0.614  1.00 20.00     0.009 C 
HETATM   11  C7  UNL     1     -34.910  17.789   1.043  1.00 20.00     0.009 C 
ENDBRANCH   8   9
ENDBRANCH   7   8
ENDBRANCH   5   7
TORSDOF 3
ENDMDL
MODEL 8
REMARK VINA RESULT:      -4.6     10.971     12.180
REMARK  3 active torsions:
REMARK  status: ('A' for Active; 'I' for Inactive)
REMARK    1  A    between atoms: C5_5  and  C8_8 
REMARK    2  A    between atoms: C8_8  and  C9_9 
REMARK    3  A    between atoms: C9_9  and  C10_10 
ROOT
HETATM    1  C1  UNL     1     -33.404  16.505  -3.871  1.00 20.00     0.131 C 
HETATM    2  C2  UNL     1     -33.800  17.812  -3.233  1.00 20.00     0.079 C 
HETATM    3  C3  UNL     1     -34.186  17.372  -1.826  1.00 20.00     0.008 C 
HETATM    4  C4  UNL     1     -34.732  15.962  -2.006  1.00 20.00     0.013 C 
HETATM    5  C5  UNL     1     -33.775  15.317  -3.009  1.00 20.00     0.055 C 
HETATM    6  O11 UNL     1     -32.849  16.425  -4.961  1.00 20.00    -0.298 OA
ENDROOT
BRANCH   5   7
HETATM    7  C8  UNL     1     -34.414  14.190  -3.797  1.00 20.00     0.012 C 
BRANCH   7   8
HETATM    8  C9  UNL     1     -35.917  14.416  -3.973  1.00 20.00     0.005 C 
BRANCH   8   9
HETATM    9  C10 UNL     1     -36.319  14.775  -5.416  1.00 20.00    -0.023 C 
HETATM   10  C6  UNL     1     -35.222  14.326  -6.386  1.00 20.00     0.009 C 
HETATM   11  C7  UNL     1     -36.583  16.271  -5.594  1.00 20.00     0.009 C 
ENDBRANCH   8   9
ENDBRANCH   7   8
ENDBRANCH   5   7
TORSDOF 3
ENDMDL
MODEL 9
REMARK VINA RESULT:      -4.4     10.924     12.838
REMARK  3 active torsions:
REMARK  status: ('A' for Active; 'I' for Inactive)
REMARK    1  A    between atoms: C5_5  and  C8_8 
REMARK    2  A    between atoms: C8_8  and  C9_9 
REMARK    3  A    between atoms: C9_9  and  C10_10 
ROOT
HETATM    1  C1  UNL     1     -35.795  16.326  -5.979  1.00 20.00     0.131 C 
HETATM    2  C2  UNL     1     -34.802  16.453  -7.106  1.00 20.00     0.079 C 
HETATM    3  C3  UNL     1     -34.854  15.065  -7.731  1.00 20.00     0.008 C 
HETATM    4  C4  UNL     1     -35.165  14.136  -6.566  1.00 20.00     0.013 C 
HETATM    5  C5  UNL     1     -36.224  14.890  -5.760  1.00 20.00     0.055 C 
HETATM    6  O11 UNL     1     -36.199  17.278  -5.322  1.00 20.00    -0.298 OA
ENDROOT
BRANCH   5   7
HETATM    7  C8  UNL     1     -36.246  14.495  -4.296  1.00 20.00     0.012 C 
BRANCH   7   8
HETATM    8  C9  UNL     1     -34.925  13.847  -3.873  1.00 20.00     0.005 C 
BRANCH   8   9
HETATM    9  C10 UNL     1     -34.023  14.779  -3.044  1.00 20.00    -0.023 C 
HETATM   10  C6  UNL     1     -34.878  15.837  -2.339  1.00 20.00     0.009 C 
HETATM   11  C7  UNL     1     -32.952  15.464  -3.893  1.00 20.00     0.009 C 
ENDBRANCH   8   9
ENDBRANCH   7   8
ENDBRANCH   5   7
TORSDOF 3
ENDMDL
