MODEL 1
REMARK VINA RESULT:      -4.4      0.000      0.000
REMARK  0 active torsions:
REMARK  status: ('A' for Active; 'I' for Inactive)
ROOT
HETATM    1  C1  UNL     1     -34.337  13.621  -4.810  1.00 20.00     0.225 C 
HETATM    2  C2  UNL     1     -33.263  16.322  -4.398  1.00 20.00     0.021 C 
HETATM    3  C3  UNL     1     -33.880  15.958  -5.740  1.00 20.00     0.020 C 
HETATM    4  C4  UNL     1     -32.562  15.107  -3.825  1.00 20.00     0.122 C 
HETATM    5  C5  UNL     1     -34.898  14.808  -5.609  1.00 20.00     0.034 C 
HETATM    6  C6  UNL     1     -35.287  14.332  -7.019  1.00 20.00     0.025 C 
HETATM    7  C7  UNL     1     -36.170  15.283  -4.882  1.00 20.00     0.025 C 
HETATM    8  N8  UNL     1     -33.367  13.903  -3.871  1.00 20.00    -0.360 N 
HETATM    9  O9  UNL     1     -34.803  12.486  -4.931  1.00 20.00    -0.273 OA
HETATM   10  H22 UNL     1     -33.204  13.208  -3.148  1.00 20.00     0.162 HD
ENDROOT
TORSDOF 0
ENDMDL
MODEL 2
REMARK VINA RESULT:      -4.4      2.059      2.517
REMARK  0 active torsions:
REMARK  status: ('A' for Active; 'I' for Inactive)
ROOT
HETATM    1  C1  UNL     1     -36.062  14.759  -3.557  1.00 20.00     0.225 C 
HETATM    2  C2  UNL     1     -33.686  16.315  -2.814  1.00 20.00     0.021 C 
HETATM    3  C3  UNL     1     -33.515  14.974  -3.513  1.00 20.00     0.020 C 
HETATM    4  C4  UNL     1     -34.894  16.252  -1.903  1.00 20.00     0.122 C 
HETATM    5  C5  UNL     1     -34.754  14.603  -4.349  1.00 20.00     0.034 C 
HETATM    6  C6  UNL     1     -34.614  13.144  -4.816  1.00 20.00     0.025 C 
HETATM    7  C7  UNL     1     -34.866  15.507  -5.591  1.00 20.00     0.025 C 
HETATM    8  N8  UNL     1     -36.069  15.692  -2.542  1.00 20.00    -0.360 N 
HETATM    9  O9  UNL     1     -37.086  14.152  -3.878  1.00 20.00    -0.273 OA
HETATM   10  H22 UNL     1     -36.974  16.016  -2.214  1.00 20.00     0.162 HD
ENDROOT
TORSDOF 0
ENDMDL
MODEL 3
REMARK VINA RESULT:      -4.3      1.972      2.756
REMARK  0 active torsions:
REMARK  status: ('A' for Active; 'I' for Inactive)
ROOT
HETATM    1  C1  UNL     1     -33.511  15.982  -4.985  1.00 20.00     0.225 C 
HETATM    2  C2  UNL     1     -34.551  13.253  -4.688  1.00 20.00     0.021 C 
HETATM    3  C3  UNL     1     -35.506  14.385  -5.035  1.00 20.00     0.020 C 
HETATM    4  C4  UNL     1     -33.466  13.779  -3.772  1.00 20.00     0.122 C 
HETATM    5  C5  UNL     1     -34.782  15.552  -5.734  1.00 20.00     0.034 C 
HETATM    6  C6  UNL     1     -35.747  16.746  -5.826  1.00 20.00     0.025 C 
HETATM    7  C7  UNL     1     -34.355  15.155  -7.160  1.00 20.00     0.025 C 
HETATM    8  N8  UNL     1     -32.872  15.019  -4.233  1.00 20.00    -0.360 N 
HETATM    9  O9  UNL     1     -33.028  17.108  -5.130  1.00 20.00    -0.273 OA
HETATM   10  H22 UNL     1     -31.903  15.191  -3.982  1.00 20.00     0.162 HD
ENDROOT
TORSDOF 0
ENDMDL
MODEL 4
REMARK VINA RESULT:      -4.2      1.937      3.275
REMARK  0 active torsions:
REMARK  status: ('A' for Active; 'I' for Inactive)
ROOT
HETATM    1  C1  UNL     1     -33.281  14.735  -3.735  1.00 20.00     0.225 C 
HETATM    2  C2  UNL     1     -36.135  14.361  -4.314  1.00 20.00     0.021 C 
HETATM    3  C3  UNL     1     -35.716  15.264  -3.162  1.00 20.00     0.020 C 
HETATM    4  C4  UNL     1     -35.158  13.209  -4.425  1.00 20.00     0.122 C 
HETATM    5  C5  UNL     1     -34.296  15.828  -3.364  1.00 20.00     0.034 C 
HETATM    6  C6  UNL     1     -33.850  16.516  -2.063  1.00 20.00     0.025 C 
HETATM    7  C7  UNL     1     -34.277  16.867  -4.501  1.00 20.00     0.025 C 
HETATM    8  N8  UNL     1     -33.770  13.625  -4.391  1.00 20.00    -0.360 N 
HETATM    9  O9  UNL     1     -32.072  14.888  -3.544  1.00 20.00    -0.273 OA
HETATM   10  H22 UNL     1     -33.101  13.050  -4.895  1.00 20.00     0.162 HD
ENDROOT
TORSDOF 0
ENDMDL
MODEL 5
REMARK VINA RESULT:      -4.2      1.459      2.652
REMARK  0 active torsions:
REMARK  status: ('A' for Active; 'I' for Inactive)
ROOT
HETATM    1  C1  UNL     1     -34.736  13.796  -4.765  1.00 20.00     0.225 C 
HETATM    2  C2  UNL     1     -33.965  16.157  -6.330  1.00 20.00     0.021 C 
HETATM    3  C3  UNL     1     -34.471  16.335  -4.906  1.00 20.00     0.020 C 
HETATM    4  C4  UNL     1     -34.690  14.995  -6.976  1.00 20.00     0.122 C 
HETATM    5  C5  UNL     1     -34.247  15.069  -4.056  1.00 20.00     0.034 C 
HETATM    6  C6  UNL     1     -34.999  15.231  -2.724  1.00 20.00     0.025 C 
HETATM    7  C7  UNL     1     -32.750  14.872  -3.754  1.00 20.00     0.025 C 
HETATM    8  N8  UNL     1     -34.734  13.809  -6.143  1.00 20.00    -0.360 N 
HETATM    9  O9  UNL     1     -35.021  12.776  -4.132  1.00 20.00    -0.273 OA
HETATM   10  H22 UNL     1     -34.765  12.910  -6.617  1.00 20.00     0.162 HD
ENDROOT
TORSDOF 0
ENDMDL
MODEL 6
REMARK VINA RESULT:      -4.1      2.058      2.770
REMARK  0 active torsions:
REMARK  status: ('A' for Active; 'I' for Inactive)
ROOT
HETATM    1  C1  UNL     1     -34.085  15.526  -5.078  1.00 20.00     0.225 C 
HETATM    2  C2  UNL     1     -33.801  16.502  -2.323  1.00 20.00     0.021 C 
HETATM    3  C3  UNL     1     -34.788  15.383  -2.624  1.00 20.00     0.020 C 
HETATM    4  C4  UNL     1     -33.757  17.456  -3.499  1.00 20.00     0.122 C 
HETATM    5  C5  UNL     1     -34.396  14.599  -3.891  1.00 20.00     0.034 C 
HETATM    6  C6  UNL     1     -35.556  13.662  -4.269  1.00 20.00     0.025 C 
HETATM    7  C7  UNL     1     -33.138  13.747  -3.641  1.00 20.00     0.025 C 
HETATM    8  N8  UNL     1     -33.620  16.789  -4.778  1.00 20.00    -0.360 N 
HETATM    9  O9  UNL     1     -34.152  15.125  -6.242  1.00 20.00    -0.273 OA
HETATM   10  H22 UNL     1     -33.140  17.295  -5.517  1.00 20.00     0.162 HD
ENDROOT
TORSDOF 0
ENDMDL
MODEL 7
REMARK VINA RESULT:      -4.1      1.699      2.897
REMARK  0 active torsions:
REMARK  status: ('A' for Active; 'I' for Inactive)
ROOT
HETATM    1  C1  UNL     1     -35.142  13.721  -4.333  1.00 20.00     0.225 C 
HETATM    2  C2  UNL     1     -35.923  16.311  -3.192  1.00 20.00     0.021 C 
HETATM    3  C3  UNL     1     -34.550  15.736  -2.876  1.00 20.00     0.020 C 
HETATM    4  C4  UNL     1     -36.922  15.179  -3.315  1.00 20.00     0.122 C 
HETATM    5  C5  UNL     1     -34.071  14.762  -3.969  1.00 20.00     0.034 C 
HETATM    6  C6  UNL     1     -32.810  14.039  -3.466  1.00 20.00     0.025 C 
HETATM    7  C7  UNL     1     -33.720  15.521  -5.262  1.00 20.00     0.025 C 
HETATM    8  N8  UNL     1     -36.459  14.090  -4.152  1.00 20.00    -0.360 N 
HETATM    9  O9  UNL     1     -34.843  12.645  -4.856  1.00 20.00    -0.273 OA
HETATM   10  H22 UNL     1     -37.164  13.555  -4.649  1.00 20.00     0.162 HD
ENDROOT
TORSDOF 0
ENDMDL
MODEL 8
REMARK VINA RESULT:      -4.0      1.908      2.372
REMARK  0 active torsions:
REMARK  status: ('A' for Active; 'I' for Inactive)
ROOT
HETATM    1  C1  UNL     1     -35.848  14.295  -3.843  1.00 20.00     0.225 C 
HETATM    2  C2  UNL     1     -32.940  14.669  -3.703  1.00 20.00     0.021 C 
HETATM    3  C3  UNL     1     -33.812  15.781  -4.268  1.00 20.00     0.020 C 
HETATM    4  C4  UNL     1     -33.537  13.328  -4.075  1.00 20.00     0.122 C 
HETATM    5  C5  UNL     1     -35.254  15.707  -3.729  1.00 20.00     0.034 C 
HETATM    6  C6  UNL     1     -36.128  16.692  -4.525  1.00 20.00     0.025 C 
HETATM    7  C7  UNL     1     -35.302  16.100  -2.241  1.00 20.00     0.025 C 
HETATM    8  N8  UNL     1     -34.961  13.240  -3.816  1.00 20.00    -0.360 N 
HETATM    9  O9  UNL     1     -37.067  14.108  -3.857  1.00 20.00    -0.273 OA
HETATM   10  H22 UNL     1     -35.336  12.322  -3.595  1.00 20.00     0.162 HD
ENDROOT
TORSDOF 0
ENDMDL
MODEL 9
REMARK VINA RESULT:      -4.0      2.199      3.521
REMARK  0 active torsions:
REMARK  status: ('A' for Active; 'I' for Inactive)
ROOT
HETATM    1  C1  UNL     1     -33.932  16.016  -4.861  1.00 20.00     0.225 C 
HETATM    2  C2  UNL     1     -36.242  14.324  -4.215  1.00 20.00     0.021 C 
HETATM    3  C3  UNL     1     -34.846  13.869  -3.817  1.00 20.00     0.020 C 
HETATM    4  C4  UNL     1     -36.167  15.074  -5.529  1.00 20.00     0.122 C 
HETATM    5  C5  UNL     1     -33.879  15.058  -3.659  1.00 20.00     0.034 C 
HETATM    6  C6  UNL     1     -32.449  14.513  -3.506  1.00 20.00     0.025 C 
HETATM    7  C7  UNL     1     -34.228  15.884  -2.407  1.00 20.00     0.025 C 
HETATM    8  N8  UNL     1     -35.118  16.074  -5.562  1.00 20.00    -0.360 N 
HETATM    9  O9  UNL     1     -32.992  16.770  -5.124  1.00 20.00    -0.273 OA
HETATM   10  H22 UNL     1     -35.270  16.888  -6.150  1.00 20.00     0.162 HD
ENDROOT
TORSDOF 0
ENDMDL
