MODEL 1
REMARK VINA RESULT:      -6.1      0.000      0.000
REMARK  1 active torsions:
REMARK  status: ('A' for Active; 'I' for Inactive)
REMARK    1  A    between atoms: C7_7  and  C8_8 
ROOT
HETATM    1  C1  UNL     1     -32.132   8.549   1.678  1.00 20.00     0.012 C 
HETATM    2  C2  UNL     1     -32.222   7.731   2.552  1.00 20.00    -0.117 C 
HETATM    3  C8  UNL     1     -32.331   6.730   3.624  1.00 20.00     0.105 C 
ENDROOT
BRANCH   3   4
HETATM    4  C7  UNL     1     -33.774   6.509   4.030  1.00 20.00     0.066 C 
HETATM    5  C3  UNL     1     -33.938   6.241   5.512  1.00 20.00     0.132 C 
HETATM    6  C4  UNL     1     -34.881   5.096   5.778  1.00 20.00     0.079 C 
HETATM    7  O9  UNL     1     -33.373   6.872   6.397  1.00 20.00    -0.298 OA
HETATM    8  C5  UNL     1     -35.486   4.858   4.400  1.00 20.00     0.008 C 
HETATM    9  C6  UNL     1     -34.377   5.239   3.429  1.00 20.00     0.013 C 
ENDBRANCH   3   4
TORSDOF 1
ENDMDL
MODEL 2
REMARK VINA RESULT:      -5.0      1.649      2.201
REMARK  1 active torsions:
REMARK  status: ('A' for Active; 'I' for Inactive)
REMARK    1  A    between atoms: C7_7  and  C8_8 
ROOT
HETATM    1  C1  UNL     1     -32.071   7.815   2.401  1.00 20.00     0.012 C 
HETATM    2  C2  UNL     1     -32.812   6.919   2.704  1.00 20.00    -0.117 C 
HETATM    3  C8  UNL     1     -33.717   5.822   3.074  1.00 20.00     0.105 C 
ENDROOT
BRANCH   3   4
HETATM    4  C7  UNL     1     -33.593   5.473   4.543  1.00 20.00     0.066 C 
HETATM    5  C3  UNL     1     -34.695   4.555   5.028  1.00 20.00     0.132 C 
HETATM    6  C4  UNL     1     -35.259   4.999   6.353  1.00 20.00     0.079 C 
HETATM    7  O9  UNL     1     -35.090   3.566   4.421  1.00 20.00    -0.298 OA
HETATM    8  C5  UNL     1     -34.267   6.075   6.774  1.00 20.00     0.008 C 
HETATM    9  C6  UNL     1     -33.785   6.680   5.462  1.00 20.00     0.013 C 
ENDBRANCH   3   4
TORSDOF 1
ENDMDL
MODEL 3
REMARK VINA RESULT:      -4.9      1.314      1.603
REMARK  1 active torsions:
REMARK  status: ('A' for Active; 'I' for Inactive)
REMARK    1  A    between atoms: C7_7  and  C8_8 
ROOT
HETATM    1  C1  UNL     1     -31.861   5.951   3.034  1.00 20.00     0.012 C 
HETATM    2  C2  UNL     1     -32.921   6.422   3.342  1.00 20.00    -0.117 C 
HETATM    3  C8  UNL     1     -34.220   6.999   3.719  1.00 20.00     0.105 C 
ENDROOT
BRANCH   3   4
HETATM    4  C7  UNL     1     -34.944   6.126   4.723  1.00 20.00     0.066 C 
HETATM    5  C3  UNL     1     -34.223   6.028   6.051  1.00 20.00     0.132 C 
HETATM    6  C4  UNL     1     -34.178   4.613   6.568  1.00 20.00     0.079 C 
HETATM    7  O9  UNL     1     -33.729   6.981   6.643  1.00 20.00    -0.298 OA
HETATM    8  C5  UNL     1     -35.137   3.901   5.621  1.00 20.00     0.008 C 
HETATM    9  C6  UNL     1     -35.000   4.656   4.306  1.00 20.00     0.013 C 
ENDBRANCH   3   4
TORSDOF 1
ENDMDL
MODEL 4
REMARK VINA RESULT:      -4.6     11.257     11.951
REMARK  1 active torsions:
REMARK  status: ('A' for Active; 'I' for Inactive)
REMARK    1  A    between atoms: C7_7  and  C8_8 
ROOT
HETATM    1  C1  UNL     1     -34.781  17.001  -0.324  1.00 20.00     0.012 C 
HETATM    2  C2  UNL     1     -34.345  16.524  -1.335  1.00 20.00    -0.117 C 
HETATM    3  C8  UNL     1     -33.809  15.939  -2.573  1.00 20.00     0.105 C 
ENDROOT
BRANCH   3   4
HETATM    4  C7  UNL     1     -34.825  15.038  -3.245  1.00 20.00     0.066 C 
HETATM    5  C3  UNL     1     -34.188  13.925  -4.051  1.00 20.00     0.132 C 
HETATM    6  C4  UNL     1     -34.843  13.756  -5.398  1.00 20.00     0.079 C 
HETATM    7  O9  UNL     1     -33.250  13.239  -3.663  1.00 20.00    -0.298 OA
HETATM    8  C5  UNL     1     -36.076  14.640  -5.263  1.00 20.00     0.008 C 
HETATM    9  C6  UNL     1     -35.641  15.755  -4.321  1.00 20.00     0.013 C 
ENDBRANCH   3   4
TORSDOF 1
ENDMDL
MODEL 5
REMARK VINA RESULT:      -4.5     11.261     12.168
REMARK  1 active torsions:
REMARK  status: ('A' for Active; 'I' for Inactive)
REMARK    1  A    between atoms: C7_7  and  C8_8 
ROOT
HETATM    1  C1  UNL     1     -34.691  15.145  -7.059  1.00 20.00     0.012 C 
HETATM    2  C2  UNL     1     -34.675  14.304  -6.202  1.00 20.00    -0.117 C 
HETATM    3  C8  UNL     1     -34.655  13.274  -5.154  1.00 20.00     0.105 C 
ENDROOT
BRANCH   3   4
HETATM    4  C7  UNL     1     -34.779  13.886  -3.773  1.00 20.00     0.066 C 
HETATM    5  C3  UNL     1     -36.091  14.612  -3.564  1.00 20.00     0.132 C 
HETATM    6  C4  UNL     1     -35.897  15.947  -2.890  1.00 20.00     0.079 C 
HETATM    7  O9  UNL     1     -37.186  14.177  -3.900  1.00 20.00    -0.298 OA
HETATM    8  C5  UNL     1     -34.436  15.875  -2.462  1.00 20.00     0.008 C 
HETATM    9  C6  UNL     1     -33.772  15.010  -3.525  1.00 20.00     0.013 C 
ENDBRANCH   3   4
TORSDOF 1
ENDMDL
MODEL 6
REMARK VINA RESULT:      -4.4     11.586     12.395
REMARK  1 active torsions:
REMARK  status: ('A' for Active; 'I' for Inactive)
REMARK    1  A    between atoms: C7_7  and  C8_8 
ROOT
HETATM    1  C1  UNL     1     -34.787  17.102   0.075  1.00 20.00     0.012 C 
HETATM    2  C2  UNL     1     -34.374  17.127  -1.053  1.00 20.00    -0.117 C 
HETATM    3  C8  UNL     1     -33.868  17.159  -2.432  1.00 20.00     0.105 C 
ENDROOT
BRANCH   3   4
HETATM    4  C7  UNL     1     -33.690  15.761  -2.990  1.00 20.00     0.066 C 
HETATM    5  C3  UNL     1     -33.509  15.743  -4.493  1.00 20.00     0.132 C 
HETATM    6  C4  UNL     1     -34.336  14.667  -5.149  1.00 20.00     0.079 C 
HETATM    7  O9  UNL     1     -32.779  16.508  -5.113  1.00 20.00    -0.298 OA
HETATM    8  C5  UNL     1     -34.821  13.864  -3.948  1.00 20.00     0.008 C 
HETATM    9  C6  UNL     1     -34.937  14.891  -2.829  1.00 20.00     0.013 C 
ENDBRANCH   3   4
TORSDOF 1
ENDMDL
MODEL 7
REMARK VINA RESULT:      -4.4     10.996     11.968
REMARK  1 active torsions:
REMARK  status: ('A' for Active; 'I' for Inactive)
REMARK    1  A    between atoms: C7_7  and  C8_8 
ROOT
HETATM    1  C1  UNL     1     -33.402  17.313  -5.334  1.00 20.00     0.012 C 
HETATM    2  C2  UNL     1     -33.445  16.783  -4.258  1.00 20.00    -0.117 C 
HETATM    3  C8  UNL     1     -33.498  16.135  -2.939  1.00 20.00     0.105 C 
ENDROOT
BRANCH   3   4
HETATM    4  C7  UNL     1     -34.594  15.090  -2.879  1.00 20.00     0.066 C 
HETATM    5  C3  UNL     1     -34.274  13.850  -3.688  1.00 20.00     0.132 C 
HETATM    6  C4  UNL     1     -35.453  13.390  -4.507  1.00 20.00     0.079 C 
HETATM    7  O9  UNL     1     -33.189  13.281  -3.684  1.00 20.00    -0.298 OA
HETATM    8  C5  UNL     1     -36.579  14.253  -3.953  1.00 20.00     0.008 C 
HETATM    9  C6  UNL     1     -35.894  15.549  -3.540  1.00 20.00     0.013 C 
ENDBRANCH   3   4
TORSDOF 1
ENDMDL
MODEL 8
REMARK VINA RESULT:      -4.2     11.379     12.296
REMARK  1 active torsions:
REMARK  status: ('A' for Active; 'I' for Inactive)
REMARK    1  A    between atoms: C7_7  and  C8_8 
ROOT
HETATM    1  C1  UNL     1     -34.534  16.644  -0.937  1.00 20.00     0.012 C 
HETATM    2  C2  UNL     1     -34.180  16.837  -2.068  1.00 20.00    -0.117 C 
HETATM    3  C8  UNL     1     -33.746  17.075  -3.452  1.00 20.00     0.105 C 
ENDROOT
BRANCH   3   4
HETATM    4  C7  UNL     1     -33.791  15.802  -4.273  1.00 20.00     0.066 C 
HETATM    5  C3  UNL     1     -35.194  15.261  -4.450  1.00 20.00     0.132 C 
HETATM    6  C4  UNL     1     -35.256  13.770  -4.235  1.00 20.00     0.079 C 
HETATM    7  O9  UNL     1     -36.170  15.945  -4.735  1.00 20.00    -0.298 OA
HETATM    8  C5  UNL     1     -33.780  13.396  -4.180  1.00 20.00     0.008 C 
HETATM    9  C6  UNL     1     -33.101  14.623  -3.585  1.00 20.00     0.013 C 
ENDBRANCH   3   4
TORSDOF 1
ENDMDL
MODEL 9
REMARK VINA RESULT:      -4.2     11.324     12.944
REMARK  1 active torsions:
REMARK  status: ('A' for Active; 'I' for Inactive)
REMARK    1  A    between atoms: C7_7  and  C8_8 
ROOT
HETATM    1  C1  UNL     1     -37.621  15.809  -5.645  1.00 20.00     0.012 C 
HETATM    2  C2  UNL     1     -36.712  15.214  -6.157  1.00 20.00    -0.117 C 
HETATM    3  C8  UNL     1     -35.599  14.488  -6.786  1.00 20.00     0.105 C 
ENDROOT
BRANCH   3   4
HETATM    4  C7  UNL     1     -34.357  14.520  -5.919  1.00 20.00     0.066 C 
HETATM    5  C3  UNL     1     -34.521  13.759  -4.620  1.00 20.00     0.132 C 
HETATM    6  C4  UNL     1     -33.976  14.527  -3.443  1.00 20.00     0.079 C 
HETATM    7  O9  UNL     1     -35.037  12.652  -4.526  1.00 20.00    -0.298 OA
HETATM    8  C5  UNL     1     -33.235  15.669  -4.126  1.00 20.00     0.008 C 
HETATM    9  C6  UNL     1     -34.024  15.921  -5.404  1.00 20.00     0.013 C 
ENDBRANCH   3   4
TORSDOF 1
ENDMDL
