MODEL 1
REMARK VINA RESULT:      -4.7      0.000      0.000
REMARK  3 active torsions:
REMARK  status: ('A' for Active; 'I' for Inactive)
REMARK    1  A    between atoms: C3_3  and  C4_4 
REMARK    2  A    between atoms: C3_3  and  C5_5 
REMARK    3  A    between atoms: C4_4  and  N6_6 
ROOT
HETATM    1  C3  UNL     1     -33.723   6.891   3.784  1.00 20.00     0.152 C 
ENDROOT
BRANCH   1   2
HETATM    2  C4  UNL     1     -33.868   5.856   4.913  1.00 20.00     0.224 C 
HETATM    3  C1  UNL     1     -33.961   6.554   6.269  1.00 20.00     0.043 C 
BRANCH   2   4
HETATM    4  N6  UNL     1     -35.058   5.028   4.728  1.00 20.00     0.083 N 
HETATM    5  C2  UNL     1     -35.092   3.949   5.704  1.00 20.00     0.307 C 
HETATM    6  H19 UNL     1     -35.045   4.636   3.789  1.00 20.00     0.315 HD
ENDBRANCH   2   4
ENDBRANCH   1   2
BRANCH   1   7
HETATM    7  C5  UNL     1     -32.340   6.938   3.165  1.00 20.00     0.389 C 
HETATM    8  F7  UNL     1     -31.444   7.544   3.971  1.00 20.00    -0.171 F 
HETATM    9  F8  UNL     1     -32.370   7.629   2.002  1.00 20.00    -0.171 F 
HETATM   10  F9  UNL     1     -31.884   5.697   2.888  1.00 20.00    -0.171 F 
ENDBRANCH   1   7
TORSDOF 3
ENDMDL
MODEL 2
REMARK VINA RESULT:      -4.5      3.060      4.177
REMARK  3 active torsions:
REMARK  status: ('A' for Active; 'I' for Inactive)
REMARK    1  A    between atoms: C3_3  and  C4_4 
REMARK    2  A    between atoms: C3_3  and  C5_5 
REMARK    3  A    between atoms: C4_4  and  N6_6 
ROOT
HETATM    1  C3  UNL     1     -33.905   6.417   5.044  1.00 20.00     0.152 C 
ENDROOT
BRANCH   1   2
HETATM    2  C4  UNL     1     -32.947   5.985   3.921  1.00 20.00     0.224 C 
HETATM    3  C1  UNL     1     -33.723   5.706   2.634  1.00 20.00     0.043 C 
BRANCH   2   4
HETATM    4  N6  UNL     1     -31.944   7.014   3.651  1.00 20.00     0.083 N 
HETATM    5  C2  UNL     1     -32.244   7.713   2.410  1.00 20.00     0.307 C 
HETATM    6  H19 UNL     1     -31.030   6.572   3.579  1.00 20.00     0.315 HD
ENDBRANCH   2   4
ENDBRANCH   1   2
BRANCH   1   7
HETATM    7  C5  UNL     1     -34.679   5.272   5.670  1.00 20.00     0.389 C 
HETATM    8  F7  UNL     1     -35.763   4.936   4.941  1.00 20.00    -0.171 F 
HETATM    9  F8  UNL     1     -35.111   5.617   6.904  1.00 20.00    -0.171 F 
HETATM   10  F9  UNL     1     -33.905   4.173   5.802  1.00 20.00    -0.171 F 
ENDBRANCH   1   7
TORSDOF 3
ENDMDL
MODEL 3
REMARK VINA RESULT:      -4.3      3.128      4.307
REMARK  3 active torsions:
REMARK  status: ('A' for Active; 'I' for Inactive)
REMARK    1  A    between atoms: C3_3  and  C4_4 
REMARK    2  A    between atoms: C3_3  and  C5_5 
REMARK    3  A    between atoms: C4_4  and  N6_6 
ROOT
HETATM    1  C3  UNL     1     -35.213   5.061   4.690  1.00 20.00     0.152 C 
ENDROOT
BRANCH   1   2
HETATM    2  C4  UNL     1     -33.985   5.338   3.806  1.00 20.00     0.224 C 
HETATM    3  C1  UNL     1     -34.374   5.319   2.329  1.00 20.00     0.043 C 
BRANCH   2   4
HETATM    4  N6  UNL     1     -33.385   6.634   4.118  1.00 20.00     0.083 N 
HETATM    5  C2  UNL     1     -32.194   6.857   3.311  1.00 20.00     0.307 C 
HETATM    6  H19 UNL     1     -33.135   6.654   5.104  1.00 20.00     0.315 HD
ENDBRANCH   2   4
ENDBRANCH   1   2
BRANCH   1   7
HETATM    7  C5  UNL     1     -34.877   4.786   6.143  1.00 20.00     0.389 C 
HETATM    8  F7  UNL     1     -33.693   4.154   6.279  1.00 20.00    -0.171 F 
HETATM    9  F8  UNL     1     -35.823   3.997   6.701  1.00 20.00    -0.171 F 
HETATM   10  F9  UNL     1     -34.828   5.930   6.860  1.00 20.00    -0.171 F 
ENDBRANCH   1   7
TORSDOF 3
ENDMDL
MODEL 4
REMARK VINA RESULT:      -4.3      3.166      4.291
REMARK  3 active torsions:
REMARK  status: ('A' for Active; 'I' for Inactive)
REMARK    1  A    between atoms: C3_3  and  C4_4 
REMARK    2  A    between atoms: C3_3  and  C5_5 
REMARK    3  A    between atoms: C4_4  and  N6_6 
ROOT
HETATM    1  C3  UNL     1     -34.503   5.765   5.140  1.00 20.00     0.152 C 
ENDROOT
BRANCH   1   2
HETATM    2  C4  UNL     1     -33.441   5.711   4.029  1.00 20.00     0.224 C 
HETATM    3  C1  UNL     1     -34.105   5.592   2.658  1.00 20.00     0.043 C 
BRANCH   2   4
HETATM    4  N6  UNL     1     -32.596   6.903   4.040  1.00 20.00     0.083 N 
HETATM    5  C2  UNL     1     -32.272   7.317   2.683  1.00 20.00     0.307 C 
HETATM    6  H19 UNL     1     -31.737   6.694   4.546  1.00 20.00     0.315 HD
ENDBRANCH   2   4
ENDBRANCH   1   2
BRANCH   1   7
HETATM    7  C5  UNL     1     -34.787   4.424   5.789  1.00 20.00     0.389 C 
HETATM    8  F7  UNL     1     -35.734   4.515   6.745  1.00 20.00    -0.171 F 
HETATM    9  F8  UNL     1     -33.667   3.940   6.372  1.00 20.00    -0.171 F 
HETATM   10  F9  UNL     1     -35.196   3.516   4.877  1.00 20.00    -0.171 F 
ENDBRANCH   1   7
TORSDOF 3
ENDMDL
MODEL 5
REMARK VINA RESULT:      -4.3      1.347      2.064
REMARK  3 active torsions:
REMARK  status: ('A' for Active; 'I' for Inactive)
REMARK    1  A    between atoms: C3_3  and  C4_4 
REMARK    2  A    between atoms: C3_3  and  C5_5 
REMARK    3  A    between atoms: C4_4  and  N6_6 
ROOT
HETATM    1  C3  UNL     1     -32.852   6.204   3.173  1.00 20.00     0.152 C 
ENDROOT
BRANCH   1   2
HETATM    2  C4  UNL     1     -34.094   6.380   4.063  1.00 20.00     0.224 C 
HETATM    3  C1  UNL     1     -35.096   5.254   3.811  1.00 20.00     0.043 C 
BRANCH   2   4
HETATM    4  N6  UNL     1     -33.739   6.385   5.481  1.00 20.00     0.083 N 
HETATM    5  C2  UNL     1     -34.576   5.455   6.224  1.00 20.00     0.307 C 
HETATM    6  H19 UNL     1     -33.866   7.325   5.849  1.00 20.00     0.315 HD
ENDBRANCH   2   4
ENDBRANCH   1   2
BRANCH   1   7
HETATM    7  C5  UNL     1     -32.164   7.506   2.810  1.00 20.00     0.389 C 
HETATM    8  F7  UNL     1     -31.527   7.428   1.624  1.00 20.00    -0.171 F 
HETATM    9  F8  UNL     1     -31.241   7.825   3.745  1.00 20.00    -0.171 F 
HETATM   10  F9  UNL     1     -33.047   8.526   2.747  1.00 20.00    -0.171 F 
ENDBRANCH   1   7
TORSDOF 3
ENDMDL
MODEL 6
REMARK VINA RESULT:      -4.0      1.375      2.214
REMARK  3 active torsions:
REMARK  status: ('A' for Active; 'I' for Inactive)
REMARK    1  A    between atoms: C3_3  and  C4_4 
REMARK    2  A    between atoms: C3_3  and  C5_5 
REMARK    3  A    between atoms: C4_4  and  N6_6 
ROOT
HETATM    1  C3  UNL     1     -33.199   5.515   4.598  1.00 20.00     0.152 C 
ENDROOT
BRANCH   1   2
HETATM    2  C4  UNL     1     -34.572   5.382   5.279  1.00 20.00     0.224 C 
HETATM    3  C1  UNL     1     -34.978   3.912   5.381  1.00 20.00     0.043 C 
BRANCH   2   4
HETATM    4  N6  UNL     1     -34.560   5.960   6.621  1.00 20.00     0.083 N 
HETATM    5  C2  UNL     1     -33.664   7.105   6.681  1.00 20.00     0.307 C 
HETATM    6  H19 UNL     1     -34.250   5.251   7.283  1.00 20.00     0.315 HD
ENDBRANCH   2   4
ENDBRANCH   1   2
BRANCH   1   7
HETATM    7  C5  UNL     1     -33.256   6.116   3.207  1.00 20.00     0.389 C 
HETATM    8  F7  UNL     1     -32.032   6.216   2.649  1.00 20.00    -0.171 F 
HETATM    9  F8  UNL     1     -33.781   7.361   3.256  1.00 20.00    -0.171 F 
HETATM   10  F9  UNL     1     -34.034   5.379   2.386  1.00 20.00    -0.171 F 
ENDBRANCH   1   7
TORSDOF 3
ENDMDL
MODEL 7
REMARK VINA RESULT:      -3.9     11.424     12.042
REMARK  3 active torsions:
REMARK  status: ('A' for Active; 'I' for Inactive)
REMARK    1  A    between atoms: C3_3  and  C4_4 
REMARK    2  A    between atoms: C3_3  and  C5_5 
REMARK    3  A    between atoms: C4_4  and  N6_6 
ROOT
HETATM    1  C3  UNL     1     -33.752  15.995  -3.000  1.00 20.00     0.152 C 
ENDROOT
BRANCH   1   2
HETATM    2  C4  UNL     1     -34.867  15.895  -1.945  1.00 20.00     0.224 C 
HETATM    3  C1  UNL     1     -34.535  16.764  -0.733  1.00 20.00     0.043 C 
BRANCH   2   4
HETATM    4  N6  UNL     1     -36.156  16.320  -2.489  1.00 20.00     0.083 N 
HETATM    5  C2  UNL     1     -35.982  17.418  -3.428  1.00 20.00     0.307 C 
HETATM    6  H19 UNL     1     -36.754  16.620  -1.722  1.00 20.00     0.315 HD
ENDBRANCH   2   4
ENDBRANCH   1   2
BRANCH   1   7
HETATM    7  C5  UNL     1     -33.427  14.680  -3.680  1.00 20.00     0.389 C 
HETATM    8  F7  UNL     1     -33.705  14.710  -5.000  1.00 20.00    -0.171 F 
HETATM    9  F8  UNL     1     -34.156  13.678  -3.137  1.00 20.00    -0.171 F 
HETATM   10  F9  UNL     1     -32.123  14.360  -3.532  1.00 20.00    -0.171 F 
ENDBRANCH   1   7
TORSDOF 3
ENDMDL
MODEL 8
REMARK VINA RESULT:      -3.8     11.430     11.991
REMARK  3 active torsions:
REMARK  status: ('A' for Active; 'I' for Inactive)
REMARK    1  A    between atoms: C3_3  and  C4_4 
REMARK    2  A    between atoms: C3_3  and  C5_5 
REMARK    3  A    between atoms: C4_4  and  N6_6 
ROOT
HETATM    1  C3  UNL     1     -33.739  15.991  -3.008  1.00 20.00     0.152 C 
ENDROOT
BRANCH   1   2
HETATM    2  C4  UNL     1     -34.829  15.914  -1.925  1.00 20.00     0.224 C 
HETATM    3  C1  UNL     1     -34.486  16.835  -0.755  1.00 20.00     0.043 C 
BRANCH   2   4
HETATM    4  N6  UNL     1     -36.136  16.297  -2.457  1.00 20.00     0.083 N 
HETATM    5  C2  UNL     1     -35.998  17.339  -3.463  1.00 20.00     0.307 C 
HETATM    6  H19 UNL     1     -36.716  16.638  -1.693  1.00 20.00     0.315 HD
ENDBRANCH   2   4
ENDBRANCH   1   2
BRANCH   1   7
HETATM    7  C5  UNL     1     -33.436  14.662  -3.673  1.00 20.00     0.389 C 
HETATM    8  F7  UNL     1     -32.139  14.315  -3.542  1.00 20.00    -0.171 F 
HETATM    9  F8  UNL     1     -33.706  14.728  -4.996  1.00 20.00    -0.171 F 
HETATM   10  F9  UNL     1     -34.191  13.670  -3.153  1.00 20.00    -0.171 F 
ENDBRANCH   1   7
TORSDOF 3
ENDMDL
MODEL 9
REMARK VINA RESULT:      -3.8     11.578     12.558
REMARK  3 active torsions:
REMARK  status: ('A' for Active; 'I' for Inactive)
REMARK    1  A    between atoms: C3_3  and  C4_4 
REMARK    2  A    between atoms: C3_3  and  C5_5 
REMARK    3  A    between atoms: C4_4  and  N6_6 
ROOT
HETATM    1  C3  UNL     1     -34.595  15.648  -2.862  1.00 20.00     0.152 C 
ENDROOT
BRANCH   1   2
HETATM    2  C4  UNL     1     -33.268  15.158  -3.465  1.00 20.00     0.224 C 
HETATM    3  C1  UNL     1     -33.346  13.667  -3.791  1.00 20.00     0.043 C 
BRANCH   2   4
HETATM    4  N6  UNL     1     -32.935  15.889  -4.687  1.00 20.00     0.083 N 
HETATM    5  C2  UNL     1     -34.090  15.968  -5.570  1.00 20.00     0.307 C 
HETATM    6  H19 UNL     1     -32.176  15.408  -5.163  1.00 20.00     0.315 HD
ENDBRANCH   2   4
ENDBRANCH   1   2
BRANCH   1   7
HETATM    7  C5  UNL     1     -34.428  16.645  -1.731  1.00 20.00     0.389 C 
HETATM    8  F7  UNL     1     -34.831  16.141  -0.547  1.00 20.00    -0.171 F 
HETATM    9  F8  UNL     1     -35.165  17.753  -1.971  1.00 20.00    -0.171 F 
HETATM   10  F9  UNL     1     -33.140  17.033  -1.607  1.00 20.00    -0.171 F 
ENDBRANCH   1   7
TORSDOF 3
ENDMDL
