MODEL 1
REMARK VINA RESULT:      -4.1      0.000      0.000
REMARK  1 active torsions:
REMARK  status: ('A' for Active; 'I' for Inactive)
REMARK    1  A    between atoms: C7_7  and  N9_9 
ROOT
HETATM    1  C1  UNL     1     -34.337  13.604  -4.169  1.00 20.00     0.089 C 
HETATM    2  C7  UNL     1     -33.577  14.752  -3.677  1.00 20.00     0.395 C 
HETATM    3  N8  UNL     1     -34.937  12.690  -4.559  1.00 20.00    -0.195 NA
ENDROOT
BRANCH   2   4
HETATM    4  N9  UNL     1     -34.390  15.965  -3.706  1.00 20.00     0.102 N 
HETATM    5  C3  UNL     1     -35.245  16.091  -2.527  1.00 20.00     0.274 C 
HETATM    6  C2  UNL     1     -34.573  16.438  -1.195  1.00 20.00     0.040 C 
HETATM    7  C5  UNL     1     -33.692  17.684  -1.151  1.00 20.00     0.075 C 
HETATM    8  S10 UNL     1     -34.316  19.110  -2.091  1.00 20.00    -0.167 SA
HETATM    9  C6  UNL     1     -34.225  18.501  -3.817  1.00 20.00     0.104 C 
HETATM   10  C4  UNL     1     -33.573  17.134  -4.048  1.00 20.00     0.283 C 
ENDBRANCH   2   4
TORSDOF 1
ENDMDL
MODEL 2
REMARK VINA RESULT:      -4.0      0.827      2.160
REMARK  1 active torsions:
REMARK  status: ('A' for Active; 'I' for Inactive)
REMARK    1  A    between atoms: C7_7  and  N9_9 
ROOT
HETATM    1  C1  UNL     1     -35.071  13.685  -4.134  1.00 20.00     0.089 C 
HETATM    2  C7  UNL     1     -35.511  14.890  -3.432  1.00 20.00     0.395 C 
HETATM    3  N8  UNL     1     -34.725  12.729  -4.693  1.00 20.00    -0.195 NA
ENDROOT
BRANCH   2   4
HETATM    4  N9  UNL     1     -34.390  15.535  -2.752  1.00 20.00     0.102 N 
HETATM    5  C3  UNL     1     -33.470  16.182  -3.686  1.00 20.00     0.274 C 
HETATM    6  C2  UNL     1     -33.941  17.468  -4.371  1.00 20.00     0.040 C 
HETATM    7  C5  UNL     1     -34.429  18.608  -3.479  1.00 20.00     0.075 C 
HETATM    8  S10 UNL     1     -33.479  18.855  -1.948  1.00 20.00    -0.167 SA
HETATM    9  C6  UNL     1     -33.835  17.314  -1.022  1.00 20.00     0.104 C 
HETATM   10  C4  UNL     1     -34.860  16.350  -1.628  1.00 20.00     0.283 C 
ENDBRANCH   2   4
TORSDOF 1
ENDMDL
MODEL 3
REMARK VINA RESULT:      -3.8      2.624      4.282
REMARK  1 active torsions:
REMARK  status: ('A' for Active; 'I' for Inactive)
REMARK    1  A    between atoms: C7_7  and  N9_9 
ROOT
HETATM    1  C1  UNL     1     -34.107  17.042  -1.055  1.00 20.00     0.089 C 
HETATM    2  C7  UNL     1     -34.770  16.014  -1.856  1.00 20.00     0.395 C 
HETATM    3  N8  UNL     1     -33.583  17.857  -0.417  1.00 20.00    -0.195 NA
ENDROOT
BRANCH   2   4
HETATM    4  N9  UNL     1     -34.431  16.157  -3.270  1.00 20.00     0.102 N 
HETATM    5  C3  UNL     1     -33.359  15.252  -3.681  1.00 20.00     0.274 C 
HETATM    6  C2  UNL     1     -33.694  13.761  -3.796  1.00 20.00     0.040 C 
HETATM    7  C5  UNL     1     -34.875  13.367  -4.681  1.00 20.00     0.075 C 
HETATM    8  S10 UNL     1     -35.036  14.313  -6.225  1.00 20.00    -0.167 SA
HETATM    9  C6  UNL     1     -35.421  15.994  -5.607  1.00 20.00     0.104 C 
HETATM   10  C4  UNL     1     -35.640  16.157  -4.100  1.00 20.00     0.283 C 
ENDBRANCH   2   4
TORSDOF 1
ENDMDL
MODEL 4
REMARK VINA RESULT:      -3.7      2.712      4.272
REMARK  1 active torsions:
REMARK  status: ('A' for Active; 'I' for Inactive)
REMARK    1  A    between atoms: C7_7  and  N9_9 
ROOT
HETATM    1  C1  UNL     1     -34.447  16.773  -0.922  1.00 20.00     0.089 C 
HETATM    2  C7  UNL     1     -33.861  16.456  -2.224  1.00 20.00     0.395 C 
HETATM    3  N8  UNL     1     -34.909  17.027   0.111  1.00 20.00    -0.195 NA
ENDROOT
BRANCH   2   4
HETATM    4  N9  UNL     1     -34.555  15.330  -2.846  1.00 20.00     0.102 N 
HETATM    5  C3  UNL     1     -35.840  15.718  -3.423  1.00 20.00     0.274 C 
HETATM    6  C2  UNL     1     -35.820  16.559  -4.703  1.00 20.00     0.040 C 
HETATM    7  C5  UNL     1     -35.025  16.020  -5.892  1.00 20.00     0.075 C 
HETATM    8  S10 UNL     1     -35.143  14.225  -6.153  1.00 20.00    -0.167 SA
HETATM    9  C6  UNL     1     -34.310  13.565  -4.660  1.00 20.00     0.104 C 
HETATM   10  C4  UNL     1     -33.649  14.575  -3.718  1.00 20.00     0.283 C 
ENDBRANCH   2   4
TORSDOF 1
ENDMDL
MODEL 5
REMARK VINA RESULT:      -3.7      1.439      2.595
REMARK  1 active torsions:
REMARK  status: ('A' for Active; 'I' for Inactive)
REMARK    1  A    between atoms: C7_7  and  N9_9 
ROOT
HETATM    1  C1  UNL     1     -36.345  14.135  -4.007  1.00 20.00     0.089 C 
HETATM    2  C7  UNL     1     -34.912  13.896  -4.169  1.00 20.00     0.395 C 
HETATM    3  N8  UNL     1     -37.484  14.322  -3.882  1.00 20.00    -0.195 NA
ENDROOT
BRANCH   2   4
HETATM    4  N9  UNL     1     -34.140  14.713  -3.235  1.00 20.00     0.102 N 
HETATM    5  C3  UNL     1     -33.008  15.377  -3.879  1.00 20.00     0.274 C 
HETATM    6  C2  UNL     1     -33.312  16.543  -4.825  1.00 20.00     0.040 C 
HETATM    7  C5  UNL     1     -34.157  17.693  -4.280  1.00 20.00     0.075 C 
HETATM    8  S10 UNL     1     -33.806  18.168  -2.560  1.00 20.00    -0.167 SA
HETATM    9  C6  UNL     1     -34.340  16.680  -1.635  1.00 20.00     0.104 C 
HETATM   10  C4  UNL     1     -35.023  15.563  -2.430  1.00 20.00     0.283 C 
ENDBRANCH   2   4
TORSDOF 1
ENDMDL
MODEL 6
REMARK VINA RESULT:      -3.7      1.990      3.088
REMARK  1 active torsions:
REMARK  status: ('A' for Active; 'I' for Inactive)
REMARK    1  A    between atoms: C7_7  and  N9_9 
ROOT
HETATM    1  C1  UNL     1     -34.132  13.590  -4.065  1.00 20.00     0.089 C 
HETATM    2  C7  UNL     1     -33.095  14.566  -3.735  1.00 20.00     0.395 C 
HETATM    3  N8  UNL     1     -34.953  12.812  -4.326  1.00 20.00    -0.195 NA
ENDROOT
BRANCH   2   4
HETATM    4  N9  UNL     1     -33.626  15.926  -3.785  1.00 20.00     0.102 N 
HETATM    5  C3  UNL     1     -33.302  16.606  -5.037  1.00 20.00     0.274 C 
HETATM    6  C2  UNL     1     -34.036  16.152  -6.303  1.00 20.00     0.040 C 
HETATM    7  C5  UNL     1     -35.563  16.142  -6.270  1.00 20.00     0.075 C 
HETATM    8  S10 UNL     1     -36.329  17.539  -5.395  1.00 20.00    -0.167 SA
HETATM    9  C6  UNL     1     -35.795  17.250  -3.666  1.00 20.00     0.104 C 
HETATM   10  C4  UNL     1     -35.033  15.954  -3.373  1.00 20.00     0.283 C 
ENDBRANCH   2   4
TORSDOF 1
ENDMDL
MODEL 7
REMARK VINA RESULT:      -3.5      2.842      3.999
REMARK  1 active torsions:
REMARK  status: ('A' for Active; 'I' for Inactive)
REMARK    1  A    between atoms: C7_7  and  N9_9 
ROOT
HETATM    1  C1  UNL     1     -37.842  14.775  -4.561  1.00 20.00     0.089 C 
HETATM    2  C7  UNL     1     -36.860  15.168  -5.571  1.00 20.00     0.395 C 
HETATM    3  N8  UNL     1     -38.624  14.465  -3.761  1.00 20.00    -0.195 NA
ENDROOT
BRANCH   2   4
HETATM    4  N9  UNL     1     -35.616  14.419  -5.407  1.00 20.00     0.102 N 
HETATM    5  C3  UNL     1     -34.533  14.950  -6.231  1.00 20.00     0.274 C 
HETATM    6  C2  UNL     1     -33.914  16.288  -5.814  1.00 20.00     0.040 C 
HETATM    7  C5  UNL     1     -33.390  16.411  -4.384  1.00 20.00     0.075 C 
HETATM    8  S10 UNL     1     -32.541  14.937  -3.741  1.00 20.00    -0.167 SA
HETATM    9  C6  UNL     1     -33.903  13.713  -3.665  1.00 20.00     0.104 C 
HETATM   10  C4  UNL     1     -35.315  14.210  -3.987  1.00 20.00     0.283 C 
ENDBRANCH   2   4
TORSDOF 1
ENDMDL
MODEL 8
REMARK VINA RESULT:      -3.5      2.914      4.298
REMARK  1 active torsions:
REMARK  status: ('A' for Active; 'I' for Inactive)
REMARK    1  A    between atoms: C7_7  and  N9_9 
ROOT
HETATM    1  C1  UNL     1     -33.663  18.619  -6.187  1.00 20.00     0.089 C 
HETATM    2  C7  UNL     1     -33.597  17.923  -4.903  1.00 20.00     0.395 C 
HETATM    3  N8  UNL     1     -33.715  19.174  -7.204  1.00 20.00    -0.195 NA
ENDROOT
BRANCH   2   4
HETATM    4  N9  UNL     1     -33.406  16.487  -5.098  1.00 20.00     0.102 N 
HETATM    5  C3  UNL     1     -33.083  15.793  -3.853  1.00 20.00     0.274 C 
HETATM    6  C2  UNL     1     -34.207  15.619  -2.826  1.00 20.00     0.040 C 
HETATM    7  C5  UNL     1     -35.500  14.957  -3.298  1.00 20.00     0.075 C 
HETATM    8  S10 UNL     1     -35.284  13.564  -4.446  1.00 20.00    -0.167 SA
HETATM    9  C6  UNL     1     -34.584  14.390  -5.924  1.00 20.00     0.104 C 
HETATM   10  C4  UNL     1     -34.494  15.919  -5.900  1.00 20.00     0.283 C 
ENDBRANCH   2   4
TORSDOF 1
ENDMDL
MODEL 9
REMARK VINA RESULT:      -3.5      1.458      1.623
REMARK  1 active torsions:
REMARK  status: ('A' for Active; 'I' for Inactive)
REMARK    1  A    between atoms: C7_7  and  N9_9 
ROOT
HETATM    1  C1  UNL     1     -34.314  13.576  -3.923  1.00 20.00     0.089 C 
HETATM    2  C7  UNL     1     -35.703  13.965  -4.164  1.00 20.00     0.395 C 
HETATM    3  N8  UNL     1     -33.213  13.263  -3.731  1.00 20.00    -0.195 NA
ENDROOT
BRANCH   2   4
HETATM    4  N9  UNL     1     -35.810  15.408  -4.368  1.00 20.00     0.102 N 
HETATM    5  C3  UNL     1     -36.203  16.116  -3.151  1.00 20.00     0.274 C 
HETATM    6  C2  UNL     1     -35.164  16.238  -2.033  1.00 20.00     0.040 C 
HETATM    7  C5  UNL     1     -33.806  16.839  -2.391  1.00 20.00     0.075 C 
HETATM    8  S10 UNL     1     -33.860  18.241  -3.548  1.00 20.00    -0.167 SA
HETATM    9  C6  UNL     1     -34.470  17.448  -5.083  1.00 20.00     0.104 C 
HETATM   10  C4  UNL     1     -34.633  15.926  -5.073  1.00 20.00     0.283 C 
ENDBRANCH   2   4
TORSDOF 1
ENDMDL
