MODEL 1
REMARK VINA RESULT:      -4.4      0.000      0.000
REMARK  3 active torsions:
REMARK  status: ('A' for Active; 'I' for Inactive)
REMARK    1  A    between atoms: C6_6  and  C9_9 
REMARK    2  A    between atoms: C7_7  and  C10_10 
REMARK    3  A    between atoms: C10_10  and  N11_11 
ROOT
HETATM    1  C1  UNL     1     -33.700  18.486  -2.545  1.00 20.00     0.032 C 
HETATM    2  C2  UNL     1     -34.549  16.908  -0.774  1.00 20.00     0.032 C 
HETATM    3  C3  UNL     1     -33.949  17.421  -3.604  1.00 20.00     0.235 C 
HETATM    4  C4  UNL     1     -34.793  15.850  -1.842  1.00 20.00     0.235 C 
HETATM    5  C6  UNL     1     -33.421  17.867  -1.171  1.00 20.00    -0.012 C 
HETATM    6  N11 UNL     1     -35.081  16.525  -3.161  1.00 20.00    -0.069 N 
HETATM    7  H32 UNL     1     -35.908  17.124  -3.024  1.00 20.00     0.280 HD
ENDROOT
BRANCH   6   8
HETATM    8  C10 UNL     1     -35.450  15.529  -4.225  1.00 20.00     0.268 C 
BRANCH   8   9
HETATM    9  C7  UNL     1     -34.963  14.158  -3.814  1.00 20.00     0.171 A 
HETATM   10  C5  UNL     1     -34.395  13.199  -4.822  1.00 20.00     0.201 A 
HETATM   11  O12 UNL     1     -35.738  13.071  -4.330  1.00 20.00    -0.380 OA
ENDBRANCH   8   9
ENDBRANCH   6   8
BRANCH   5  12
HETATM   12  C9  UNL     1     -33.235  18.953  -0.114  1.00 20.00     0.000 C 
HETATM   13  C8  UNL     1     -31.850  18.947   0.447  1.00 20.00     0.005 C 
ENDBRANCH   5  12
TORSDOF 3
ENDMDL
MODEL 2
REMARK VINA RESULT:      -4.4      1.617      1.879
REMARK  3 active torsions:
REMARK  status: ('A' for Active; 'I' for Inactive)
REMARK    1  A    between atoms: C6_6  and  C9_9 
REMARK    2  A    between atoms: C7_7  and  C10_10 
REMARK    3  A    between atoms: C10_10  and  N11_11 
ROOT
HETATM    1  C1  UNL     1     -36.572  17.978  -1.534  1.00 20.00     0.032 C 
HETATM    2  C2  UNL     1     -34.563  16.629  -0.835  1.00 20.00     0.032 C 
HETATM    3  C3  UNL     1     -36.670  17.158  -2.813  1.00 20.00     0.235 C 
HETATM    4  C4  UNL     1     -34.670  15.816  -2.118  1.00 20.00     0.235 C 
HETATM    5  C6  UNL     1     -35.134  18.041  -1.007  1.00 20.00    -0.012 C 
HETATM    6  N11 UNL     1     -36.110  15.777  -2.569  1.00 20.00    -0.069 N 
HETATM    7  H32 UNL     1     -36.658  15.355  -1.806  1.00 20.00     0.280 HD
ENDROOT
BRANCH   6   8
HETATM    8  C10 UNL     1     -36.293  14.885  -3.766  1.00 20.00     0.268 C 
BRANCH   8   9
HETATM    9  C7  UNL     1     -35.001  14.147  -4.038  1.00 20.00     0.171 A 
HETATM   10  C5  UNL     1     -34.728  13.523  -5.379  1.00 20.00     0.201 A 
HETATM   11  O12 UNL     1     -35.153  12.740  -4.252  1.00 20.00    -0.380 OA
ENDBRANCH   8   9
ENDBRANCH   6   8
BRANCH   5  12
HETATM   12  C9  UNL     1     -35.071  18.815   0.307  1.00 20.00     0.000 C 
HETATM   13  C8  UNL     1     -35.242  17.914   1.487  1.00 20.00     0.005 C 
ENDBRANCH   5  12
TORSDOF 3
ENDMDL
MODEL 3
REMARK VINA RESULT:      -4.2      0.880      1.693
REMARK  3 active torsions:
REMARK  status: ('A' for Active; 'I' for Inactive)
REMARK    1  A    between atoms: C6_6  and  C9_9 
REMARK    2  A    between atoms: C7_7  and  C10_10 
REMARK    3  A    between atoms: C10_10  and  N11_11 
ROOT
HETATM    1  C1  UNL     1     -34.337  17.008  -0.446  1.00 20.00     0.032 C 
HETATM    2  C2  UNL     1     -33.359  18.723  -2.011  1.00 20.00     0.032 C 
HETATM    3  C3  UNL     1     -34.957  16.286  -1.634  1.00 20.00     0.235 C 
HETATM    4  C4  UNL     1     -33.984  17.992  -3.192  1.00 20.00     0.235 C 
HETATM    5  C6  UNL     1     -34.158  18.506  -0.721  1.00 20.00    -0.012 C 
HETATM    6  N11 UNL     1     -34.113  16.525  -2.864  1.00 20.00    -0.069 N 
HETATM    7  H32 UNL     1     -33.167  16.173  -2.658  1.00 20.00     0.280 HD
ENDROOT
BRANCH   6   8
HETATM    8  C10 UNL     1     -34.613  15.734  -4.041  1.00 20.00     0.268 C 
BRANCH   8   9
HETATM    9  C7  UNL     1     -33.812  14.456  -4.157  1.00 20.00     0.171 A 
HETATM   10  C5  UNL     1     -34.377  13.243  -4.843  1.00 20.00     0.201 A 
HETATM   11  O12 UNL     1     -34.340  13.354  -3.412  1.00 20.00    -0.380 OA
ENDBRANCH   8   9
ENDBRANCH   6   8
BRANCH   5  12
HETATM   12  C9  UNL     1     -33.479  19.197   0.459  1.00 20.00     0.000 C 
HETATM   13  C8  UNL     1     -31.991  19.188   0.322  1.00 20.00     0.005 C 
ENDBRANCH   5  12
TORSDOF 3
ENDMDL
MODEL 4
REMARK VINA RESULT:      -4.2      1.856      2.270
REMARK  3 active torsions:
REMARK  status: ('A' for Active; 'I' for Inactive)
REMARK    1  A    between atoms: C6_6  and  C9_9 
REMARK    2  A    between atoms: C7_7  and  C10_10 
REMARK    3  A    between atoms: C10_10  and  N11_11 
ROOT
HETATM    1  C1  UNL     1     -34.158  17.813  -2.959  1.00 20.00     0.032 C 
HETATM    2  C2  UNL     1     -34.732  15.416  -2.440  1.00 20.00     0.032 C 
HETATM    3  C3  UNL     1     -33.689  17.394  -4.346  1.00 20.00     0.235 C 
HETATM    4  C4  UNL     1     -34.259  15.008  -3.829  1.00 20.00     0.235 C 
HETATM    5  C6  UNL     1     -34.013  16.675  -1.942  1.00 20.00    -0.012 C 
HETATM    6  N11 UNL     1     -34.447  16.164  -4.783  1.00 20.00    -0.069 N 
HETATM    7  H32 UNL     1     -35.448  16.404  -4.778  1.00 20.00     0.280 HD
ENDROOT
BRANCH   6   8
HETATM    8  C10 UNL     1     -34.110  15.777  -6.196  1.00 20.00     0.268 C 
BRANCH   8   9
HETATM    9  C7  UNL     1     -34.928  14.566  -6.589  1.00 20.00     0.171 A 
HETATM   10  C5  UNL     1     -35.628  14.497  -7.917  1.00 20.00     0.201 A 
HETATM   11  O12 UNL     1     -36.333  14.810  -6.706  1.00 20.00    -0.380 OA
ENDBRANCH   8   9
ENDBRANCH   6   8
BRANCH   5  12
HETATM   12  C9  UNL     1     -34.546  17.099  -0.576  1.00 20.00     0.000 C 
HETATM   13  C8  UNL     1     -33.638  18.082   0.090  1.00 20.00     0.005 C 
ENDBRANCH   5  12
TORSDOF 3
ENDMDL
MODEL 5
REMARK VINA RESULT:      -4.0      2.554      5.694
REMARK  3 active torsions:
REMARK  status: ('A' for Active; 'I' for Inactive)
REMARK    1  A    between atoms: C6_6  and  C9_9 
REMARK    2  A    between atoms: C7_7  and  C10_10 
REMARK    3  A    between atoms: C10_10  and  N11_11 
ROOT
HETATM    1  C1  UNL     1     -35.363  14.307  -5.079  1.00 20.00     0.032 C 
HETATM    2  C2  UNL     1     -34.098  16.190  -6.174  1.00 20.00     0.032 C 
HETATM    3  C3  UNL     1     -34.672  14.619  -3.759  1.00 20.00     0.235 C 
HETATM    4  C4  UNL     1     -33.413  16.492  -4.847  1.00 20.00     0.235 C 
HETATM    5  C6  UNL     1     -34.504  14.716  -6.280  1.00 20.00    -0.012 C 
HETATM    6  N11 UNL     1     -34.318  16.085  -3.710  1.00 20.00    -0.069 N 
HETATM    7  H32 UNL     1     -35.195  16.615  -3.813  1.00 20.00     0.280 HD
ENDROOT
BRANCH   6   8
HETATM    8  C10 UNL     1     -33.743  16.474  -2.376  1.00 20.00     0.268 C 
BRANCH   8   9
HETATM    9  C7  UNL     1     -34.845  16.472  -1.340  1.00 20.00     0.171 A 
HETATM   10  C5  UNL     1     -35.428  17.757  -0.822  1.00 20.00     0.201 A 
HETATM   11  O12 UNL     1     -34.464  17.004  -0.067  1.00 20.00    -0.380 OA
ENDBRANCH   8   9
ENDBRANCH   6   8
BRANCH   5  12
HETATM   12  C9  UNL     1     -35.242  14.450  -7.591  1.00 20.00     0.000 C 
HETATM   13  C8  UNL     1     -36.627  15.011  -7.566  1.00 20.00     0.005 C 
ENDBRANCH   5  12
TORSDOF 3
ENDMDL
MODEL 6
REMARK VINA RESULT:      -4.0      2.562      5.598
REMARK  3 active torsions:
REMARK  status: ('A' for Active; 'I' for Inactive)
REMARK    1  A    between atoms: C6_6  and  C9_9 
REMARK    2  A    between atoms: C7_7  and  C10_10 
REMARK    3  A    between atoms: C10_10  and  N11_11 
ROOT
HETATM    1  C1  UNL     1     -35.666  14.923  -5.114  1.00 20.00     0.032 C 
HETATM    2  C2  UNL     1     -33.516  16.229  -5.253  1.00 20.00     0.032 C 
HETATM    3  C3  UNL     1     -35.554  14.912  -3.596  1.00 20.00     0.235 C 
HETATM    4  C4  UNL     1     -33.414  16.210  -3.733  1.00 20.00     0.235 C 
HETATM    5  C6  UNL     1     -34.291  15.018  -5.785  1.00 20.00    -0.012 C 
HETATM    6  N11 UNL     1     -34.799  16.137  -3.138  1.00 20.00    -0.069 N 
HETATM    7  H32 UNL     1     -35.320  16.960  -3.473  1.00 20.00     0.280 HD
ENDROOT
BRANCH   6   8
HETATM    8  C10 UNL     1     -34.765  16.239  -1.638  1.00 20.00     0.268 C 
BRANCH   8   9
HETATM    9  C7  UNL     1     -33.755  17.290  -1.234  1.00 20.00     0.171 A 
HETATM   10  C5  UNL     1     -33.898  18.053   0.053  1.00 20.00     0.201 A 
HETATM   11  O12 UNL     1     -34.265  18.627  -1.211  1.00 20.00    -0.380 OA
ENDBRANCH   8   9
ENDBRANCH   6   8
BRANCH   5  12
HETATM   12  C9  UNL     1     -34.433  15.090  -7.304  1.00 20.00     0.000 C 
HETATM   13  C8  UNL     1     -35.706  14.462  -7.769  1.00 20.00     0.005 C 
ENDBRANCH   5  12
TORSDOF 3
ENDMDL
MODEL 7
REMARK VINA RESULT:      -3.9      2.511      5.177
REMARK  3 active torsions:
REMARK  status: ('A' for Active; 'I' for Inactive)
REMARK    1  A    between atoms: C6_6  and  C9_9 
REMARK    2  A    between atoms: C7_7  and  C10_10 
REMARK    3  A    between atoms: C10_10  and  N11_11 
ROOT
HETATM    1  C1  UNL     1     -33.632  16.850  -4.482  1.00 20.00     0.032 C 
HETATM    2  C2  UNL     1     -34.587  14.963  -3.113  1.00 20.00     0.032 C 
HETATM    3  C3  UNL     1     -33.800  17.788  -3.294  1.00 20.00     0.235 C 
HETATM    4  C4  UNL     1     -34.751  15.912  -1.932  1.00 20.00     0.235 C 
HETATM    5  C6  UNL     1     -34.653  15.707  -4.451  1.00 20.00    -0.012 C 
HETATM    6  N11 UNL     1     -33.706  16.998  -2.011  1.00 20.00    -0.069 N 
HETATM    7  H32 UNL     1     -32.785  16.537  -2.003  1.00 20.00     0.280 HD
ENDROOT
BRANCH   6   8
HETATM    8  C10 UNL     1     -33.743  17.894  -0.804  1.00 20.00     0.268 C 
BRANCH   8   9
HETATM    9  C7  UNL     1     -34.786  17.380   0.164  1.00 20.00     0.171 A 
HETATM   10  C5  UNL     1     -35.792  18.307   0.788  1.00 20.00     0.201 A 
HETATM   11  O12 UNL     1     -34.634  17.851   1.507  1.00 20.00    -0.380 OA
ENDBRANCH   8   9
ENDBRANCH   6   8
BRANCH   5  12
HETATM   12  C9  UNL     1     -34.426  14.746  -5.617  1.00 20.00     0.000 C 
HETATM   13  C8  UNL     1     -34.691  13.329  -5.223  1.00 20.00     0.005 C 
ENDBRANCH   5  12
TORSDOF 3
ENDMDL
MODEL 8
REMARK VINA RESULT:      -3.8     13.999     17.030
REMARK  3 active torsions:
REMARK  status: ('A' for Active; 'I' for Inactive)
REMARK    1  A    between atoms: C6_6  and  C9_9 
REMARK    2  A    between atoms: C7_7  and  C10_10 
REMARK    3  A    between atoms: C10_10  and  N11_11 
ROOT
HETATM    1  C1  UNL     1     -41.503   0.811  -3.809  1.00 20.00     0.032 C 
HETATM    2  C2  UNL     1     -43.417   0.732  -2.173  1.00 20.00     0.032 C 
HETATM    3  C3  UNL     1     -41.512   2.331  -3.736  1.00 20.00     0.235 C 
HETATM    4  C4  UNL     1     -43.417   2.254  -2.110  1.00 20.00     0.235 C 
HETATM    5  C6  UNL     1     -42.887   0.220  -3.517  1.00 20.00    -0.012 C 
HETATM    6  N11 UNL     1     -42.025   2.768  -2.385  1.00 20.00    -0.069 N 
HETATM    7  H32 UNL     1     -41.402   2.359  -1.675  1.00 20.00     0.280 HD
ENDROOT
BRANCH   6   8
HETATM    8  C10 UNL     1     -41.940   4.260  -2.215  1.00 20.00     0.268 C 
BRANCH   8   9
HETATM    9  C7  UNL     1     -40.885   4.582  -1.180  1.00 20.00     0.171 A 
HETATM   10  C5  UNL     1     -41.184   5.490  -0.020  1.00 20.00     0.201 A 
HETATM   11  O12 UNL     1     -40.458   5.949  -1.172  1.00 20.00    -0.380 OA
ENDBRANCH   8   9
ENDBRANCH   6   8
BRANCH   5  12
HETATM   12  C9  UNL     1     -42.840  -1.306  -3.535  1.00 20.00     0.000 C 
HETATM   13  C8  UNL     1     -41.460  -1.812  -3.806  1.00 20.00     0.005 C 
ENDBRANCH   5  12
TORSDOF 3
ENDMDL
MODEL 9
REMARK VINA RESULT:      -3.7     12.616     14.690
REMARK  3 active torsions:
REMARK  status: ('A' for Active; 'I' for Inactive)
REMARK    1  A    between atoms: C6_6  and  C9_9 
REMARK    2  A    between atoms: C7_7  and  C10_10 
REMARK    3  A    between atoms: C10_10  and  N11_11 
ROOT
HETATM    1  C1  UNL     1     -43.143   5.948  -2.330  1.00 20.00     0.032 C 
HETATM    2  C2  UNL     1     -41.124   5.011  -1.150  1.00 20.00     0.032 C 
HETATM    3  C3  UNL     1     -43.301   4.637  -3.086  1.00 20.00     0.235 C 
HETATM    4  C4  UNL     1     -41.293   3.704  -1.913  1.00 20.00     0.235 C 
HETATM    5  C6  UNL     1     -41.684   6.203  -1.935  1.00 20.00    -0.012 C 
HETATM    6  N11 UNL     1     -42.750   3.505  -2.253  1.00 20.00    -0.069 N 
HETATM    7  H32 UNL     1     -43.272   3.496  -1.365  1.00 20.00     0.280 HD
ENDROOT
BRANCH   6   8
HETATM    8  C10 UNL     1     -42.991   2.170  -2.901  1.00 20.00     0.268 C 
BRANCH   8   9
HETATM    9  C7  UNL     1     -43.050   2.348  -4.402  1.00 20.00     0.171 A 
HETATM   10  C5  UNL     1     -43.417   1.206  -5.308  1.00 20.00     0.201 A 
HETATM   11  O12 UNL     1     -42.053   1.620  -5.126  1.00 20.00    -0.380 OA
ENDBRANCH   8   9
ENDBRANCH   6   8
BRANCH   5  12
HETATM   12  C9  UNL     1     -41.559   7.492  -1.125  1.00 20.00     0.000 C 
HETATM   13  C8  UNL     1     -42.898   8.050  -0.767  1.00 20.00     0.005 C 
ENDBRANCH   5  12
TORSDOF 3
ENDMDL
