MODEL 1
REMARK VINA RESULT:      -3.8      0.000      0.000
REMARK  1 active torsions:
REMARK  status: ('A' for Active; 'I' for Inactive)
REMARK    1  A    between atoms: C5_5  and  N7_7 
ROOT
HETATM    1  C1  UNL     1     -32.251   7.438   2.643  1.00 20.00     0.158 C 
HETATM    2  N7  UNL     1     -32.493   6.602   3.433  1.00 20.00    -0.268 NA
HETATM    3  S9  UNL     1     -31.898   8.562   1.570  1.00 20.00    -0.055 SA
ENDROOT
BRANCH   2   4
HETATM    4  C5  UNL     1     -33.873   6.591   3.917  1.00 20.00     0.139 C 
HETATM    5  C2  UNL     1     -34.670   5.503   3.203  1.00 20.00     0.059 C 
HETATM    6  C3  UNL     1     -34.957   4.465   4.279  1.00 20.00     0.274 C 
HETATM    7  N8  UNL     1     -35.035   5.287   5.486  1.00 20.00     0.086 N 
HETATM    8  C4  UNL     1     -33.900   6.208   5.396  1.00 20.00     0.299 C 
HETATM    9  C6  UNL     1     -35.007   4.489   6.703  1.00 20.00     0.310 C 
ENDBRANCH   2   4
TORSDOF 1
ENDMDL
MODEL 2
REMARK VINA RESULT:      -3.7     11.350     12.347
REMARK  1 active torsions:
REMARK  status: ('A' for Active; 'I' for Inactive)
REMARK    1  A    between atoms: C5_5  and  N7_7 
ROOT
HETATM    1  C1  UNL     1     -35.022  13.594  -5.621  1.00 20.00     0.158 C 
HETATM    2  N7  UNL     1     -34.840  12.942  -4.660  1.00 20.00    -0.268 NA
HETATM    3  S9  UNL     1     -35.276  14.453  -6.937  1.00 20.00    -0.055 SA
ENDROOT
BRANCH   2   4
HETATM    4  C5  UNL     1     -34.385  13.688  -3.486  1.00 20.00     0.139 C 
HETATM    5  C2  UNL     1     -32.963  14.197  -3.707  1.00 20.00     0.059 C 
HETATM    6  C3  UNL     1     -33.107  15.708  -3.821  1.00 20.00     0.274 C 
HETATM    7  N8  UNL     1     -34.259  15.973  -2.960  1.00 20.00     0.086 N 
HETATM    8  C4  UNL     1     -35.239  14.941  -3.306  1.00 20.00     0.299 C 
HETATM    9  C6  UNL     1     -34.785  17.319  -3.136  1.00 20.00     0.310 C 
ENDBRANCH   2   4
TORSDOF 1
ENDMDL
MODEL 3
REMARK VINA RESULT:      -3.7     11.387     12.552
REMARK  1 active torsions:
REMARK  status: ('A' for Active; 'I' for Inactive)
REMARK    1  A    between atoms: C5_5  and  N7_7 
ROOT
HETATM    1  C1  UNL     1     -34.629  16.365  -1.769  1.00 20.00     0.158 C 
HETATM    2  N7  UNL     1     -35.057  15.567  -2.520  1.00 20.00    -0.268 NA
HETATM    3  S9  UNL     1     -34.073  17.443  -0.738  1.00 20.00    -0.055 SA
ENDROOT
BRANCH   2   4
HETATM    4  C5  UNL     1     -34.160  15.209  -3.618  1.00 20.00     0.139 C 
HETATM    5  C2  UNL     1     -33.977  13.694  -3.671  1.00 20.00     0.059 C 
HETATM    6  C3  UNL     1     -34.679  13.266  -4.952  1.00 20.00     0.274 C 
HETATM    7  N8  UNL     1     -34.498  14.436  -5.809  1.00 20.00     0.086 N 
HETATM    8  C4  UNL     1     -34.797  15.586  -4.953  1.00 20.00     0.299 C 
HETATM    9  C6  UNL     1     -35.342  14.392  -6.994  1.00 20.00     0.310 C 
ENDBRANCH   2   4
TORSDOF 1
ENDMDL
MODEL 4
REMARK VINA RESULT:      -3.5     11.890     13.249
REMARK  1 active torsions:
REMARK  status: ('A' for Active; 'I' for Inactive)
REMARK    1  A    between atoms: C5_5  and  N7_7 
ROOT
HETATM    1  C1  UNL     1     -38.490  14.948  -3.782  1.00 20.00     0.158 C 
HETATM    2  N7  UNL     1     -37.591  14.190  -3.810  1.00 20.00    -0.268 NA
HETATM    3  S9  UNL     1     -39.725  15.953  -3.741  1.00 20.00    -0.055 SA
ENDROOT
BRANCH   2   4
HETATM    4  C5  UNL     1     -36.281  14.795  -4.046  1.00 20.00     0.139 C 
HETATM    5  C2  UNL     1     -35.184  13.743  -3.903  1.00 20.00     0.059 C 
HETATM    6  C3  UNL     1     -34.643  13.556  -5.313  1.00 20.00     0.274 C 
HETATM    7  N8  UNL     1     -34.840  14.882  -5.898  1.00 20.00     0.086 N 
HETATM    8  C4  UNL     1     -36.188  15.283  -5.490  1.00 20.00     0.299 C 
HETATM    9  C6  UNL     1     -34.674  14.881  -7.343  1.00 20.00     0.310 C 
ENDBRANCH   2   4
TORSDOF 1
ENDMDL
MODEL 5
REMARK VINA RESULT:      -3.3     12.386     12.913
REMARK  1 active torsions:
REMARK  status: ('A' for Active; 'I' for Inactive)
REMARK    1  A    between atoms: C5_5  and  N7_7 
ROOT
HETATM    1  C1  UNL     1     -33.513  17.163  -5.141  1.00 20.00     0.158 C 
HETATM    2  N7  UNL     1     -32.814  16.298  -4.760  1.00 20.00    -0.268 NA
HETATM    3  S9  UNL     1     -34.438  18.345  -5.671  1.00 20.00    -0.055 SA
ENDROOT
BRANCH   2   4
HETATM    4  C5  UNL     1     -33.465  15.314  -3.895  1.00 20.00     0.139 C 
HETATM    5  C2  UNL     1     -33.958  15.985  -2.616  1.00 20.00     0.059 C 
HETATM    6  C3  UNL     1     -35.476  15.952  -2.724  1.00 20.00     0.274 C 
HETATM    7  N8  UNL     1     -35.704  14.730  -3.495  1.00 20.00     0.086 N 
HETATM    8  C4  UNL     1     -34.719  14.774  -4.579  1.00 20.00     0.299 C 
HETATM    9  C6  UNL     1     -37.069  14.632  -3.989  1.00 20.00     0.310 C 
ENDBRANCH   2   4
TORSDOF 1
ENDMDL
MODEL 6
REMARK VINA RESULT:      -3.3     11.763     12.627
REMARK  1 active torsions:
REMARK  status: ('A' for Active; 'I' for Inactive)
REMARK    1  A    between atoms: C5_5  and  N7_7 
ROOT
HETATM    1  C1  UNL     1     -38.898  15.054  -3.464  1.00 20.00     0.158 C 
HETATM    2  N7  UNL     1     -38.008  14.328  -3.716  1.00 20.00    -0.268 NA
HETATM    3  S9  UNL     1     -40.117  16.016  -3.112  1.00 20.00    -0.055 SA
ENDROOT
BRANCH   2   4
HETATM    4  C5  UNL     1     -36.827  14.974  -4.287  1.00 20.00     0.139 C 
HETATM    5  C2  UNL     1     -36.277  16.015  -3.315  1.00 20.00     0.059 C 
HETATM    6  C3  UNL     1     -34.949  15.440  -2.845  1.00 20.00     0.274 C 
HETATM    7  N8  UNL     1     -34.514  14.672  -4.011  1.00 20.00     0.086 N 
HETATM    8  C4  UNL     1     -35.708  13.949  -4.458  1.00 20.00     0.299 C 
HETATM    9  C6  UNL     1     -33.406  13.780  -3.707  1.00 20.00     0.310 C 
ENDBRANCH   2   4
TORSDOF 1
ENDMDL
MODEL 7
REMARK VINA RESULT:      -3.3     11.896     13.328
REMARK  1 active torsions:
REMARK  status: ('A' for Active; 'I' for Inactive)
REMARK    1  A    between atoms: C5_5  and  N7_7 
ROOT
HETATM    1  C1  UNL     1     -36.312  14.076  -4.109  1.00 20.00     0.158 C 
HETATM    2  N7  UNL     1     -35.437  13.329  -4.351  1.00 20.00    -0.268 NA
HETATM    3  S9  UNL     1     -37.511  15.067  -3.768  1.00 20.00    -0.055 SA
ENDROOT
BRANCH   2   4
HETATM    4  C5  UNL     1     -34.320  13.908  -5.098  1.00 20.00     0.139 C 
HETATM    5  C2  UNL     1     -34.798  14.390  -6.465  1.00 20.00     0.059 C 
HETATM    6  C3  UNL     1     -34.706  15.908  -6.393  1.00 20.00     0.274 C 
HETATM    7  N8  UNL     1     -33.583  16.105  -5.477  1.00 20.00     0.086 N 
HETATM    8  C4  UNL     1     -33.812  15.158  -4.383  1.00 20.00     0.299 C 
HETATM    9  C6  UNL     1     -33.483  17.479  -5.009  1.00 20.00     0.310 C 
ENDBRANCH   2   4
TORSDOF 1
ENDMDL
MODEL 8
REMARK VINA RESULT:      -3.3     11.878     12.640
REMARK  1 active torsions:
REMARK  status: ('A' for Active; 'I' for Inactive)
REMARK    1  A    between atoms: C5_5  and  N7_7 
ROOT
HETATM    1  C1  UNL     1     -33.767  17.586  -4.344  1.00 20.00     0.158 C 
HETATM    2  N7  UNL     1     -33.621  17.482  -3.182  1.00 20.00    -0.268 NA
HETATM    3  S9  UNL     1     -33.957  17.753  -5.917  1.00 20.00    -0.055 SA
ENDROOT
BRANCH   2   4
HETATM    4  C5  UNL     1     -33.889  16.149  -2.644  1.00 20.00     0.139 C 
HETATM    5  C2  UNL     1     -35.393  15.940  -2.486  1.00 20.00     0.059 C 
HETATM    6  C3  UNL     1     -35.749  14.892  -3.532  1.00 20.00     0.274 C 
HETATM    7  N8  UNL     1     -34.520  14.102  -3.607  1.00 20.00     0.086 N 
HETATM    8  C4  UNL     1     -33.435  15.086  -3.642  1.00 20.00     0.299 C 
HETATM    9  C6  UNL     1     -34.501  13.214  -4.759  1.00 20.00     0.310 C 
ENDBRANCH   2   4
TORSDOF 1
ENDMDL
MODEL 9
REMARK VINA RESULT:      -3.2     11.970     12.689
REMARK  1 active torsions:
REMARK  status: ('A' for Active; 'I' for Inactive)
REMARK    1  A    between atoms: C5_5  and  N7_7 
ROOT
HETATM    1  C1  UNL     1     -34.395  17.156  -0.545  1.00 20.00     0.158 C 
HETATM    2  N7  UNL     1     -33.775  16.789  -1.474  1.00 20.00    -0.268 NA
HETATM    3  S9  UNL     1     -35.214  17.652   0.728  1.00 20.00    -0.055 SA
ENDROOT
BRANCH   2   4
HETATM    4  C5  UNL     1     -34.538  16.662  -2.715  1.00 20.00     0.139 C 
HETATM    5  C2  UNL     1     -33.715  17.180  -3.892  1.00 20.00     0.059 C 
HETATM    6  C3  UNL     1     -33.391  15.939  -4.712  1.00 20.00     0.274 C 
HETATM    7  N8  UNL     1     -34.555  15.090  -4.460  1.00 20.00     0.086 N 
HETATM    8  C4  UNL     1     -34.793  15.187  -3.018  1.00 20.00     0.299 C 
HETATM    9  C6  UNL     1     -34.347  13.718  -4.897  1.00 20.00     0.310 C 
ENDBRANCH   2   4
TORSDOF 1
ENDMDL
