MODEL 1
REMARK VINA RESULT:      -4.6      0.000      0.000
REMARK  2 active torsions:
REMARK  status: ('A' for Active; 'I' for Inactive)
REMARK    1  A    between atoms: C6_6  and  C9_9 
REMARK    2  A    between atoms: C7_7  and  N10_10 
ROOT
HETATM    1  C1  UNL     1     -36.517  14.983  -6.783  1.00 20.00     0.158 C 
HETATM    2  N10 UNL     1     -35.483  14.544  -7.116  1.00 20.00    -0.270 NA
HETATM    3  S11 UNL     1     -37.936  15.574  -6.365  1.00 20.00    -0.055 SA
ENDROOT
BRANCH   2   4
HETATM    4  C7  UNL     1     -34.446  14.569  -6.078  1.00 20.00     0.109 C 
HETATM    5  C4  UNL     1     -34.866  13.660  -4.924  1.00 20.00     0.028 C 
HETATM    6  C2  UNL     1     -33.878  13.735  -3.763  1.00 20.00     0.007 C 
HETATM    7  C6  UNL     1     -33.625  15.172  -3.280  1.00 20.00    -0.015 C 
HETATM    8  C3  UNL     1     -33.241  16.084  -4.456  1.00 20.00     0.007 C 
HETATM    9  C5  UNL     1     -34.230  16.010  -5.618  1.00 20.00     0.028 C 
BRANCH   7  10
HETATM   10  C9  UNL     1     -34.822  15.726  -2.503  1.00 20.00     0.000 C 
HETATM   11  C8  UNL     1     -34.389  16.574  -1.354  1.00 20.00     0.005 C 
ENDBRANCH   7  10
ENDBRANCH   2   4
TORSDOF 2
ENDMDL
MODEL 2
REMARK VINA RESULT:      -4.3      2.995      4.613
REMARK  2 active torsions:
REMARK  status: ('A' for Active; 'I' for Inactive)
REMARK    1  A    between atoms: C6_6  and  C9_9 
REMARK    2  A    between atoms: C7_7  and  N10_10 
ROOT
HETATM    1  C1  UNL     1     -34.428  17.060  -1.002  1.00 20.00     0.158 C 
HETATM    2  N10 UNL     1     -33.975  16.803  -2.051  1.00 20.00    -0.270 NA
HETATM    3  S11 UNL     1     -35.025  17.442   0.424  1.00 20.00    -0.055 SA
ENDROOT
BRANCH   2   4
HETATM    4  C7  UNL     1     -34.443  15.536  -2.626  1.00 20.00     0.109 C 
HETATM    5  C4  UNL     1     -33.299  14.880  -3.396  1.00 20.00     0.028 C 
HETATM    6  C2  UNL     1     -33.761  13.612  -4.112  1.00 20.00     0.007 C 
HETATM    7  C6  UNL     1     -34.983  13.843  -5.015  1.00 20.00    -0.015 C 
HETATM    8  C3  UNL     1     -36.111  14.539  -4.238  1.00 20.00     0.007 C 
HETATM    9  C5  UNL     1     -35.651  15.807  -3.522  1.00 20.00     0.028 C 
BRANCH   7  10
HETATM   10  C9  UNL     1     -34.611  14.614  -6.284  1.00 20.00     0.000 C 
HETATM   11  C8  UNL     1     -35.627  14.425  -7.361  1.00 20.00     0.005 C 
ENDBRANCH   7  10
ENDBRANCH   2   4
TORSDOF 2
ENDMDL
MODEL 3
REMARK VINA RESULT:      -4.3     11.003     11.994
REMARK  2 active torsions:
REMARK  status: ('A' for Active; 'I' for Inactive)
REMARK    1  A    between atoms: C6_6  and  C9_9 
REMARK    2  A    between atoms: C7_7  and  N10_10 
ROOT
HETATM    1  C1  UNL     1     -42.409   8.480  -4.166  1.00 20.00     0.158 C 
HETATM    2  N10 UNL     1     -42.833   7.970  -3.200  1.00 20.00    -0.270 NA
HETATM    3  S11 UNL     1     -41.865   9.192  -5.482  1.00 20.00    -0.055 SA
ENDROOT
BRANCH   2   4
HETATM    4  C7  UNL     1     -41.927   7.000  -2.573  1.00 20.00     0.109 C 
HETATM    5  C4  UNL     1     -42.564   5.613  -2.621  1.00 20.00     0.028 C 
HETATM    6  C2  UNL     1     -41.716   4.581  -1.880  1.00 20.00     0.007 C 
HETATM    7  C6  UNL     1     -41.389   4.997  -0.437  1.00 20.00    -0.015 C 
HETATM    8  C3  UNL     1     -40.785   6.409  -0.400  1.00 20.00     0.007 C 
HETATM    9  C5  UNL     1     -41.633   7.442  -1.140  1.00 20.00     0.028 C 
BRANCH   7  10
HETATM   10  C9  UNL     1     -42.612   4.880   0.476  1.00 20.00     0.000 C 
HETATM   11  C8  UNL     1     -43.355   3.606   0.242  1.00 20.00     0.005 C 
ENDBRANCH   7  10
ENDBRANCH   2   4
TORSDOF 2
ENDMDL
MODEL 4
REMARK VINA RESULT:      -4.2      1.478      1.636
REMARK  2 active torsions:
REMARK  status: ('A' for Active; 'I' for Inactive)
REMARK    1  A    between atoms: C6_6  and  C9_9 
REMARK    2  A    between atoms: C7_7  and  N10_10 
ROOT
HETATM    1  C1  UNL     1     -35.134  17.116  -6.967  1.00 20.00     0.158 C 
HETATM    2  N10 UNL     1     -34.496  16.167  -7.223  1.00 20.00    -0.270 NA
HETATM    3  S11 UNL     1     -36.002  18.414  -6.654  1.00 20.00    -0.055 SA
ENDROOT
BRANCH   2   4
HETATM    4  C7  UNL     1     -34.162  15.324  -6.069  1.00 20.00     0.109 C 
HETATM    5  C4  UNL     1     -35.450  14.764  -5.467  1.00 20.00     0.028 C 
HETATM    6  C2  UNL     1     -35.172  13.970  -4.192  1.00 20.00     0.007 C 
HETATM    7  C6  UNL     1     -34.367  14.765  -3.152  1.00 20.00    -0.015 C 
HETATM    8  C3  UNL     1     -33.096  15.356  -3.780  1.00 20.00     0.007 C 
HETATM    9  C5  UNL     1     -33.373  16.151  -5.055  1.00 20.00     0.028 C 
BRANCH   7  10
HETATM   10  C9  UNL     1     -35.221  15.845  -2.482  1.00 20.00     0.000 C 
HETATM   11  C8  UNL     1     -34.503  16.485  -1.340  1.00 20.00     0.005 C 
ENDBRANCH   7  10
ENDBRANCH   2   4
TORSDOF 2
ENDMDL
MODEL 5
REMARK VINA RESULT:      -4.2      2.619      4.183
REMARK  2 active torsions:
REMARK  status: ('A' for Active; 'I' for Inactive)
REMARK    1  A    between atoms: C6_6  and  C9_9 
REMARK    2  A    between atoms: C7_7  and  N10_10 
ROOT
HETATM    1  C1  UNL     1     -33.940  17.694  -2.946  1.00 20.00     0.158 C 
HETATM    2  N10 UNL     1     -34.084  16.879  -2.117  1.00 20.00    -0.270 NA
HETATM    3  S11 UNL     1     -33.737  18.826  -4.047  1.00 20.00    -0.055 SA
ENDROOT
BRANCH   2   4
HETATM    4  C7  UNL     1     -34.464  15.554  -2.621  1.00 20.00     0.109 C 
HETATM    5  C4  UNL     1     -33.300  14.967  -3.418  1.00 20.00     0.028 C 
HETATM    6  C2  UNL     1     -33.679  13.636  -4.063  1.00 20.00     0.007 C 
HETATM    7  C6  UNL     1     -34.954  13.722  -4.916  1.00 20.00    -0.015 C 
HETATM    8  C3  UNL     1     -36.105  14.350  -4.115  1.00 20.00     0.007 C 
HETATM    9  C5  UNL     1     -35.727  15.682  -3.469  1.00 20.00     0.028 C 
BRANCH   7  10
HETATM   10  C9  UNL     1     -34.706  14.469  -6.229  1.00 20.00     0.000 C 
HETATM   11  C8  UNL     1     -35.971  14.665  -6.999  1.00 20.00     0.005 C 
ENDBRANCH   7  10
ENDBRANCH   2   4
TORSDOF 2
ENDMDL
MODEL 6
REMARK VINA RESULT:      -4.1      2.023      2.840
REMARK  2 active torsions:
REMARK  status: ('A' for Active; 'I' for Inactive)
REMARK    1  A    between atoms: C6_6  and  C9_9 
REMARK    2  A    between atoms: C7_7  and  N10_10 
ROOT
HETATM    1  C1  UNL     1     -37.506  15.061  -3.694  1.00 20.00     0.158 C 
HETATM    2  N10 UNL     1     -36.880  14.082  -3.843  1.00 20.00    -0.270 NA
HETATM    3  S11 UNL     1     -38.386  16.371  -3.481  1.00 20.00    -0.055 SA
ENDROOT
BRANCH   2   4
HETATM    4  C7  UNL     1     -35.504  14.300  -4.306  1.00 20.00     0.109 C 
HETATM    5  C4  UNL     1     -34.699  14.967  -3.191  1.00 20.00     0.028 C 
HETATM    6  C2  UNL     1     -33.288  15.323  -3.656  1.00 20.00     0.007 C 
HETATM    7  C6  UNL     1     -33.273  16.167  -4.940  1.00 20.00    -0.015 C 
HETATM    8  C3  UNL     1     -34.118  15.505  -6.039  1.00 20.00     0.007 C 
HETATM    9  C5  UNL     1     -35.529  15.149  -5.576  1.00 20.00     0.028 C 
BRANCH   7  10
HETATM   10  C9  UNL     1     -33.719  17.607  -4.675  1.00 20.00     0.000 C 
HETATM   11  C8  UNL     1     -33.655  18.440  -5.912  1.00 20.00     0.005 C 
ENDBRANCH   7  10
ENDBRANCH   2   4
TORSDOF 2
ENDMDL
MODEL 7
REMARK VINA RESULT:      -4.1     11.831     13.080
REMARK  2 active torsions:
REMARK  status: ('A' for Active; 'I' for Inactive)
REMARK    1  A    between atoms: C6_6  and  C9_9 
REMARK    2  A    between atoms: C7_7  and  N10_10 
ROOT
HETATM    1  C1  UNL     1     -32.097   7.919   2.180  1.00 20.00     0.158 C 
HETATM    2  N10 UNL     1     -32.126   7.037   2.950  1.00 20.00    -0.270 NA
HETATM    3  S11 UNL     1     -32.022   9.111   1.127  1.00 20.00    -0.055 SA
ENDROOT
BRANCH   2   4
HETATM    4  C7  UNL     1     -33.417   6.854   3.623  1.00 20.00     0.109 C 
HETATM    5  C4  UNL     1     -33.177   6.581   5.107  1.00 20.00     0.028 C 
HETATM    6  C2  UNL     1     -34.481   6.270   5.838  1.00 20.00     0.007 C 
HETATM    7  C6  UNL     1     -35.281   5.133   5.182  1.00 20.00    -0.015 C 
HETATM    8  C3  UNL     1     -35.482   5.401   3.682  1.00 20.00     0.007 C 
HETATM    9  C5  UNL     1     -34.177   5.712   2.951  1.00 20.00     0.028 C 
BRANCH   7  10
HETATM   10  C9  UNL     1     -34.632   3.769   5.430  1.00 20.00     0.000 C 
HETATM   11  C8  UNL     1     -33.766   3.784   6.646  1.00 20.00     0.005 C 
ENDBRANCH   7  10
ENDBRANCH   2   4
TORSDOF 2
ENDMDL
MODEL 8
REMARK VINA RESULT:      -4.1      3.088      4.769
REMARK  2 active torsions:
REMARK  status: ('A' for Active; 'I' for Inactive)
REMARK    1  A    between atoms: C6_6  and  C9_9 
REMARK    2  A    between atoms: C7_7  and  N10_10 
ROOT
HETATM    1  C1  UNL     1     -34.100  17.057  -1.137  1.00 20.00     0.158 C 
HETATM    2  N10 UNL     1     -34.652  16.172  -1.671  1.00 20.00    -0.270 NA
HETATM    3  S11 UNL     1     -33.375  18.260  -0.386  1.00 20.00    -0.055 SA
ENDROOT
BRANCH   2   4
HETATM    4  C7  UNL     1     -34.009  15.705  -2.905  1.00 20.00     0.109 C 
HETATM    5  C4  UNL     1     -33.953  16.854  -3.909  1.00 20.00     0.028 C 
HETATM    6  C2  UNL     1     -33.397  16.396  -5.255  1.00 20.00     0.007 C 
HETATM    7  C6  UNL     1     -34.144  15.183  -5.833  1.00 20.00    -0.015 C 
HETATM    8  C3  UNL     1     -34.226  14.049  -4.799  1.00 20.00     0.007 C 
HETATM    9  C5  UNL     1     -34.783  14.507  -3.452  1.00 20.00     0.028 C 
BRANCH   7  10
HETATM   10  C9  UNL     1     -35.528  15.570  -6.359  1.00 20.00     0.000 C 
HETATM   11  C8  UNL     1     -35.958  14.685  -7.482  1.00 20.00     0.005 C 
ENDBRANCH   7  10
ENDBRANCH   2   4
TORSDOF 2
ENDMDL
MODEL 9
REMARK VINA RESULT:      -4.0      2.266      2.743
REMARK  2 active torsions:
REMARK  status: ('A' for Active; 'I' for Inactive)
REMARK    1  A    between atoms: C6_6  and  C9_9 
REMARK    2  A    between atoms: C7_7  and  N10_10 
ROOT
HETATM    1  C1  UNL     1     -38.463  14.744  -4.108  1.00 20.00     0.158 C 
HETATM    2  N10 UNL     1     -37.436  14.306  -3.754  1.00 20.00    -0.270 NA
HETATM    3  S11 UNL     1     -39.875  15.308  -4.582  1.00 20.00    -0.055 SA
ENDROOT
BRANCH   2   4
HETATM    4  C7  UNL     1     -36.313  15.247  -3.823  1.00 20.00     0.109 C 
HETATM    5  C4  UNL     1     -35.072  14.596  -3.213  1.00 20.00     0.028 C 
HETATM    6  C2  UNL     1     -33.900  15.572  -3.154  1.00 20.00     0.007 C 
HETATM    7  C6  UNL     1     -34.248  16.888  -2.441  1.00 20.00    -0.015 C 
HETATM    8  C3  UNL     1     -35.519  17.512  -3.039  1.00 20.00     0.007 C 
HETATM    9  C5  UNL     1     -36.693  16.537  -3.098  1.00 20.00     0.028 C 
BRANCH   7  10
HETATM   10  C9  UNL     1     -34.370  16.697  -0.928  1.00 20.00     0.000 C 
HETATM   11  C8  UNL     1     -33.959  17.924  -0.182  1.00 20.00     0.005 C 
ENDBRANCH   7  10
ENDBRANCH   2   4
TORSDOF 2
ENDMDL
