MODEL 1
REMARK VINA RESULT:      -4.2      0.000      0.000
REMARK  3 active torsions:
REMARK  status: ('A' for Active; 'I' for Inactive)
REMARK    1  A    between atoms: C4_4  and  N11_11 
REMARK    2  A    between atoms: C8_8  and  C9_9 
REMARK    3  A    between atoms: C8_8  and  N11_11 
ROOT
HETATM    1  C1  UNL     1     -35.704  15.189  -3.408  1.00 20.00     0.067 C 
HETATM    2  C2  UNL     1     -36.192  14.074  -4.316  1.00 20.00     0.274 C 
HETATM    3  C3  UNL     1     -33.891  13.738  -4.128  1.00 20.00     0.307 C 
HETATM    4  C4  UNL     1     -34.258  14.816  -3.105  1.00 20.00     0.250 C 
HETATM    5  C7  UNL     1     -34.787  14.502  -6.247  1.00 20.00     0.310 C 
HETATM    6  N10 UNL     1     -35.011  13.648  -5.080  1.00 20.00     0.086 N 
ENDROOT
BRANCH   4   7
HETATM    7  N11 UNL     1     -33.387  15.959  -3.172  1.00 20.00     0.090 N 
HETATM    8  H31 UNL     1     -33.140  16.137  -4.145  1.00 20.00     0.316 HD
BRANCH   7   9
HETATM    9  C8  UNL     1     -34.032  17.141  -2.617  1.00 20.00     0.274 C 
BRANCH   9  10
HETATM   10  C9  UNL     1     -33.641  17.368  -1.152  1.00 20.00     0.005 C 
HETATM   11  C5  UNL     1     -33.101  18.776  -0.905  1.00 20.00     0.011 C 
HETATM   12  C6  UNL     1     -34.796  17.059  -0.196  1.00 20.00     0.011 C 
ENDBRANCH   9  10
ENDBRANCH   7   9
ENDBRANCH   4   7
TORSDOF 3
ENDMDL
MODEL 2
REMARK VINA RESULT:      -4.1      1.216      1.979
REMARK  3 active torsions:
REMARK  status: ('A' for Active; 'I' for Inactive)
REMARK    1  A    between atoms: C4_4  and  N11_11 
REMARK    2  A    between atoms: C8_8  and  C9_9 
REMARK    3  A    between atoms: C8_8  and  N11_11 
ROOT
HETATM    1  C1  UNL     1     -33.518  14.267  -3.830  1.00 20.00     0.067 C 
HETATM    2  C2  UNL     1     -34.430  13.319  -4.590  1.00 20.00     0.274 C 
HETATM    3  C3  UNL     1     -34.852  15.426  -5.500  1.00 20.00     0.307 C 
HETATM    4  C4  UNL     1     -33.629  15.582  -4.592  1.00 20.00     0.250 C 
HETATM    5  C7  UNL     1     -36.562  14.382  -4.135  1.00 20.00     0.310 C 
HETATM    6  N10 UNL     1     -35.508  14.162  -5.125  1.00 20.00     0.086 N 
ENDROOT
BRANCH   4   7
HETATM    7  N11 UNL     1     -33.743  16.706  -3.703  1.00 20.00     0.090 N 
HETATM    8  H31 UNL     1     -34.622  17.191  -3.883  1.00 20.00     0.316 HD
BRANCH   7   9
HETATM    9  C8  UNL     1     -33.709  16.277  -2.311  1.00 20.00     0.274 C 
BRANCH   9  10
HETATM   10  C9  UNL     1     -35.003  16.643  -1.572  1.00 20.00     0.005 C 
HETATM   11  C5  UNL     1     -34.741  17.108  -0.139  1.00 20.00     0.011 C 
HETATM   12  C6  UNL     1     -35.823  17.685  -2.334  1.00 20.00     0.011 C 
ENDBRANCH   9  10
ENDBRANCH   7   9
ENDBRANCH   4   7
TORSDOF 3
ENDMDL
MODEL 3
REMARK VINA RESULT:      -4.0      2.049      3.373
REMARK  3 active torsions:
REMARK  status: ('A' for Active; 'I' for Inactive)
REMARK    1  A    between atoms: C4_4  and  N11_11 
REMARK    2  A    between atoms: C8_8  and  C9_9 
REMARK    3  A    between atoms: C8_8  and  N11_11 
ROOT
HETATM    1  C1  UNL     1     -34.824  14.783  -7.382  1.00 20.00     0.067 C 
HETATM    2  C2  UNL     1     -36.322  15.023  -7.446  1.00 20.00     0.274 C 
HETATM    3  C3  UNL     1     -35.491  16.743  -6.107  1.00 20.00     0.307 C 
HETATM    4  C4  UNL     1     -34.275  16.038  -6.712  1.00 20.00     0.250 C 
HETATM    5  C7  UNL     1     -36.822  15.001  -5.072  1.00 20.00     0.310 C 
HETATM    6  N10 UNL     1     -36.638  15.833  -6.262  1.00 20.00     0.086 N 
ENDROOT
BRANCH   4   7
HETATM    7  N11 UNL     1     -33.274  15.723  -5.728  1.00 20.00     0.090 N 
HETATM    8  H31 UNL     1     -32.353  15.961  -6.097  1.00 20.00     0.316 HD
BRANCH   7   9
HETATM    9  C8  UNL     1     -33.502  16.465  -4.495  1.00 20.00     0.274 C 
BRANCH   9  10
HETATM   10  C9  UNL     1     -33.444  15.554  -3.263  1.00 20.00     0.005 C 
HETATM   11  C5  UNL     1     -34.518  15.901  -2.232  1.00 20.00     0.011 C 
HETATM   12  C6  UNL     1     -33.520  14.073  -3.642  1.00 20.00     0.011 C 
ENDBRANCH   9  10
ENDBRANCH   7   9
ENDBRANCH   4   7
TORSDOF 3
ENDMDL
MODEL 4
REMARK VINA RESULT:      -4.0      1.204      1.755
REMARK  3 active torsions:
REMARK  status: ('A' for Active; 'I' for Inactive)
REMARK    1  A    between atoms: C4_4  and  N11_11 
REMARK    2  A    between atoms: C8_8  and  C9_9 
REMARK    3  A    between atoms: C8_8  and  N11_11 
ROOT
HETATM    1  C1  UNL     1     -35.032  16.434  -4.424  1.00 20.00     0.067 C 
HETATM    2  C2  UNL     1     -35.214  15.470  -5.583  1.00 20.00     0.274 C 
HETATM    3  C3  UNL     1     -36.598  14.651  -3.892  1.00 20.00     0.307 C 
HETATM    4  C4  UNL     1     -36.111  16.027  -3.428  1.00 20.00     0.250 C 
HETATM    5  C7  UNL     1     -34.602  13.403  -4.470  1.00 20.00     0.310 C 
HETATM    6  N10 UNL     1     -35.702  14.222  -4.979  1.00 20.00     0.086 N 
ENDROOT
BRANCH   4   7
HETATM    7  N11 UNL     1     -35.614  16.009  -2.079  1.00 20.00     0.090 N 
HETATM    8  H31 UNL     1     -35.765  15.085  -1.676  1.00 20.00     0.316 HD
BRANCH   7   9
HETATM    9  C8  UNL     1     -34.190  16.320  -2.043  1.00 20.00     0.274 C 
BRANCH   9  10
HETATM   10  C9  UNL     1     -33.845  17.271  -0.891  1.00 20.00     0.005 C 
HETATM   11  C5  UNL     1     -33.432  18.657  -1.386  1.00 20.00     0.011 C 
HETATM   12  C6  UNL     1     -34.983  17.379   0.125  1.00 20.00     0.011 C 
ENDBRANCH   9  10
ENDBRANCH   7   9
ENDBRANCH   4   7
TORSDOF 3
ENDMDL
MODEL 5
REMARK VINA RESULT:      -3.9      1.969      4.100
REMARK  3 active torsions:
REMARK  status: ('A' for Active; 'I' for Inactive)
REMARK    1  A    between atoms: C4_4  and  N11_11 
REMARK    2  A    between atoms: C8_8  and  C9_9 
REMARK    3  A    between atoms: C8_8  and  N11_11 
ROOT
HETATM    1  C1  UNL     1     -33.763  16.678  -3.085  1.00 20.00     0.067 C 
HETATM    2  C2  UNL     1     -34.768  15.982  -2.182  1.00 20.00     0.274 C 
HETATM    3  C3  UNL     1     -33.939  14.301  -3.571  1.00 20.00     0.307 C 
HETATM    4  C4  UNL     1     -33.064  15.535  -3.812  1.00 20.00     0.250 C 
HETATM    5  C7  UNL     1     -36.227  15.040  -3.875  1.00 20.00     0.310 C 
HETATM    6  N10 UNL     1     -35.166  14.767  -2.905  1.00 20.00     0.086 N 
ENDROOT
BRANCH   4   7
HETATM    7  N11 UNL     1     -32.889  15.821  -5.211  1.00 20.00     0.090 N 
HETATM    8  H31 UNL     1     -33.198  15.019  -5.760  1.00 20.00     0.316 HD
BRANCH   7   9
HETATM    9  C8  UNL     1     -33.657  16.995  -5.604  1.00 20.00     0.274 C 
BRANCH   9  10
HETATM   10  C9  UNL     1     -34.632  16.681  -6.746  1.00 20.00     0.005 C 
HETATM   11  C5  UNL     1     -34.510  17.671  -7.904  1.00 20.00     0.011 C 
HETATM   12  C6  UNL     1     -34.482  15.244  -7.248  1.00 20.00     0.011 C 
ENDBRANCH   9  10
ENDBRANCH   7   9
ENDBRANCH   4   7
TORSDOF 3
ENDMDL
MODEL 6
REMARK VINA RESULT:      -3.9      1.464      2.017
REMARK  3 active torsions:
REMARK  status: ('A' for Active; 'I' for Inactive)
REMARK    1  A    between atoms: C4_4  and  N11_11 
REMARK    2  A    between atoms: C8_8  and  C9_9 
REMARK    3  A    between atoms: C8_8  and  N11_11 
ROOT
HETATM    1  C1  UNL     1     -36.217  15.618  -4.493  1.00 20.00     0.067 C 
HETATM    2  C2  UNL     1     -35.193  15.102  -5.488  1.00 20.00     0.274 C 
HETATM    3  C3  UNL     1     -34.190  14.839  -3.398  1.00 20.00     0.307 C 
HETATM    4  C4  UNL     1     -35.650  15.219  -3.136  1.00 20.00     0.250 C 
HETATM    5  C7  UNL     1     -33.323  16.532  -4.901  1.00 20.00     0.310 C 
HETATM    6  N10 UNL     1     -33.899  15.191  -4.798  1.00 20.00     0.086 N 
ENDROOT
BRANCH   4   7
HETATM    7  N11 UNL     1     -35.778  16.279  -2.171  1.00 20.00     0.090 N 
HETATM    8  H31 UNL     1     -36.605  16.114  -1.598  1.00 20.00     0.316 HD
BRANCH   7   9
HETATM    9  C8  UNL     1     -34.604  16.346  -1.310  1.00 20.00     0.274 C 
BRANCH   9  10
HETATM   10  C9  UNL     1     -34.557  17.656  -0.514  1.00 20.00     0.005 C 
HETATM   11  C5  UNL     1     -35.134  17.502   0.893  1.00 20.00     0.011 C 
HETATM   12  C6  UNL     1     -33.145  18.242  -0.456  1.00 20.00     0.011 C 
ENDBRANCH   9  10
ENDBRANCH   7   9
ENDBRANCH   4   7
TORSDOF 3
ENDMDL
MODEL 7
REMARK VINA RESULT:      -3.9     10.941     11.808
REMARK  3 active torsions:
REMARK  status: ('A' for Active; 'I' for Inactive)
REMARK    1  A    between atoms: C4_4  and  N11_11 
REMARK    2  A    between atoms: C8_8  and  C9_9 
REMARK    3  A    between atoms: C8_8  and  N11_11 
ROOT
HETATM    1  C1  UNL     1     -34.586   5.406   3.231  1.00 20.00     0.067 C 
HETATM    2  C2  UNL     1     -35.529   5.049   4.367  1.00 20.00     0.274 C 
HETATM    3  C3  UNL     1     -33.975   6.513   5.308  1.00 20.00     0.307 C 
HETATM    4  C4  UNL     1     -33.734   6.536   3.797  1.00 20.00     0.250 C 
HETATM    5  C7  UNL     1     -33.915   4.177   5.954  1.00 20.00     0.310 C 
HETATM    6  N10 UNL     1     -34.772   5.309   5.599  1.00 20.00     0.086 N 
ENDROOT
BRANCH   4   7
HETATM    7  N11 UNL     1     -32.345   6.378   3.458  1.00 20.00     0.090 N 
HETATM    8  H31 UNL     1     -32.265   5.776   2.639  1.00 20.00     0.316 HD
BRANCH   7   9
HETATM    9  C8  UNL     1     -31.728   7.666   3.168  1.00 20.00     0.274 C 
BRANCH   9  10
HETATM   10  C9  UNL     1     -32.382   8.351   1.962  1.00 20.00     0.005 C 
HETATM   11  C5  UNL     1     -32.730   9.813   2.243  1.00 20.00     0.011 C 
HETATM   12  C6  UNL     1     -31.524   8.235   0.701  1.00 20.00     0.011 C 
ENDBRANCH   9  10
ENDBRANCH   7   9
ENDBRANCH   4   7
TORSDOF 3
ENDMDL
MODEL 8
REMARK VINA RESULT:      -3.9      1.514      2.114
REMARK  3 active torsions:
REMARK  status: ('A' for Active; 'I' for Inactive)
REMARK    1  A    between atoms: C4_4  and  N11_11 
REMARK    2  A    between atoms: C8_8  and  C9_9 
REMARK    3  A    between atoms: C8_8  and  N11_11 
ROOT
HETATM    1  C1  UNL     1     -36.875  15.159  -5.613  1.00 20.00     0.067 C 
HETATM    2  C2  UNL     1     -36.204  14.795  -6.926  1.00 20.00     0.274 C 
HETATM    3  C3  UNL     1     -34.801  13.938  -5.271  1.00 20.00     0.307 C 
HETATM    4  C4  UNL     1     -36.081  14.391  -4.564  1.00 20.00     0.250 C 
HETATM    5  C7  UNL     1     -34.047  15.844  -6.564  1.00 20.00     0.310 C 
HETATM    6  N10 UNL     1     -34.788  14.583  -6.594  1.00 20.00     0.086 N 
ENDROOT
BRANCH   4   7
HETATM    7  N11 UNL     1     -35.813  15.196  -3.402  1.00 20.00     0.090 N 
HETATM    8  H31 UNL     1     -36.425  14.903  -2.641  1.00 20.00     0.316 HD
BRANCH   7   9
HETATM    9  C8  UNL     1     -34.425  15.059  -2.980  1.00 20.00     0.274 C 
BRANCH   9  10
HETATM   10  C9  UNL     1     -33.907  16.335  -2.305  1.00 20.00     0.005 C 
HETATM   11  C5  UNL     1     -34.018  17.559  -3.213  1.00 20.00     0.011 C 
HETATM   12  C6  UNL     1     -34.598  16.595  -0.965  1.00 20.00     0.011 C 
ENDBRANCH   9  10
ENDBRANCH   7   9
ENDBRANCH   4   7
TORSDOF 3
ENDMDL
MODEL 9
REMARK VINA RESULT:      -3.8      1.614      4.593
REMARK  3 active torsions:
REMARK  status: ('A' for Active; 'I' for Inactive)
REMARK    1  A    between atoms: C4_4  and  N11_11 
REMARK    2  A    between atoms: C8_8  and  C9_9 
REMARK    3  A    between atoms: C8_8  and  N11_11 
ROOT
HETATM    1  C1  UNL     1     -33.711  15.847  -2.762  1.00 20.00     0.067 C 
HETATM    2  C2  UNL     1     -34.871  16.569  -2.098  1.00 20.00     0.274 C 
HETATM    3  C3  UNL     1     -35.860  14.904  -3.399  1.00 20.00     0.307 C 
HETATM    4  C4  UNL     1     -34.355  14.626  -3.409  1.00 20.00     0.250 C 
HETATM    5  C7  UNL     1     -36.112  17.217  -4.079  1.00 20.00     0.310 C 
HETATM    6  N10 UNL     1     -36.039  16.294  -2.946  1.00 20.00     0.086 N 
ENDROOT
BRANCH   4   7
HETATM    7  N11 UNL     1     -33.846  14.393  -4.734  1.00 20.00     0.090 N 
HETATM    8  H31 UNL     1     -33.044  13.766  -4.681  1.00 20.00     0.316 HD
BRANCH   7   9
HETATM    9  C8  UNL     1     -34.865  13.797  -5.588  1.00 20.00     0.274 C 
BRANCH   9  10
HETATM   10  C9  UNL     1     -35.026  14.568  -6.904  1.00 20.00     0.005 C 
HETATM   11  C5  UNL     1     -36.484  14.926  -7.192  1.00 20.00     0.011 C 
HETATM   12  C6  UNL     1     -34.145  15.818  -6.948  1.00 20.00     0.011 C 
ENDBRANCH   9  10
ENDBRANCH   7   9
ENDBRANCH   4   7
TORSDOF 3
ENDMDL
