MODEL 1
REMARK VINA RESULT:      -4.8      0.000      0.000
REMARK  2 active torsions:
REMARK  status: ('A' for Active; 'I' for Inactive)
REMARK    1  A    between atoms: C6_6  and  C7_7 
REMARK    2  A    between atoms: C7_7  and  N8_8 
ROOT
HETATM    1  C1  UNL     1     -32.099   8.327   2.099  1.00 20.00     0.157 C 
HETATM    2  N8  UNL     1     -31.978   7.607   3.021  1.00 20.00    -0.273 NA
HETATM    3  S10 UNL     1     -32.252   9.318   0.862  1.00 20.00    -0.055 SA
ENDROOT
BRANCH   2   4
HETATM    4  C7  UNL     1     -32.623   6.305   2.881  1.00 20.00     0.182 C 
BRANCH   4   5
HETATM    5  C6  UNL     1     -33.750   6.204   3.900  1.00 20.00     0.141 C 
HETATM    6  C4  UNL     1     -33.224   6.410   5.323  1.00 20.00     0.034 C 
HETATM    7  C2  UNL     1     -34.337   6.194   6.344  1.00 20.00     0.005 C 
HETATM    8  C3  UNL     1     -35.036   4.861   6.101  1.00 20.00     0.026 C 
HETATM    9  C5  UNL     1     -35.458   4.731   4.643  1.00 20.00     0.168 C 
HETATM   10  O9  UNL     1     -34.339   4.905   3.774  1.00 20.00    -0.384 OA
ENDBRANCH   4   5
ENDBRANCH   2   4
TORSDOF 2
ENDMDL
MODEL 2
REMARK VINA RESULT:      -4.6      0.993      1.634
REMARK  2 active torsions:
REMARK  status: ('A' for Active; 'I' for Inactive)
REMARK    1  A    between atoms: C6_6  and  C7_7 
REMARK    2  A    between atoms: C7_7  and  N8_8 
ROOT
HETATM    1  C1  UNL     1     -32.193   8.150   2.186  1.00 20.00     0.157 C 
HETATM    2  N8  UNL     1     -32.181   7.249   2.942  1.00 20.00    -0.273 NA
HETATM    3  S10 UNL     1     -32.190   9.378   1.172  1.00 20.00    -0.055 SA
ENDROOT
BRANCH   2   4
HETATM    4  C7  UNL     1     -33.317   6.339   2.840  1.00 20.00     0.182 C 
BRANCH   4   5
HETATM    5  C6  UNL     1     -33.534   5.673   4.192  1.00 20.00     0.141 C 
HETATM    6  C4  UNL     1     -34.695   4.677   4.135  1.00 20.00     0.034 C 
HETATM    7  C2  UNL     1     -34.978   4.101   5.519  1.00 20.00     0.005 C 
HETATM    8  C3  UNL     1     -35.139   5.220   6.542  1.00 20.00     0.026 C 
HETATM    9  C5  UNL     1     -33.966   6.189   6.470  1.00 20.00     0.168 C 
HETATM   10  O9  UNL     1     -33.814   6.703   5.147  1.00 20.00    -0.384 OA
ENDBRANCH   4   5
ENDBRANCH   2   4
TORSDOF 2
ENDMDL
MODEL 3
REMARK VINA RESULT:      -3.9     11.513     12.525
REMARK  2 active torsions:
REMARK  status: ('A' for Active; 'I' for Inactive)
REMARK    1  A    between atoms: C6_6  and  C7_7 
REMARK    2  A    between atoms: C7_7  and  N8_8 
ROOT
HETATM    1  C1  UNL     1     -34.702  16.550  -1.085  1.00 20.00     0.157 C 
HETATM    2  N8  UNL     1     -34.579  15.860  -2.029  1.00 20.00    -0.273 NA
HETATM    3  S10 UNL     1     -34.886  17.471   0.202  1.00 20.00    -0.055 SA
ENDROOT
BRANCH   2   4
HETATM    4  C7  UNL     1     -33.563  16.291  -2.984  1.00 20.00     0.182 C 
BRANCH   4   5
HETATM    5  C6  UNL     1     -33.637  15.400  -4.215  1.00 20.00     0.141 C 
HETATM    6  C4  UNL     1     -34.030  16.205  -5.456  1.00 20.00     0.034 C 
HETATM    7  C2  UNL     1     -34.213  15.286  -6.659  1.00 20.00     0.005 C 
HETATM    8  C3  UNL     1     -35.151  14.134  -6.315  1.00 20.00     0.026 C 
HETATM    9  C5  UNL     1     -34.709  13.443  -5.032  1.00 20.00     0.168 C 
HETATM   10  O9  UNL     1     -34.611  14.381  -3.960  1.00 20.00    -0.384 OA
ENDBRANCH   4   5
ENDBRANCH   2   4
TORSDOF 2
ENDMDL
MODEL 4
REMARK VINA RESULT:      -3.9     11.626     12.619
REMARK  2 active torsions:
REMARK  status: ('A' for Active; 'I' for Inactive)
REMARK    1  A    between atoms: C6_6  and  C7_7 
REMARK    2  A    between atoms: C7_7  and  N8_8 
ROOT
HETATM    1  C1  UNL     1     -38.482  15.008  -3.571  1.00 20.00     0.157 C 
HETATM    2  N8  UNL     1     -37.530  14.406  -3.909  1.00 20.00    -0.273 NA
HETATM    3  S10 UNL     1     -39.774  15.809  -3.095  1.00 20.00    -0.055 SA
ENDROOT
BRANCH   2   4
HETATM    4  C7  UNL     1     -36.948  14.828  -5.180  1.00 20.00     0.182 C 
BRANCH   4   5
HETATM    5  C6  UNL     1     -35.433  14.723  -5.084  1.00 20.00     0.141 C 
HETATM    6  C4  UNL     1     -35.017  13.690  -4.034  1.00 20.00     0.034 C 
HETATM    7  C2  UNL     1     -33.501  13.674  -3.865  1.00 20.00     0.005 C 
HETATM    8  C3  UNL     1     -32.974  15.084  -3.626  1.00 20.00     0.026 C 
HETATM    9  C5  UNL     1     -33.499  16.043  -4.686  1.00 20.00     0.168 C 
HETATM   10  O9  UNL     1     -34.925  16.016  -4.733  1.00 20.00    -0.384 OA
ENDBRANCH   4   5
ENDBRANCH   2   4
TORSDOF 2
ENDMDL
MODEL 5
REMARK VINA RESULT:      -3.9     11.452     12.231
REMARK  2 active torsions:
REMARK  status: ('A' for Active; 'I' for Inactive)
REMARK    1  A    between atoms: C6_6  and  C7_7 
REMARK    2  A    between atoms: C7_7  and  N8_8 
ROOT
HETATM    1  C1  UNL     1     -34.471  17.142  -0.413  1.00 20.00     0.157 C 
HETATM    2  N8  UNL     1     -34.778  16.273  -1.143  1.00 20.00    -0.273 NA
HETATM    3  S10 UNL     1     -34.071  18.314   0.590  1.00 20.00    -0.055 SA
ENDROOT
BRANCH   2   4
HETATM    4  C7  UNL     1     -34.026  16.217  -2.392  1.00 20.00     0.182 C 
BRANCH   4   5
HETATM    5  C6  UNL     1     -34.787  15.347  -3.384  1.00 20.00     0.141 C 
HETATM    6  C4  UNL     1     -34.041  14.038  -3.653  1.00 20.00     0.034 C 
HETATM    7  C2  UNL     1     -34.752  13.226  -4.732  1.00 20.00     0.005 C 
HETATM    8  C3  UNL     1     -35.013  14.085  -5.964  1.00 20.00     0.026 C 
HETATM    9  C5  UNL     1     -35.697  15.389  -5.578  1.00 20.00     0.168 C 
HETATM   10  O9  UNL     1     -34.931  16.092  -4.599  1.00 20.00    -0.384 OA
ENDBRANCH   4   5
ENDBRANCH   2   4
TORSDOF 2
ENDMDL
MODEL 6
REMARK VINA RESULT:      -3.8     10.206     10.797
REMARK  2 active torsions:
REMARK  status: ('A' for Active; 'I' for Inactive)
REMARK    1  A    between atoms: C6_6  and  C7_7 
REMARK    2  A    between atoms: C7_7  and  N8_8 
ROOT
HETATM    1  C1  UNL     1     -42.319   8.636  -4.697  1.00 20.00     0.157 C 
HETATM    2  N8  UNL     1     -42.604   7.709  -4.031  1.00 20.00    -0.273 NA
HETATM    3  S10 UNL     1     -41.928   9.876  -5.617  1.00 20.00    -0.055 SA
ENDROOT
BRANCH   2   4
HETATM    4  C7  UNL     1     -42.931   8.021  -2.643  1.00 20.00     0.182 C 
BRANCH   4   5
HETATM    5  C6  UNL     1     -42.538   6.837  -1.770  1.00 20.00     0.141 C 
HETATM    6  C4  UNL     1     -41.248   7.127  -0.999  1.00 20.00     0.034 C 
HETATM    7  C2  UNL     1     -40.801   5.896  -0.217  1.00 20.00     0.005 C 
HETATM    8  C3  UNL     1     -40.749   4.673  -1.125  1.00 20.00     0.026 C 
HETATM    9  C5  UNL     1     -42.055   4.515  -1.893  1.00 20.00     0.168 C 
HETATM   10  O9  UNL     1     -42.359   5.702  -2.625  1.00 20.00    -0.384 OA
ENDBRANCH   4   5
ENDBRANCH   2   4
TORSDOF 2
ENDMDL
MODEL 7
REMARK VINA RESULT:      -3.8     11.287     11.933
REMARK  2 active torsions:
REMARK  status: ('A' for Active; 'I' for Inactive)
REMARK    1  A    between atoms: C6_6  and  C7_7 
REMARK    2  A    between atoms: C7_7  and  N8_8 
ROOT
HETATM    1  C1  UNL     1     -34.919  17.268   0.262  1.00 20.00     0.157 C 
HETATM    2  N8  UNL     1     -34.481  16.806  -0.727  1.00 20.00    -0.273 NA
HETATM    3  S10 UNL     1     -35.497  17.883   1.613  1.00 20.00    -0.055 SA
ENDROOT
BRANCH   2   4
HETATM    4  C7  UNL     1     -35.250  17.083  -1.935  1.00 20.00     0.182 C 
BRANCH   4   5
HETATM    5  C6  UNL     1     -34.756  16.173  -3.051  1.00 20.00     0.141 C 
HETATM    6  C4  UNL     1     -35.656  14.944  -3.198  1.00 20.00     0.034 C 
HETATM    7  C2  UNL     1     -35.089  13.983  -4.238  1.00 20.00     0.005 C 
HETATM    8  C3  UNL     1     -33.625  13.678  -3.944  1.00 20.00     0.026 C 
HETATM    9  C5  UNL     1     -32.834  14.965  -3.750  1.00 20.00     0.168 C 
HETATM   10  O9  UNL     1     -33.420  15.770  -2.727  1.00 20.00    -0.384 OA
ENDBRANCH   4   5
ENDBRANCH   2   4
TORSDOF 2
ENDMDL
MODEL 8
REMARK VINA RESULT:      -3.8     11.570     12.377
REMARK  2 active torsions:
REMARK  status: ('A' for Active; 'I' for Inactive)
REMARK    1  A    between atoms: C6_6  and  C7_7 
REMARK    2  A    between atoms: C7_7  and  N8_8 
ROOT
HETATM    1  C1  UNL     1     -39.077  15.099  -3.443  1.00 20.00     0.157 C 
HETATM    2  N8  UNL     1     -38.190  14.365  -3.682  1.00 20.00    -0.273 NA
HETATM    3  S10 UNL     1     -40.290  16.076  -3.110  1.00 20.00    -0.055 SA
ENDROOT
BRANCH   2   4
HETATM    4  C7  UNL     1     -37.116  14.932  -4.492  1.00 20.00     0.182 C 
BRANCH   4   5
HETATM    5  C6  UNL     1     -35.800  14.769  -3.744  1.00 20.00     0.141 C 
HETATM    6  C4  UNL     1     -35.178  16.130  -3.423  1.00 20.00     0.034 C 
HETATM    7  C2  UNL     1     -33.807  15.956  -2.777  1.00 20.00     0.005 C 
HETATM    8  C3  UNL     1     -32.934  15.030  -3.615  1.00 20.00     0.026 C 
HETATM    9  C5  UNL     1     -33.670  13.735  -3.933  1.00 20.00     0.168 C 
HETATM   10  O9  UNL     1     -34.917  14.006  -4.574  1.00 20.00    -0.384 OA
ENDBRANCH   4   5
ENDBRANCH   2   4
TORSDOF 2
ENDMDL
MODEL 9
REMARK VINA RESULT:      -3.7     10.283     11.225
REMARK  2 active torsions:
REMARK  status: ('A' for Active; 'I' for Inactive)
REMARK    1  A    between atoms: C6_6  and  C7_7 
REMARK    2  A    between atoms: C7_7  and  N8_8 
ROOT
HETATM    1  C1  UNL     1     -41.693   1.870  -3.427  1.00 20.00     0.157 C 
HETATM    2  N8  UNL     1     -41.509   2.900  -2.891  1.00 20.00    -0.273 NA
HETATM    3  S10 UNL     1     -41.922   0.467  -4.147  1.00 20.00    -0.055 SA
ENDROOT
BRANCH   2   4
HETATM    4  C7  UNL     1     -42.569   3.888  -3.066  1.00 20.00     0.182 C 
BRANCH   4   5
HETATM    5  C6  UNL     1     -42.413   4.967  -2.003  1.00 20.00     0.141 C 
HETATM    6  C4  UNL     1     -42.645   6.360  -2.594  1.00 20.00     0.034 C 
HETATM    7  C2  UNL     1     -42.375   7.439  -1.551  1.00 20.00     0.005 C 
HETATM    8  C3  UNL     1     -41.009   7.232  -0.907  1.00 20.00     0.026 C 
HETATM    9  C5  UNL     1     -40.857   5.800  -0.413  1.00 20.00     0.168 C 
HETATM   10  O9  UNL     1     -41.086   4.871  -1.473  1.00 20.00    -0.384 OA
ENDBRANCH   4   5
ENDBRANCH   2   4
TORSDOF 2
ENDMDL
