MODEL 1
REMARK VINA RESULT:      -4.9      0.000      0.000
REMARK  1 active torsions:
REMARK  status: ('A' for Active; 'I' for Inactive)
REMARK    1  A    between atoms: C1_1  and  O10_10 
ROOT
HETATM    1  C1  UNL     1     -34.834  13.495  -3.981  1.00 20.00     0.099 C 
HETATM    2  C2  UNL     1     -35.442  14.699  -3.895  1.00 20.00     0.026 C 
HETATM    3  C3  UNL     1     -33.449  13.869  -3.566  1.00 20.00     0.183 C 
HETATM    4  C4  UNL     1     -35.708  15.459  -5.171  1.00 20.00     0.018 C 
HETATM    5  C5  UNL     1     -34.793  15.573  -2.852  1.00 20.00     0.030 C 
HETATM    6  C6  UNL     1     -34.320  15.839  -5.751  1.00 20.00     0.002 C 
HETATM    7  C7  UNL     1     -33.209  16.127  -4.689  1.00 20.00     0.013 C 
HETATM    8  C8  UNL     1     -33.375  15.369  -3.344  1.00 20.00     0.063 C 
HETATM    9  O9  UNL     1     -32.508  13.093  -3.528  1.00 20.00    -0.290 OA
ENDROOT
BRANCH   1  10
HETATM   10  O10 UNL     1     -35.005  12.532  -4.933  1.00 20.00    -0.360 OA
HETATM   11  H20 UNL     1     -35.004  11.653  -4.530  1.00 20.00     0.217 HD
ENDBRANCH   1  10
TORSDOF 1
ENDMDL
MODEL 2
REMARK VINA RESULT:      -4.8      1.417      2.887
REMARK  1 active torsions:
REMARK  status: ('A' for Active; 'I' for Inactive)
REMARK    1  A    between atoms: C1_1  and  O10_10 
ROOT
HETATM    1  C1  UNL     1     -35.412  13.834  -4.613  1.00 20.00     0.099 C 
HETATM    2  C2  UNL     1     -34.545  14.844  -4.850  1.00 20.00     0.026 C 
HETATM    3  C3  UNL     1     -36.599  14.610  -4.146  1.00 20.00     0.183 C 
HETATM    4  C4  UNL     1     -33.458  15.108  -3.838  1.00 20.00     0.018 C 
HETATM    5  C5  UNL     1     -35.265  16.111  -5.236  1.00 20.00     0.030 C 
HETATM    6  C6  UNL     1     -34.171  15.590  -2.547  1.00 20.00     0.002 C 
HETATM    7  C7  UNL     1     -35.476  16.421  -2.776  1.00 20.00     0.013 C 
HETATM    8  C8  UNL     1     -36.246  16.086  -4.081  1.00 20.00     0.063 C 
HETATM    9  O9  UNL     1     -37.645  14.107  -3.769  1.00 20.00    -0.290 OA
ENDROOT
BRANCH   1  10
HETATM   10  O10 UNL     1     -35.152  12.617  -4.053  1.00 20.00    -0.360 OA
HETATM   11  H20 UNL     1     -35.916  12.031  -4.145  1.00 20.00     0.217 HD
ENDBRANCH   1  10
TORSDOF 1
ENDMDL
MODEL 3
REMARK VINA RESULT:      -4.8      1.867      2.876
REMARK  1 active torsions:
REMARK  status: ('A' for Active; 'I' for Inactive)
REMARK    1  A    between atoms: C1_1  and  O10_10 
ROOT
HETATM    1  C1  UNL     1     -35.148  15.263  -3.062  1.00 20.00     0.099 C 
HETATM    2  C2  UNL     1     -33.878  15.057  -3.479  1.00 20.00     0.026 C 
HETATM    3  C3  UNL     1     -35.863  14.239  -3.882  1.00 20.00     0.183 C 
HETATM    4  C4  UNL     1     -33.282  16.030  -4.466  1.00 20.00     0.018 C 
HETATM    5  C5  UNL     1     -33.662  13.628  -3.907  1.00 20.00     0.030 C 
HETATM    6  C6  UNL     1     -34.085  15.864  -5.783  1.00 20.00     0.002 C 
HETATM    7  C7  UNL     1     -34.602  14.416  -6.072  1.00 20.00     0.013 C 
HETATM    8  C8  UNL     1     -34.876  13.554  -4.810  1.00 20.00     0.063 C 
HETATM    9  O9  UNL     1     -37.072  14.074  -3.875  1.00 20.00    -0.290 OA
ENDROOT
BRANCH   1  10
HETATM   10  O10 UNL     1     -35.764  16.451  -2.798  1.00 20.00    -0.360 OA
HETATM   11  H20 UNL     1     -36.446  16.633  -3.459  1.00 20.00     0.217 HD
ENDBRANCH   1  10
TORSDOF 1
ENDMDL
MODEL 4
REMARK VINA RESULT:      -4.7      1.696      2.748
REMARK  1 active torsions:
REMARK  status: ('A' for Active; 'I' for Inactive)
REMARK    1  A    between atoms: C1_1  and  O10_10 
ROOT
HETATM    1  C1  UNL     1     -33.186  15.313  -3.576  1.00 20.00     0.099 C 
HETATM    2  C2  UNL     1     -34.340  14.682  -3.262  1.00 20.00     0.026 C 
HETATM    3  C3  UNL     1     -33.710  16.389  -4.471  1.00 20.00     0.183 C 
HETATM    4  C4  UNL     1     -34.656  13.381  -3.956  1.00 20.00     0.018 C 
HETATM    5  C5  UNL     1     -35.513  15.628  -3.293  1.00 20.00     0.030 C 
HETATM    6  C6  UNL     1     -34.873  13.725  -5.453  1.00 20.00     0.002 C 
HETATM    7  C7  UNL     1     -35.510  15.127  -5.730  1.00 20.00     0.013 C 
HETATM    8  C8  UNL     1     -35.205  16.208  -4.658  1.00 20.00     0.063 C 
HETATM    9  O9  UNL     1     -33.010  17.207  -5.045  1.00 20.00    -0.290 OA
ENDROOT
BRANCH   1  10
HETATM   10  O10 UNL     1     -31.970  14.757  -3.847  1.00 20.00    -0.360 OA
HETATM   11  H20 UNL     1     -31.267  15.413  -3.744  1.00 20.00     0.217 HD
ENDBRANCH   1  10
TORSDOF 1
ENDMDL
MODEL 5
REMARK VINA RESULT:      -4.7      1.994      3.262
REMARK  1 active torsions:
REMARK  status: ('A' for Active; 'I' for Inactive)
REMARK    1  A    between atoms: C1_1  and  O10_10 
ROOT
HETATM    1  C1  UNL     1     -33.500  16.189  -4.304  1.00 20.00     0.099 C 
HETATM    2  C2  UNL     1     -33.539  15.273  -3.310  1.00 20.00     0.026 C 
HETATM    3  C3  UNL     1     -34.961  16.448  -4.482  1.00 20.00     0.183 C 
HETATM    4  C4  UNL     1     -33.333  13.822  -3.666  1.00 20.00     0.018 C 
HETATM    5  C5  UNL     1     -34.749  15.464  -2.430  1.00 20.00     0.030 C 
HETATM    6  C6  UNL     1     -34.549  13.407  -4.535  1.00 20.00     0.002 C 
HETATM    7  C7  UNL     1     -35.898  14.114  -4.176  1.00 20.00     0.013 C 
HETATM    8  C8  UNL     1     -35.752  15.533  -3.564  1.00 20.00     0.063 C 
HETATM    9  O9  UNL     1     -35.429  17.198  -5.322  1.00 20.00    -0.290 OA
ENDROOT
BRANCH   1  10
HETATM   10  O10 UNL     1     -32.684  16.210  -5.397  1.00 20.00    -0.360 OA
HETATM   11  H20 UNL     1     -32.848  17.001  -5.928  1.00 20.00     0.217 HD
ENDBRANCH   1  10
TORSDOF 1
ENDMDL
MODEL 6
REMARK VINA RESULT:      -4.6      1.192      2.474
REMARK  1 active torsions:
REMARK  status: ('A' for Active; 'I' for Inactive)
REMARK    1  A    between atoms: C1_1  and  O10_10 
ROOT
HETATM    1  C1  UNL     1     -34.275  13.740  -4.478  1.00 20.00     0.099 C 
HETATM    2  C2  UNL     1     -33.781  14.738  -3.710  1.00 20.00     0.026 C 
HETATM    3  C3  UNL     1     -34.614  14.504  -5.716  1.00 20.00     0.183 C 
HETATM    4  C4  UNL     1     -34.660  15.306  -2.623  1.00 20.00     0.018 C 
HETATM    5  C5  UNL     1     -33.160  15.826  -4.549  1.00 20.00     0.030 C 
HETATM    6  C6  UNL     1     -35.845  16.006  -3.339  1.00 20.00     0.002 C 
HETATM    7  C7  UNL     1     -35.499  16.658  -4.719  1.00 20.00     0.013 C 
HETATM    8  C8  UNL     1     -34.336  15.980  -5.492  1.00 20.00     0.063 C 
HETATM    9  O9  UNL     1     -35.140  14.017  -6.702  1.00 20.00    -0.290 OA
ENDROOT
BRANCH   1  10
HETATM   10  O10 UNL     1     -35.075  12.703  -4.097  1.00 20.00    -0.360 OA
HETATM   11  H20 UNL     1     -34.573  11.877  -4.077  1.00 20.00     0.217 HD
ENDBRANCH   1  10
TORSDOF 1
ENDMDL
MODEL 7
REMARK VINA RESULT:      -4.6      1.883      2.623
REMARK  1 active torsions:
REMARK  status: ('A' for Active; 'I' for Inactive)
REMARK    1  A    between atoms: C1_1  and  O10_10 
ROOT
HETATM    1  C1  UNL     1     -34.280  15.043  -5.662  1.00 20.00     0.099 C 
HETATM    2  C2  UNL     1     -34.543  14.030  -4.806  1.00 20.00     0.026 C 
HETATM    3  C3  UNL     1     -33.436  15.914  -4.789  1.00 20.00     0.183 C 
HETATM    4  C4  UNL     1     -35.900  13.982  -4.149  1.00 20.00     0.018 C 
HETATM    5  C5  UNL     1     -33.432  13.853  -3.802  1.00 20.00     0.030 C 
HETATM    6  C6  UNL     1     -35.980  15.221  -3.218  1.00 20.00     0.002 C 
HETATM    7  C7  UNL     1     -34.625  15.654  -2.567  1.00 20.00     0.013 C 
HETATM    8  C8  UNL     1     -33.359  15.311  -3.397  1.00 20.00     0.063 C 
HETATM    9  O9  UNL     1     -32.985  16.995  -5.127  1.00 20.00    -0.290 OA
ENDROOT
BRANCH   1  10
HETATM   10  O10 UNL     1     -35.125  15.625  -6.562  1.00 20.00    -0.360 OA
HETATM   11  H20 UNL     1     -34.771  15.547  -7.458  1.00 20.00     0.217 HD
ENDBRANCH   1  10
TORSDOF 1
ENDMDL
MODEL 8
REMARK VINA RESULT:      -4.6      1.135      1.791
REMARK  1 active torsions:
REMARK  status: ('A' for Active; 'I' for Inactive)
REMARK    1  A    between atoms: C1_1  and  O10_10 
ROOT
HETATM    1  C1  UNL     1     -35.799  14.667  -5.266  1.00 20.00     0.099 C 
HETATM    2  C2  UNL     1     -35.660  15.793  -4.531  1.00 20.00     0.026 C 
HETATM    3  C3  UNL     1     -34.980  13.718  -4.452  1.00 20.00     0.183 C 
HETATM    4  C4  UNL     1     -34.701  16.851  -5.016  1.00 20.00     0.018 C 
HETATM    5  C5  UNL     1     -35.450  15.478  -3.071  1.00 20.00     0.030 C 
HETATM    6  C6  UNL     1     -33.282  16.230  -4.925  1.00 20.00     0.002 C 
HETATM    7  C7  UNL     1     -33.069  15.223  -3.746  1.00 20.00     0.013 C 
HETATM    8  C8  UNL     1     -34.345  14.465  -3.292  1.00 20.00     0.063 C 
HETATM    9  O9  UNL     1     -34.774  12.555  -4.753  1.00 20.00    -0.290 OA
ENDROOT
BRANCH   1  10
HETATM   10  O10 UNL     1     -35.801  14.544  -6.625  1.00 20.00    -0.360 OA
HETATM   11  H20 UNL     1     -36.332  15.244  -7.028  1.00 20.00     0.217 HD
ENDBRANCH   1  10
TORSDOF 1
ENDMDL
MODEL 9
REMARK VINA RESULT:      -4.5      1.608      2.532
REMARK  1 active torsions:
REMARK  status: ('A' for Active; 'I' for Inactive)
REMARK    1  A    between atoms: C1_1  and  O10_10 
ROOT
HETATM    1  C1  UNL     1     -36.227  14.614  -4.109  1.00 20.00     0.099 C 
HETATM    2  C2  UNL     1     -35.995  15.758  -4.793  1.00 20.00     0.026 C 
HETATM    3  C3  UNL     1     -35.183  13.731  -4.710  1.00 20.00     0.183 C 
HETATM    4  C4  UNL     1     -36.927  16.118  -5.922  1.00 20.00     0.018 C 
HETATM    5  C5  UNL     1     -34.550  15.870  -5.207  1.00 20.00     0.030 C 
HETATM    6  C6  UNL     1     -36.724  15.039  -7.018  1.00 20.00     0.002 C 
HETATM    7  C7  UNL     1     -35.272  14.468  -7.132  1.00 20.00     0.013 C 
HETATM    8  C8  UNL     1     -34.456  14.484  -5.811  1.00 20.00     0.063 C 
HETATM    9  O9  UNL     1     -35.030  12.555  -4.426  1.00 20.00    -0.290 OA
ENDROOT
BRANCH   1  10
HETATM   10  O10 UNL     1     -37.430  14.075  -3.755  1.00 20.00    -0.360 OA
HETATM   11  H20 UNL     1     -37.550  13.212  -4.174  1.00 20.00     0.217 HD
ENDBRANCH   1  10
TORSDOF 1
ENDMDL
