MODEL 1
REMARK VINA RESULT:      -4.0      0.000      0.000
REMARK  1 active torsions:
REMARK  status: ('A' for Active; 'I' for Inactive)
REMARK    1  A    between atoms: C3_3  and  O8_8 
ROOT
HETATM    1  C1  UNL     1     -33.628  15.718  -4.031  1.00 20.00     0.040 C 
HETATM    2  C2  UNL     1     -32.590  14.652  -3.733  1.00 20.00     0.172 C 
HETATM    3  C3  UNL     1     -34.699  13.657  -3.710  1.00 20.00     0.264 C 
HETATM    4  C4  UNL     1     -34.791  14.910  -4.593  1.00 20.00     0.004 C 
HETATM    5  C5  UNL     1     -34.568  14.598  -6.084  1.00 20.00     0.020 C 
HETATM    6  C6  UNL     1     -36.131  15.629  -4.430  1.00 20.00     0.020 C 
HETATM    7  O7  UNL     1     -33.299  13.429  -3.487  1.00 20.00    -0.361 OA
ENDROOT
BRANCH   3   8
HETATM    8  O8  UNL     1     -35.333  12.542  -4.314  1.00 20.00    -0.371 OA
HETATM    9  H20 UNL     1     -34.890  12.399  -5.165  1.00 20.00     0.212 HD
ENDBRANCH   3   8
TORSDOF 1
ENDMDL
MODEL 2
REMARK VINA RESULT:      -4.0      1.306      2.549
REMARK  1 active torsions:
REMARK  status: ('A' for Active; 'I' for Inactive)
REMARK    1  A    between atoms: C3_3  and  O8_8 
ROOT
HETATM    1  C1  UNL     1     -33.838  15.677  -5.276  1.00 20.00     0.040 C 
HETATM    2  C2  UNL     1     -35.058  15.454  -6.149  1.00 20.00     0.172 C 
HETATM    3  C3  UNL     1     -34.613  13.485  -4.982  1.00 20.00     0.264 C 
HETATM    4  C4  UNL     1     -34.018  14.644  -4.171  1.00 20.00     0.004 C 
HETATM    5  C5  UNL     1     -34.984  15.165  -3.091  1.00 20.00     0.020 C 
HETATM    6  C6  UNL     1     -32.693  14.262  -3.511  1.00 20.00     0.020 C 
HETATM    7  O7  UNL     1     -35.456  14.086  -5.978  1.00 20.00    -0.361 OA
ENDROOT
BRANCH   3   8
HETATM    8  O8  UNL     1     -35.325  12.577  -4.157  1.00 20.00    -0.371 OA
HETATM    9  H20 UNL     1     -35.076  12.781  -3.242  1.00 20.00     0.212 HD
ENDBRANCH   3   8
TORSDOF 1
ENDMDL
MODEL 3
REMARK VINA RESULT:      -3.9      1.922      3.010
REMARK  1 active torsions:
REMARK  status: ('A' for Active; 'I' for Inactive)
REMARK    1  A    between atoms: C3_3  and  O8_8 
ROOT
HETATM    1  C1  UNL     1     -35.639  14.242  -4.665  1.00 20.00     0.040 C 
HETATM    2  C2  UNL     1     -35.236  14.145  -6.125  1.00 20.00     0.172 C 
HETATM    3  C3  UNL     1     -33.889  15.744  -5.090  1.00 20.00     0.264 C 
HETATM    4  C4  UNL     1     -34.378  14.779  -4.001  1.00 20.00     0.004 C 
HETATM    5  C5  UNL     1     -33.377  13.640  -3.731  1.00 20.00     0.020 C 
HETATM    6  C6  UNL     1     -34.675  15.501  -2.686  1.00 20.00     0.020 C 
HETATM    7  O7  UNL     1     -34.208  15.121  -6.345  1.00 20.00    -0.361 OA
ENDROOT
BRANCH   3   8
HETATM    8  O8  UNL     1     -32.504  16.018  -4.967  1.00 20.00    -0.371 OA
HETATM    9  H20 UNL     1     -32.311  16.049  -4.016  1.00 20.00     0.212 HD
ENDBRANCH   3   8
TORSDOF 1
ENDMDL
MODEL 4
REMARK VINA RESULT:      -3.9      1.130      2.566
REMARK  1 active torsions:
REMARK  status: ('A' for Active; 'I' for Inactive)
REMARK    1  A    between atoms: C3_3  and  O8_8 
ROOT
HETATM    1  C1  UNL     1     -35.663  15.273  -4.597  1.00 20.00     0.040 C 
HETATM    2  C2  UNL     1     -36.230  13.933  -4.170  1.00 20.00     0.172 C 
HETATM    3  C3  UNL     1     -33.936  13.691  -4.510  1.00 20.00     0.264 C 
HETATM    4  C4  UNL     1     -34.200  15.168  -4.187  1.00 20.00     0.004 C 
HETATM    5  C5  UNL     1     -34.030  15.483  -2.689  1.00 20.00     0.020 C 
HETATM    6  C6  UNL     1     -33.300  16.102  -4.997  1.00 20.00     0.020 C 
HETATM    7  O7  UNL     1     -35.149  12.990  -4.190  1.00 20.00    -0.361 OA
ENDROOT
BRANCH   3   8
HETATM    8  O8  UNL     1     -32.822  13.187  -3.791  1.00 20.00    -0.371 OA
HETATM    9  H20 UNL     1     -33.034  13.283  -2.849  1.00 20.00     0.212 HD
ENDBRANCH   3   8
TORSDOF 1
ENDMDL
MODEL 5
REMARK VINA RESULT:      -3.9      1.339      2.818
REMARK  1 active torsions:
REMARK  status: ('A' for Active; 'I' for Inactive)
REMARK    1  A    between atoms: C3_3  and  O8_8 
ROOT
HETATM    1  C1  UNL     1     -36.275  16.148  -4.324  1.00 20.00     0.040 C 
HETATM    2  C2  UNL     1     -37.375  15.380  -3.615  1.00 20.00     0.172 C 
HETATM    3  C3  UNL     1     -35.854  13.849  -4.499  1.00 20.00     0.264 C 
HETATM    4  C4  UNL     1     -35.105  15.173  -4.291  1.00 20.00     0.004 C 
HETATM    5  C5  UNL     1     -34.382  15.234  -2.933  1.00 20.00     0.020 C 
HETATM    6  C6  UNL     1     -34.093  15.441  -5.406  1.00 20.00     0.020 C 
HETATM    7  O7  UNL     1     -37.103  13.984  -3.803  1.00 20.00    -0.361 OA
ENDROOT
BRANCH   3   8
HETATM    8  O8  UNL     1     -35.100  12.741  -4.035  1.00 20.00    -0.371 OA
HETATM    9  H20 UNL     1     -35.463  12.504  -3.167  1.00 20.00     0.212 HD
ENDBRANCH   3   8
TORSDOF 1
ENDMDL
MODEL 6
REMARK VINA RESULT:      -3.7      1.935      2.606
REMARK  1 active torsions:
REMARK  status: ('A' for Active; 'I' for Inactive)
REMARK    1  A    between atoms: C3_3  and  O8_8 
ROOT
HETATM    1  C1  UNL     1     -35.457  15.137  -3.484  1.00 20.00     0.040 C 
HETATM    2  C2  UNL     1     -34.886  16.322  -2.728  1.00 20.00     0.172 C 
HETATM    3  C3  UNL     1     -33.121  14.956  -3.405  1.00 20.00     0.264 C 
HETATM    4  C4  UNL     1     -34.292  14.704  -4.365  1.00 20.00     0.004 C 
HETATM    5  C5  UNL     1     -34.213  15.575  -5.632  1.00 20.00     0.020 C 
HETATM    6  C6  UNL     1     -34.389  13.234  -4.777  1.00 20.00     0.020 C 
HETATM    7  O7  UNL     1     -33.465  16.133  -2.657  1.00 20.00    -0.361 OA
ENDROOT
BRANCH   3   8
HETATM    8  O8  UNL     1     -31.894  15.105  -4.100  1.00 20.00    -0.371 OA
HETATM    9  H20 UNL     1     -31.961  15.931  -4.605  1.00 20.00     0.212 HD
ENDBRANCH   3   8
TORSDOF 1
ENDMDL
MODEL 7
REMARK VINA RESULT:      -3.6     11.056     12.266
REMARK  1 active torsions:
REMARK  status: ('A' for Active; 'I' for Inactive)
REMARK    1  A    between atoms: C3_3  and  O8_8 
ROOT
HETATM    1  C1  UNL     1     -43.223   6.275  -0.336  1.00 20.00     0.040 C 
HETATM    2  C2  UNL     1     -42.882   5.408   0.861  1.00 20.00     0.172 C 
HETATM    3  C3  UNL     1     -41.619   4.685  -0.961  1.00 20.00     0.264 C 
HETATM    4  C4  UNL     1     -41.979   6.157  -1.206  1.00 20.00     0.004 C 
HETATM    5  C5  UNL     1     -40.881   7.121  -0.721  1.00 20.00     0.020 C 
HETATM    6  C6  UNL     1     -42.272   6.437  -2.681  1.00 20.00     0.020 C 
HETATM    7  O7  UNL     1     -41.945   4.418   0.413  1.00 20.00    -0.361 OA
ENDROOT
BRANCH   3   8
HETATM    8  O8  UNL     1     -40.255   4.423  -1.247  1.00 20.00    -0.371 OA
HETATM    9  H20 UNL     1     -39.766   5.232  -1.029  1.00 20.00     0.212 HD
ENDBRANCH   3   8
TORSDOF 1
ENDMDL
MODEL 8
REMARK VINA RESULT:      -3.5     10.819     12.132
REMARK  1 active torsions:
REMARK  status: ('A' for Active; 'I' for Inactive)
REMARK    1  A    between atoms: C3_3  and  O8_8 
ROOT
HETATM    1  C1  UNL     1     -42.738   5.131  -0.074  1.00 20.00     0.040 C 
HETATM    2  C2  UNL     1     -43.417   6.486  -0.014  1.00 20.00     0.172 C 
HETATM    3  C3  UNL     1     -41.355   6.739  -1.073  1.00 20.00     0.264 C 
HETATM    4  C4  UNL     1     -41.792   5.279  -1.258  1.00 20.00     0.004 C 
HETATM    5  C5  UNL     1     -42.540   5.051  -2.585  1.00 20.00     0.020 C 
HETATM    6  C6  UNL     1     -40.609   4.312  -1.182  1.00 20.00     0.020 C 
HETATM    7  O7  UNL     1     -42.508   7.441  -0.582  1.00 20.00    -0.361 OA
ENDROOT
BRANCH   3   8
HETATM    8  O8  UNL     1     -40.864   7.298  -2.280  1.00 20.00    -0.371 OA
HETATM    9  H20 UNL     1     -40.195   7.954  -2.030  1.00 20.00     0.212 HD
ENDBRANCH   3   8
TORSDOF 1
ENDMDL
MODEL 9
REMARK VINA RESULT:      -3.5     11.280     12.459
REMARK  1 active torsions:
REMARK  status: ('A' for Active; 'I' for Inactive)
REMARK    1  A    between atoms: C3_3  and  O8_8 
ROOT
HETATM    1  C1  UNL     1     -43.045   6.137  -1.330  1.00 20.00     0.040 C 
HETATM    2  C2  UNL     1     -41.880   6.956  -1.853  1.00 20.00     0.172 C 
HETATM    3  C3  UNL     1     -41.037   5.030  -0.845  1.00 20.00     0.264 C 
HETATM    4  C4  UNL     1     -42.475   4.725  -1.287  1.00 20.00     0.004 C 
HETATM    5  C5  UNL     1     -42.537   4.071  -2.680  1.00 20.00     0.020 C 
HETATM    6  C6  UNL     1     -43.207   3.832  -0.285  1.00 20.00     0.020 C 
HETATM    7  O7  UNL     1     -40.678   6.268  -1.480  1.00 20.00    -0.361 OA
ENDROOT
BRANCH   3   8
HETATM    8  O8  UNL     1     -40.148   3.978  -1.185  1.00 20.00    -0.371 OA
HETATM    9  H20 UNL     1     -40.500   3.569  -1.991  1.00 20.00     0.212 HD
ENDBRANCH   3   8
TORSDOF 1
ENDMDL
