MODEL 1
REMARK VINA RESULT:      -5.2      0.000      0.000
REMARK  3 active torsions:
REMARK  status: ('A' for Active; 'I' for Inactive)
REMARK    1  A    between atoms: C3_3  and  C4_4 
REMARK    2  A    between atoms: C4_4  and  C5_5 
REMARK    3  A    between atoms: C4_4  and  O6_6 
ROOT
HETATM    1  C4  UNL     1     -33.936   6.154   3.889  1.00 20.00     0.229 C 
ENDROOT
BRANCH   1   2
HETATM    2  C3  UNL     1     -33.822   5.393   5.163  1.00 20.00     0.023 A 
HETATM    3  C1  UNL     1     -34.464   5.917   6.418  1.00 20.00     0.008 A 
HETATM    4  C2  UNL     1     -35.023   4.697   5.740  1.00 20.00     0.008 A 
ENDBRANCH   1   2
BRANCH   1   5
HETATM    5  C5  UNL     1     -32.587   6.615   3.366  1.00 20.00     0.413 C 
HETATM    6  F7  UNL     1     -31.897   7.280   4.319  1.00 20.00    -0.168 F 
HETATM    7  F8  UNL     1     -31.831   5.562   2.983  1.00 20.00    -0.168 F 
HETATM    8  F9  UNL     1     -32.720   7.437   2.305  1.00 20.00    -0.168 F 
ENDBRANCH   1   5
BRANCH   1   9
HETATM    9  O6  UNL     1     -34.537   5.334   2.885  1.00 20.00    -0.386 OA
HETATM   10  H16 UNL     1     -34.701   4.474   3.298  1.00 20.00     0.210 HD
ENDBRANCH   1   9
TORSDOF 3
ENDMDL
MODEL 2
REMARK VINA RESULT:      -5.0      2.468      3.575
REMARK  3 active torsions:
REMARK  status: ('A' for Active; 'I' for Inactive)
REMARK    1  A    between atoms: C3_3  and  C4_4 
REMARK    2  A    between atoms: C4_4  and  C5_5 
REMARK    3  A    between atoms: C4_4  and  O6_6 
ROOT
HETATM    1  C4  UNL     1     -33.946   6.495   4.062  1.00 20.00     0.229 C 
ENDROOT
BRANCH   1   2
HETATM    2  C3  UNL     1     -32.618   6.497   3.390  1.00 20.00     0.023 A 
HETATM    3  C1  UNL     1     -32.237   7.624   2.470  1.00 20.00     0.008 A 
HETATM    4  C2  UNL     1     -31.561   7.483   3.805  1.00 20.00     0.008 A 
ENDBRANCH   1   2
BRANCH   1   5
HETATM    5  C5  UNL     1     -34.831   5.354   3.594  1.00 20.00     0.413 C 
HETATM    6  F7  UNL     1     -36.105   5.769   3.411  1.00 20.00    -0.168 F 
HETATM    7  F8  UNL     1     -34.397   4.858   2.414  1.00 20.00    -0.168 F 
HETATM    8  F9  UNL     1     -34.852   4.342   4.486  1.00 20.00    -0.168 F 
ENDBRANCH   1   5
BRANCH   1   9
HETATM    9  O6  UNL     1     -33.776   6.365   5.474  1.00 20.00    -0.386 OA
HETATM   10  H16 UNL     1     -32.923   5.927   5.607  1.00 20.00     0.210 HD
ENDBRANCH   1   9
TORSDOF 3
ENDMDL
MODEL 3
REMARK VINA RESULT:      -5.0      2.759      3.657
REMARK  3 active torsions:
REMARK  status: ('A' for Active; 'I' for Inactive)
REMARK    1  A    between atoms: C3_3  and  C4_4 
REMARK    2  A    between atoms: C4_4  and  C5_5 
REMARK    3  A    between atoms: C4_4  and  O6_6 
ROOT
HETATM    1  C4  UNL     1     -34.435   4.661   4.933  1.00 20.00     0.229 C 
ENDROOT
BRANCH   1   2
HETATM    2  C3  UNL     1     -34.408   5.784   3.955  1.00 20.00     0.023 A 
HETATM    3  C1  UNL     1     -33.105   6.234   3.354  1.00 20.00     0.008 A 
HETATM    4  C2  UNL     1     -34.117   5.516   2.504  1.00 20.00     0.008 A 
ENDBRANCH   1   2
BRANCH   1   5
HETATM    5  C5  UNL     1     -34.551   5.145   6.367  1.00 20.00     0.413 C 
HETATM    6  F7  UNL     1     -35.772   4.869   6.878  1.00 20.00    -0.168 F 
HETATM    7  F8  UNL     1     -33.638   4.538   7.158  1.00 20.00    -0.168 F 
HETATM    8  F9  UNL     1     -34.358   6.477   6.460  1.00 20.00    -0.168 F 
ENDBRANCH   1   5
BRANCH   1   9
HETATM    9  O6  UNL     1     -35.552   3.811   4.667  1.00 20.00    -0.386 OA
HETATM   10  H16 UNL     1     -36.344   4.325   4.883  1.00 20.00     0.210 HD
ENDBRANCH   1   9
TORSDOF 3
ENDMDL
MODEL 4
REMARK VINA RESULT:      -4.9      2.758      3.728
REMARK  3 active torsions:
REMARK  status: ('A' for Active; 'I' for Inactive)
REMARK    1  A    between atoms: C3_3  and  C4_4 
REMARK    2  A    between atoms: C4_4  and  C5_5 
REMARK    3  A    between atoms: C4_4  and  O6_6 
ROOT
HETATM    1  C4  UNL     1     -34.439   4.661   4.933  1.00 20.00     0.229 C 
ENDROOT
BRANCH   1   2
HETATM    2  C3  UNL     1     -34.406   5.791   3.963  1.00 20.00     0.023 A 
HETATM    3  C1  UNL     1     -33.100   6.239   3.367  1.00 20.00     0.008 A 
HETATM    4  C2  UNL     1     -34.114   5.533   2.511  1.00 20.00     0.008 A 
ENDBRANCH   1   2
BRANCH   1   5
HETATM    5  C5  UNL     1     -34.556   5.135   6.370  1.00 20.00     0.413 C 
HETATM    6  F7  UNL     1     -33.632   4.538   7.156  1.00 20.00    -0.168 F 
HETATM    7  F8  UNL     1     -34.356   6.469   6.457  1.00 20.00    -0.168 F 
HETATM    8  F9  UNL     1     -35.772   4.864   6.886  1.00 20.00    -0.168 F 
ENDBRANCH   1   5
BRANCH   1   9
HETATM    9  O6  UNL     1     -35.559   3.818   4.659  1.00 20.00    -0.386 OA
HETATM   10  H16 UNL     1     -36.220   4.012   5.339  1.00 20.00     0.210 HD
ENDBRANCH   1   9
TORSDOF 3
ENDMDL
MODEL 5
REMARK VINA RESULT:      -4.9      2.755      3.733
REMARK  3 active torsions:
REMARK  status: ('A' for Active; 'I' for Inactive)
REMARK    1  A    between atoms: C3_3  and  C4_4 
REMARK    2  A    between atoms: C4_4  and  C5_5 
REMARK    3  A    between atoms: C4_4  and  O6_6 
ROOT
HETATM    1  C4  UNL     1     -34.431   4.659   4.930  1.00 20.00     0.229 C 
ENDROOT
BRANCH   1   2
HETATM    2  C3  UNL     1     -34.408   5.785   3.956  1.00 20.00     0.023 A 
HETATM    3  C1  UNL     1     -33.108   6.238   3.353  1.00 20.00     0.008 A 
HETATM    4  C2  UNL     1     -34.122   5.524   2.503  1.00 20.00     0.008 A 
ENDBRANCH   1   2
BRANCH   1   5
HETATM    5  C5  UNL     1     -34.541   5.137   6.366  1.00 20.00     0.413 C 
HETATM    6  F7  UNL     1     -34.349   6.472   6.451  1.00 20.00    -0.168 F 
HETATM    7  F8  UNL     1     -35.767   4.874   6.871  1.00 20.00    -0.168 F 
HETATM    8  F9  UNL     1     -33.629   4.540   7.161  1.00 20.00    -0.168 F 
ENDBRANCH   1   5
BRANCH   1   9
HETATM    9  O6  UNL     1     -35.549   3.809   4.665  1.00 20.00    -0.386 OA
HETATM   10  H16 UNL     1     -35.191   2.918   4.542  1.00 20.00     0.210 HD
ENDBRANCH   1   9
TORSDOF 3
ENDMDL
MODEL 6
REMARK VINA RESULT:      -4.8      2.974      3.934
REMARK  3 active torsions:
REMARK  status: ('A' for Active; 'I' for Inactive)
REMARK    1  A    between atoms: C3_3  and  C4_4 
REMARK    2  A    between atoms: C4_4  and  C5_5 
REMARK    3  A    between atoms: C4_4  and  O6_6 
ROOT
HETATM    1  C4  UNL     1     -34.290   5.858   5.200  1.00 20.00     0.229 C 
ENDROOT
BRANCH   1   2
HETATM    2  C3  UNL     1     -33.186   5.732   4.208  1.00 20.00     0.023 A 
HETATM    3  C1  UNL     1     -33.469   5.875   2.738  1.00 20.00     0.008 A 
HETATM    4  C2  UNL     1     -32.697   6.943   3.463  1.00 20.00     0.008 A 
ENDBRANCH   1   2
BRANCH   1   5
HETATM    5  C5  UNL     1     -34.753   4.511   5.725  1.00 20.00     0.413 C 
HETATM    6  F7  UNL     1     -35.248   3.744   4.728  1.00 20.00    -0.168 F 
HETATM    7  F8  UNL     1     -33.728   3.831   6.284  1.00 20.00    -0.168 F 
HETATM    8  F9  UNL     1     -35.718   4.646   6.658  1.00 20.00    -0.168 F 
ENDBRANCH   1   5
BRANCH   1   9
HETATM    9  O6  UNL     1     -33.854   6.636   6.316  1.00 20.00    -0.386 OA
HETATM   10  H16 UNL     1     -33.977   6.081   7.100  1.00 20.00     0.210 HD
ENDBRANCH   1   9
TORSDOF 3
ENDMDL
MODEL 7
REMARK VINA RESULT:      -4.8      1.507      1.845
REMARK  3 active torsions:
REMARK  status: ('A' for Active; 'I' for Inactive)
REMARK    1  A    between atoms: C3_3  and  C4_4 
REMARK    2  A    between atoms: C4_4  and  C5_5 
REMARK    3  A    between atoms: C4_4  and  O6_6 
ROOT
HETATM    1  C4  UNL     1     -33.379   5.805   4.683  1.00 20.00     0.229 C 
ENDROOT
BRANCH   1   2
HETATM    2  C3  UNL     1     -34.745   5.267   4.933  1.00 20.00     0.023 A 
HETATM    3  C1  UNL     1     -34.937   3.813   5.263  1.00 20.00     0.008 A 
HETATM    4  C2  UNL     1     -35.156   4.859   6.321  1.00 20.00     0.008 A 
ENDBRANCH   1   2
BRANCH   1   5
HETATM    5  C5  UNL     1     -33.133   6.103   3.216  1.00 20.00     0.413 C 
HETATM    6  F7  UNL     1     -31.912   5.671   2.829  1.00 20.00    -0.168 F 
HETATM    7  F8  UNL     1     -34.045   5.480   2.436  1.00 20.00    -0.168 F 
HETATM    8  F9  UNL     1     -33.202   7.425   2.958  1.00 20.00    -0.168 F 
ENDBRANCH   1   5
BRANCH   1   9
HETATM    9  O6  UNL     1     -33.194   7.019   5.413  1.00 20.00    -0.386 OA
HETATM   10  H16 UNL     1     -33.910   7.059   6.063  1.00 20.00     0.210 HD
ENDBRANCH   1   9
TORSDOF 3
ENDMDL
MODEL 8
REMARK VINA RESULT:      -4.4      2.214      2.729
REMARK  3 active torsions:
REMARK  status: ('A' for Active; 'I' for Inactive)
REMARK    1  A    between atoms: C3_3  and  C4_4 
REMARK    2  A    between atoms: C4_4  and  C5_5 
REMARK    3  A    between atoms: C4_4  and  O6_6 
ROOT
HETATM    1  C4  UNL     1     -33.666   5.960   4.202  1.00 20.00     0.229 C 
ENDROOT
BRANCH   1   2
HETATM    2  C3  UNL     1     -34.280   6.619   5.388  1.00 20.00     0.023 A 
HETATM    3  C1  UNL     1     -34.435   5.862   6.678  1.00 20.00     0.008 A 
HETATM    4  C2  UNL     1     -33.433   6.979   6.577  1.00 20.00     0.008 A 
ENDBRANCH   1   2
BRANCH   1   5
HETATM    5  C5  UNL     1     -34.675   5.165   3.393  1.00 20.00     0.413 C 
HETATM    6  F7  UNL     1     -34.923   3.967   3.968  1.00 20.00    -0.168 F 
HETATM    7  F8  UNL     1     -35.853   5.822   3.308  1.00 20.00    -0.168 F 
HETATM    8  F9  UNL     1     -34.237   4.936   2.138  1.00 20.00    -0.168 F 
ENDBRANCH   1   5
BRANCH   1   9
HETATM    9  O6  UNL     1     -33.094   6.946   3.340  1.00 20.00    -0.386 OA
HETATM   10  H16 UNL     1     -32.146   6.963   3.536  1.00 20.00     0.210 HD
ENDBRANCH   1   9
TORSDOF 3
ENDMDL
MODEL 9
REMARK VINA RESULT:      -4.3     11.101     12.396
REMARK  3 active torsions:
REMARK  status: ('A' for Active; 'I' for Inactive)
REMARK    1  A    between atoms: C3_3  and  C4_4 
REMARK    2  A    between atoms: C4_4  and  C5_5 
REMARK    3  A    between atoms: C4_4  and  O6_6 
ROOT
HETATM    1  C4  UNL     1     -34.340  13.545  -4.930  1.00 20.00     0.229 C 
ENDROOT
BRANCH   1   2
HETATM    2  C3  UNL     1     -34.981  14.611  -5.748  1.00 20.00     0.023 A 
HETATM    3  C1  UNL     1     -34.336  15.077  -7.023  1.00 20.00     0.008 A 
HETATM    4  C2  UNL     1     -35.606  14.274  -7.074  1.00 20.00     0.008 A 
ENDBRANCH   1   2
BRANCH   1   5
HETATM    5  C5  UNL     1     -33.503  14.109  -3.796  1.00 20.00     0.413 C 
HETATM    6  F7  UNL     1     -34.273  14.413  -2.727  1.00 20.00    -0.168 F 
HETATM    7  F8  UNL     1     -32.579  13.213  -3.384  1.00 20.00    -0.168 F 
HETATM    8  F9  UNL     1     -32.854  15.232  -4.168  1.00 20.00    -0.168 F 
ENDBRANCH   1   5
BRANCH   1   9
HETATM    9  O6  UNL     1     -35.342  12.703  -4.356  1.00 20.00    -0.386 OA
HETATM   10  H16 UNL     1     -35.819  12.303  -5.098  1.00 20.00     0.210 HD
ENDBRANCH   1   9
TORSDOF 3
ENDMDL
