MODEL 1
REMARK VINA RESULT:      -4.1      0.000      0.000
REMARK  0 active torsions:
REMARK  status: ('A' for Active; 'I' for Inactive)
ROOT
HETATM    1  C1  UNL     1     -33.935   5.626   3.909  1.00 20.00     0.137 C 
HETATM    2  C2  UNL     1     -34.920   5.143   6.133  1.00 20.00     0.108 C 
HETATM    3  C3  UNL     1     -34.988   4.927   4.638  1.00 20.00     0.326 C 
HETATM    4  N4  UNL     1     -33.098   6.181   3.328  1.00 20.00    -0.191 NA
HETATM    5  F5  UNL     1     -36.195   5.343   4.178  1.00 20.00    -0.190 F 
HETATM    6  F6  UNL     1     -34.906   3.599   4.371  1.00 20.00    -0.190 F 
ENDROOT
TORSDOF 0
ENDMDL
MODEL 2
REMARK VINA RESULT:      -4.0      2.077      2.595
REMARK  0 active torsions:
REMARK  status: ('A' for Active; 'I' for Inactive)
ROOT
HETATM    1  C1  UNL     1     -34.149   6.077   6.289  1.00 20.00     0.137 C 
HETATM    2  C2  UNL     1     -35.289   4.904   4.426  1.00 20.00     0.108 C 
HETATM    3  C3  UNL     1     -34.756   4.829   5.838  1.00 20.00     0.326 C 
HETATM    4  N4  UNL     1     -33.665   7.069   6.648  1.00 20.00    -0.191 NA
HETATM    5  F5  UNL     1     -33.836   3.835   5.919  1.00 20.00    -0.190 F 
HETATM    6  F6  UNL     1     -35.764   4.497   6.683  1.00 20.00    -0.190 F 
ENDROOT
TORSDOF 0
ENDMDL
MODEL 3
REMARK VINA RESULT:      -4.0      1.473      2.369
REMARK  0 active torsions:
REMARK  status: ('A' for Active; 'I' for Inactive)
ROOT
HETATM    1  C1  UNL     1     -34.560   5.682   5.488  1.00 20.00     0.137 C 
HETATM    2  C2  UNL     1     -34.100   5.326   3.077  1.00 20.00     0.108 C 
HETATM    3  C3  UNL     1     -35.006   5.043   4.254  1.00 20.00     0.326 C 
HETATM    4  N4  UNL     1     -34.206   6.190   6.469  1.00 20.00    -0.191 NA
HETATM    5  F5  UNL     1     -35.079   3.703   4.452  1.00 20.00    -0.190 F 
HETATM    6  F6  UNL     1     -36.262   5.464   3.966  1.00 20.00    -0.190 F 
ENDROOT
TORSDOF 0
ENDMDL
MODEL 4
REMARK VINA RESULT:      -3.9      1.248      1.496
REMARK  0 active torsions:
REMARK  status: ('A' for Active; 'I' for Inactive)
ROOT
HETATM    1  C1  UNL     1     -33.733   5.796   4.303  1.00 20.00     0.137 C 
HETATM    2  C2  UNL     1     -34.556   3.796   5.517  1.00 20.00     0.108 C 
HETATM    3  C3  UNL     1     -34.802   5.235   5.123  1.00 20.00     0.326 C 
HETATM    4  N4  UNL     1     -32.884   6.243   3.651  1.00 20.00    -0.191 NA
HETATM    5  F5  UNL     1     -34.943   5.990   6.242  1.00 20.00    -0.190 F 
HETATM    6  F6  UNL     1     -35.973   5.322   4.444  1.00 20.00    -0.190 F 
ENDROOT
TORSDOF 0
ENDMDL
MODEL 5
REMARK VINA RESULT:      -3.7      1.963      2.606
REMARK  0 active torsions:
REMARK  status: ('A' for Active; 'I' for Inactive)
ROOT
HETATM    1  C1  UNL     1     -34.943   4.613   4.945  1.00 20.00     0.137 C 
HETATM    2  C2  UNL     1     -33.974   6.662   3.940  1.00 20.00     0.108 C 
HETATM    3  C3  UNL     1     -34.849   5.444   3.749  1.00 20.00     0.326 C 
HETATM    4  N4  UNL     1     -35.019   3.951   5.895  1.00 20.00    -0.191 NA
HETATM    5  F5  UNL     1     -34.361   4.695   2.728  1.00 20.00    -0.190 F 
HETATM    6  F6  UNL     1     -36.095   5.837   3.384  1.00 20.00    -0.190 F 
ENDROOT
TORSDOF 0
ENDMDL
MODEL 6
REMARK VINA RESULT:      -3.6     12.353     12.866
REMARK  0 active torsions:
REMARK  status: ('A' for Active; 'I' for Inactive)
ROOT
HETATM    1  C1  UNL     1     -34.062  13.782  -4.099  1.00 20.00     0.137 C 
HETATM    2  C2  UNL     1     -33.260  16.036  -4.752  1.00 20.00     0.108 C 
HETATM    3  C3  UNL     1     -33.268  14.943  -3.708  1.00 20.00     0.326 C 
HETATM    4  N4  UNL     1     -34.692  12.859  -4.409  1.00 20.00    -0.191 NA
HETATM    5  F5  UNL     1     -33.755  15.439  -2.542  1.00 20.00    -0.190 F 
HETATM    6  F6  UNL     1     -31.995  14.546  -3.462  1.00 20.00    -0.190 F 
ENDROOT
TORSDOF 0
ENDMDL
MODEL 7
REMARK VINA RESULT:      -3.5      2.325      2.717
REMARK  0 active torsions:
REMARK  status: ('A' for Active; 'I' for Inactive)
ROOT
HETATM    1  C1  UNL     1     -34.693   4.743   4.970  1.00 20.00     0.137 C 
HETATM    2  C2  UNL     1     -33.805   6.694   6.217  1.00 20.00     0.108 C 
HETATM    3  C3  UNL     1     -34.020   6.034   4.874  1.00 20.00     0.326 C 
HETATM    4  N4  UNL     1     -35.228   3.716   5.046  1.00 20.00    -0.191 NA
HETATM    5  F5  UNL     1     -32.822   5.863   4.260  1.00 20.00    -0.190 F 
HETATM    6  F6  UNL     1     -34.751   6.856   4.080  1.00 20.00    -0.190 F 
ENDROOT
TORSDOF 0
ENDMDL
MODEL 8
REMARK VINA RESULT:      -3.5      2.077      2.824
REMARK  0 active torsions:
REMARK  status: ('A' for Active; 'I' for Inactive)
ROOT
HETATM    1  C1  UNL     1     -34.261   5.597   5.207  1.00 20.00     0.137 C 
HETATM    2  C2  UNL     1     -32.551   6.183   3.509  1.00 20.00     0.108 C 
HETATM    3  C3  UNL     1     -34.020   6.073   3.848  1.00 20.00     0.326 C 
HETATM    4  N4  UNL     1     -34.454   5.219   6.287  1.00 20.00    -0.191 NA
HETATM    5  F5  UNL     1     -34.622   5.230   2.971  1.00 20.00    -0.190 F 
HETATM    6  F6  UNL     1     -34.610   7.285   3.692  1.00 20.00    -0.190 F 
ENDROOT
TORSDOF 0
ENDMDL
MODEL 9
REMARK VINA RESULT:      -3.4      3.030      3.534
REMARK  0 active torsions:
REMARK  status: ('A' for Active; 'I' for Inactive)
ROOT
HETATM    1  C1  UNL     1     -32.313   7.586   2.529  1.00 20.00     0.137 C 
HETATM    2  C2  UNL     1     -33.944   5.813   3.115  1.00 20.00     0.108 C 
HETATM    3  C3  UNL     1     -32.619   6.473   3.421  1.00 20.00     0.326 C 
HETATM    4  N4  UNL     1     -32.068   8.471   1.819  1.00 20.00    -0.191 NA
HETATM    5  F5  UNL     1     -31.627   5.550   3.334  1.00 20.00    -0.190 F 
HETATM    6  F6  UNL     1     -32.624   6.920   4.702  1.00 20.00    -0.190 F 
ENDROOT
TORSDOF 0
ENDMDL
