MODEL 1
REMARK VINA RESULT:      -4.7      0.000      0.000
REMARK  7 active torsions:
REMARK  status: ('A' for Active; 'I' for Inactive)
REMARK    1  A    between atoms: C1_1  and  C6_6 
REMARK    2  A    between atoms: C1_1  and  C11_11 
REMARK    3  A    between atoms: C6_6  and  C12_12 
REMARK    4  A    between atoms: C7_7  and  C9_9 
REMARK    5  A    between atoms: C8_8  and  C12_12 
REMARK    6  A    between atoms: C9_9  and  C10_10 
REMARK    7  A    between atoms: C10_10  and  C12_12 
ROOT
HETATM    1  C12 UNL     1     -33.749  15.534  -3.059  1.00 20.00    -0.008 C 
ENDROOT
BRANCH   1   2
HETATM    2  C6  UNL     1     -35.197  15.055  -3.286  1.00 20.00     0.083 C 
BRANCH   2   3
HETATM    3  C1  UNL     1     -35.325  13.975  -4.356  1.00 20.00     0.130 C 
HETATM    4  O13 UNL     1     -34.841  12.853  -4.214  1.00 20.00    -0.298 OA
BRANCH   3   5
HETATM    5  C11 UNL     1     -36.106  14.360  -5.610  1.00 20.00     0.047 C 
HETATM    6  C4  UNL     1     -35.198  14.373  -6.837  1.00 20.00     0.017 C 
HETATM    7  C5  UNL     1     -36.763  15.719  -5.403  1.00 20.00     0.017 C 
ENDBRANCH   3   5
ENDBRANCH   2   3
ENDBRANCH   1   2
BRANCH   1   8
HETATM    8  C8  UNL     1     -33.088  15.928  -4.400  1.00 20.00     0.000 C 
HETATM    9  C3  UNL     1     -33.461  17.308  -4.926  1.00 20.00     0.005 C 
ENDBRANCH   1   8
BRANCH   1  10
HETATM   10  C10 UNL     1     -33.716  16.662  -2.002  1.00 20.00     0.005 C 
BRANCH  10  11
HETATM   11  C9  UNL     1     -34.811  16.533  -0.937  1.00 20.00     0.000 C 
BRANCH  11  12
HETATM   12  C7  UNL     1     -34.629  17.500   0.235  1.00 20.00    -0.005 C 
HETATM   13  C2  UNL     1     -33.391  18.377   0.110  1.00 20.00     0.005 C 
ENDBRANCH  11  12
ENDBRANCH  10  11
ENDBRANCH   1  10
TORSDOF 7
ENDMDL
MODEL 2
REMARK VINA RESULT:      -4.6      1.044      1.162
REMARK  7 active torsions:
REMARK  status: ('A' for Active; 'I' for Inactive)
REMARK    1  A    between atoms: C1_1  and  C6_6 
REMARK    2  A    between atoms: C1_1  and  C11_11 
REMARK    3  A    between atoms: C6_6  and  C12_12 
REMARK    4  A    between atoms: C7_7  and  C9_9 
REMARK    5  A    between atoms: C8_8  and  C12_12 
REMARK    6  A    between atoms: C9_9  and  C10_10 
REMARK    7  A    between atoms: C10_10  and  C12_12 
ROOT
HETATM    1  C12 UNL     1     -33.530  16.244  -2.728  1.00 20.00    -0.008 C 
ENDROOT
BRANCH   1   2
HETATM    2  C6  UNL     1     -34.568  15.107  -2.647  1.00 20.00     0.083 C 
BRANCH   2   3
HETATM    3  C1  UNL     1     -34.324  13.981  -3.647  1.00 20.00     0.130 C 
HETATM    4  O13 UNL     1     -33.277  13.334  -3.660  1.00 20.00    -0.298 OA
BRANCH   3   5
HETATM    5  C11 UNL     1     -35.461  13.688  -4.623  1.00 20.00     0.047 C 
HETATM    6  C4  UNL     1     -35.083  14.100  -6.042  1.00 20.00     0.017 C 
HETATM    7  C5  UNL     1     -36.723  14.407  -4.162  1.00 20.00     0.017 C 
ENDBRANCH   3   5
ENDBRANCH   2   3
ENDBRANCH   1   2
BRANCH   1   8
HETATM    8  C8  UNL     1     -33.614  16.964  -4.092  1.00 20.00     0.000 C 
HETATM    9  C3  UNL     1     -34.932  17.674  -4.371  1.00 20.00     0.005 C 
ENDBRANCH   1   8
BRANCH   1  10
HETATM   10  C10 UNL     1     -33.683  17.196  -1.519  1.00 20.00     0.005 C 
BRANCH  10  11
HETATM   11  C9  UNL     1     -34.818  16.799  -0.568  1.00 20.00     0.000 C 
BRANCH  11  12
HETATM   12  C7  UNL     1     -34.838  17.621   0.723  1.00 20.00    -0.005 C 
HETATM   13  C2  UNL     1     -33.604  18.493   0.905  1.00 20.00     0.005 C 
ENDBRANCH  11  12
ENDBRANCH  10  11
ENDBRANCH   1  10
TORSDOF 7
ENDMDL
MODEL 3
REMARK VINA RESULT:      -4.3      1.870      4.571
REMARK  7 active torsions:
REMARK  status: ('A' for Active; 'I' for Inactive)
REMARK    1  A    between atoms: C1_1  and  C6_6 
REMARK    2  A    between atoms: C1_1  and  C11_11 
REMARK    3  A    between atoms: C6_6  and  C12_12 
REMARK    4  A    between atoms: C7_7  and  C9_9 
REMARK    5  A    between atoms: C8_8  and  C12_12 
REMARK    6  A    between atoms: C9_9  and  C10_10 
REMARK    7  A    between atoms: C10_10  and  C12_12 
ROOT
HETATM    1  C12 UNL     1     -35.364  14.603  -6.759  1.00 20.00    -0.008 C 
ENDROOT
BRANCH   1   2
HETATM    2  C6  UNL     1     -35.848  14.658  -5.296  1.00 20.00     0.083 C 
BRANCH   2   3
HETATM    3  C1  UNL     1     -35.048  13.768  -4.351  1.00 20.00     0.130 C 
HETATM    4  O13 UNL     1     -34.980  12.549  -4.502  1.00 20.00    -0.298 OA
BRANCH   3   5
HETATM    5  C11 UNL     1     -34.320  14.478  -3.212  1.00 20.00     0.047 C 
HETATM    6  C4  UNL     1     -35.060  15.746  -2.797  1.00 20.00     0.017 C 
HETATM    7  C5  UNL     1     -32.892  14.793  -3.641  1.00 20.00     0.017 C 
ENDBRANCH   3   5
ENDBRANCH   2   3
ENDBRANCH   1   2
BRANCH   1   8
HETATM    8  C8  UNL     1     -36.542  14.828  -7.734  1.00 20.00     0.000 C 
HETATM    9  C3  UNL     1     -37.855  15.236  -7.081  1.00 20.00     0.005 C 
ENDBRANCH   1   8
BRANCH   1  10
HETATM   10  C10 UNL     1     -34.192  15.589  -6.973  1.00 20.00     0.005 C 
BRANCH  10  11
HETATM   11  C9  UNL     1     -34.617  16.910  -7.626  1.00 20.00     0.000 C 
BRANCH  11  12
HETATM   12  C7  UNL     1     -34.538  18.105  -6.672  1.00 20.00    -0.005 C 
HETATM   13  C2  UNL     1     -33.590  17.885  -5.502  1.00 20.00     0.005 C 
ENDBRANCH  11  12
ENDBRANCH  10  11
ENDBRANCH   1  10
TORSDOF 7
ENDMDL
MODEL 4
REMARK VINA RESULT:      -4.3      1.950      5.132
REMARK  7 active torsions:
REMARK  status: ('A' for Active; 'I' for Inactive)
REMARK    1  A    between atoms: C1_1  and  C6_6 
REMARK    2  A    between atoms: C1_1  and  C11_11 
REMARK    3  A    between atoms: C6_6  and  C12_12 
REMARK    4  A    between atoms: C7_7  and  C9_9 
REMARK    5  A    between atoms: C8_8  and  C12_12 
REMARK    6  A    between atoms: C9_9  and  C10_10 
REMARK    7  A    between atoms: C10_10  and  C12_12 
ROOT
HETATM    1  C12 UNL     1     -33.370  15.429  -3.505  1.00 20.00    -0.008 C 
ENDROOT
BRANCH   1   2
HETATM    2  C6  UNL     1     -34.631  15.978  -2.809  1.00 20.00     0.083 C 
BRANCH   2   3
HETATM    3  C1  UNL     1     -34.336  16.762  -1.534  1.00 20.00     0.130 C 
HETATM    4  O13 UNL     1     -34.763  16.408  -0.436  1.00 20.00    -0.298 OA
BRANCH   3   5
HETATM    5  C11 UNL     1     -33.464  18.005  -1.695  1.00 20.00     0.047 C 
HETATM    6  C4  UNL     1     -32.938  18.482  -0.344  1.00 20.00     0.017 C 
HETATM    7  C5  UNL     1     -34.264  19.101  -2.388  1.00 20.00     0.017 C 
ENDBRANCH   3   5
ENDBRANCH   2   3
ENDBRANCH   1   2
BRANCH   1   8
HETATM    8  C8  UNL     1     -33.479  13.900  -3.706  1.00 20.00     0.000 C 
HETATM    9  C3  UNL     1     -34.873  13.389  -4.046  1.00 20.00     0.005 C 
ENDBRANCH   1   8
BRANCH   1  10
HETATM   10  C10 UNL     1     -33.099  16.204  -4.815  1.00 20.00     0.005 C 
BRANCH  10  11
HETATM   11  C9  UNL     1     -34.360  16.823  -5.430  1.00 20.00     0.000 C 
BRANCH  11  12
HETATM   12  C7  UNL     1     -34.510  16.525  -6.924  1.00 20.00    -0.005 C 
HETATM   13  C2  UNL     1     -34.433  15.042  -7.257  1.00 20.00     0.005 C 
ENDBRANCH  11  12
ENDBRANCH  10  11
ENDBRANCH   1  10
TORSDOF 7
ENDMDL
MODEL 5
REMARK VINA RESULT:      -4.3      2.068      2.869
REMARK  7 active torsions:
REMARK  status: ('A' for Active; 'I' for Inactive)
REMARK    1  A    between atoms: C1_1  and  C6_6 
REMARK    2  A    between atoms: C1_1  and  C11_11 
REMARK    3  A    between atoms: C6_6  and  C12_12 
REMARK    4  A    between atoms: C7_7  and  C9_9 
REMARK    5  A    between atoms: C8_8  and  C12_12 
REMARK    6  A    between atoms: C9_9  and  C10_10 
REMARK    7  A    between atoms: C10_10  and  C12_12 
ROOT
HETATM    1  C12 UNL     1     -34.072  15.571  -3.638  1.00 20.00    -0.008 C 
ENDROOT
BRANCH   1   2
HETATM    2  C6  UNL     1     -33.121  16.016  -4.767  1.00 20.00     0.083 C 
BRANCH   2   3
HETATM    3  C1  UNL     1     -33.683  17.137  -5.636  1.00 20.00     0.130 C 
HETATM    4  O13 UNL     1     -33.374  18.315  -5.462  1.00 20.00    -0.298 OA
BRANCH   3   5
HETATM    5  C11 UNL     1     -34.640  16.713  -6.747  1.00 20.00     0.047 C 
HETATM    6  C4  UNL     1     -34.306  15.311  -7.250  1.00 20.00     0.017 C 
HETATM    7  C5  UNL     1     -34.583  17.729  -7.881  1.00 20.00     0.017 C 
ENDBRANCH   3   5
ENDBRANCH   2   3
ENDBRANCH   1   2
BRANCH   1   8
HETATM    8  C8  UNL     1     -34.036  14.036  -3.466  1.00 20.00     0.000 C 
HETATM    9  C3  UNL     1     -35.080  13.269  -4.267  1.00 20.00     0.005 C 
ENDBRANCH   1   8
BRANCH   1  10
HETATM   10  C10 UNL     1     -33.756  16.343  -2.335  1.00 20.00     0.005 C 
BRANCH  10  11
HETATM   11  C9  UNL     1     -34.961  16.476  -1.397  1.00 20.00     0.000 C 
BRANCH  11  12
HETATM   12  C7  UNL     1     -34.630  17.202  -0.091  1.00 20.00    -0.005 C 
HETATM   13  C2  UNL     1     -33.465  18.172  -0.216  1.00 20.00     0.005 C 
ENDBRANCH  11  12
ENDBRANCH  10  11
ENDBRANCH   1  10
TORSDOF 7
ENDMDL
MODEL 6
REMARK VINA RESULT:      -4.3      1.571      4.109
REMARK  7 active torsions:
REMARK  status: ('A' for Active; 'I' for Inactive)
REMARK    1  A    between atoms: C1_1  and  C6_6 
REMARK    2  A    between atoms: C1_1  and  C11_11 
REMARK    3  A    between atoms: C6_6  and  C12_12 
REMARK    4  A    between atoms: C7_7  and  C9_9 
REMARK    5  A    between atoms: C8_8  and  C12_12 
REMARK    6  A    between atoms: C9_9  and  C10_10 
REMARK    7  A    between atoms: C10_10  and  C12_12 
ROOT
HETATM    1  C12 UNL     1     -34.400  16.245  -3.291  1.00 20.00    -0.008 C 
ENDROOT
BRANCH   1   2
HETATM    2  C6  UNL     1     -35.273  14.992  -3.079  1.00 20.00     0.083 C 
BRANCH   2   3
HETATM    3  C1  UNL     1     -36.687  15.128  -3.637  1.00 20.00     0.130 C 
HETATM    4  O13 UNL     1     -37.450  14.167  -3.725  1.00 20.00    -0.298 OA
BRANCH   3   5
HETATM    5  C11 UNL     1     -37.109  16.531  -4.065  1.00 20.00     0.047 C 
HETATM    6  C4  UNL     1     -37.973  17.193  -2.995  1.00 20.00     0.017 C 
HETATM    7  C5  UNL     1     -37.848  16.456  -5.396  1.00 20.00     0.017 C 
ENDBRANCH   3   5
ENDBRANCH   2   3
ENDBRANCH   1   2
BRANCH   1   8
HETATM    8  C8  UNL     1     -33.792  16.720  -1.952  1.00 20.00     0.000 C 
HETATM    9  C3  UNL     1     -34.732  16.659  -0.756  1.00 20.00     0.005 C 
ENDBRANCH   1   8
BRANCH   1  10
HETATM   10  C10 UNL     1     -33.342  15.981  -4.388  1.00 20.00     0.005 C 
BRANCH  10  11
HETATM   11  C9  UNL     1     -33.437  16.949  -5.573  1.00 20.00     0.000 C 
BRANCH  11  12
HETATM   12  C7  UNL     1     -34.375  16.456  -6.678  1.00 20.00    -0.005 C 
HETATM   13  C2  UNL     1     -34.446  14.940  -6.782  1.00 20.00     0.005 C 
ENDBRANCH  11  12
ENDBRANCH  10  11
ENDBRANCH   1  10
TORSDOF 7
ENDMDL
MODEL 7
REMARK VINA RESULT:      -4.2      1.750      2.568
REMARK  7 active torsions:
REMARK  status: ('A' for Active; 'I' for Inactive)
REMARK    1  A    between atoms: C1_1  and  C6_6 
REMARK    2  A    between atoms: C1_1  and  C11_11 
REMARK    3  A    between atoms: C6_6  and  C12_12 
REMARK    4  A    between atoms: C7_7  and  C9_9 
REMARK    5  A    between atoms: C8_8  and  C12_12 
REMARK    6  A    between atoms: C9_9  and  C10_10 
REMARK    7  A    between atoms: C10_10  and  C12_12 
ROOT
HETATM    1  C12 UNL     1     -35.489  16.832  -3.729  1.00 20.00    -0.008 C 
ENDROOT
BRANCH   1   2
HETATM    2  C6  UNL     1     -35.794  15.539  -2.946  1.00 20.00     0.083 C 
BRANCH   2   3
HETATM    3  C1  UNL     1     -36.299  14.397  -3.823  1.00 20.00     0.130 C 
HETATM    4  O13 UNL     1     -37.499  14.157  -3.956  1.00 20.00    -0.298 OA
BRANCH   3   5
HETATM    5  C11 UNL     1     -35.231  13.577  -4.541  1.00 20.00     0.047 C 
HETATM    6  C4  UNL     1     -33.906  13.623  -3.786  1.00 20.00     0.017 C 
HETATM    7  C5  UNL     1     -35.066  14.093  -5.966  1.00 20.00     0.017 C 
ENDBRANCH   3   5
ENDBRANCH   2   3
ENDBRANCH   1   2
BRANCH   1   8
HETATM    8  C8  UNL     1     -36.718  17.769  -3.737  1.00 20.00     0.000 C 
HETATM    9  C3  UNL     1     -37.534  17.779  -2.451  1.00 20.00     0.005 C 
ENDBRANCH   1   8
BRANCH   1  10
HETATM   10  C10 UNL     1     -34.209  17.503  -3.178  1.00 20.00     0.005 C 
BRANCH  10  11
HETATM   11  C9  UNL     1     -33.668  16.835  -1.909  1.00 20.00     0.000 C 
BRANCH  11  12
HETATM   12  C7  UNL     1     -33.791  17.718  -0.664  1.00 20.00    -0.005 C 
HETATM   13  C2  UNL     1     -34.931  17.310   0.257  1.00 20.00     0.005 C 
ENDBRANCH  11  12
ENDBRANCH  10  11
ENDBRANCH   1  10
TORSDOF 7
ENDMDL
MODEL 8
REMARK VINA RESULT:      -4.2      1.792      4.130
REMARK  7 active torsions:
REMARK  status: ('A' for Active; 'I' for Inactive)
REMARK    1  A    between atoms: C1_1  and  C6_6 
REMARK    2  A    between atoms: C1_1  and  C11_11 
REMARK    3  A    between atoms: C6_6  and  C12_12 
REMARK    4  A    between atoms: C7_7  and  C9_9 
REMARK    5  A    between atoms: C8_8  and  C12_12 
REMARK    6  A    between atoms: C9_9  and  C10_10 
REMARK    7  A    between atoms: C10_10  and  C12_12 
ROOT
HETATM    1  C12 UNL     1     -33.845  16.702  -2.479  1.00 20.00    -0.008 C 
ENDROOT
BRANCH   1   2
HETATM    2  C6  UNL     1     -34.195  17.760  -3.544  1.00 20.00     0.083 C 
BRANCH   2   3
HETATM    3  C1  UNL     1     -33.874  17.324  -4.970  1.00 20.00     0.130 C 
HETATM    4  O13 UNL     1     -32.854  16.695  -5.247  1.00 20.00    -0.298 OA
BRANCH   3   5
HETATM    5  C11 UNL     1     -34.902  17.698  -6.036  1.00 20.00     0.047 C 
HETATM    6  C4  UNL     1     -36.311  17.310  -5.597  1.00 20.00     0.017 C 
HETATM    7  C5  UNL     1     -34.535  17.026  -7.353  1.00 20.00     0.017 C 
ENDBRANCH   3   5
ENDBRANCH   2   3
ENDBRANCH   1   2
BRANCH   1   8
HETATM    8  C8  UNL     1     -33.670  17.360  -1.091  1.00 20.00     0.000 C 
HETATM    9  C3  UNL     1     -34.807  17.113  -0.109  1.00 20.00     0.005 C 
ENDBRANCH   1   8
BRANCH   1  10
HETATM   10  C10 UNL     1     -34.890  15.561  -2.491  1.00 20.00     0.005 C 
BRANCH  10  11
HETATM   11  C9  UNL     1     -34.421  14.312  -3.246  1.00 20.00     0.000 C 
BRANCH  11  12
HETATM   12  C7  UNL     1     -35.452  13.794  -4.252  1.00 20.00    -0.005 C 
HETATM   13  C2  UNL     1     -34.937  13.757  -5.683  1.00 20.00     0.005 C 
ENDBRANCH  11  12
ENDBRANCH  10  11
ENDBRANCH   1  10
TORSDOF 7
ENDMDL
MODEL 9
REMARK VINA RESULT:      -4.2      1.483      3.370
REMARK  7 active torsions:
REMARK  status: ('A' for Active; 'I' for Inactive)
REMARK    1  A    between atoms: C1_1  and  C6_6 
REMARK    2  A    between atoms: C1_1  and  C11_11 
REMARK    3  A    between atoms: C6_6  and  C12_12 
REMARK    4  A    between atoms: C7_7  and  C9_9 
REMARK    5  A    between atoms: C8_8  and  C12_12 
REMARK    6  A    between atoms: C9_9  and  C10_10 
REMARK    7  A    between atoms: C10_10  and  C12_12 
ROOT
HETATM    1  C12 UNL     1     -34.624  15.884  -2.179  1.00 20.00    -0.008 C 
ENDROOT
BRANCH   1   2
HETATM    2  C6  UNL     1     -33.627  15.503  -3.291  1.00 20.00     0.083 C 
BRANCH   2   3
HETATM    3  C1  UNL     1     -34.104  14.355  -4.176  1.00 20.00     0.130 C 
HETATM    4  O13 UNL     1     -34.349  13.238  -3.722  1.00 20.00    -0.298 OA
BRANCH   3   5
HETATM    5  C11 UNL     1     -34.279  14.676  -5.659  1.00 20.00     0.047 C 
HETATM    6  C4  UNL     1     -33.816  16.097  -5.969  1.00 20.00     0.017 C 
HETATM    7  C5  UNL     1     -35.738  14.478  -6.053  1.00 20.00     0.017 C 
ENDBRANCH   3   5
ENDBRANCH   2   3
ENDBRANCH   1   2
BRANCH   1   8
HETATM    8  C8  UNL     1     -34.038  16.994  -1.277  1.00 20.00     0.000 C 
HETATM    9  C3  UNL     1     -34.771  17.215   0.039  1.00 20.00     0.005 C 
ENDBRANCH   1   8
BRANCH   1  10
HETATM   10  C10 UNL     1     -35.997  16.250  -2.791  1.00 20.00     0.005 C 
BRANCH  10  11
HETATM   11  C9  UNL     1     -36.034  17.651  -3.412  1.00 20.00     0.000 C 
BRANCH  11  12
HETATM   12  C7  UNL     1     -36.977  17.751  -4.614  1.00 20.00    -0.005 C 
HETATM   13  C2  UNL     1     -38.172  16.813  -4.527  1.00 20.00     0.005 C 
ENDBRANCH  11  12
ENDBRANCH  10  11
ENDBRANCH   1  10
TORSDOF 7
ENDMDL
