MODEL 1
REMARK VINA RESULT:      -4.7      0.000      0.000
REMARK  1 active torsions:
REMARK  status: ('A' for Active; 'I' for Inactive)
REMARK    1  A    between atoms: C3_3  and  C6_6 
ROOT
HETATM    1  C1  UNL     1     -32.198   7.073   3.444  1.00 20.00     0.088 C 
HETATM    2  C2  UNL     1     -33.489   6.567   3.126  1.00 20.00     0.096 C 
HETATM    3  C3  UNL     1     -34.246   5.878   4.002  1.00 20.00    -0.070 C 
HETATM    4  C7  UNL     1     -35.597   5.331   3.716  1.00 20.00     0.044 C 
HETATM    5  N8  UNL     1     -31.145   7.488   3.700  1.00 20.00    -0.192 NA
ENDROOT
BRANCH   3   6
HETATM    6  C6  UNL     1     -33.723   5.617   5.392  1.00 20.00     0.015 A 
HETATM    7  C4  UNL     1     -34.148   6.549   6.460  1.00 20.00     0.010 A 
HETATM    8  C5  UNL     1     -34.699   5.157   6.405  1.00 20.00     0.010 A 
ENDBRANCH   3   6
TORSDOF 1
ENDMDL
MODEL 2
REMARK VINA RESULT:      -4.5      1.703      3.066
REMARK  1 active torsions:
REMARK  status: ('A' for Active; 'I' for Inactive)
REMARK    1  A    between atoms: C3_3  and  C6_6 
ROOT
HETATM    1  C1  UNL     1     -33.800   6.787   6.775  1.00 20.00     0.088 C 
HETATM    2  C2  UNL     1     -34.402   5.555   6.397  1.00 20.00     0.096 C 
HETATM    3  C3  UNL     1     -34.624   5.207   5.114  1.00 20.00    -0.070 C 
HETATM    4  C7  UNL     1     -35.250   3.934   4.671  1.00 20.00     0.044 C 
HETATM    5  N8  UNL     1     -33.308   7.790   7.088  1.00 20.00    -0.192 NA
ENDROOT
BRANCH   3   6
HETATM    6  C6  UNL     1     -34.225   6.151   4.008  1.00 20.00     0.015 A 
HETATM    7  C4  UNL     1     -32.843   6.042   3.492  1.00 20.00     0.010 A 
HETATM    8  C5  UNL     1     -34.000   5.565   2.668  1.00 20.00     0.010 A 
ENDBRANCH   3   6
TORSDOF 1
ENDMDL
MODEL 3
REMARK VINA RESULT:      -4.1      1.015      2.185
REMARK  1 active torsions:
REMARK  status: ('A' for Active; 'I' for Inactive)
REMARK    1  A    between atoms: C3_3  and  C6_6 
ROOT
HETATM    1  C1  UNL     1     -32.359   7.300   3.142  1.00 20.00     0.088 C 
HETATM    2  C2  UNL     1     -32.745   7.218   4.508  1.00 20.00     0.096 C 
HETATM    3  C3  UNL     1     -33.660   6.339   4.963  1.00 20.00    -0.070 C 
HETATM    4  C7  UNL     1     -34.095   6.216   6.379  1.00 20.00     0.044 C 
HETATM    5  N8  UNL     1     -32.040   7.370   2.028  1.00 20.00    -0.192 NA
ENDROOT
BRANCH   3   6
HETATM    6  C6  UNL     1     -34.320   5.386   3.998  1.00 20.00     0.015 A 
HETATM    7  C4  UNL     1     -35.226   4.366   4.570  1.00 20.00     0.010 A 
HETATM    8  C5  UNL     1     -35.780   5.528   3.803  1.00 20.00     0.010 A 
ENDBRANCH   3   6
TORSDOF 1
ENDMDL
MODEL 4
REMARK VINA RESULT:      -4.1     11.697     12.320
REMARK  1 active torsions:
REMARK  status: ('A' for Active; 'I' for Inactive)
REMARK    1  A    between atoms: C3_3  and  C6_6 
ROOT
HETATM    1  C1  UNL     1     -35.525  13.754  -4.182  1.00 20.00     0.088 C 
HETATM    2  C2  UNL     1     -36.294  14.935  -3.986  1.00 20.00     0.096 C 
HETATM    3  C3  UNL     1     -35.963  15.890  -3.095  1.00 20.00    -0.070 C 
HETATM    4  C7  UNL     1     -36.734  17.137  -2.855  1.00 20.00     0.044 C 
HETATM    5  N8  UNL     1     -34.900  12.791  -4.347  1.00 20.00    -0.192 NA
ENDROOT
BRANCH   3   6
HETATM    6  C6  UNL     1     -34.723  15.724  -2.254  1.00 20.00     0.015 A 
HETATM    7  C4  UNL     1     -33.785  16.868  -2.199  1.00 20.00     0.010 A 
HETATM    8  C5  UNL     1     -34.636  16.526  -1.013  1.00 20.00     0.010 A 
ENDBRANCH   3   6
TORSDOF 1
ENDMDL
MODEL 5
REMARK VINA RESULT:      -4.1     11.993     12.789
REMARK  1 active torsions:
REMARK  status: ('A' for Active; 'I' for Inactive)
REMARK    1  A    between atoms: C3_3  and  C6_6 
ROOT
HETATM    1  C1  UNL     1     -34.601  13.735  -4.901  1.00 20.00     0.088 C 
HETATM    2  C2  UNL     1     -34.249  15.054  -5.301  1.00 20.00     0.096 C 
HETATM    3  C3  UNL     1     -33.854  16.006  -4.432  1.00 20.00    -0.070 C 
HETATM    4  C7  UNL     1     -33.477  17.395  -4.801  1.00 20.00     0.044 C 
HETATM    5  N8  UNL     1     -34.888  12.658  -4.581  1.00 20.00    -0.192 NA
ENDROOT
BRANCH   3   6
HETATM    6  C6  UNL     1     -33.774  15.683  -2.961  1.00 20.00     0.015 A 
HETATM    7  C4  UNL     1     -33.719  16.825  -2.021  1.00 20.00     0.010 A 
HETATM    8  C5  UNL     1     -34.962  15.995  -2.136  1.00 20.00     0.010 A 
ENDBRANCH   3   6
TORSDOF 1
ENDMDL
MODEL 6
REMARK VINA RESULT:      -4.0     11.949     12.429
REMARK  1 active torsions:
REMARK  status: ('A' for Active; 'I' for Inactive)
REMARK    1  A    between atoms: C3_3  and  C6_6 
ROOT
HETATM    1  C1  UNL     1     -36.627  14.303  -3.874  1.00 20.00     0.088 C 
HETATM    2  C2  UNL     1     -35.215  14.175  -3.993  1.00 20.00     0.096 C 
HETATM    3  C3  UNL     1     -34.349  15.070  -3.479  1.00 20.00    -0.070 C 
HETATM    4  C7  UNL     1     -32.869  14.980  -3.577  1.00 20.00     0.044 C 
HETATM    5  N8  UNL     1     -37.779  14.402  -3.779  1.00 20.00    -0.192 NA
ENDROOT
BRANCH   3   6
HETATM    6  C6  UNL     1     -34.876  16.274  -2.738  1.00 20.00     0.015 A 
HETATM    7  C4  UNL     1     -34.645  16.322  -1.277  1.00 20.00     0.010 A 
HETATM    8  C5  UNL     1     -33.878  17.223  -2.197  1.00 20.00     0.010 A 
ENDBRANCH   3   6
TORSDOF 1
ENDMDL
MODEL 7
REMARK VINA RESULT:      -4.0      2.343      3.783
REMARK  1 active torsions:
REMARK  status: ('A' for Active; 'I' for Inactive)
REMARK    1  A    between atoms: C3_3  and  C6_6 
ROOT
HETATM    1  C1  UNL     1     -34.952   4.291   5.464  1.00 20.00     0.088 C 
HETATM    2  C2  UNL     1     -34.403   5.285   6.321  1.00 20.00     0.096 C 
HETATM    3  C3  UNL     1     -33.826   6.413   5.864  1.00 20.00    -0.070 C 
HETATM    4  C7  UNL     1     -33.240   7.478   6.719  1.00 20.00     0.044 C 
HETATM    5  N8  UNL     1     -35.402   3.478   4.769  1.00 20.00    -0.192 NA
ENDROOT
BRANCH   3   6
HETATM    6  C6  UNL     1     -33.744   6.658   4.378  1.00 20.00     0.015 A 
HETATM    7  C4  UNL     1     -32.488   7.241   3.858  1.00 20.00     0.010 A 
HETATM    8  C5  UNL     1     -32.819   5.802   3.603  1.00 20.00     0.010 A 
ENDBRANCH   3   6
TORSDOF 1
ENDMDL
MODEL 8
REMARK VINA RESULT:      -4.0     11.568     12.409
REMARK  1 active torsions:
REMARK  status: ('A' for Active; 'I' for Inactive)
REMARK    1  A    between atoms: C3_3  and  C6_6 
ROOT
HETATM    1  C1  UNL     1     -37.314  14.995  -3.534  1.00 20.00     0.088 C 
HETATM    2  C2  UNL     1     -36.217  15.813  -3.147  1.00 20.00     0.096 C 
HETATM    3  C3  UNL     1     -34.946  15.367  -3.099  1.00 20.00    -0.070 C 
HETATM    4  C7  UNL     1     -33.769  16.183  -2.701  1.00 20.00     0.044 C 
HETATM    5  N8  UNL     1     -38.211  14.332  -3.851  1.00 20.00    -0.192 NA
ENDROOT
BRANCH   3   6
HETATM    6  C6  UNL     1     -34.646  13.936  -3.469  1.00 20.00     0.015 A 
HETATM    7  C4  UNL     1     -34.263  13.668  -4.873  1.00 20.00     0.010 A 
HETATM    8  C5  UNL     1     -33.239  13.601  -3.781  1.00 20.00     0.010 A 
ENDBRANCH   3   6
TORSDOF 1
ENDMDL
MODEL 9
REMARK VINA RESULT:      -3.9      2.096      3.479
REMARK  1 active torsions:
REMARK  status: ('A' for Active; 'I' for Inactive)
REMARK    1  A    between atoms: C3_3  and  C6_6 
ROOT
HETATM    1  C1  UNL     1     -34.880   5.253   5.718  1.00 20.00     0.088 C 
HETATM    2  C2  UNL     1     -35.036   4.952   4.337  1.00 20.00     0.096 C 
HETATM    3  C3  UNL     1     -34.276   5.506   3.372  1.00 20.00    -0.070 C 
HETATM    4  C7  UNL     1     -34.401   5.223   1.919  1.00 20.00     0.044 C 
HETATM    5  N8  UNL     1     -34.757   5.495   6.846  1.00 20.00    -0.192 NA
ENDROOT
BRANCH   3   6
HETATM    6  C6  UNL     1     -33.202   6.496   3.748  1.00 20.00     0.015 A 
HETATM    7  C4  UNL     1     -31.842   6.250   3.221  1.00 20.00     0.010 A 
HETATM    8  C5  UNL     1     -32.679   7.366   2.671  1.00 20.00     0.010 A 
ENDBRANCH   3   6
TORSDOF 1
ENDMDL
