MODEL 1
REMARK VINA RESULT:      -4.7      0.000      0.000
REMARK  2 active torsions:
REMARK  status: ('A' for Active; 'I' for Inactive)
REMARK    1  A    between atoms: C3_3  and  C8_8 
REMARK    2  A    between atoms: C7_7  and  C8_8 
ROOT
HETATM    1  C1  UNL     1     -32.064   7.888   2.353  1.00 20.00     0.088 C 
HETATM    2  C2  UNL     1     -32.454   7.360   3.614  1.00 20.00     0.096 C 
HETATM    3  C3  UNL     1     -33.304   6.326   3.777  1.00 20.00    -0.070 C 
HETATM    4  C4  UNL     1     -33.896   5.665   2.555  1.00 20.00     0.044 C 
HETATM    5  N9  UNL     1     -31.739   8.325   1.329  1.00 20.00    -0.192 NA
ENDROOT
BRANCH   3   6
HETATM    6  C8  UNL     1     -33.718   5.766   5.139  1.00 20.00     0.010 C 
HETATM    7  C6  UNL     1     -33.703   6.859   6.215  1.00 20.00     0.015 C 
BRANCH   6   8
HETATM    8  C7  UNL     1     -35.094   5.070   5.135  1.00 20.00     0.004 C 
HETATM    9  C5  UNL     1     -35.147   3.833   6.024  1.00 20.00     0.006 C 
ENDBRANCH   6   8
ENDBRANCH   3   6
TORSDOF 2
ENDMDL
MODEL 2
REMARK VINA RESULT:      -4.6     11.117     12.045
REMARK  2 active torsions:
REMARK  status: ('A' for Active; 'I' for Inactive)
REMARK    1  A    between atoms: C3_3  and  C8_8 
REMARK    2  A    between atoms: C7_7  and  C8_8 
ROOT
HETATM    1  C1  UNL     1     -34.632  13.548  -4.083  1.00 20.00     0.088 C 
HETATM    2  C2  UNL     1     -34.529  14.523  -3.054  1.00 20.00     0.096 C 
HETATM    3  C3  UNL     1     -33.833  15.673  -3.160  1.00 20.00    -0.070 C 
HETATM    4  C4  UNL     1     -33.104  15.970  -4.448  1.00 20.00     0.044 C 
HETATM    5  N9  UNL     1     -34.722  12.747  -4.917  1.00 20.00    -0.192 NA
ENDROOT
BRANCH   3   6
HETATM    6  C8  UNL     1     -33.729  16.715  -2.045  1.00 20.00     0.010 C 
HETATM    7  C6  UNL     1     -33.835  18.138  -2.606  1.00 20.00     0.015 C 
BRANCH   6   8
HETATM    8  C7  UNL     1     -34.768  16.530  -0.920  1.00 20.00     0.004 C 
HETATM    9  C5  UNL     1     -34.619  17.540   0.211  1.00 20.00     0.006 C 
ENDBRANCH   6   8
ENDBRANCH   3   6
TORSDOF 2
ENDMDL
MODEL 3
REMARK VINA RESULT:      -4.4      0.817      1.892
REMARK  2 active torsions:
REMARK  status: ('A' for Active; 'I' for Inactive)
REMARK    1  A    between atoms: C3_3  and  C8_8 
REMARK    2  A    between atoms: C7_7  and  C8_8 
ROOT
HETATM    1  C1  UNL     1     -32.341   7.362   2.787  1.00 20.00     0.088 C 
HETATM    2  C2  UNL     1     -33.036   6.871   3.925  1.00 20.00     0.096 C 
HETATM    3  C3  UNL     1     -33.989   5.918   3.884  1.00 20.00    -0.070 C 
HETATM    4  C4  UNL     1     -34.363   5.315   2.552  1.00 20.00     0.044 C 
HETATM    5  N9  UNL     1     -31.769   7.769   1.864  1.00 20.00    -0.192 NA
ENDROOT
BRANCH   3   6
HETATM    6  C8  UNL     1     -34.731   5.397   5.116  1.00 20.00     0.010 C 
HETATM    7  C6  UNL     1     -35.062   3.907   4.975  1.00 20.00     0.015 C 
BRANCH   6   8
HETATM    8  C7  UNL     1     -33.978   5.631   6.442  1.00 20.00     0.004 C 
HETATM    9  C5  UNL     1     -33.905   7.099   6.844  1.00 20.00     0.006 C 
ENDBRANCH   6   8
ENDBRANCH   3   6
TORSDOF 2
ENDMDL
MODEL 4
REMARK VINA RESULT:      -4.2     11.393     12.272
REMARK  2 active torsions:
REMARK  status: ('A' for Active; 'I' for Inactive)
REMARK    1  A    between atoms: C3_3  and  C8_8 
REMARK    2  A    between atoms: C7_7  and  C8_8 
ROOT
HETATM    1  C1  UNL     1     -37.710  14.773  -3.740  1.00 20.00     0.088 C 
HETATM    2  C2  UNL     1     -36.511  15.416  -3.326  1.00 20.00     0.096 C 
HETATM    3  C3  UNL     1     -35.279  14.884  -3.452  1.00 20.00    -0.070 C 
HETATM    4  C4  UNL     1     -35.133  13.515  -4.072  1.00 20.00     0.044 C 
HETATM    5  N9  UNL     1     -38.693  14.257  -4.075  1.00 20.00    -0.192 NA
ENDROOT
BRANCH   3   6
HETATM    6  C8  UNL     1     -33.996  15.585  -3.004  1.00 20.00     0.010 C 
HETATM    7  C6  UNL     1     -33.058  15.839  -4.190  1.00 20.00     0.015 C 
BRANCH   6   8
HETATM    8  C7  UNL     1     -34.239  16.910  -2.252  1.00 20.00     0.004 C 
HETATM    9  C5  UNL     1     -34.485  16.721  -0.760  1.00 20.00     0.006 C 
ENDBRANCH   6   8
ENDBRANCH   3   6
TORSDOF 2
ENDMDL
MODEL 5
REMARK VINA RESULT:      -4.1     11.422     12.588
REMARK  2 active torsions:
REMARK  status: ('A' for Active; 'I' for Inactive)
REMARK    1  A    between atoms: C3_3  and  C8_8 
REMARK    2  A    between atoms: C7_7  and  C8_8 
ROOT
HETATM    1  C1  UNL     1     -37.574  14.757  -3.676  1.00 20.00     0.088 C 
HETATM    2  C2  UNL     1     -36.330  15.350  -3.327  1.00 20.00     0.096 C 
HETATM    3  C3  UNL     1     -35.127  14.783  -3.548  1.00 20.00    -0.070 C 
HETATM    4  C4  UNL     1     -35.067  13.427  -4.208  1.00 20.00     0.044 C 
HETATM    5  N9  UNL     1     -38.594  14.281  -3.957  1.00 20.00    -0.192 NA
ENDROOT
BRANCH   3   6
HETATM    6  C8  UNL     1     -33.794  15.431  -3.168  1.00 20.00     0.010 C 
HETATM    7  C6  UNL     1     -32.611  14.553  -3.590  1.00 20.00     0.015 C 
BRANCH   6   8
HETATM    8  C7  UNL     1     -33.607  16.852  -3.740  1.00 20.00     0.004 C 
HETATM    9  C5  UNL     1     -33.401  16.873  -5.249  1.00 20.00     0.006 C 
ENDBRANCH   6   8
ENDBRANCH   3   6
TORSDOF 2
ENDMDL
MODEL 6
REMARK VINA RESULT:      -4.1     11.482     12.139
REMARK  2 active torsions:
REMARK  status: ('A' for Active; 'I' for Inactive)
REMARK    1  A    between atoms: C3_3  and  C8_8 
REMARK    2  A    between atoms: C7_7  and  C8_8 
ROOT
HETATM    1  C1  UNL     1     -34.061  16.831  -1.466  1.00 20.00     0.088 C 
HETATM    2  C2  UNL     1     -34.837  15.844  -2.133  1.00 20.00     0.096 C 
HETATM    3  C3  UNL     1     -34.383  15.072  -3.141  1.00 20.00    -0.070 C 
HETATM    4  C4  UNL     1     -32.960  15.246  -3.613  1.00 20.00     0.044 C 
HETATM    5  N9  UNL     1     -33.436  17.639  -0.916  1.00 20.00    -0.192 NA
ENDROOT
BRANCH   3   6
HETATM    6  C8  UNL     1     -35.227  14.012  -3.852  1.00 20.00     0.010 C 
HETATM    7  C6  UNL     1     -36.662  14.504  -4.076  1.00 20.00     0.015 C 
BRANCH   6   8
HETATM    8  C7  UNL     1     -34.633  13.540  -5.195  1.00 20.00     0.004 C 
HETATM    9  C5  UNL     1     -35.216  14.265  -6.402  1.00 20.00     0.006 C 
ENDBRANCH   6   8
ENDBRANCH   3   6
TORSDOF 2
ENDMDL
MODEL 7
REMARK VINA RESULT:      -4.1      2.447      4.502
REMARK  2 active torsions:
REMARK  status: ('A' for Active; 'I' for Inactive)
REMARK    1  A    between atoms: C3_3  and  C8_8 
REMARK    2  A    between atoms: C7_7  and  C8_8 
ROOT
HETATM    1  C1  UNL     1     -34.525   5.033   5.314  1.00 20.00     0.088 C 
HETATM    2  C2  UNL     1     -33.755   6.168   4.941  1.00 20.00     0.096 C 
HETATM    3  C3  UNL     1     -33.323   6.418   3.688  1.00 20.00    -0.070 C 
HETATM    4  C4  UNL     1     -33.666   5.443   2.588  1.00 20.00     0.044 C 
HETATM    5  N9  UNL     1     -35.154   4.110   5.627  1.00 20.00    -0.192 NA
ENDROOT
BRANCH   3   6
HETATM    6  C8  UNL     1     -32.495   7.643   3.299  1.00 20.00     0.010 C 
HETATM    7  C6  UNL     1     -31.187   7.705   4.097  1.00 20.00     0.015 C 
BRANCH   6   8
HETATM    8  C7  UNL     1     -32.179   7.729   1.791  1.00 20.00     0.004 C 
HETATM    9  C5  UNL     1     -32.195   9.154   1.251  1.00 20.00     0.006 C 
ENDBRANCH   6   8
ENDBRANCH   3   6
TORSDOF 2
ENDMDL
MODEL 8
REMARK VINA RESULT:      -4.0     11.163     12.452
REMARK  2 active torsions:
REMARK  status: ('A' for Active; 'I' for Inactive)
REMARK    1  A    between atoms: C3_3  and  C8_8 
REMARK    2  A    between atoms: C7_7  and  C8_8 
ROOT
HETATM    1  C1  UNL     1     -34.551  13.660  -4.059  1.00 20.00     0.088 C 
HETATM    2  C2  UNL     1     -34.287  14.836  -3.305  1.00 20.00     0.096 C 
HETATM    3  C3  UNL     1     -35.227  15.728  -2.931  1.00 20.00    -0.070 C 
HETATM    4  C4  UNL     1     -36.663  15.486  -3.325  1.00 20.00     0.044 C 
HETATM    5  N9  UNL     1     -34.757  12.698  -4.674  1.00 20.00    -0.192 NA
ENDROOT
BRANCH   3   6
HETATM    6  C8  UNL     1     -34.931  16.990  -2.119  1.00 20.00     0.010 C 
HETATM    7  C6  UNL     1     -34.666  16.653  -0.647  1.00 20.00     0.015 C 
BRANCH   6   8
HETATM    8  C7  UNL     1     -33.758  17.826  -2.671  1.00 20.00     0.004 C 
HETATM    9  C5  UNL     1     -34.105  18.585  -3.947  1.00 20.00     0.006 C 
ENDBRANCH   6   8
ENDBRANCH   3   6
TORSDOF 2
ENDMDL
MODEL 9
REMARK VINA RESULT:      -3.9     11.270     12.464
REMARK  2 active torsions:
REMARK  status: ('A' for Active; 'I' for Inactive)
REMARK    1  A    between atoms: C3_3  and  C8_8 
REMARK    2  A    between atoms: C7_7  and  C8_8 
ROOT
HETATM    1  C1  UNL     1     -34.724  16.986  -0.318  1.00 20.00     0.088 C 
HETATM    2  C2  UNL     1     -34.664  16.209  -1.506  1.00 20.00     0.096 C 
HETATM    3  C3  UNL     1     -34.231  16.669  -2.698  1.00 20.00    -0.070 C 
HETATM    4  C4  UNL     1     -33.771  18.102  -2.805  1.00 20.00     0.044 C 
HETATM    5  N9  UNL     1     -34.775  17.613   0.657  1.00 20.00    -0.192 NA
ENDROOT
BRANCH   3   6
HETATM    6  C8  UNL     1     -34.172  15.822  -3.970  1.00 20.00     0.010 C 
HETATM    7  C6  UNL     1     -33.198  16.423  -4.991  1.00 20.00     0.015 C 
BRANCH   6   8
HETATM    8  C7  UNL     1     -33.804  14.345  -3.720  1.00 20.00     0.004 C 
HETATM    9  C5  UNL     1     -34.881  13.369  -4.177  1.00 20.00     0.006 C 
ENDBRANCH   6   8
ENDBRANCH   3   6
TORSDOF 2
ENDMDL
