MODEL 1
REMARK VINA RESULT:      -5.7      0.000      0.000
REMARK  2 active torsions:
REMARK  status: ('A' for Active; 'I' for Inactive)
REMARK    1  A    between atoms: C3_3  and  C8_8 
REMARK    2  A    between atoms: C7_7  and  C8_8 
ROOT
HETATM    1  C1  UNL     1     -32.912   7.126   5.045  1.00 20.00     0.053 A 
HETATM    2  C2  UNL     1     -34.502   5.843   6.335  1.00 20.00     0.087 A 
HETATM    3  C3  UNL     1     -33.223   6.371   3.913  1.00 20.00    -0.007 A 
HETATM    4  C4  UNL     1     -33.552   6.862   6.256  1.00 20.00     0.120 A 
HETATM    5  C5  UNL     1     -34.812   5.088   5.204  1.00 20.00     0.158 A 
HETATM    6  C6  UNL     1     -34.172   5.353   3.993  1.00 20.00     0.161 A 
HETATM    7  F10 UNL     1     -33.254   7.585   7.342  1.00 20.00    -0.206 F 
HETATM    8  F11 UNL     1     -35.725   4.111   5.280  1.00 20.00    -0.203 F 
HETATM    9  F12 UNL     1     -34.477   4.623   2.911  1.00 20.00    -0.202 F 
ENDROOT
BRANCH   3  10
HETATM   10  C8  UNL     1     -32.537   6.655   2.619  1.00 20.00     0.111 C 
BRANCH  10  11
HETATM   11  C7  UNL     1     -32.084   8.090   2.464  1.00 20.00     0.235 C 
HETATM   12  O9  UNL     1     -32.027   8.690   1.397  1.00 20.00    -0.307 OA
ENDBRANCH  10  11
ENDBRANCH   3  10
TORSDOF 2
ENDMDL
MODEL 2
REMARK VINA RESULT:      -5.0      0.895      2.766
REMARK  2 active torsions:
REMARK  status: ('A' for Active; 'I' for Inactive)
REMARK    1  A    between atoms: C3_3  and  C8_8 
REMARK    2  A    between atoms: C7_7  and  C8_8 
ROOT
HETATM    1  C1  UNL     1     -34.057   5.425   3.536  1.00 20.00     0.053 A 
HETATM    2  C2  UNL     1     -34.653   5.720   5.859  1.00 20.00     0.087 A 
HETATM    3  C3  UNL     1     -33.033   6.362   3.681  1.00 20.00    -0.007 A 
HETATM    4  C4  UNL     1     -34.867   5.104   4.625  1.00 20.00     0.120 A 
HETATM    5  C5  UNL     1     -33.629   6.656   6.004  1.00 20.00     0.158 A 
HETATM    6  C6  UNL     1     -32.819   6.977   4.914  1.00 20.00     0.161 A 
HETATM    7  F10 UNL     1     -35.850   4.206   4.487  1.00 20.00    -0.206 F 
HETATM    8  F11 UNL     1     -33.424   7.246   7.188  1.00 20.00    -0.203 F 
HETATM    9  F12 UNL     1     -31.838   7.878   5.063  1.00 20.00    -0.202 F 
ENDROOT
BRANCH   3  10
HETATM   10  C8  UNL     1     -32.169   6.704   2.515  1.00 20.00     0.111 C 
BRANCH  10  11
HETATM   11  C7  UNL     1     -32.184   8.171   2.146  1.00 20.00     0.235 C 
HETATM   12  O9  UNL     1     -31.807   8.622   1.070  1.00 20.00    -0.307 OA
ENDBRANCH  10  11
ENDBRANCH   3  10
TORSDOF 2
ENDMDL
MODEL 3
REMARK VINA RESULT:      -4.9     11.439     13.070
REMARK  2 active torsions:
REMARK  status: ('A' for Active; 'I' for Inactive)
REMARK    1  A    between atoms: C3_3  and  C8_8 
REMARK    2  A    between atoms: C7_7  and  C8_8 
ROOT
HETATM    1  C1  UNL     1     -34.491  15.501  -2.645  1.00 20.00     0.053 A 
HETATM    2  C2  UNL     1     -33.929  17.760  -1.998  1.00 20.00     0.087 A 
HETATM    3  C3  UNL     1     -34.114  15.784  -3.958  1.00 20.00    -0.007 A 
HETATM    4  C4  UNL     1     -34.398  16.489  -1.664  1.00 20.00     0.120 A 
HETATM    5  C5  UNL     1     -33.552  18.043  -3.311  1.00 20.00     0.158 A 
HETATM    6  C6  UNL     1     -33.646  17.054  -4.291  1.00 20.00     0.161 A 
HETATM    7  F10 UNL     1     -34.759  16.218  -0.405  1.00 20.00    -0.206 F 
HETATM    8  F11 UNL     1     -33.102  19.263  -3.630  1.00 20.00    -0.203 F 
HETATM    9  F12 UNL     1     -33.282  17.335  -5.550  1.00 20.00    -0.202 F 
ENDROOT
BRANCH   3  10
HETATM   10  C8  UNL     1     -34.215  14.726  -5.004  1.00 20.00     0.111 C 
BRANCH  10  11
HETATM   11  C7  UNL     1     -34.133  13.315  -4.463  1.00 20.00     0.235 C 
HETATM   12  O9  UNL     1     -35.059  12.511  -4.475  1.00 20.00    -0.307 OA
ENDBRANCH  10  11
ENDBRANCH   3  10
TORSDOF 2
ENDMDL
MODEL 4
REMARK VINA RESULT:      -4.9      9.919     10.964
REMARK  2 active torsions:
REMARK  status: ('A' for Active; 'I' for Inactive)
REMARK    1  A    between atoms: C3_3  and  C8_8 
REMARK    2  A    between atoms: C7_7  and  C8_8 
ROOT
HETATM    1  C1  UNL     1     -42.373   5.357  -2.670  1.00 20.00     0.053 A 
HETATM    2  C2  UNL     1     -40.830   4.698  -0.931  1.00 20.00     0.087 A 
HETATM    3  C3  UNL     1     -42.314   6.677  -2.222  1.00 20.00    -0.007 A 
HETATM    4  C4  UNL     1     -41.631   4.367  -2.024  1.00 20.00     0.120 A 
HETATM    5  C5  UNL     1     -40.771   6.019  -0.483  1.00 20.00     0.158 A 
HETATM    6  C6  UNL     1     -41.514   7.007  -1.129  1.00 20.00     0.161 A 
HETATM    7  F10 UNL     1     -41.687   3.101  -2.453  1.00 20.00    -0.206 F 
HETATM    8  F11 UNL     1     -40.002   6.335   0.567  1.00 20.00    -0.203 F 
HETATM    9  F12 UNL     1     -41.451   8.272  -0.691  1.00 20.00    -0.202 F 
ENDROOT
BRANCH   3  10
HETATM   10  C8  UNL     1     -43.109   7.733  -2.914  1.00 20.00     0.111 C 
BRANCH  10  11
HETATM   11  C7  UNL     1     -42.664   8.007  -4.333  1.00 20.00     0.235 C 
HETATM   12  O9  UNL     1     -43.417   8.065  -5.299  1.00 20.00    -0.307 OA
ENDBRANCH  10  11
ENDBRANCH   3  10
TORSDOF 2
ENDMDL
MODEL 5
REMARK VINA RESULT:      -4.9     11.601     12.091
REMARK  2 active torsions:
REMARK  status: ('A' for Active; 'I' for Inactive)
REMARK    1  A    between atoms: C3_3  and  C8_8 
REMARK    2  A    between atoms: C7_7  and  C8_8 
ROOT
HETATM    1  C1  UNL     1     -35.889  15.634  -2.905  1.00 20.00     0.053 A 
HETATM    2  C2  UNL     1     -35.745  13.701  -4.347  1.00 20.00     0.087 A 
HETATM    3  C3  UNL     1     -34.499  15.644  -2.780  1.00 20.00    -0.007 A 
HETATM    4  C4  UNL     1     -36.512  14.662  -3.688  1.00 20.00     0.120 A 
HETATM    5  C5  UNL     1     -34.355  13.710  -4.222  1.00 20.00     0.158 A 
HETATM    6  C6  UNL     1     -33.733  14.682  -3.438  1.00 20.00     0.161 A 
HETATM    7  F10 UNL     1     -37.845  14.652  -3.808  1.00 20.00    -0.206 F 
HETATM    8  F11 UNL     1     -33.620  12.787  -4.855  1.00 20.00    -0.203 F 
HETATM    9  F12 UNL     1     -32.398  14.683  -3.325  1.00 20.00    -0.202 F 
ENDROOT
BRANCH   3  10
HETATM   10  C8  UNL     1     -33.835  16.683  -1.941  1.00 20.00     0.111 C 
BRANCH  10  11
HETATM   11  C7  UNL     1     -34.511  16.923  -0.609  1.00 20.00     0.235 C 
HETATM   12  O9  UNL     1     -34.112  17.710   0.242  1.00 20.00    -0.307 OA
ENDBRANCH  10  11
ENDBRANCH   3  10
TORSDOF 2
ENDMDL
MODEL 6
REMARK VINA RESULT:      -4.8     11.449     13.396
REMARK  2 active torsions:
REMARK  status: ('A' for Active; 'I' for Inactive)
REMARK    1  A    between atoms: C3_3  and  C8_8 
REMARK    2  A    between atoms: C7_7  and  C8_8 
ROOT
HETATM    1  C1  UNL     1     -33.515  16.273  -4.760  1.00 20.00     0.053 A 
HETATM    2  C2  UNL     1     -33.813  18.471  -3.802  1.00 20.00     0.087 A 
HETATM    3  C3  UNL     1     -33.824  15.694  -3.528  1.00 20.00    -0.007 A 
HETATM    4  C4  UNL     1     -33.509  17.661  -4.897  1.00 20.00     0.120 A 
HETATM    5  C5  UNL     1     -34.122  17.893  -2.570  1.00 20.00     0.158 A 
HETATM    6  C6  UNL     1     -34.127  16.504  -2.434  1.00 20.00     0.161 A 
HETATM    7  F10 UNL     1     -33.213  18.216  -6.078  1.00 20.00    -0.206 F 
HETATM    8  F11 UNL     1     -34.413  18.671  -1.520  1.00 20.00    -0.203 F 
HETATM    9  F12 UNL     1     -34.424  15.958  -1.247  1.00 20.00    -0.202 F 
ENDROOT
BRANCH   3  10
HETATM   10  C8  UNL     1     -33.828  14.210  -3.384  1.00 20.00     0.111 C 
BRANCH  10  11
HETATM   11  C7  UNL     1     -34.959  13.524  -4.118  1.00 20.00     0.235 C 
HETATM   12  O9  UNL     1     -34.824  12.551  -4.851  1.00 20.00    -0.307 OA
ENDBRANCH  10  11
ENDBRANCH   3  10
TORSDOF 2
ENDMDL
MODEL 7
REMARK VINA RESULT:      -4.8      9.910     10.905
REMARK  2 active torsions:
REMARK  status: ('A' for Active; 'I' for Inactive)
REMARK    1  A    between atoms: C3_3  and  C8_8 
REMARK    2  A    between atoms: C7_7  and  C8_8 
ROOT
HETATM    1  C1  UNL     1     -41.181   4.854  -0.714  1.00 20.00     0.053 A 
HETATM    2  C2  UNL     1     -41.148   7.234  -1.130  1.00 20.00     0.087 A 
HETATM    3  C3  UNL     1     -41.966   4.666  -1.853  1.00 20.00    -0.007 A 
HETATM    4  C4  UNL     1     -40.773   6.137  -0.353  1.00 20.00     0.120 A 
HETATM    5  C5  UNL     1     -41.933   7.046  -2.269  1.00 20.00     0.158 A 
HETATM    6  C6  UNL     1     -42.342   5.762  -2.629  1.00 20.00     0.161 A 
HETATM    7  F10 UNL     1     -40.020   6.318   0.739  1.00 20.00    -0.206 F 
HETATM    8  F11 UNL     1     -42.293   8.098  -3.015  1.00 20.00    -0.203 F 
HETATM    9  F12 UNL     1     -43.095   5.591  -3.724  1.00 20.00    -0.202 F 
ENDROOT
BRANCH   3  10
HETATM   10  C8  UNL     1     -42.403   3.292  -2.236  1.00 20.00     0.111 C 
BRANCH  10  11
HETATM   11  C7  UNL     1     -41.466   2.595  -3.198  1.00 20.00     0.235 C 
HETATM   12  O9  UNL     1     -41.554   1.416  -3.523  1.00 20.00    -0.307 OA
ENDBRANCH  10  11
ENDBRANCH   3  10
TORSDOF 2
ENDMDL
MODEL 8
REMARK VINA RESULT:      -4.8     11.444     13.159
REMARK  2 active torsions:
REMARK  status: ('A' for Active; 'I' for Inactive)
REMARK    1  A    between atoms: C3_3  and  C8_8 
REMARK    2  A    between atoms: C7_7  and  C8_8 
ROOT
HETATM    1  C1  UNL     1     -34.490  14.717  -3.158  1.00 20.00     0.053 A 
HETATM    2  C2  UNL     1     -34.516  14.505  -5.564  1.00 20.00     0.087 A 
HETATM    3  C3  UNL     1     -33.983  16.012  -3.278  1.00 20.00    -0.007 A 
HETATM    4  C4  UNL     1     -34.757  13.964  -4.301  1.00 20.00     0.120 A 
HETATM    5  C5  UNL     1     -34.009  15.799  -5.684  1.00 20.00     0.158 A 
HETATM    6  C6  UNL     1     -33.742  16.552  -4.540  1.00 20.00     0.161 A 
HETATM    7  F10 UNL     1     -35.244  12.723  -4.187  1.00 20.00    -0.206 F 
HETATM    8  F11 UNL     1     -33.778  16.318  -6.897  1.00 20.00    -0.203 F 
HETATM    9  F12 UNL     1     -33.254  17.794  -4.666  1.00 20.00    -0.202 F 
ENDROOT
BRANCH   3  10
HETATM   10  C8  UNL     1     -33.697  16.814  -2.054  1.00 20.00     0.111 C 
BRANCH  10  11
HETATM   11  C7  UNL     1     -34.652  16.553  -0.910  1.00 20.00     0.235 C 
HETATM   12  O9  UNL     1     -34.653  17.169   0.151  1.00 20.00    -0.307 OA
ENDBRANCH  10  11
ENDBRANCH   3  10
TORSDOF 2
ENDMDL
MODEL 9
REMARK VINA RESULT:      -4.7     11.593     13.147
REMARK  2 active torsions:
REMARK  status: ('A' for Active; 'I' for Inactive)
REMARK    1  A    between atoms: C3_3  and  C8_8 
REMARK    2  A    between atoms: C7_7  and  C8_8 
ROOT
HETATM    1  C1  UNL     1     -33.846  16.697  -4.956  1.00 20.00     0.053 A 
HETATM    2  C2  UNL     1     -34.486  14.908  -6.448  1.00 20.00     0.087 A 
HETATM    3  C3  UNL     1     -33.881  15.811  -3.879  1.00 20.00    -0.007 A 
HETATM    4  C4  UNL     1     -34.148  16.246  -6.241  1.00 20.00     0.120 A 
HETATM    5  C5  UNL     1     -34.521  14.021  -5.371  1.00 20.00     0.158 A 
HETATM    6  C6  UNL     1     -34.219  14.474  -4.086  1.00 20.00     0.161 A 
HETATM    7  F10 UNL     1     -34.115  17.095  -7.274  1.00 20.00    -0.206 F 
HETATM    8  F11 UNL     1     -34.845  12.737  -5.570  1.00 20.00    -0.203 F 
HETATM    9  F12 UNL     1     -34.255  13.616  -3.058  1.00 20.00    -0.202 F 
ENDROOT
BRANCH   3  10
HETATM   10  C8  UNL     1     -33.558  16.297  -2.506  1.00 20.00     0.111 C 
BRANCH  10  11
HETATM   11  C7  UNL     1     -34.764  16.437  -1.603  1.00 20.00     0.235 C 
HETATM   12  O9  UNL     1     -34.709  16.607  -0.390  1.00 20.00    -0.307 OA
ENDBRANCH  10  11
ENDBRANCH   3  10
TORSDOF 2
ENDMDL
