MODEL 1
REMARK VINA RESULT:      -3.7      0.000      0.000
REMARK  4 active torsions:
REMARK  status: ('A' for Active; 'I' for Inactive)
REMARK    1  A    between atoms: C4_4  and  C5_5 
REMARK    2  A    between atoms: C4_4  and  O8_8 
REMARK    3  A    between atoms: C5_5  and  S9_9 
REMARK    4  A    between atoms: C6_6  and  S9_9 
ROOT
HETATM    1  C1  UNL     1     -34.735  13.875  -4.971  1.00 20.00     0.074 C 
HETATM    2  C2  UNL     1     -34.348  15.145  -7.050  1.00 20.00     0.037 C 
HETATM    3  C6  UNL     1     -34.629  15.221  -5.553  1.00 20.00     0.150 C 
HETATM    4  N7  UNL     1     -34.819  12.814  -4.507  1.00 20.00    -0.196 NA
ENDROOT
BRANCH   3   5
HETATM    5  S9  UNL     1     -33.328  16.179  -4.747  1.00 20.00    -0.148 SA
BRANCH   5   6
HETATM    6  C5  UNL     1     -33.605  15.611  -3.041  1.00 20.00     0.101 C 
BRANCH   6   7
HETATM    7  C4  UNL     1     -33.979  16.765  -2.125  1.00 20.00     0.177 C 
BRANCH   7   8
HETATM    8  O8  UNL     1     -34.678  16.277  -0.987  1.00 20.00    -0.395 OA
HETATM    9  C3  UNL     1     -34.754  17.258   0.038  1.00 20.00     0.201 C 
ENDBRANCH   7   8
ENDBRANCH   6   7
ENDBRANCH   5   6
ENDBRANCH   3   5
TORSDOF 4
ENDMDL
MODEL 2
REMARK VINA RESULT:      -3.6      2.526      4.362
REMARK  4 active torsions:
REMARK  status: ('A' for Active; 'I' for Inactive)
REMARK    1  A    between atoms: C4_4  and  C5_5 
REMARK    2  A    between atoms: C4_4  and  O8_8 
REMARK    3  A    between atoms: C5_5  and  S9_9 
REMARK    4  A    between atoms: C6_6  and  S9_9 
ROOT
HETATM    1  C1  UNL     1     -34.517  13.758  -3.870  1.00 20.00     0.074 C 
HETATM    2  C2  UNL     1     -34.904  15.688  -2.383  1.00 20.00     0.037 C 
HETATM    3  C6  UNL     1     -33.896  14.934  -3.244  1.00 20.00     0.150 C 
HETATM    4  N7  UNL     1     -35.003  12.829  -4.368  1.00 20.00    -0.196 NA
ENDROOT
BRANCH   3   5
HETATM    5  S9  UNL     1     -33.216  16.052  -4.488  1.00 20.00    -0.148 SA
BRANCH   5   6
HETATM    6  C5  UNL     1     -34.749  16.376  -5.413  1.00 20.00     0.101 C 
BRANCH   6   7
HETATM    7  C4  UNL     1     -34.510  16.339  -6.914  1.00 20.00     0.177 C 
BRANCH   7   8
HETATM    8  O8  UNL     1     -34.310  14.998  -7.342  1.00 20.00    -0.395 OA
HETATM    9  C3  UNL     1     -35.540  14.367  -7.673  1.00 20.00     0.201 C 
ENDBRANCH   7   8
ENDBRANCH   6   7
ENDBRANCH   5   6
ENDBRANCH   3   5
TORSDOF 4
ENDMDL
MODEL 3
REMARK VINA RESULT:      -3.6     11.873     12.660
REMARK  4 active torsions:
REMARK  status: ('A' for Active; 'I' for Inactive)
REMARK    1  A    between atoms: C4_4  and  C5_5 
REMARK    2  A    between atoms: C4_4  and  O8_8 
REMARK    3  A    between atoms: C5_5  and  S9_9 
REMARK    4  A    between atoms: C6_6  and  S9_9 
ROOT
HETATM    1  C1  UNL     1     -34.242   6.280   6.106  1.00 20.00     0.074 C 
HETATM    2  C2  UNL     1     -34.804   3.916   5.683  1.00 20.00     0.037 C 
HETATM    3  C6  UNL     1     -34.979   5.361   5.227  1.00 20.00     0.150 C 
HETATM    4  N7  UNL     1     -33.663   7.011   6.798  1.00 20.00    -0.196 NA
ENDROOT
BRANCH   3   5
HETATM    5  S9  UNL     1     -34.430   5.519   3.513  1.00 20.00    -0.148 SA
BRANCH   5   6
HETATM    6  C5  UNL     1     -32.900   6.456   3.815  1.00 20.00     0.101 C 
BRANCH   6   7
HETATM    7  C4  UNL     1     -32.263   6.913   2.513  1.00 20.00     0.177 C 
BRANCH   7   8
HETATM    8  O8  UNL     1     -32.253   8.333   2.448  1.00 20.00    -0.395 OA
HETATM    9  C3  UNL     1     -32.004   8.793   1.127  1.00 20.00     0.201 C 
ENDBRANCH   7   8
ENDBRANCH   6   7
ENDBRANCH   5   6
ENDBRANCH   3   5
TORSDOF 4
ENDMDL
MODEL 4
REMARK VINA RESULT:      -3.5      1.803      1.823
REMARK  4 active torsions:
REMARK  status: ('A' for Active; 'I' for Inactive)
REMARK    1  A    between atoms: C4_4  and  C5_5 
REMARK    2  A    between atoms: C4_4  and  O8_8 
REMARK    3  A    between atoms: C5_5  and  S9_9 
REMARK    4  A    between atoms: C6_6  and  S9_9 
ROOT
HETATM    1  C1  UNL     1     -36.806  14.525  -4.219  1.00 20.00     0.074 C 
HETATM    2  C2  UNL     1     -35.405  14.388  -6.245  1.00 20.00     0.037 C 
HETATM    3  C6  UNL     1     -35.472  14.792  -4.776  1.00 20.00     0.150 C 
HETATM    4  N7  UNL     1     -37.858  14.315  -3.774  1.00 20.00    -0.196 NA
ENDROOT
BRANCH   3   5
HETATM    5  S9  UNL     1     -34.193  13.913  -3.853  1.00 20.00    -0.148 SA
BRANCH   5   6
HETATM    6  C5  UNL     1     -33.135  15.337  -3.452  1.00 20.00     0.101 C 
BRANCH   6   7
HETATM    7  C4  UNL     1     -33.929  16.447  -2.783  1.00 20.00     0.177 C 
BRANCH   7   8
HETATM    8  O8  UNL     1     -34.597  15.945  -1.633  1.00 20.00    -0.395 OA
HETATM    9  C3  UNL     1     -34.583  16.885  -0.568  1.00 20.00     0.201 C 
ENDBRANCH   7   8
ENDBRANCH   6   7
ENDBRANCH   5   6
ENDBRANCH   3   5
TORSDOF 4
ENDMDL
MODEL 5
REMARK VINA RESULT:      -3.5      1.778      2.068
REMARK  4 active torsions:
REMARK  status: ('A' for Active; 'I' for Inactive)
REMARK    1  A    between atoms: C4_4  and  C5_5 
REMARK    2  A    between atoms: C4_4  and  O8_8 
REMARK    3  A    between atoms: C5_5  and  S9_9 
REMARK    4  A    between atoms: C6_6  and  S9_9 
ROOT
HETATM    1  C1  UNL     1     -36.230  14.178  -4.249  1.00 20.00     0.074 C 
HETATM    2  C2  UNL     1     -33.860  13.581  -3.911  1.00 20.00     0.037 C 
HETATM    3  C6  UNL     1     -34.920  14.043  -4.905  1.00 20.00     0.150 C 
HETATM    4  N7  UNL     1     -37.265  14.286  -3.737  1.00 20.00    -0.196 NA
ENDROOT
BRANCH   3   5
HETATM    5  S9  UNL     1     -34.402  15.604  -5.651  1.00 20.00    -0.148 SA
BRANCH   5   6
HETATM    6  C5  UNL     1     -33.218  16.124  -4.372  1.00 20.00     0.101 C 
BRANCH   6   7
HETATM    7  C4  UNL     1     -33.813  17.187  -3.463  1.00 20.00     0.177 C 
BRANCH   7   8
HETATM    8  O8  UNL     1     -33.550  16.868  -2.103  1.00 20.00    -0.395 OA
HETATM    9  C3  UNL     1     -34.699  16.334  -1.460  1.00 20.00     0.201 C 
ENDBRANCH   7   8
ENDBRANCH   6   7
ENDBRANCH   5   6
ENDBRANCH   3   5
TORSDOF 4
ENDMDL
MODEL 6
REMARK VINA RESULT:      -3.5      2.873      3.901
REMARK  4 active torsions:
REMARK  status: ('A' for Active; 'I' for Inactive)
REMARK    1  A    between atoms: C4_4  and  C5_5 
REMARK    2  A    between atoms: C4_4  and  O8_8 
REMARK    3  A    between atoms: C5_5  and  S9_9 
REMARK    4  A    between atoms: C6_6  and  S9_9 
ROOT
HETATM    1  C1  UNL     1     -37.230  15.225  -3.537  1.00 20.00     0.074 C 
HETATM    2  C2  UNL     1     -35.980  17.043  -4.640  1.00 20.00     0.037 C 
HETATM    3  C6  UNL     1     -36.338  16.373  -3.318  1.00 20.00     0.150 C 
HETATM    4  N7  UNL     1     -37.935  14.318  -3.705  1.00 20.00    -0.196 NA
ENDROOT
BRANCH   3   5
HETATM    5  S9  UNL     1     -34.824  15.868  -2.473  1.00 20.00    -0.148 SA
BRANCH   5   6
HETATM    6  C5  UNL     1     -34.002  15.052  -3.875  1.00 20.00     0.101 C 
BRANCH   6   7
HETATM    7  C4  UNL     1     -33.873  13.554  -3.647  1.00 20.00     0.177 C 
BRANCH   7   8
HETATM    8  O8  UNL     1     -34.690  12.849  -4.572  1.00 20.00    -0.395 OA
HETATM    9  C3  UNL     1     -34.904  13.600  -5.759  1.00 20.00     0.201 C 
ENDBRANCH   7   8
ENDBRANCH   6   7
ENDBRANCH   5   6
ENDBRANCH   3   5
TORSDOF 4
ENDMDL
MODEL 7
REMARK VINA RESULT:      -3.5     11.625     12.418
REMARK  4 active torsions:
REMARK  status: ('A' for Active; 'I' for Inactive)
REMARK    1  A    between atoms: C4_4  and  C5_5 
REMARK    2  A    between atoms: C4_4  and  O8_8 
REMARK    3  A    between atoms: C5_5  and  S9_9 
REMARK    4  A    between atoms: C6_6  and  S9_9 
ROOT
HETATM    1  C1  UNL     1     -34.610   4.530   5.432  1.00 20.00     0.074 C 
HETATM    2  C2  UNL     1     -33.989   6.688   6.453  1.00 20.00     0.037 C 
HETATM    3  C6  UNL     1     -33.758   5.721   5.297  1.00 20.00     0.150 C 
HETATM    4  N7  UNL     1     -35.281   3.588   5.534  1.00 20.00    -0.196 NA
ENDROOT
BRANCH   3   5
HETATM    5  S9  UNL     1     -34.069   6.570   3.734  1.00 20.00    -0.148 SA
BRANCH   5   6
HETATM    6  C5  UNL     1     -32.394   6.450   3.035  1.00 20.00     0.101 C 
BRANCH   6   7
HETATM    7  C4  UNL     1     -31.752   7.821   2.894  1.00 20.00     0.177 C 
BRANCH   7   8
HETATM    8  O8  UNL     1     -31.813   8.251   1.540  1.00 20.00    -0.395 OA
HETATM    9  C3  UNL     1     -32.398   9.541   1.428  1.00 20.00     0.201 C 
ENDBRANCH   7   8
ENDBRANCH   6   7
ENDBRANCH   5   6
ENDBRANCH   3   5
TORSDOF 4
ENDMDL
MODEL 8
REMARK VINA RESULT:      -3.5      2.791      3.151
REMARK  4 active torsions:
REMARK  status: ('A' for Active; 'I' for Inactive)
REMARK    1  A    between atoms: C4_4  and  C5_5 
REMARK    2  A    between atoms: C4_4  and  O8_8 
REMARK    3  A    between atoms: C5_5  and  S9_9 
REMARK    4  A    between atoms: C6_6  and  S9_9 
ROOT
HETATM    1  C1  UNL     1     -36.944  14.506  -4.208  1.00 20.00     0.074 C 
HETATM    2  C2  UNL     1     -35.722  14.611  -6.348  1.00 20.00     0.037 C 
HETATM    3  C6  UNL     1     -35.629  14.717  -4.829  1.00 20.00     0.150 C 
HETATM    4  N7  UNL     1     -37.980  14.340  -3.712  1.00 20.00    -0.196 NA
ENDROOT
BRANCH   3   5
HETATM    5  S9  UNL     1     -34.420  13.522  -4.218  1.00 20.00    -0.148 SA
BRANCH   5   6
HETATM    6  C5  UNL     1     -33.120  14.695  -3.725  1.00 20.00     0.101 C 
BRANCH   6   7
HETATM    7  C4  UNL     1     -33.571  16.134  -3.912  1.00 20.00     0.177 C 
BRANCH   7   8
HETATM    8  O8  UNL     1     -32.885  16.721  -5.010  1.00 20.00    -0.395 OA
HETATM    9  C3  UNL     1     -33.593  17.839  -5.530  1.00 20.00     0.201 C 
ENDBRANCH   7   8
ENDBRANCH   6   7
ENDBRANCH   5   6
ENDBRANCH   3   5
TORSDOF 4
ENDMDL
MODEL 9
REMARK VINA RESULT:      -3.4      1.825      2.144
REMARK  4 active torsions:
REMARK  status: ('A' for Active; 'I' for Inactive)
REMARK    1  A    between atoms: C4_4  and  C5_5 
REMARK    2  A    between atoms: C4_4  and  O8_8 
REMARK    3  A    between atoms: C5_5  and  S9_9 
REMARK    4  A    between atoms: C6_6  and  S9_9 
ROOT
HETATM    1  C1  UNL     1     -34.948  13.524  -5.315  1.00 20.00     0.074 C 
HETATM    2  C2  UNL     1     -34.227  15.361  -6.794  1.00 20.00     0.037 C 
HETATM    3  C6  UNL     1     -35.392  14.499  -6.321  1.00 20.00     0.150 C 
HETATM    4  N7  UNL     1     -34.602  12.752  -4.520  1.00 20.00    -0.196 NA
ENDROOT
BRANCH   3   5
HETATM    5  S9  UNL     1     -36.698  15.562  -5.667  1.00 20.00    -0.148 SA
BRANCH   5   6
HETATM    6  C5  UNL     1     -35.680  16.555  -4.532  1.00 20.00     0.101 C 
BRANCH   6   7
HETATM    7  C4  UNL     1     -36.038  16.281  -3.081  1.00 20.00     0.177 C 
BRANCH   7   8
HETATM    8  O8  UNL     1     -34.969  15.602  -2.435  1.00 20.00    -0.395 OA
HETATM    9  C3  UNL     1     -33.706  16.054  -2.902  1.00 20.00     0.201 C 
ENDBRANCH   7   8
ENDBRANCH   6   7
ENDBRANCH   5   6
ENDBRANCH   3   5
TORSDOF 4
ENDMDL
