MODEL 1
REMARK VINA RESULT:      -4.0      0.000      0.000
REMARK  4 active torsions:
REMARK  status: ('A' for Active; 'I' for Inactive)
REMARK    1  A    between atoms: C4_4  and  N11_11 
REMARK    2  A    between atoms: C7_7  and  C9_9 
REMARK    3  A    between atoms: C8_8  and  N11_11 
REMARK    4  A    between atoms: C9_9  and  N11_11 
ROOT
HETATM    1  C1  UNL     1     -34.803  13.764  -4.527  1.00 20.00     0.095 C 
HETATM    2  C9  UNL     1     -34.794  15.226  -4.373  1.00 20.00     0.328 C 
HETATM    3  N10 UNL     1     -34.807  12.610  -4.648  1.00 20.00    -0.195 NA
ENDROOT
BRANCH   2   4
HETATM    4  C7  UNL     1     -35.061  15.955  -5.696  1.00 20.00     0.046 C 
HETATM    5  C5  UNL     1     -34.284  15.410  -6.891  1.00 20.00     0.008 C 
ENDBRANCH   2   4
BRANCH   2   6
HETATM    6  N11 UNL     1     -35.726  15.633  -3.352  1.00 20.00     0.110 N 
BRANCH   6   7
HETATM    7  C4  UNL     1     -35.172  16.715  -2.527  1.00 20.00     0.224 A 
HETATM    8  C2  UNL     1     -34.774  16.456  -1.099  1.00 20.00     0.038 A 
HETATM    9  C3  UNL     1     -33.720  16.710  -2.136  1.00 20.00     0.038 A 
ENDBRANCH   6   7
BRANCH   6  10
HETATM   10  C8  UNL     1     -37.003  16.066  -3.940  1.00 20.00     0.270 C 
HETATM   11  C6  UNL     1     -38.090  15.089  -3.644  1.00 20.00     0.037 C 
ENDBRANCH   6  10
ENDBRANCH   2   6
TORSDOF 4
ENDMDL
MODEL 2
REMARK VINA RESULT:      -4.0      1.752      3.584
REMARK  4 active torsions:
REMARK  status: ('A' for Active; 'I' for Inactive)
REMARK    1  A    between atoms: C4_4  and  N11_11 
REMARK    2  A    between atoms: C7_7  and  C9_9 
REMARK    3  A    between atoms: C8_8  and  N11_11 
REMARK    4  A    between atoms: C9_9  and  N11_11 
ROOT
HETATM    1  C1  UNL     1     -36.674  15.080  -3.668  1.00 20.00     0.095 C 
HETATM    2  C9  UNL     1     -35.545  16.015  -3.561  1.00 20.00     0.328 C 
HETATM    3  N10 UNL     1     -37.568  14.344  -3.751  1.00 20.00    -0.195 NA
ENDROOT
BRANCH   2   4
HETATM    4  C7  UNL     1     -34.554  15.612  -2.462  1.00 20.00     0.046 C 
HETATM    5  C5  UNL     1     -34.632  16.458  -1.194  1.00 20.00     0.008 C 
ENDBRANCH   2   4
BRANCH   2   6
HETATM    6  N11 UNL     1     -34.886  16.160  -4.834  1.00 20.00     0.110 N 
BRANCH   6   7
HETATM    7  C4  UNL     1     -33.770  17.112  -4.750  1.00 20.00     0.224 A 
HETATM    8  C2  UNL     1     -33.617  18.199  -5.778  1.00 20.00     0.038 A 
HETATM    9  C3  UNL     1     -34.017  18.548  -4.375  1.00 20.00     0.038 A 
ENDBRANCH   6   7
BRANCH   6  10
HETATM   10  C8  UNL     1     -34.393  14.866  -5.328  1.00 20.00     0.270 C 
HETATM   11  C6  UNL     1     -34.588  14.744  -6.802  1.00 20.00     0.037 C 
ENDBRANCH   6  10
ENDBRANCH   2   6
TORSDOF 4
ENDMDL
MODEL 3
REMARK VINA RESULT:      -3.9      1.616      2.700
REMARK  4 active torsions:
REMARK  status: ('A' for Active; 'I' for Inactive)
REMARK    1  A    between atoms: C4_4  and  N11_11 
REMARK    2  A    between atoms: C7_7  and  C9_9 
REMARK    3  A    between atoms: C8_8  and  N11_11 
REMARK    4  A    between atoms: C9_9  and  N11_11 
ROOT
HETATM    1  C1  UNL     1     -36.908  14.673  -3.696  1.00 20.00     0.095 C 
HETATM    2  C9  UNL     1     -35.501  15.056  -3.506  1.00 20.00     0.328 C 
HETATM    3  N10 UNL     1     -38.018  14.370  -3.843  1.00 20.00    -0.195 NA
ENDROOT
BRANCH   2   4
HETATM    4  C7  UNL     1     -34.555  14.287  -4.437  1.00 20.00     0.046 C 
HETATM    5  C5  UNL     1     -33.351  13.657  -3.743  1.00 20.00     0.008 C 
ENDBRANCH   2   4
BRANCH   2   6
HETATM    6  N11 UNL     1     -35.340  16.480  -3.654  1.00 20.00     0.110 N 
BRANCH   6   7
HETATM    7  C4  UNL     1     -34.506  17.036  -2.579  1.00 20.00     0.224 A 
HETATM    8  C2  UNL     1     -35.132  17.815  -1.455  1.00 20.00     0.038 A 
HETATM    9  C3  UNL     1     -34.558  16.453  -1.194  1.00 20.00     0.038 A 
ENDBRANCH   6   7
BRANCH   6  10
HETATM   10  C8  UNL     1     -34.751  16.816  -4.959  1.00 20.00     0.270 C 
HETATM   11  C6  UNL     1     -33.634  17.792  -4.809  1.00 20.00     0.037 C 
ENDBRANCH   6  10
ENDBRANCH   2   6
TORSDOF 4
ENDMDL
MODEL 4
REMARK VINA RESULT:      -3.9      1.684      3.899
REMARK  4 active torsions:
REMARK  status: ('A' for Active; 'I' for Inactive)
REMARK    1  A    between atoms: C4_4  and  N11_11 
REMARK    2  A    between atoms: C7_7  and  C9_9 
REMARK    3  A    between atoms: C8_8  and  N11_11 
REMARK    4  A    between atoms: C9_9  and  N11_11 
ROOT
HETATM    1  C1  UNL     1     -33.880  17.635  -3.485  1.00 20.00     0.095 C 
HETATM    2  C9  UNL     1     -34.166  16.310  -2.915  1.00 20.00     0.328 C 
HETATM    3  N10 UNL     1     -33.651  18.679  -3.936  1.00 20.00    -0.195 NA
ENDROOT
BRANCH   2   4
HETATM    4  C7  UNL     1     -34.637  16.391  -1.458  1.00 20.00     0.046 C 
HETATM    5  C5  UNL     1     -33.934  17.455  -0.619  1.00 20.00     0.008 C 
ENDBRANCH   2   4
BRANCH   2   6
HETATM    6  N11 UNL     1     -35.115  15.600  -3.735  1.00 20.00     0.110 N 
BRANCH   6   7
HETATM    7  C4  UNL     1     -34.870  14.152  -3.699  1.00 20.00     0.224 A 
HETATM    8  C2  UNL     1     -34.385  13.431  -4.926  1.00 20.00     0.038 A 
HETATM    9  C3  UNL     1     -33.467  13.613  -3.753  1.00 20.00     0.038 A 
ENDBRANCH   6   7
BRANCH   6  10
HETATM   10  C8  UNL     1     -36.496  15.878  -3.311  1.00 20.00     0.270 C 
HETATM   11  C6  UNL     1     -37.430  14.823  -3.799  1.00 20.00     0.037 C 
ENDBRANCH   6  10
ENDBRANCH   2   6
TORSDOF 4
ENDMDL
MODEL 5
REMARK VINA RESULT:      -3.9      1.518      3.607
REMARK  4 active torsions:
REMARK  status: ('A' for Active; 'I' for Inactive)
REMARK    1  A    between atoms: C4_4  and  N11_11 
REMARK    2  A    between atoms: C7_7  and  C9_9 
REMARK    3  A    between atoms: C8_8  and  N11_11 
REMARK    4  A    between atoms: C9_9  and  N11_11 
ROOT
HETATM    1  C1  UNL     1     -35.003  13.916  -4.116  1.00 20.00     0.095 C 
HETATM    2  C9  UNL     1     -35.057  15.339  -3.748  1.00 20.00     0.328 C 
HETATM    3  N10 UNL     1     -34.963  12.793  -4.405  1.00 20.00    -0.195 NA
ENDROOT
BRANCH   2   4
HETATM    4  C7  UNL     1     -34.039  15.700  -2.660  1.00 20.00     0.046 C 
HETATM    5  C5  UNL     1     -34.635  16.384  -1.433  1.00 20.00     0.008 C 
ENDBRANCH   2   4
BRANCH   2   6
HETATM    6  N11 UNL     1     -34.896  16.169  -4.915  1.00 20.00     0.110 N 
BRANCH   6   7
HETATM    7  C4  UNL     1     -35.840  17.295  -4.901  1.00 20.00     0.224 A 
HETATM    8  C2  UNL     1     -37.082  17.257  -5.750  1.00 20.00     0.038 A 
HETATM    9  C3  UNL     1     -37.192  17.150  -4.257  1.00 20.00     0.038 A 
ENDBRANCH   6   7
BRANCH   6  10
HETATM   10  C8  UNL     1     -33.521  16.681  -5.017  1.00 20.00     0.270 C 
HETATM   11  C6  UNL     1     -33.510  18.119  -5.414  1.00 20.00     0.037 C 
ENDBRANCH   6  10
ENDBRANCH   2   6
TORSDOF 4
ENDMDL
MODEL 6
REMARK VINA RESULT:      -3.8      1.506      3.590
REMARK  4 active torsions:
REMARK  status: ('A' for Active; 'I' for Inactive)
REMARK    1  A    between atoms: C4_4  and  N11_11 
REMARK    2  A    between atoms: C7_7  and  C9_9 
REMARK    3  A    between atoms: C8_8  and  N11_11 
REMARK    4  A    between atoms: C9_9  and  N11_11 
ROOT
HETATM    1  C1  UNL     1     -34.655  16.425  -1.664  1.00 20.00     0.095 C 
HETATM    2  C9  UNL     1     -34.747  16.099  -3.095  1.00 20.00     0.328 C 
HETATM    3  N10 UNL     1     -34.584  16.685  -0.535  1.00 20.00    -0.195 NA
ENDROOT
BRANCH   2   4
HETATM    4  C7  UNL     1     -33.396  16.220  -3.810  1.00 20.00     0.046 C 
HETATM    5  C5  UNL     1     -33.420  17.076  -5.073  1.00 20.00     0.008 C 
ENDBRANCH   2   4
BRANCH   2   6
HETATM    6  N11 UNL     1     -35.323  14.791  -3.279  1.00 20.00     0.110 N 
BRANCH   6   7
HETATM    7  C4  UNL     1     -36.375  14.812  -4.305  1.00 20.00     0.224 A 
HETATM    8  C2  UNL     1     -37.826  14.801  -3.908  1.00 20.00     0.038 A 
HETATM    9  C3  UNL     1     -37.223  16.039  -4.504  1.00 20.00     0.038 A 
ENDBRANCH   6   7
BRANCH   6  10
HETATM   10  C8  UNL     1     -34.296  13.804  -3.647  1.00 20.00     0.270 C 
HETATM   11  C6  UNL     1     -34.659  13.096  -4.908  1.00 20.00     0.037 C 
ENDBRANCH   6  10
ENDBRANCH   2   6
TORSDOF 4
ENDMDL
MODEL 7
REMARK VINA RESULT:      -3.8      1.448      3.937
REMARK  4 active torsions:
REMARK  status: ('A' for Active; 'I' for Inactive)
REMARK    1  A    between atoms: C4_4  and  N11_11 
REMARK    2  A    between atoms: C7_7  and  C9_9 
REMARK    3  A    between atoms: C8_8  and  N11_11 
REMARK    4  A    between atoms: C9_9  and  N11_11 
ROOT
HETATM    1  C1  UNL     1     -37.424  14.823  -3.881  1.00 20.00     0.095 C 
HETATM    2  C9  UNL     1     -36.080  15.404  -4.007  1.00 20.00     0.328 C 
HETATM    3  N10 UNL     1     -38.487  14.367  -3.784  1.00 20.00    -0.195 NA
ENDROOT
BRANCH   2   4
HETATM    4  C7  UNL     1     -35.532  15.907  -2.666  1.00 20.00     0.046 C 
HETATM    5  C5  UNL     1     -35.054  17.356  -2.677  1.00 20.00     0.008 C 
ENDBRANCH   2   4
BRANCH   2   6
HETATM    6  N11 UNL     1     -35.178  14.463  -4.622  1.00 20.00     0.110 N 
BRANCH   6   7
HETATM    7  C4  UNL     1     -34.234  15.141  -5.522  1.00 20.00     0.224 A 
HETATM    8  C2  UNL     1     -34.389  15.026  -7.014  1.00 20.00     0.038 A 
HETATM    9  C3  UNL     1     -34.671  16.332  -6.331  1.00 20.00     0.038 A 
ENDBRANCH   6   7
BRANCH   6  10
HETATM   10  C8  UNL     1     -34.432  13.701  -3.609  1.00 20.00     0.270 C 
HETATM   11  C6  UNL     1     -32.964  13.934  -3.735  1.00 20.00     0.037 C 
ENDBRANCH   6  10
ENDBRANCH   2   6
TORSDOF 4
ENDMDL
MODEL 8
REMARK VINA RESULT:      -3.8      1.607      4.114
REMARK  4 active torsions:
REMARK  status: ('A' for Active; 'I' for Inactive)
REMARK    1  A    between atoms: C4_4  and  N11_11 
REMARK    2  A    between atoms: C7_7  and  C9_9 
REMARK    3  A    between atoms: C8_8  and  N11_11 
REMARK    4  A    between atoms: C9_9  and  N11_11 
ROOT
HETATM    1  C1  UNL     1     -36.453  17.042  -2.872  1.00 20.00     0.095 C 
HETATM    2  C9  UNL     1     -35.025  16.697  -2.930  1.00 20.00     0.328 C 
HETATM    3  N10 UNL     1     -37.580  17.317  -2.827  1.00 20.00    -0.195 NA
ENDROOT
BRANCH   2   4
HETATM    4  C7  UNL     1     -34.489  16.199  -1.582  1.00 20.00     0.046 C 
HETATM    5  C5  UNL     1     -34.789  17.115  -0.400  1.00 20.00     0.008 C 
ENDBRANCH   2   4
BRANCH   2   6
HETATM    6  N11 UNL     1     -34.778  15.741  -3.979  1.00 20.00     0.110 N 
BRANCH   6   7
HETATM    7  C4  UNL     1     -33.675  16.177  -4.846  1.00 20.00     0.224 A 
HETATM    8  C2  UNL     1     -33.929  16.520  -6.289  1.00 20.00     0.038 A 
HETATM    9  C3  UNL     1     -33.586  17.605  -5.311  1.00 20.00     0.038 A 
ENDBRANCH   6   7
BRANCH   6  10
HETATM   10  C8  UNL     1     -34.476  14.412  -3.428  1.00 20.00     0.270 C 
HETATM   11  C6  UNL     1     -35.046  13.332  -4.284  1.00 20.00     0.037 C 
ENDBRANCH   6  10
ENDBRANCH   2   6
TORSDOF 4
ENDMDL
MODEL 9
REMARK VINA RESULT:      -3.7      1.233      3.151
REMARK  4 active torsions:
REMARK  status: ('A' for Active; 'I' for Inactive)
REMARK    1  A    between atoms: C4_4  and  N11_11 
REMARK    2  A    between atoms: C7_7  and  C9_9 
REMARK    3  A    between atoms: C8_8  and  N11_11 
REMARK    4  A    between atoms: C9_9  and  N11_11 
ROOT
HETATM    1  C1  UNL     1     -33.985  14.045  -3.525  1.00 20.00     0.095 C 
HETATM    2  C9  UNL     1     -34.802  15.209  -3.153  1.00 20.00     0.328 C 
HETATM    3  N10 UNL     1     -33.342  13.124  -3.818  1.00 20.00    -0.195 NA
ENDROOT
BRANCH   2   4
HETATM    4  C7  UNL     1     -34.021  16.226  -2.312  1.00 20.00     0.046 C 
HETATM    5  C5  UNL     1     -34.660  16.563  -0.967  1.00 20.00     0.008 C 
ENDBRANCH   2   4
BRANCH   2   6
HETATM    6  N11 UNL     1     -35.370  15.824  -4.326  1.00 20.00     0.110 N 
BRANCH   6   7
HETATM    7  C4  UNL     1     -34.365  15.975  -5.387  1.00 20.00     0.224 A 
HETATM    8  C2  UNL     1     -34.574  16.967  -6.498  1.00 20.00     0.038 A 
HETATM    9  C3  UNL     1     -33.515  17.213  -5.464  1.00 20.00     0.038 A 
ENDBRANCH   6   7
BRANCH   6  10
HETATM   10  C8  UNL     1     -36.511  15.048  -4.834  1.00 20.00     0.270 C 
HETATM   11  C6  UNL     1     -37.594  14.954  -3.813  1.00 20.00     0.037 C 
ENDBRANCH   6  10
ENDBRANCH   2   6
TORSDOF 4
ENDMDL
