MODEL 1
REMARK VINA RESULT:      -5.1      0.000      0.000
REMARK  2 active torsions:
REMARK  status: ('A' for Active; 'I' for Inactive)
REMARK    1  A    between atoms: C6_6  and  C9_9 
REMARK    2  A    between atoms: C10_10  and  N12_12 
ROOT
HETATM    1  C1  UNL     1     -34.899  13.797  -5.169  1.00 20.00     0.092 C 
HETATM    2  C8  UNL     1     -34.139  15.727  -6.517  1.00 20.00     0.056 C 
HETATM    3  C10 UNL     1     -35.124  15.212  -5.480  1.00 20.00     0.289 C 
HETATM    4  N11 UNL     1     -34.723  12.677  -4.922  1.00 20.00    -0.195 NA
ENDROOT
BRANCH   3   5
HETATM    5  N12 UNL     1     -34.956  16.024  -4.226  1.00 20.00    -0.055 N 
HETATM    6  C4  UNL     1     -33.796  16.984  -4.335  1.00 20.00     0.237 C 
HETATM    7  C2  UNL     1     -33.748  17.865  -3.094  1.00 20.00     0.032 C 
HETATM    8  C6  UNL     1     -33.668  17.033  -1.809  1.00 20.00    -0.012 C 
HETATM    9  C3  UNL     1     -34.815  16.017  -1.754  1.00 20.00     0.032 C 
HETATM   10  C5  UNL     1     -34.858  15.146  -3.002  1.00 20.00     0.237 C 
HETATM   11  H31 UNL     1     -35.811  16.589  -4.129  1.00 20.00     0.281 HD
BRANCH   8  12
HETATM   12  C9  UNL     1     -33.683  17.934  -0.576  1.00 20.00     0.000 C 
HETATM   13  C7  UNL     1     -34.739  17.520   0.397  1.00 20.00     0.005 C 
ENDBRANCH   8  12
ENDBRANCH   3   5
TORSDOF 2
ENDMDL
MODEL 2
REMARK VINA RESULT:      -4.9      1.616      1.979
REMARK  2 active torsions:
REMARK  status: ('A' for Active; 'I' for Inactive)
REMARK    1  A    between atoms: C6_6  and  C9_9 
REMARK    2  A    between atoms: C10_10  and  N12_12 
ROOT
HETATM    1  C1  UNL     1     -36.726  14.718  -3.953  1.00 20.00     0.092 C 
HETATM    2  C8  UNL     1     -34.339  14.077  -4.036  1.00 20.00     0.056 C 
HETATM    3  C10 UNL     1     -35.361  15.189  -4.209  1.00 20.00     0.289 C 
HETATM    4  N11 UNL     1     -37.807  14.348  -3.750  1.00 20.00    -0.195 NA
ENDROOT
BRANCH   3   5
HETATM    5  N12 UNL     1     -35.030  16.290  -3.241  1.00 20.00    -0.055 N 
HETATM    6  C4  UNL     1     -33.913  17.166  -3.755  1.00 20.00     0.237 C 
HETATM    7  C2  UNL     1     -33.703  18.334  -2.800  1.00 20.00     0.032 C 
HETATM    8  C6  UNL     1     -33.428  17.855  -1.370  1.00 20.00    -0.012 C 
HETATM    9  C3  UNL     1     -34.540  16.912  -0.896  1.00 20.00     0.032 C 
HETATM   10  C5  UNL     1     -34.745  15.752  -1.860  1.00 20.00     0.237 C 
HETATM   11  H31 UNL     1     -35.872  16.879  -3.172  1.00 20.00     0.281 HD
BRANCH   8  12
HETATM   12  C9  UNL     1     -33.283  19.042  -0.419  1.00 20.00     0.000 C 
HETATM   13  C7  UNL     1     -31.995  18.989   0.336  1.00 20.00     0.005 C 
ENDBRANCH   8  12
ENDBRANCH   3   5
TORSDOF 2
ENDMDL
MODEL 3
REMARK VINA RESULT:      -4.9      2.152      5.187
REMARK  2 active torsions:
REMARK  status: ('A' for Active; 'I' for Inactive)
REMARK    1  A    between atoms: C6_6  and  C9_9 
REMARK    2  A    between atoms: C10_10  and  N12_12 
ROOT
HETATM    1  C1  UNL     1     -32.575  18.837  -0.240  1.00 20.00     0.092 C 
HETATM    2  C8  UNL     1     -34.635  17.671   0.477  1.00 20.00     0.056 C 
HETATM    3  C10 UNL     1     -33.906  18.381  -0.653  1.00 20.00     0.289 C 
HETATM    4  N11 UNL     1     -31.522  19.200   0.085  1.00 20.00    -0.195 NA
ENDROOT
BRANCH   3   5
HETATM    5  N12 UNL     1     -33.763  17.420  -1.800  1.00 20.00    -0.055 N 
HETATM    6  C4  UNL     1     -33.915  18.115  -3.131  1.00 20.00     0.237 C 
HETATM    7  C2  UNL     1     -33.638  17.125  -4.255  1.00 20.00     0.032 C 
HETATM    8  C6  UNL     1     -34.542  15.891  -4.161  1.00 20.00    -0.012 C 
HETATM    9  C3  UNL     1     -34.425  15.243  -2.776  1.00 20.00     0.032 C 
HETATM   10  C5  UNL     1     -34.698  16.242  -1.660  1.00 20.00     0.237 C 
HETATM   11  H31 UNL     1     -32.802  17.054  -1.754  1.00 20.00     0.281 HD
BRANCH   8  12
HETATM   12  C9  UNL     1     -34.204  14.885  -5.259  1.00 20.00     0.000 C 
HETATM   13  C7  UNL     1     -34.692  13.514  -4.920  1.00 20.00     0.005 C 
ENDBRANCH   8  12
ENDBRANCH   3   5
TORSDOF 2
ENDMDL
MODEL 4
REMARK VINA RESULT:      -4.9      0.564      1.555
REMARK  2 active torsions:
REMARK  status: ('A' for Active; 'I' for Inactive)
REMARK    1  A    between atoms: C6_6  and  C9_9 
REMARK    2  A    between atoms: C10_10  and  N12_12 
ROOT
HETATM    1  C1  UNL     1     -34.872  13.824  -4.951  1.00 20.00     0.092 C 
HETATM    2  C8  UNL     1     -34.100  15.723  -6.335  1.00 20.00     0.056 C 
HETATM    3  C10 UNL     1     -34.939  15.275  -5.149  1.00 20.00     0.289 C 
HETATM    4  N11 UNL     1     -34.821  12.676  -4.793  1.00 20.00    -0.195 NA
ENDROOT
BRANCH   3   5
HETATM    5  N12 UNL     1     -34.421  15.964  -3.917  1.00 20.00    -0.055 N 
HETATM    6  C4  UNL     1     -35.227  15.599  -2.694  1.00 20.00     0.237 C 
HETATM    7  C2  UNL     1     -34.588  16.221  -1.460  1.00 20.00     0.032 C 
HETATM    8  C6  UNL     1     -34.440  17.740  -1.601  1.00 20.00    -0.012 C 
HETATM    9  C3  UNL     1     -33.680  18.089  -2.886  1.00 20.00     0.032 C 
HETATM   10  C5  UNL     1     -34.324  17.458  -4.112  1.00 20.00     0.237 C 
HETATM   11  H31 UNL     1     -33.465  15.613  -3.769  1.00 20.00     0.281 HD
BRANCH   8  12
HETATM   12  C9  UNL     1     -33.741  18.333  -0.380  1.00 20.00     0.000 C 
HETATM   13  C7  UNL     1     -34.479  18.026   0.882  1.00 20.00     0.005 C 
ENDBRANCH   8  12
ENDBRANCH   3   5
TORSDOF 2
ENDMDL
MODEL 5
REMARK VINA RESULT:      -4.7      1.114      1.540
REMARK  2 active torsions:
REMARK  status: ('A' for Active; 'I' for Inactive)
REMARK    1  A    between atoms: C6_6  and  C9_9 
REMARK    2  A    between atoms: C10_10  and  N12_12 
ROOT
HETATM    1  C1  UNL     1     -35.684  14.985  -6.428  1.00 20.00     0.092 C 
HETATM    2  C8  UNL     1     -34.621  13.270  -4.998  1.00 20.00     0.056 C 
HETATM    3  C10 UNL     1     -34.562  14.693  -5.530  1.00 20.00     0.289 C 
HETATM    4  N11 UNL     1     -36.571  15.218  -7.140  1.00 20.00    -0.195 NA
ENDROOT
BRANCH   3   5
HETATM    5  N12 UNL     1     -34.610  15.636  -4.360  1.00 20.00    -0.055 N 
HETATM    6  C4  UNL     1     -33.500  16.657  -4.423  1.00 20.00     0.237 C 
HETATM    7  C2  UNL     1     -33.668  17.660  -3.289  1.00 20.00     0.032 C 
HETATM    8  C6  UNL     1     -33.717  16.968  -1.922  1.00 20.00    -0.012 C 
HETATM    9  C3  UNL     1     -34.805  15.888  -1.906  1.00 20.00     0.032 C 
HETATM   10  C5  UNL     1     -34.631  14.894  -3.046  1.00 20.00     0.237 C 
HETATM   11  H31 UNL     1     -35.500  16.148  -4.437  1.00 20.00     0.281 HD
BRANCH   8  12
HETATM   12  C9  UNL     1     -33.948  17.986  -0.807  1.00 20.00     0.000 C 
HETATM   13  C7  UNL     1     -34.792  17.421   0.289  1.00 20.00     0.005 C 
ENDBRANCH   8  12
ENDBRANCH   3   5
TORSDOF 2
ENDMDL
MODEL 6
REMARK VINA RESULT:      -4.7      1.381      1.905
REMARK  2 active torsions:
REMARK  status: ('A' for Active; 'I' for Inactive)
REMARK    1  A    between atoms: C6_6  and  C9_9 
REMARK    2  A    between atoms: C10_10  and  N12_12 
ROOT
HETATM    1  C1  UNL     1     -35.955  14.875  -6.371  1.00 20.00     0.092 C 
HETATM    2  C8  UNL     1     -34.687  13.178  -5.094  1.00 20.00     0.056 C 
HETATM    3  C10 UNL     1     -34.748  14.618  -5.579  1.00 20.00     0.289 C 
HETATM    4  N11 UNL     1     -36.909  15.080  -6.999  1.00 20.00    -0.195 NA
ENDROOT
BRANCH   3   5
HETATM    5  N12 UNL     1     -34.746  15.522  -4.377  1.00 20.00    -0.055 N 
HETATM    6  C4  UNL     1     -33.477  15.377  -3.574  1.00 20.00     0.237 C 
HETATM    7  C2  UNL     1     -33.471  16.399  -2.445  1.00 20.00     0.032 C 
HETATM    8  C6  UNL     1     -34.714  16.271  -1.557  1.00 20.00    -0.012 C 
HETATM    9  C3  UNL     1     -35.990  16.349  -2.404  1.00 20.00     0.032 C 
HETATM   10  C5  UNL     1     -35.982  15.327  -3.532  1.00 20.00     0.237 C 
HETATM   11  H31 UNL     1     -34.771  16.485  -4.739  1.00 20.00     0.281 HD
BRANCH   8  12
HETATM   12  C9  UNL     1     -34.718  17.344  -0.471  1.00 20.00     0.000 C 
HETATM   13  C7  UNL     1     -33.425  18.091  -0.429  1.00 20.00     0.005 C 
ENDBRANCH   8  12
ENDBRANCH   3   5
TORSDOF 2
ENDMDL
MODEL 7
REMARK VINA RESULT:      -4.7      1.305      1.433
REMARK  2 active torsions:
REMARK  status: ('A' for Active; 'I' for Inactive)
REMARK    1  A    between atoms: C6_6  and  C9_9 
REMARK    2  A    between atoms: C10_10  and  N12_12 
ROOT
HETATM    1  C1  UNL     1     -34.908  13.844  -4.833  1.00 20.00     0.092 C 
HETATM    2  C8  UNL     1     -33.839  15.965  -5.526  1.00 20.00     0.056 C 
HETATM    3  C10 UNL     1     -35.095  15.289  -4.998  1.00 20.00     0.289 C 
HETATM    4  N11 UNL     1     -34.762  12.701  -4.702  1.00 20.00    -0.195 NA
ENDROOT
BRANCH   3   5
HETATM    5  N12 UNL     1     -35.434  15.897  -3.665  1.00 20.00    -0.055 N 
HETATM    6  C4  UNL     1     -35.986  17.294  -3.815  1.00 20.00     0.237 C 
HETATM    7  C2  UNL     1     -36.428  17.813  -2.453  1.00 20.00     0.032 C 
HETATM    8  C6  UNL     1     -35.287  17.768  -1.431  1.00 20.00    -0.012 C 
HETATM    9  C3  UNL     1     -34.695  16.356  -1.348  1.00 20.00     0.032 C 
HETATM   10  C5  UNL     1     -34.262  15.845  -2.715  1.00 20.00     0.237 C 
HETATM   11  H31 UNL     1     -36.181  15.315  -3.263  1.00 20.00     0.281 HD
BRANCH   8  12
HETATM   12  C9  UNL     1     -35.769  18.234  -0.059  1.00 20.00     0.000 C 
HETATM   13  C7  UNL     1     -35.093  17.489   1.046  1.00 20.00     0.005 C 
ENDBRANCH   8  12
ENDBRANCH   3   5
TORSDOF 2
ENDMDL
MODEL 8
REMARK VINA RESULT:      -4.7      1.554      2.320
REMARK  2 active torsions:
REMARK  status: ('A' for Active; 'I' for Inactive)
REMARK    1  A    between atoms: C6_6  and  C9_9 
REMARK    2  A    between atoms: C10_10  and  N12_12 
ROOT
HETATM    1  C1  UNL     1     -36.687  14.495  -4.093  1.00 20.00     0.092 C 
HETATM    2  C8  UNL     1     -34.539  13.322  -4.446  1.00 20.00     0.056 C 
HETATM    3  C10 UNL     1     -35.323  14.613  -4.618  1.00 20.00     0.289 C 
HETATM    4  N11 UNL     1     -37.767  14.403  -3.678  1.00 20.00    -0.195 NA
ENDROOT
BRANCH   3   5
HETATM    5  N12 UNL     1     -34.604  15.705  -3.877  1.00 20.00    -0.055 N 
HETATM    6  C4  UNL     1     -34.840  15.618  -2.388  1.00 20.00     0.237 C 
HETATM    7  C2  UNL     1     -33.993  16.664  -1.677  1.00 20.00     0.032 C 
HETATM    8  C6  UNL     1     -34.271  18.076  -2.207  1.00 20.00    -0.012 C 
HETATM    9  C3  UNL     1     -34.093  18.123  -3.729  1.00 20.00     0.032 C 
HETATM   10  C5  UNL     1     -34.940  17.069  -4.429  1.00 20.00     0.237 C 
HETATM   11  H31 UNL     1     -33.599  15.550  -4.036  1.00 20.00     0.281 HD
BRANCH   8  12
HETATM   12  C9  UNL     1     -33.367  19.099  -1.524  1.00 20.00     0.000 C 
HETATM   13  C7  UNL     1     -32.761  18.552  -0.273  1.00 20.00     0.005 C 
ENDBRANCH   8  12
ENDBRANCH   3   5
TORSDOF 2
ENDMDL
MODEL 9
REMARK VINA RESULT:      -4.4      1.527      1.765
REMARK  2 active torsions:
REMARK  status: ('A' for Active; 'I' for Inactive)
REMARK    1  A    between atoms: C6_6  and  C9_9 
REMARK    2  A    between atoms: C10_10  and  N12_12 
ROOT
HETATM    1  C1  UNL     1     -36.852  15.586  -6.553  1.00 20.00     0.092 C 
HETATM    2  C8  UNL     1     -34.488  14.893  -6.774  1.00 20.00     0.056 C 
HETATM    3  C10 UNL     1     -35.455  16.023  -6.457  1.00 20.00     0.289 C 
HETATM    4  N11 UNL     1     -37.958  15.244  -6.628  1.00 20.00    -0.195 NA
ENDROOT
BRANCH   3   5
HETATM    5  N12 UNL     1     -35.183  16.498  -5.057  1.00 20.00    -0.055 N 
HETATM    6  C4  UNL     1     -33.929  17.336  -4.987  1.00 20.00     0.237 C 
HETATM    7  C2  UNL     1     -33.768  17.893  -3.580  1.00 20.00     0.032 C 
HETATM    8  C6  UNL     1     -33.758  16.781  -2.526  1.00 20.00    -0.012 C 
HETATM    9  C3  UNL     1     -35.006  15.900  -2.662  1.00 20.00     0.032 C 
HETATM   10  C5  UNL     1     -35.160  15.353  -4.074  1.00 20.00     0.237 C 
HETATM   11  H31 UNL     1     -35.971  17.107  -4.799  1.00 20.00     0.281 HD
BRANCH   8  12
HETATM   12  C9  UNL     1     -33.659  17.366  -1.119  1.00 20.00     0.000 C 
HETATM   13  C7  UNL     1     -34.822  16.965  -0.271  1.00 20.00     0.005 C 
ENDBRANCH   8  12
ENDBRANCH   3   5
TORSDOF 2
ENDMDL
