MODEL 1
REMARK VINA RESULT:      -4.3      0.000      0.000
REMARK  0 active torsions:
REMARK  status: ('A' for Active; 'I' for Inactive)
ROOT
HETATM    1  C1  UNL     1     -32.477   6.995   2.831  1.00 20.00     0.088 C 
HETATM    2  C2  UNL     1     -34.172   5.776   4.034  1.00 20.00    -0.060 C 
HETATM    3  C3  UNL     1     -33.459   5.975   2.917  1.00 20.00     0.097 C 
HETATM    4  C4  UNL     1     -35.221   4.714   4.179  1.00 20.00     0.046 C 
HETATM    5  C5  UNL     1     -33.941   6.529   5.308  1.00 20.00     0.108 C 
HETATM    6  C6  UNL     1     -34.990   4.071   5.536  1.00 20.00     0.078 C 
HETATM    7  N7  UNL     1     -31.672   7.826   2.755  1.00 20.00    -0.192 NA
HETATM    8  S8  UNL     1     -34.533   5.436   6.638  1.00 20.00    -0.165 SA
ENDROOT
TORSDOF 0
ENDMDL
MODEL 2
REMARK VINA RESULT:      -3.9     11.875     12.587
REMARK  0 active torsions:
REMARK  status: ('A' for Active; 'I' for Inactive)
ROOT
HETATM    1  C1  UNL     1     -34.337  13.539  -4.163  1.00 20.00     0.088 C 
HETATM    2  C2  UNL     1     -34.528  15.514  -2.796  1.00 20.00    -0.060 C 
HETATM    3  C3  UNL     1     -33.772  14.560  -3.356  1.00 20.00     0.097 C 
HETATM    4  C4  UNL     1     -33.983  16.615  -1.934  1.00 20.00     0.046 C 
HETATM    5  C5  UNL     1     -35.999  15.654  -3.039  1.00 20.00     0.108 C 
HETATM    6  C6  UNL     1     -34.669  17.891  -2.392  1.00 20.00     0.078 C 
HETATM    7  N7  UNL     1     -34.793  12.703  -4.825  1.00 20.00    -0.192 NA
HETATM    8  S8  UNL     1     -36.380  17.411  -2.751  1.00 20.00    -0.165 SA
ENDROOT
TORSDOF 0
ENDMDL
MODEL 3
REMARK VINA RESULT:      -3.6     13.051     14.462
REMARK  0 active torsions:
REMARK  status: ('A' for Active; 'I' for Inactive)
ROOT
HETATM    1  C1  UNL     1     -34.854  13.515  -5.155  1.00 20.00     0.088 C 
HETATM    2  C2  UNL     1     -34.383  15.609  -6.252  1.00 20.00    -0.060 C 
HETATM    3  C3  UNL     1     -34.997  14.418  -6.240  1.00 20.00     0.097 C 
HETATM    4  C4  UNL     1     -34.499  16.600  -7.371  1.00 20.00     0.046 C 
HETATM    5  C5  UNL     1     -33.578  16.136  -5.103  1.00 20.00     0.108 C 
HETATM    6  C6  UNL     1     -34.707  17.956  -6.718  1.00 20.00     0.078 C 
HETATM    7  N7  UNL     1     -34.741  12.774  -4.271  1.00 20.00    -0.192 NA
HETATM    8  S8  UNL     1     -33.636  17.949  -5.255  1.00 20.00    -0.165 SA
ENDROOT
TORSDOF 0
ENDMDL
MODEL 4
REMARK VINA RESULT:      -3.6     11.794     12.435
REMARK  0 active torsions:
REMARK  status: ('A' for Active; 'I' for Inactive)
ROOT
HETATM    1  C1  UNL     1     -34.825  17.251  -0.930  1.00 20.00     0.088 C 
HETATM    2  C2  UNL     1     -34.133  15.882  -2.788  1.00 20.00    -0.060 C 
HETATM    3  C3  UNL     1     -33.823  16.652  -1.736  1.00 20.00     0.097 C 
HETATM    4  C4  UNL     1     -33.116  15.225  -3.674  1.00 20.00     0.046 C 
HETATM    5  C5  UNL     1     -35.536  15.506  -3.154  1.00 20.00     0.108 C 
HETATM    6  C6  UNL     1     -33.601  13.803  -3.897  1.00 20.00     0.078 C 
HETATM    7  N7  UNL     1     -35.639  17.742  -0.266  1.00 20.00    -0.192 NA
HETATM    8  S8  UNL     1     -35.402  13.935  -4.065  1.00 20.00    -0.165 SA
ENDROOT
TORSDOF 0
ENDMDL
MODEL 5
REMARK VINA RESULT:      -3.6     12.340     13.527
REMARK  0 active torsions:
REMARK  status: ('A' for Active; 'I' for Inactive)
ROOT
HETATM    1  C1  UNL     1     -34.595  13.711  -4.936  1.00 20.00     0.088 C 
HETATM    2  C2  UNL     1     -33.807  15.969  -4.640  1.00 20.00    -0.060 C 
HETATM    3  C3  UNL     1     -34.243  14.989  -5.442  1.00 20.00     0.097 C 
HETATM    4  C4  UNL     1     -33.422  17.336  -5.122  1.00 20.00     0.046 C 
HETATM    5  C5  UNL     1     -33.741  15.850  -3.148  1.00 20.00     0.108 C 
HETATM    6  C6  UNL     1     -34.041  18.322  -4.145  1.00 20.00     0.078 C 
HETATM    7  N7  UNL     1     -34.886  12.665  -4.527  1.00 20.00    -0.192 NA
HETATM    8  S8  UNL     1     -33.861  17.552  -2.513  1.00 20.00    -0.165 SA
ENDROOT
TORSDOF 0
ENDMDL
MODEL 6
REMARK VINA RESULT:      -3.5     12.161     13.013
REMARK  0 active torsions:
REMARK  status: ('A' for Active; 'I' for Inactive)
ROOT
HETATM    1  C1  UNL     1     -33.776  17.422  -2.757  1.00 20.00     0.088 C 
HETATM    2  C2  UNL     1     -33.801  15.253  -3.806  1.00 20.00    -0.060 C 
HETATM    3  C3  UNL     1     -33.715  16.006  -2.701  1.00 20.00     0.097 C 
HETATM    4  C4  UNL     1     -33.742  13.755  -3.804  1.00 20.00     0.046 C 
HETATM    5  C5  UNL     1     -34.061  15.813  -5.171  1.00 20.00     0.108 C 
HETATM    6  C6  UNL     1     -34.844  13.285  -4.738  1.00 20.00     0.078 C 
HETATM    7  N7  UNL     1     -33.827  18.581  -2.797  1.00 20.00    -0.192 NA
HETATM    8  S8  UNL     1     -34.838  14.464  -6.115  1.00 20.00    -0.165 SA
ENDROOT
TORSDOF 0
ENDMDL
MODEL 7
REMARK VINA RESULT:      -3.5     12.396     12.941
REMARK  0 active torsions:
REMARK  status: ('A' for Active; 'I' for Inactive)
ROOT
HETATM    1  C1  UNL     1     -33.848  17.261  -1.085  1.00 20.00     0.088 C 
HETATM    2  C2  UNL     1     -34.429  15.739  -2.860  1.00 20.00    -0.060 C 
HETATM    3  C3  UNL     1     -34.634  16.209  -1.622  1.00 20.00     0.097 C 
HETATM    4  C4  UNL     1     -35.228  14.630  -3.478  1.00 20.00     0.046 C 
HETATM    5  C5  UNL     1     -33.437  16.329  -3.816  1.00 20.00     0.108 C 
HETATM    6  C6  UNL     1     -35.548  15.075  -4.895  1.00 20.00     0.078 C 
HETATM    7  N7  UNL     1     -33.210  18.122  -0.640  1.00 20.00    -0.192 NA
HETATM    8  S8  UNL     1     -34.053  15.919  -5.479  1.00 20.00    -0.165 SA
ENDROOT
TORSDOF 0
ENDMDL
MODEL 8
REMARK VINA RESULT:      -3.5     12.342     12.994
REMARK  0 active torsions:
REMARK  status: ('A' for Active; 'I' for Inactive)
ROOT
HETATM    1  C1  UNL     1     -34.421  14.670  -4.423  1.00 20.00     0.088 C 
HETATM    2  C2  UNL     1     -34.520  16.187  -2.554  1.00 20.00    -0.060 C 
HETATM    3  C3  UNL     1     -34.492  14.936  -3.031  1.00 20.00     0.097 C 
HETATM    4  C4  UNL     1     -34.595  16.524  -1.094  1.00 20.00     0.046 C 
HETATM    5  C5  UNL     1     -34.385  17.405  -3.415  1.00 20.00     0.108 C 
HETATM    6  C6  UNL     1     -33.592  17.642  -0.864  1.00 20.00     0.078 C 
HETATM    7  N7  UNL     1     -34.362  14.447  -5.560  1.00 20.00    -0.192 NA
HETATM    8  S8  UNL     1     -33.717  18.704  -2.329  1.00 20.00    -0.165 SA
ENDROOT
TORSDOF 0
ENDMDL
MODEL 9
REMARK VINA RESULT:      -3.4     12.292     12.726
REMARK  0 active torsions:
REMARK  status: ('A' for Active; 'I' for Inactive)
ROOT
HETATM    1  C1  UNL     1     -33.885  15.996  -2.576  1.00 20.00     0.088 C 
HETATM    2  C2  UNL     1     -34.457  17.363  -0.676  1.00 20.00    -0.060 C 
HETATM    3  C3  UNL     1     -34.681  16.284  -1.438  1.00 20.00     0.097 C 
HETATM    4  C4  UNL     1     -35.267  17.714   0.536  1.00 20.00     0.046 C 
HETATM    5  C5  UNL     1     -33.307  18.300  -0.887  1.00 20.00     0.108 C 
HETATM    6  C6  UNL     1     -34.271  18.120   1.610  1.00 20.00     0.078 C 
HETATM    7  N7  UNL     1     -33.237  15.755  -3.507  1.00 20.00    -0.192 NA
HETATM    8  S8  UNL     1     -32.985  19.055   0.738  1.00 20.00    -0.165 SA
ENDROOT
TORSDOF 0
ENDMDL
