MODEL 1
REMARK VINA RESULT:      -5.0      0.000      0.000
REMARK  7 active torsions:
REMARK  status: ('A' for Active; 'I' for Inactive)
REMARK    1  A    between atoms: C1_1  and  C6_6 
REMARK    2  A    between atoms: C2_2  and  C7_7 
REMARK    3  A    between atoms: C3_3  and  C8_8 
REMARK    4  A    between atoms: C6_6  and  C10_10 
REMARK    5  A    between atoms: C7_7  and  C11_11 
REMARK    6  A    between atoms: C8_8  and  C10_10 
REMARK    7  A    between atoms: C9_9  and  C11_11 
ROOT
HETATM    1  C1  UNL     1     -34.233  16.706  -1.313  1.00 20.00    -0.107 C 
HETATM    2  C2  UNL     1     -33.946  17.500  -0.459  1.00 20.00    -0.107 C 
ENDROOT
BRANCH   1   3
HETATM    3  C6  UNL     1     -34.613  15.743  -2.356  1.00 20.00     0.094 C 
BRANCH   3   4
HETATM    4  C10 UNL     1     -33.488  15.519  -3.367  1.00 20.00     0.019 C 
BRANCH   4   5
HETATM    5  C8  UNL     1     -33.317  14.049  -3.753  1.00 20.00     0.079 C 
BRANCH   5   6
HETATM    6  C3  UNL     1     -34.414  13.563  -4.686  1.00 20.00     0.123 C 
HETATM    7  C4  UNL     1     -34.633  14.379  -5.933  1.00 20.00     0.091 C 
HETATM    8  O12 UNL     1     -35.092  12.563  -4.455  1.00 20.00    -0.298 OA
ENDBRANCH   5   6
ENDBRANCH   4   5
ENDBRANCH   3   4
ENDBRANCH   1   3
BRANCH   2   9
HETATM    9  C7  UNL     1     -33.619  18.479   0.586  1.00 20.00     0.094 C 
BRANCH   9  10
HETATM   10  C11 UNL     1     -32.167  18.953   0.496  1.00 20.00     0.012 C 
BRANCH  10  11
HETATM   11  C9  UNL     1     -31.508  19.116   1.869  1.00 20.00    -0.004 C 
HETATM   12  C5  UNL     1     -32.420  18.628   2.984  1.00 20.00     0.005 C 
ENDBRANCH  10  11
ENDBRANCH   9  10
ENDBRANCH   2   9
TORSDOF 7
ENDMDL
MODEL 2
REMARK VINA RESULT:      -4.8      1.025      1.537
REMARK  7 active torsions:
REMARK  status: ('A' for Active; 'I' for Inactive)
REMARK    1  A    between atoms: C1_1  and  C6_6 
REMARK    2  A    between atoms: C2_2  and  C7_7 
REMARK    3  A    between atoms: C3_3  and  C8_8 
REMARK    4  A    between atoms: C6_6  and  C10_10 
REMARK    5  A    between atoms: C7_7  and  C11_11 
REMARK    6  A    between atoms: C8_8  and  C10_10 
REMARK    7  A    between atoms: C9_9  and  C11_11 
ROOT
HETATM    1  C1  UNL     1     -34.655  16.497  -1.215  1.00 20.00    -0.107 C 
HETATM    2  C2  UNL     1     -34.495  17.221  -0.271  1.00 20.00    -0.107 C 
ENDROOT
BRANCH   1   3
HETATM    3  C6  UNL     1     -34.840  15.631  -2.388  1.00 20.00     0.094 C 
BRANCH   3   4
HETATM    4  C10 UNL     1     -33.571  15.534  -3.236  1.00 20.00     0.019 C 
BRANCH   4   5
HETATM    5  C8  UNL     1     -33.299  14.116  -3.742  1.00 20.00     0.079 C 
BRANCH   5   6
HETATM    6  C3  UNL     1     -34.388  13.615  -4.676  1.00 20.00     0.123 C 
HETATM    7  C4  UNL     1     -34.616  14.428  -5.923  1.00 20.00     0.091 C 
HETATM    8  O12 UNL     1     -35.053  12.607  -4.445  1.00 20.00    -0.298 OA
ENDBRANCH   5   6
ENDBRANCH   4   5
ENDBRANCH   3   4
ENDBRANCH   1   3
BRANCH   2   9
HETATM    9  C7  UNL     1     -34.288  18.124   0.869  1.00 20.00     0.094 C 
BRANCH   9  10
HETATM   10  C11 UNL     1     -35.248  17.825   2.022  1.00 20.00     0.012 C 
BRANCH  10  11
HETATM   11  C9  UNL     1     -34.587  17.957   3.397  1.00 20.00    -0.004 C 
HETATM   12  C5  UNL     1     -33.201  18.574   3.290  1.00 20.00     0.005 C 
ENDBRANCH  10  11
ENDBRANCH   9  10
ENDBRANCH   2   9
TORSDOF 7
ENDMDL
MODEL 3
REMARK VINA RESULT:      -4.8      1.082      1.984
REMARK  7 active torsions:
REMARK  status: ('A' for Active; 'I' for Inactive)
REMARK    1  A    between atoms: C1_1  and  C6_6 
REMARK    2  A    between atoms: C2_2  and  C7_7 
REMARK    3  A    between atoms: C3_3  and  C8_8 
REMARK    4  A    between atoms: C6_6  and  C10_10 
REMARK    5  A    between atoms: C7_7  and  C11_11 
REMARK    6  A    between atoms: C8_8  and  C10_10 
REMARK    7  A    between atoms: C9_9  and  C11_11 
ROOT
HETATM    1  C1  UNL     1     -33.726  16.102  -2.591  1.00 20.00    -0.107 C 
HETATM    2  C2  UNL     1     -34.210  16.501  -1.567  1.00 20.00    -0.107 C 
ENDROOT
BRANCH   1   3
HETATM    3  C6  UNL     1     -33.119  15.637  -3.846  1.00 20.00     0.094 C 
BRANCH   3   4
HETATM    4  C10 UNL     1     -34.031  15.883  -5.049  1.00 20.00     0.019 C 
BRANCH   4   5
HETATM    5  C8  UNL     1     -34.571  14.589  -5.661  1.00 20.00     0.079 C 
BRANCH   5   6
HETATM    6  C3  UNL     1     -35.366  13.763  -4.663  1.00 20.00     0.123 C 
HETATM    7  C4  UNL     1     -36.624  14.399  -4.132  1.00 20.00     0.091 C 
HETATM    8  O12 UNL     1     -35.021  12.641  -4.300  1.00 20.00    -0.298 OA
ENDBRANCH   5   6
ENDBRANCH   4   5
ENDBRANCH   3   4
ENDBRANCH   1   3
BRANCH   2   9
HETATM    9  C7  UNL     1     -34.787  17.011  -0.316  1.00 20.00     0.094 C 
BRANCH   9  10
HETATM   10  C11 UNL     1     -34.389  18.464  -0.049  1.00 20.00     0.012 C 
BRANCH  10  11
HETATM   11  C9  UNL     1     -33.273  18.595   0.991  1.00 20.00    -0.004 C 
HETATM   12  C5  UNL     1     -31.940  18.924   0.337  1.00 20.00     0.005 C 
ENDBRANCH  10  11
ENDBRANCH   9  10
ENDBRANCH   2   9
TORSDOF 7
ENDMDL
MODEL 4
REMARK VINA RESULT:      -4.6     10.403     11.534
REMARK  7 active torsions:
REMARK  status: ('A' for Active; 'I' for Inactive)
REMARK    1  A    between atoms: C1_1  and  C6_6 
REMARK    2  A    between atoms: C2_2  and  C7_7 
REMARK    3  A    between atoms: C3_3  and  C8_8 
REMARK    4  A    between atoms: C6_6  and  C10_10 
REMARK    5  A    between atoms: C7_7  and  C11_11 
REMARK    6  A    between atoms: C8_8  and  C10_10 
REMARK    7  A    between atoms: C9_9  and  C11_11 
ROOT
HETATM    1  C1  UNL     1     -33.086   5.980   3.317  1.00 20.00    -0.107 C 
HETATM    2  C2  UNL     1     -34.182   5.599   3.627  1.00 20.00    -0.107 C 
ENDROOT
BRANCH   1   3
HETATM    3  C6  UNL     1     -31.738   6.445   2.964  1.00 20.00     0.094 C 
BRANCH   3   4
HETATM    4  C10 UNL     1     -31.714   7.939   2.637  1.00 20.00     0.019 C 
BRANCH   4   5
HETATM    5  C8  UNL     1     -31.623   8.218   1.135  1.00 20.00     0.079 C 
BRANCH   5   6
HETATM    6  C3  UNL     1     -32.529   9.358   0.701  1.00 20.00     0.123 C 
HETATM    7  C4  UNL     1     -32.842  10.392   1.750  1.00 20.00     0.091 C 
HETATM    8  O12 UNL     1     -32.990   9.448  -0.436  1.00 20.00    -0.298 OA
ENDBRANCH   5   6
ENDBRANCH   4   5
ENDBRANCH   3   4
ENDBRANCH   1   3
BRANCH   2   9
HETATM    9  C7  UNL     1     -35.514   5.130   4.032  1.00 20.00     0.094 C 
BRANCH   9  10
HETATM   10  C11 UNL     1     -35.451   4.190   5.237  1.00 20.00     0.012 C 
BRANCH  10  11
HETATM   11  C9  UNL     1     -34.332   4.552   6.218  1.00 20.00    -0.004 C 
HETATM   12  C5  UNL     1     -34.447   5.995   6.683  1.00 20.00     0.005 C 
ENDBRANCH  10  11
ENDBRANCH   9  10
ENDBRANCH   2   9
TORSDOF 7
ENDMDL
MODEL 5
REMARK VINA RESULT:      -4.6      1.354      1.793
REMARK  7 active torsions:
REMARK  status: ('A' for Active; 'I' for Inactive)
REMARK    1  A    between atoms: C1_1  and  C6_6 
REMARK    2  A    between atoms: C2_2  and  C7_7 
REMARK    3  A    between atoms: C3_3  and  C8_8 
REMARK    4  A    between atoms: C6_6  and  C10_10 
REMARK    5  A    between atoms: C7_7  and  C11_11 
REMARK    6  A    between atoms: C8_8  and  C10_10 
REMARK    7  A    between atoms: C9_9  and  C11_11 
ROOT
HETATM    1  C1  UNL     1     -34.178  16.820  -1.307  1.00 20.00    -0.107 C 
HETATM    2  C2  UNL     1     -33.850  17.611  -0.464  1.00 20.00    -0.107 C 
ENDROOT
BRANCH   1   3
HETATM    3  C6  UNL     1     -34.580  15.833  -2.318  1.00 20.00     0.094 C 
BRANCH   3   4
HETATM    4  C10 UNL     1     -33.465  15.559  -3.328  1.00 20.00     0.019 C 
BRANCH   4   5
HETATM    5  C8  UNL     1     -33.327  14.076  -3.676  1.00 20.00     0.079 C 
BRANCH   5   6
HETATM    6  C3  UNL     1     -34.412  13.600  -4.627  1.00 20.00     0.123 C 
HETATM    7  C4  UNL     1     -34.625  14.436  -5.861  1.00 20.00     0.091 C 
HETATM    8  O12 UNL     1     -35.087  12.592  -4.420  1.00 20.00    -0.298 OA
ENDBRANCH   5   6
ENDBRANCH   4   5
ENDBRANCH   3   4
ENDBRANCH   1   3
BRANCH   2   9
HETATM    9  C7  UNL     1     -33.451  18.559   0.584  1.00 20.00     0.094 C 
BRANCH   9  10
HETATM   10  C11 UNL     1     -34.597  18.865   1.550  1.00 20.00     0.012 C 
BRANCH  10  11
HETATM   11  C9  UNL     1     -35.266  17.602   2.100  1.00 20.00    -0.004 C 
HETATM   12  C5  UNL     1     -36.216  17.929   3.241  1.00 20.00     0.005 C 
ENDBRANCH  10  11
ENDBRANCH   9  10
ENDBRANCH   2   9
TORSDOF 7
ENDMDL
MODEL 6
REMARK VINA RESULT:      -4.6      1.818      3.003
REMARK  7 active torsions:
REMARK  status: ('A' for Active; 'I' for Inactive)
REMARK    1  A    between atoms: C1_1  and  C6_6 
REMARK    2  A    between atoms: C2_2  and  C7_7 
REMARK    3  A    between atoms: C3_3  and  C8_8 
REMARK    4  A    between atoms: C6_6  and  C10_10 
REMARK    5  A    between atoms: C7_7  and  C11_11 
REMARK    6  A    between atoms: C8_8  and  C10_10 
REMARK    7  A    between atoms: C9_9  and  C11_11 
ROOT
HETATM    1  C1  UNL     1     -33.842  15.039  -3.129  1.00 20.00    -0.107 C 
HETATM    2  C2  UNL     1     -33.824  16.076  -2.522  1.00 20.00    -0.107 C 
ENDROOT
BRANCH   1   3
HETATM    3  C6  UNL     1     -33.866  13.786  -3.896  1.00 20.00     0.094 C 
BRANCH   3   4
HETATM    4  C10 UNL     1     -35.281  13.411  -4.338  1.00 20.00     0.019 C 
BRANCH   4   5
HETATM    5  C8  UNL     1     -36.059  14.596  -4.914  1.00 20.00     0.079 C 
BRANCH   5   6
HETATM    6  C3  UNL     1     -37.271  14.959  -4.073  1.00 20.00     0.123 C 
HETATM    7  C4  UNL     1     -37.401  16.409  -3.690  1.00 20.00     0.091 C 
HETATM    8  O12 UNL     1     -38.108  14.131  -3.716  1.00 20.00    -0.298 OA
ENDBRANCH   5   6
ENDBRANCH   4   5
ENDBRANCH   3   4
ENDBRANCH   1   3
BRANCH   2   9
HETATM    9  C7  UNL     1     -33.802  17.356  -1.803  1.00 20.00     0.094 C 
BRANCH   9  10
HETATM   10  C11 UNL     1     -34.400  17.239  -0.400  1.00 20.00     0.012 C 
BRANCH  10  11
HETATM   11  C9  UNL     1     -33.820  18.260   0.583  1.00 20.00    -0.004 C 
HETATM   12  C5  UNL     1     -32.473  18.784   0.107  1.00 20.00     0.005 C 
ENDBRANCH  10  11
ENDBRANCH   9  10
ENDBRANCH   2   9
TORSDOF 7
ENDMDL
MODEL 7
REMARK VINA RESULT:      -4.6      2.738      7.148
REMARK  7 active torsions:
REMARK  status: ('A' for Active; 'I' for Inactive)
REMARK    1  A    between atoms: C1_1  and  C6_6 
REMARK    2  A    between atoms: C2_2  and  C7_7 
REMARK    3  A    between atoms: C3_3  and  C8_8 
REMARK    4  A    between atoms: C6_6  and  C10_10 
REMARK    5  A    between atoms: C7_7  and  C11_11 
REMARK    6  A    between atoms: C8_8  and  C10_10 
REMARK    7  A    between atoms: C9_9  and  C11_11 
ROOT
HETATM    1  C1  UNL     1     -34.198  16.442  -1.663  1.00 20.00    -0.107 C 
HETATM    2  C2  UNL     1     -33.863  15.846  -2.651  1.00 20.00    -0.107 C 
ENDROOT
BRANCH   1   3
HETATM    3  C6  UNL     1     -34.624  17.149  -0.448  1.00 20.00     0.094 C 
BRANCH   3   4
HETATM    4  C10 UNL     1     -33.868  18.465  -0.255  1.00 20.00     0.019 C 
BRANCH   4   5
HETATM    5  C8  UNL     1     -33.475  18.718   1.202  1.00 20.00     0.079 C 
BRANCH   5   6
HETATM    6  C3  UNL     1     -31.980  18.934   1.370  1.00 20.00     0.123 C 
HETATM    7  C4  UNL     1     -31.433  18.721   2.757  1.00 20.00     0.091 C 
HETATM    8  O12 UNL     1     -31.244  19.263   0.442  1.00 20.00    -0.298 OA
ENDBRANCH   5   6
ENDBRANCH   4   5
ENDBRANCH   3   4
ENDBRANCH   1   3
BRANCH   2   9
HETATM    9  C7  UNL     1     -33.468  15.095  -3.850  1.00 20.00     0.094 C 
BRANCH   9  10
HETATM   10  C11 UNL     1     -33.959  13.647  -3.811  1.00 20.00     0.012 C 
BRANCH  10  11
HETATM   11  C9  UNL     1     -34.781  13.263  -5.044  1.00 20.00    -0.004 C 
HETATM   12  C5  UNL     1     -35.420  14.484  -5.687  1.00 20.00     0.005 C 
ENDBRANCH  10  11
ENDBRANCH   9  10
ENDBRANCH   2   9
TORSDOF 7
ENDMDL
MODEL 8
REMARK VINA RESULT:      -4.5     10.899     12.058
REMARK  7 active torsions:
REMARK  status: ('A' for Active; 'I' for Inactive)
REMARK    1  A    between atoms: C1_1  and  C6_6 
REMARK    2  A    between atoms: C2_2  and  C7_7 
REMARK    3  A    between atoms: C3_3  and  C8_8 
REMARK    4  A    between atoms: C6_6  and  C10_10 
REMARK    5  A    between atoms: C7_7  and  C11_11 
REMARK    6  A    between atoms: C8_8  and  C10_10 
REMARK    7  A    between atoms: C9_9  and  C11_11 
ROOT
HETATM    1  C1  UNL     1     -33.388   6.036   2.870  1.00 20.00    -0.107 C 
HETATM    2  C2  UNL     1     -32.557   6.896   2.755  1.00 20.00    -0.107 C 
ENDROOT
BRANCH   1   3
HETATM    3  C6  UNL     1     -34.422   5.000   2.995  1.00 20.00     0.094 C 
BRANCH   3   4
HETATM    4  C10 UNL     1     -35.458   5.350   4.064  1.00 20.00     0.019 C 
BRANCH   4   5
HETATM    5  C8  UNL     1     -35.345   4.474   5.313  1.00 20.00     0.079 C 
BRANCH   5   6
HETATM    6  C3  UNL     1     -34.281   4.973   6.277  1.00 20.00     0.123 C 
HETATM    7  C4  UNL     1     -34.150   6.468   6.403  1.00 20.00     0.091 C 
HETATM    8  O12 UNL     1     -33.561   4.216   6.926  1.00 20.00    -0.298 OA
ENDBRANCH   5   6
ENDBRANCH   4   5
ENDBRANCH   3   4
ENDBRANCH   1   3
BRANCH   2   9
HETATM    9  C7  UNL     1     -31.558   7.961   2.598  1.00 20.00     0.094 C 
BRANCH   9  10
HETATM   10  C11 UNL     1     -31.460   8.451   1.153  1.00 20.00     0.012 C 
BRANCH  10  11
HETATM   11  C9  UNL     1     -32.491   9.534   0.820  1.00 20.00    -0.004 C 
HETATM   12  C5  UNL     1     -32.806  10.392   2.036  1.00 20.00     0.005 C 
ENDBRANCH  10  11
ENDBRANCH   9  10
ENDBRANCH   2   9
TORSDOF 7
ENDMDL
MODEL 9
REMARK VINA RESULT:      -4.3      1.758      3.116
REMARK  7 active torsions:
REMARK  status: ('A' for Active; 'I' for Inactive)
REMARK    1  A    between atoms: C1_1  and  C6_6 
REMARK    2  A    between atoms: C2_2  and  C7_7 
REMARK    3  A    between atoms: C3_3  and  C8_8 
REMARK    4  A    between atoms: C6_6  and  C10_10 
REMARK    5  A    between atoms: C7_7  and  C11_11 
REMARK    6  A    between atoms: C8_8  and  C10_10 
REMARK    7  A    between atoms: C9_9  and  C11_11 
ROOT
HETATM    1  C1  UNL     1     -34.022  17.361  -5.136  1.00 20.00    -0.107 C 
HETATM    2  C2  UNL     1     -33.876  17.808  -4.031  1.00 20.00    -0.107 C 
ENDROOT
BRANCH   1   3
HETATM    3  C6  UNL     1     -34.179  16.796  -6.483  1.00 20.00     0.094 C 
BRANCH   3   4
HETATM    4  C10 UNL     1     -34.267  15.270  -6.459  1.00 20.00     0.019 C 
BRANCH   4   5
HETATM    5  C8  UNL     1     -35.224  14.745  -5.387  1.00 20.00     0.079 C 
BRANCH   5   6
HETATM    6  C3  UNL     1     -34.599  13.654  -4.535  1.00 20.00     0.123 C 
HETATM    7  C4  UNL     1     -33.383  14.050  -3.738  1.00 20.00     0.091 C 
HETATM    8  O12 UNL     1     -35.045  12.509  -4.483  1.00 20.00    -0.298 OA
ENDBRANCH   5   6
ENDBRANCH   4   5
ENDBRANCH   3   4
ENDBRANCH   1   3
BRANCH   2   9
HETATM    9  C7  UNL     1     -33.678  18.338  -2.675  1.00 20.00     0.094 C 
BRANCH   9  10
HETATM   10  C11 UNL     1     -33.743  17.238  -1.614  1.00 20.00     0.012 C 
BRANCH  10  11
HETATM   11  C9  UNL     1     -33.809  17.791  -0.187  1.00 20.00    -0.004 C 
HETATM   12  C5  UNL     1     -35.092  17.368   0.513  1.00 20.00     0.005 C 
ENDBRANCH  10  11
ENDBRANCH   9  10
ENDBRANCH   2   9
TORSDOF 7
ENDMDL
