MODEL 1
REMARK VINA RESULT:      -4.9      0.000      0.000
REMARK  4 active torsions:
REMARK  status: ('A' for Active; 'I' for Inactive)
REMARK    1  A    between atoms: C5_5  and  C9_9 
REMARK    2  A    between atoms: C6_6  and  C10_10 
REMARK    3  A    between atoms: C9_9  and  C12_12 
REMARK    4  A    between atoms: C11_11  and  C12_12 
ROOT
HETATM    1  C1  UNL     1     -34.946  13.908  -5.141  1.00 20.00     0.131 C 
HETATM    2  C2  UNL     1     -35.267  14.020  -6.616  1.00 20.00     0.079 C 
HETATM    3  C3  UNL     1     -34.336  15.016  -7.294  1.00 20.00     0.012 C 
HETATM    4  C4  UNL     1     -33.929  16.191  -5.102  1.00 20.00     0.016 C 
HETATM    5  C5  UNL     1     -34.860  15.220  -4.368  1.00 20.00     0.056 C 
HETATM    6  C6  UNL     1     -34.286  16.377  -6.586  1.00 20.00    -0.014 C 
HETATM    7  O13 UNL     1     -34.854  12.808  -4.598  1.00 20.00    -0.298 OA
ENDROOT
BRANCH   5   8
HETATM    8  C9  UNL     1     -34.381  14.997  -2.936  1.00 20.00     0.012 C 
BRANCH   8   9
HETATM    9  C12 UNL     1     -33.922  16.306  -2.296  1.00 20.00     0.000 C 
BRANCH   9  10
HETATM   10  C11 UNL     1     -34.625  16.541  -0.960  1.00 20.00    -0.005 C 
HETATM   11  C8  UNL     1     -34.040  17.737  -0.225  1.00 20.00     0.005 C 
ENDBRANCH   9  10
ENDBRANCH   8   9
ENDBRANCH   5   8
BRANCH   6  12
HETATM   12  C10 UNL     1     -35.583  17.168  -6.770  1.00 20.00     0.000 C 
HETATM   13  C7  UNL     1     -35.540  18.469  -6.041  1.00 20.00     0.005 C 
ENDBRANCH   6  12
TORSDOF 4
ENDMDL
MODEL 2
REMARK VINA RESULT:      -4.9      2.417      3.891
REMARK  4 active torsions:
REMARK  status: ('A' for Active; 'I' for Inactive)
REMARK    1  A    between atoms: C5_5  and  C9_9 
REMARK    2  A    between atoms: C6_6  and  C10_10 
REMARK    3  A    between atoms: C9_9  and  C12_12 
REMARK    4  A    between atoms: C11_11  and  C12_12 
ROOT
HETATM    1  C1  UNL     1     -33.794  17.625  -3.343  1.00 20.00     0.131 C 
HETATM    2  C2  UNL     1     -34.032  16.934  -4.667  1.00 20.00     0.079 C 
HETATM    3  C3  UNL     1     -35.269  16.048  -4.597  1.00 20.00     0.012 C 
HETATM    4  C4  UNL     1     -35.032  15.847  -2.096  1.00 20.00     0.016 C 
HETATM    5  C5  UNL     1     -33.778  16.730  -2.108  1.00 20.00     0.056 C 
HETATM    6  C6  UNL     1     -35.249  15.076  -3.408  1.00 20.00    -0.014 C 
HETATM    7  O13 UNL     1     -33.538  18.828  -3.296  1.00 20.00    -0.298 OA
ENDROOT
BRANCH   5   8
HETATM    8  C9  UNL     1     -33.687  17.547  -0.823  1.00 20.00     0.012 C 
BRANCH   8   9
HETATM    9  C12 UNL     1     -34.870  17.264   0.100  1.00 20.00     0.000 C 
BRANCH   9  10
HETATM   10  C11 UNL     1     -34.728  18.014   1.424  1.00 20.00    -0.005 C 
HETATM   11  C8  UNL     1     -33.378  18.707   1.530  1.00 20.00     0.005 C 
ENDBRANCH   9  10
ENDBRANCH   8   9
ENDBRANCH   5   8
BRANCH   6  12
HETATM   12  C10 UNL     1     -34.221  13.959  -3.596  1.00 20.00     0.000 C 
HETATM   13  C7  UNL     1     -34.480  13.178  -4.840  1.00 20.00     0.005 C 
ENDBRANCH   6  12
TORSDOF 4
ENDMDL
MODEL 3
REMARK VINA RESULT:      -4.9      1.356      1.706
REMARK  4 active torsions:
REMARK  status: ('A' for Active; 'I' for Inactive)
REMARK    1  A    between atoms: C5_5  and  C9_9 
REMARK    2  A    between atoms: C6_6  and  C10_10 
REMARK    3  A    between atoms: C9_9  and  C12_12 
REMARK    4  A    between atoms: C11_11  and  C12_12 
ROOT
HETATM    1  C1  UNL     1     -34.570  13.883  -4.035  1.00 20.00     0.131 C 
HETATM    2  C2  UNL     1     -34.832  13.408  -5.447  1.00 20.00     0.079 C 
HETATM    3  C3  UNL     1     -34.681  14.555  -6.436  1.00 20.00     0.012 C 
HETATM    4  C4  UNL     1     -35.169  16.237  -4.623  1.00 20.00     0.016 C 
HETATM    5  C5  UNL     1     -35.338  15.121  -3.586  1.00 20.00     0.056 C 
HETATM    6  C6  UNL     1     -35.505  15.794  -6.057  1.00 20.00    -0.014 C 
HETATM    7  O13 UNL     1     -33.845  13.239  -3.277  1.00 20.00    -0.298 OA
ENDROOT
BRANCH   5   8
HETATM    8  C9  UNL     1     -34.882  15.597  -2.209  1.00 20.00     0.012 C 
BRANCH   8   9
HETATM    9  C12 UNL     1     -33.795  16.664  -2.323  1.00 20.00     0.000 C 
BRANCH   9  10
HETATM   10  C11 UNL     1     -33.688  17.480  -1.036  1.00 20.00    -0.005 C 
HETATM   11  C8  UNL     1     -34.811  17.145  -0.068  1.00 20.00     0.005 C 
ENDBRANCH   9  10
ENDBRANCH   8   9
ENDBRANCH   5   8
BRANCH   6  12
HETATM   12  C10 UNL     1     -37.006  15.567  -6.251  1.00 20.00     0.000 C 
HETATM   13  C7  UNL     1     -37.318  15.120  -7.640  1.00 20.00     0.005 C 
ENDBRANCH   6  12
TORSDOF 4
ENDMDL
MODEL 4
REMARK VINA RESULT:      -4.8      1.751      4.743
REMARK  4 active torsions:
REMARK  status: ('A' for Active; 'I' for Inactive)
REMARK    1  A    between atoms: C5_5  and  C9_9 
REMARK    2  A    between atoms: C6_6  and  C10_10 
REMARK    3  A    between atoms: C9_9  and  C12_12 
REMARK    4  A    between atoms: C11_11  and  C12_12 
ROOT
HETATM    1  C1  UNL     1     -36.374  16.517  -3.950  1.00 20.00     0.131 C 
HETATM    2  C2  UNL     1     -36.118  17.817  -3.219  1.00 20.00     0.079 C 
HETATM    3  C3  UNL     1     -34.643  17.958  -2.872  1.00 20.00     0.012 C 
HETATM    4  C4  UNL     1     -34.344  15.456  -2.948  1.00 20.00     0.016 C 
HETATM    5  C5  UNL     1     -35.824  15.255  -3.293  1.00 20.00     0.056 C 
HETATM    6  C6  UNL     1     -34.074  16.735  -2.138  1.00 20.00    -0.014 C 
HETATM    7  O13 UNL     1     -37.067  16.490  -4.966  1.00 20.00    -0.298 OA
ENDROOT
BRANCH   5   8
HETATM    8  C9  UNL     1     -36.003  14.032  -4.189  1.00 20.00     0.012 C 
BRANCH   8   9
HETATM    9  C12 UNL     1     -34.745  13.757  -5.010  1.00 20.00     0.000 C 
BRANCH   9  10
HETATM   10  C11 UNL     1     -34.928  14.196  -6.462  1.00 20.00    -0.005 C 
HETATM   11  C8  UNL     1     -34.176  15.485  -6.754  1.00 20.00     0.005 C 
ENDBRANCH   9  10
ENDBRANCH   8   9
ENDBRANCH   5   8
BRANCH   6  12
HETATM   12  C10 UNL     1     -34.600  16.630  -0.705  1.00 20.00     0.000 C 
HETATM   13  C7  UNL     1     -34.229  17.826   0.105  1.00 20.00     0.005 C 
ENDBRANCH   6  12
TORSDOF 4
ENDMDL
MODEL 5
REMARK VINA RESULT:      -4.8      1.887      2.691
REMARK  4 active torsions:
REMARK  status: ('A' for Active; 'I' for Inactive)
REMARK    1  A    between atoms: C5_5  and  C9_9 
REMARK    2  A    between atoms: C6_6  and  C10_10 
REMARK    3  A    between atoms: C9_9  and  C12_12 
REMARK    4  A    between atoms: C11_11  and  C12_12 
ROOT
HETATM    1  C1  UNL     1     -33.660  14.740  -3.697  1.00 20.00     0.131 C 
HETATM    2  C2  UNL     1     -34.283  13.826  -4.730  1.00 20.00     0.079 C 
HETATM    3  C3  UNL     1     -35.267  14.594  -5.602  1.00 20.00     0.012 C 
HETATM    4  C4  UNL     1     -35.605  16.307  -3.784  1.00 20.00     0.016 C 
HETATM    5  C5  UNL     1     -34.627  15.571  -2.861  1.00 20.00     0.056 C 
HETATM    6  C6  UNL     1     -36.307  15.381  -4.792  1.00 20.00    -0.014 C 
HETATM    7  O13 UNL     1     -32.446  14.728  -3.496  1.00 20.00    -0.298 OA
ENDROOT
BRANCH   5   8
HETATM    8  C9  UNL     1     -33.886  16.563  -1.967  1.00 20.00     0.012 C 
BRANCH   8   9
HETATM    9  C12 UNL     1     -34.594  16.735  -0.625  1.00 20.00     0.000 C 
BRANCH   9  10
HETATM   10  C11 UNL     1     -34.247  18.080   0.012  1.00 20.00    -0.005 C 
HETATM   11  C8  UNL     1     -32.815  18.488  -0.294  1.00 20.00     0.005 C 
ENDBRANCH   9  10
ENDBRANCH   8   9
ENDBRANCH   5   8
BRANCH   6  12
HETATM   12  C10 UNL     1     -37.325  14.462  -4.115  1.00 20.00     0.000 C 
HETATM   13  C7  UNL     1     -38.497  15.226  -3.598  1.00 20.00     0.005 C 
ENDBRANCH   6  12
TORSDOF 4
ENDMDL
MODEL 6
REMARK VINA RESULT:      -4.7      2.089      5.083
REMARK  4 active torsions:
REMARK  status: ('A' for Active; 'I' for Inactive)
REMARK    1  A    between atoms: C5_5  and  C9_9 
REMARK    2  A    between atoms: C6_6  and  C10_10 
REMARK    3  A    between atoms: C9_9  and  C12_12 
REMARK    4  A    between atoms: C11_11  and  C12_12 
ROOT
HETATM    1  C1  UNL     1     -35.699  17.311  -3.615  1.00 20.00     0.131 C 
HETATM    2  C2  UNL     1     -35.256  18.554  -2.875  1.00 20.00     0.079 C 
HETATM    3  C3  UNL     1     -33.926  18.317  -2.174  1.00 20.00     0.012 C 
HETATM    4  C4  UNL     1     -34.354  15.834  -2.113  1.00 20.00     0.016 C 
HETATM    5  C5  UNL     1     -35.707  16.015  -2.812  1.00 20.00     0.056 C 
HETATM    6  C6  UNL     1     -33.922  17.060  -1.292  1.00 20.00    -0.014 C 
HETATM    7  O13 UNL     1     -36.115  17.380  -4.771  1.00 20.00    -0.298 OA
ENDROOT
BRANCH   5   8
HETATM    8  C9  UNL     1     -36.018  14.809  -3.694  1.00 20.00     0.012 C 
BRANCH   8   9
HETATM    9  C12 UNL     1     -34.824  13.860  -3.779  1.00 20.00     0.000 C 
BRANCH   9  10
HETATM   10  C11 UNL     1     -34.664  13.302  -5.192  1.00 20.00    -0.005 C 
HETATM   11  C8  UNL     1     -34.927  14.366  -6.246  1.00 20.00     0.005 C 
ENDBRANCH   9  10
ENDBRANCH   8   9
ENDBRANCH   5   8
BRANCH   6  12
HETATM   12  C10 UNL     1     -34.774  17.239  -0.034  1.00 20.00     0.000 C 
HETATM   13  C7  UNL     1     -34.159  18.216   0.911  1.00 20.00     0.005 C 
ENDBRANCH   6  12
TORSDOF 4
ENDMDL
MODEL 7
REMARK VINA RESULT:      -4.6      2.065      3.231
REMARK  4 active torsions:
REMARK  status: ('A' for Active; 'I' for Inactive)
REMARK    1  A    between atoms: C5_5  and  C9_9 
REMARK    2  A    between atoms: C6_6  and  C10_10 
REMARK    3  A    between atoms: C9_9  and  C12_12 
REMARK    4  A    between atoms: C11_11  and  C12_12 
ROOT
HETATM    1  C1  UNL     1     -33.743  17.700  -4.485  1.00 20.00     0.131 C 
HETATM    2  C2  UNL     1     -34.066  17.413  -5.935  1.00 20.00     0.079 C 
HETATM    3  C3  UNL     1     -35.390  16.672  -6.054  1.00 20.00     0.012 C 
HETATM    4  C4  UNL     1     -35.156  15.792  -3.704  1.00 20.00     0.016 C 
HETATM    5  C5  UNL     1     -33.814  16.512  -3.530  1.00 20.00     0.056 C 
HETATM    6  C6  UNL     1     -35.468  15.423  -5.164  1.00 20.00    -0.014 C 
HETATM    7  O13 UNL     1     -33.356  18.814  -4.133  1.00 20.00    -0.298 OA
ENDROOT
BRANCH   5   8
HETATM    8  C9  UNL     1     -33.623  16.946  -2.080  1.00 20.00     0.012 C 
BRANCH   8   9
HETATM    9  C12 UNL     1     -34.740  16.407  -1.188  1.00 20.00     0.000 C 
BRANCH   9  10
HETATM   10  C11 UNL     1     -34.922  17.278   0.054  1.00 20.00    -0.005 C 
HETATM   11  C8  UNL     1     -33.722  18.185   0.280  1.00 20.00     0.005 C 
ENDBRANCH   9  10
ENDBRANCH   8   9
ENDBRANCH   5   8
BRANCH   6  12
HETATM   12  C10 UNL     1     -34.569  14.296  -5.676  1.00 20.00     0.000 C 
HETATM   13  C7  UNL     1     -34.492  13.169  -4.701  1.00 20.00     0.005 C 
ENDBRANCH   6  12
TORSDOF 4
ENDMDL
MODEL 8
REMARK VINA RESULT:      -4.5      2.068      3.024
REMARK  4 active torsions:
REMARK  status: ('A' for Active; 'I' for Inactive)
REMARK    1  A    between atoms: C5_5  and  C9_9 
REMARK    2  A    between atoms: C6_6  and  C10_10 
REMARK    3  A    between atoms: C9_9  and  C12_12 
REMARK    4  A    between atoms: C11_11  and  C12_12 
ROOT
HETATM    1  C1  UNL     1     -36.298  16.824  -3.254  1.00 20.00     0.131 C 
HETATM    2  C2  UNL     1     -36.786  16.684  -4.679  1.00 20.00     0.079 C 
HETATM    3  C3  UNL     1     -36.711  15.232  -5.133  1.00 20.00     0.012 C 
HETATM    4  C4  UNL     1     -34.912  14.752  -3.434  1.00 20.00     0.016 C 
HETATM    5  C5  UNL     1     -34.940  16.203  -2.942  1.00 20.00     0.056 C 
HETATM    6  C6  UNL     1     -35.331  14.597  -4.906  1.00 20.00    -0.014 C 
HETATM    7  O13 UNL     1     -36.932  17.485  -2.433  1.00 20.00    -0.298 OA
ENDROOT
BRANCH   5   8
HETATM    8  C9  UNL     1     -34.623  16.269  -1.451  1.00 20.00     0.012 C 
BRANCH   8   9
HETATM    9  C12 UNL     1     -33.621  17.380  -1.145  1.00 20.00     0.000 C 
BRANCH   9  10
HETATM   10  C11 UNL     1     -34.017  18.148   0.115  1.00 20.00    -0.005 C 
HETATM   11  C8  UNL     1     -35.206  17.502   0.810  1.00 20.00     0.005 C 
ENDBRANCH   9  10
ENDBRANCH   8   9
ENDBRANCH   5   8
BRANCH   6  12
HETATM   12  C10 UNL     1     -34.278  15.154  -5.865  1.00 20.00     0.000 C 
HETATM   13  C7  UNL     1     -34.646  14.905  -7.289  1.00 20.00     0.005 C 
ENDBRANCH   6  12
TORSDOF 4
ENDMDL
MODEL 9
REMARK VINA RESULT:      -4.4      2.537      4.358
REMARK  4 active torsions:
REMARK  status: ('A' for Active; 'I' for Inactive)
REMARK    1  A    between atoms: C5_5  and  C9_9 
REMARK    2  A    between atoms: C6_6  and  C10_10 
REMARK    3  A    between atoms: C9_9  and  C12_12 
REMARK    4  A    between atoms: C11_11  and  C12_12 
ROOT
HETATM    1  C1  UNL     1     -34.746  16.191  -5.346  1.00 20.00     0.131 C 
HETATM    2  C2  UNL     1     -33.312  16.317  -4.880  1.00 20.00     0.079 C 
HETATM    3  C3  UNL     1     -33.048  15.396  -3.697  1.00 20.00     0.012 C 
HETATM    4  C4  UNL     1     -35.496  15.397  -3.098  1.00 20.00     0.016 C 
HETATM    5  C5  UNL     1     -35.819  16.329  -4.271  1.00 20.00     0.056 C 
HETATM    6  C6  UNL     1     -34.065  15.564  -2.560  1.00 20.00    -0.014 C 
HETATM    7  O13 UNL     1     -35.013  16.077  -6.542  1.00 20.00    -0.298 OA
ENDROOT
BRANCH   5   8
HETATM    8  C9  UNL     1     -37.209  16.031  -4.824  1.00 20.00     0.012 C 
BRANCH   8   9
HETATM    9  C12 UNL     1     -37.761  14.722  -4.264  1.00 20.00     0.000 C 
BRANCH   9  10
HETATM   10  C11 UNL     1     -39.282  14.776  -4.134  1.00 20.00    -0.005 C 
HETATM   11  C8  UNL     1     -39.715  15.736  -3.037  1.00 20.00     0.005 C 
ENDBRANCH   9  10
ENDBRANCH   8   9
ENDBRANCH   5   8
BRANCH   6  12
HETATM   12  C10 UNL     1     -33.882  16.889  -1.817  1.00 20.00     0.000 C 
HETATM   13  C7  UNL     1     -34.615  16.896  -0.518  1.00 20.00     0.005 C 
ENDBRANCH   6  12
TORSDOF 4
ENDMDL
