MODEL 1
REMARK VINA RESULT:      -4.5      0.000      0.000
REMARK  4 active torsions:
REMARK  status: ('A' for Active; 'I' for Inactive)
REMARK    1  A    between atoms: C4_4  and  C5_5 
REMARK    2  A    between atoms: C4_4  and  C6_6 
REMARK    3  A    between atoms: C5_5  and  O8_8 
REMARK    4  A    between atoms: C6_6  and  C7_7 
ROOT
HETATM    1  C1  UNL     1     -34.423   5.393   2.776  1.00 20.00     0.011 C 
HETATM    2  C6  UNL     1     -33.679   5.611   4.102  1.00 20.00     0.001 C 
ENDROOT
BRANCH   2   3
HETATM    3  C4  UNL     1     -32.793   6.869   3.976  1.00 20.00     0.032 C 
BRANCH   3   4
HETATM    4  C5  UNL     1     -32.254   7.116   2.572  1.00 20.00     0.167 C 
BRANCH   4   5
HETATM    5  O8  UNL     1     -32.254   8.518   2.325  1.00 20.00    -0.396 OA
HETATM    6  C3  UNL     1     -31.961   8.806   0.965  1.00 20.00     0.201 C 
ENDBRANCH   4   5
ENDBRANCH   3   4
ENDBRANCH   2   3
BRANCH   2   7
HETATM    7  C7  UNL     1     -34.615   5.635   5.338  1.00 20.00     0.082 C 
HETATM    8  C2  UNL     1     -34.894   4.246   5.909  1.00 20.00     0.027 C 
HETATM    9 CL9  UNL     1     -33.988   6.680   6.650  1.00 20.00    -0.125 Cl
ENDBRANCH   2   7
TORSDOF 4
ENDMDL
MODEL 2
REMARK VINA RESULT:      -4.1      1.561      1.941
REMARK  4 active torsions:
REMARK  status: ('A' for Active; 'I' for Inactive)
REMARK    1  A    between atoms: C4_4  and  C5_5 
REMARK    2  A    between atoms: C4_4  and  C6_6 
REMARK    3  A    between atoms: C5_5  and  O8_8 
REMARK    4  A    between atoms: C6_6  and  C7_7 
ROOT
HETATM    1  C1  UNL     1     -33.778   6.573   6.359  1.00 20.00     0.011 C 
HETATM    2  C6  UNL     1     -33.911   6.455   4.833  1.00 20.00     0.001 C 
ENDROOT
BRANCH   2   3
HETATM    3  C4  UNL     1     -32.507   6.563   4.201  1.00 20.00     0.032 C 
BRANCH   3   4
HETATM    4  C5  UNL     1     -32.514   6.939   2.724  1.00 20.00     0.167 C 
BRANCH   4   5
HETATM    5  O8  UNL     1     -31.776   8.144   2.557  1.00 20.00    -0.396 OA
HETATM    6  C3  UNL     1     -32.044   8.749   1.300  1.00 20.00     0.201 C 
ENDBRANCH   4   5
ENDBRANCH   3   4
ENDBRANCH   2   3
BRANCH   2   7
HETATM    7  C7  UNL     1     -34.700   5.200   4.378  1.00 20.00     0.082 C 
HETATM    8  C2  UNL     1     -35.012   4.238   5.523  1.00 20.00     0.027 C 
HETATM    9 CL9  UNL     1     -36.230   5.618   3.546  1.00 20.00    -0.125 Cl
ENDBRANCH   2   7
TORSDOF 4
ENDMDL
MODEL 3
REMARK VINA RESULT:      -3.9      1.593      2.140
REMARK  4 active torsions:
REMARK  status: ('A' for Active; 'I' for Inactive)
REMARK    1  A    between atoms: C4_4  and  C5_5 
REMARK    2  A    between atoms: C4_4  and  C6_6 
REMARK    3  A    between atoms: C5_5  and  O8_8 
REMARK    4  A    between atoms: C6_6  and  C7_7 
ROOT
HETATM    1  C1  UNL     1     -33.687   6.507   5.864  1.00 20.00     0.011 C 
HETATM    2  C6  UNL     1     -33.836   6.581   4.337  1.00 20.00     0.001 C 
ENDROOT
BRANCH   2   3
HETATM    3  C4  UNL     1     -32.436   6.474   3.694  1.00 20.00     0.032 C 
BRANCH   3   4
HETATM    4  C5  UNL     1     -31.858   7.806   3.230  1.00 20.00     0.167 C 
BRANCH   4   5
HETATM    5  O8  UNL     1     -32.062   7.927   1.827  1.00 20.00    -0.396 OA
HETATM    6  C3  UNL     1     -32.300   9.276   1.450  1.00 20.00     0.201 C 
ENDBRANCH   4   5
ENDBRANCH   3   4
ENDBRANCH   2   3
BRANCH   2   7
HETATM    7  C7  UNL     1     -34.857   5.563   3.767  1.00 20.00     0.082 C 
HETATM    8  C2  UNL     1     -34.454   5.006   2.403  1.00 20.00     0.027 C 
HETATM    9 CL9  UNL     1     -35.152   4.193   4.882  1.00 20.00    -0.125 Cl
ENDBRANCH   2   7
TORSDOF 4
ENDMDL
MODEL 4
REMARK VINA RESULT:      -3.7     11.119     12.454
REMARK  4 active torsions:
REMARK  status: ('A' for Active; 'I' for Inactive)
REMARK    1  A    between atoms: C4_4  and  C5_5 
REMARK    2  A    between atoms: C4_4  and  C6_6 
REMARK    3  A    between atoms: C5_5  and  O8_8 
REMARK    4  A    between atoms: C6_6  and  C7_7 
ROOT
HETATM    1  C1  UNL     1     -34.468  16.499  -1.307  1.00 20.00     0.011 C 
HETATM    2  C6  UNL     1     -34.021  16.069  -2.712  1.00 20.00     0.001 C 
ENDROOT
BRANCH   2   3
HETATM    3  C4  UNL     1     -34.744  14.756  -3.085  1.00 20.00     0.032 C 
BRANCH   3   4
HETATM    4  C5  UNL     1     -33.822  13.661  -3.609  1.00 20.00     0.167 C 
BRANCH   4   5
HETATM    5  O8  UNL     1     -34.542  12.871  -4.548  1.00 20.00    -0.396 OA
HETATM    6  C3  UNL     1     -35.056  13.664  -5.609  1.00 20.00     0.201 C 
ENDBRANCH   4   5
ENDBRANCH   3   4
ENDBRANCH   2   3
BRANCH   2   7
HETATM    7  C7  UNL     1     -34.175  17.184  -3.778  1.00 20.00     0.082 C 
HETATM    8  C2  UNL     1     -33.797  18.569  -3.257  1.00 20.00     0.027 C 
HETATM    9 CL9  UNL     1     -33.226  16.849  -5.260  1.00 20.00    -0.125 Cl
ENDBRANCH   2   7
TORSDOF 4
ENDMDL
MODEL 5
REMARK VINA RESULT:      -3.7     10.688     11.739
REMARK  4 active torsions:
REMARK  status: ('A' for Active; 'I' for Inactive)
REMARK    1  A    between atoms: C4_4  and  C5_5 
REMARK    2  A    between atoms: C4_4  and  C6_6 
REMARK    3  A    between atoms: C5_5  and  O8_8 
REMARK    4  A    between atoms: C6_6  and  C7_7 
ROOT
HETATM    1  C1  UNL     1     -36.080  15.902  -3.009  1.00 20.00     0.011 C 
HETATM    2  C6  UNL     1     -34.651  15.528  -2.588  1.00 20.00     0.001 C 
ENDROOT
BRANCH   2   3
HETATM    3  C4  UNL     1     -33.880  15.028  -3.829  1.00 20.00     0.032 C 
BRANCH   3   4
HETATM    4  C5  UNL     1     -33.555  13.540  -3.806  1.00 20.00     0.167 C 
BRANCH   4   5
HETATM    5  O8  UNL     1     -34.517  12.851  -4.597  1.00 20.00    -0.396 OA
HETATM    6  C3  UNL     1     -34.914  13.623  -5.722  1.00 20.00     0.201 C 
ENDBRANCH   4   5
ENDBRANCH   3   4
ENDBRANCH   2   3
BRANCH   2   7
HETATM    7  C7  UNL     1     -33.919  16.658  -1.819  1.00 20.00     0.082 C 
HETATM    8  C2  UNL     1     -33.849  17.969  -2.599  1.00 20.00     0.027 C 
HETATM    9 CL9  UNL     1     -34.654  16.981  -0.218  1.00 20.00    -0.125 Cl
ENDBRANCH   2   7
TORSDOF 4
ENDMDL
MODEL 6
REMARK VINA RESULT:      -3.6     11.269     12.216
REMARK  4 active torsions:
REMARK  status: ('A' for Active; 'I' for Inactive)
REMARK    1  A    between atoms: C4_4  and  C5_5 
REMARK    2  A    between atoms: C4_4  and  C6_6 
REMARK    3  A    between atoms: C5_5  and  O8_8 
REMARK    4  A    between atoms: C6_6  and  C7_7 
ROOT
HETATM    1  C1  UNL     1     -34.736  16.356  -1.473  1.00 20.00     0.011 C 
HETATM    2  C6  UNL     1     -34.796  15.416  -2.687  1.00 20.00     0.001 C 
ENDROOT
BRANCH   2   3
HETATM    3  C4  UNL     1     -35.907  15.905  -3.642  1.00 20.00     0.032 C 
BRANCH   3   4
HETATM    4  C5  UNL     1     -36.591  14.792  -4.427  1.00 20.00     0.167 C 
BRANCH   4   5
HETATM    5  O8  UNL     1     -37.630  14.241  -3.625  1.00 20.00    -0.396 OA
HETATM    6  C3  UNL     1     -38.842  14.967  -3.773  1.00 20.00     0.201 C 
ENDBRANCH   4   5
ENDBRANCH   3   4
ENDBRANCH   2   3
BRANCH   2   7
HETATM    7  C7  UNL     1     -33.425  15.219  -3.383  1.00 20.00     0.082 C 
HETATM    8  C2  UNL     1     -33.142  13.766  -3.755  1.00 20.00     0.027 C 
HETATM    9 CL9  UNL     1     -33.251  16.232  -4.850  1.00 20.00    -0.125 Cl
ENDBRANCH   2   7
TORSDOF 4
ENDMDL
MODEL 7
REMARK VINA RESULT:      -3.6     11.056     12.520
REMARK  4 active torsions:
REMARK  status: ('A' for Active; 'I' for Inactive)
REMARK    1  A    between atoms: C4_4  and  C5_5 
REMARK    2  A    between atoms: C4_4  and  C6_6 
REMARK    3  A    between atoms: C5_5  and  O8_8 
REMARK    4  A    between atoms: C6_6  and  C7_7 
ROOT
HETATM    1  C1  UNL     1     -34.640  15.942  -1.980  1.00 20.00     0.011 C 
HETATM    2  C6  UNL     1     -33.628  16.143  -3.118  1.00 20.00     0.001 C 
ENDROOT
BRANCH   2   3
HETATM    3  C4  UNL     1     -33.289  14.768  -3.733  1.00 20.00     0.032 C 
BRANCH   3   4
HETATM    4  C5  UNL     1     -34.343  13.695  -3.486  1.00 20.00     0.167 C 
BRANCH   4   5
HETATM    5  O8  UNL     1     -34.473  12.905  -4.662  1.00 20.00    -0.396 OA
HETATM    6  C3  UNL     1     -35.038  13.652  -5.731  1.00 20.00     0.201 C 
ENDBRANCH   4   5
ENDBRANCH   3   4
ENDBRANCH   2   3
BRANCH   2   7
HETATM    7  C7  UNL     1     -34.078  17.195  -4.165  1.00 20.00     0.082 C 
HETATM    8  C2  UNL     1     -33.408  17.014  -5.525  1.00 20.00     0.027 C 
HETATM    9 CL9  UNL     1     -35.854  17.211  -4.397  1.00 20.00    -0.125 Cl
ENDBRANCH   2   7
TORSDOF 4
ENDMDL
MODEL 8
REMARK VINA RESULT:      -3.6      2.469      4.411
REMARK  4 active torsions:
REMARK  status: ('A' for Active; 'I' for Inactive)
REMARK    1  A    between atoms: C4_4  and  C5_5 
REMARK    2  A    between atoms: C4_4  and  C6_6 
REMARK    3  A    between atoms: C5_5  and  O8_8 
REMARK    4  A    between atoms: C6_6  and  C7_7 
ROOT
HETATM    1  C1  UNL     1     -34.147   5.587   2.569  1.00 20.00     0.011 C 
HETATM    2  C6  UNL     1     -33.453   6.533   3.561  1.00 20.00     0.001 C 
ENDROOT
BRANCH   2   3
HETATM    3  C4  UNL     1     -33.317   5.816   4.922  1.00 20.00     0.032 C 
BRANCH   3   4
HETATM    4  C5  UNL     1     -34.123   6.451   6.048  1.00 20.00     0.167 C 
BRANCH   4   5
HETATM    5  O8  UNL     1     -34.991   5.467   6.597  1.00 20.00    -0.396 OA
HETATM    6  C3  UNL     1     -34.869   4.226   5.916  1.00 20.00     0.201 C 
ENDBRANCH   4   5
ENDBRANCH   3   4
ENDBRANCH   2   3
BRANCH   2   7
HETATM    7  C7  UNL     1     -32.117   7.112   3.030  1.00 20.00     0.082 C 
HETATM    8  C2  UNL     1     -32.308   8.183   1.959  1.00 20.00     0.027 C 
HETATM    9 CL9  UNL     1     -31.095   7.784   4.339  1.00 20.00    -0.125 Cl
ENDBRANCH   2   7
TORSDOF 4
ENDMDL
MODEL 9
REMARK VINA RESULT:      -3.6     11.731     12.972
REMARK  4 active torsions:
REMARK  status: ('A' for Active; 'I' for Inactive)
REMARK    1  A    between atoms: C4_4  and  C5_5 
REMARK    2  A    between atoms: C4_4  and  C6_6 
REMARK    3  A    between atoms: C5_5  and  O8_8 
REMARK    4  A    between atoms: C6_6  and  C7_7 
ROOT
HETATM    1  C1  UNL     1     -33.090  15.109  -3.609  1.00 20.00     0.011 C 
HETATM    2  C6  UNL     1     -34.045  14.550  -4.674  1.00 20.00     0.001 C 
ENDROOT
BRANCH   2   3
HETATM    3  C4  UNL     1     -35.237  13.869  -3.967  1.00 20.00     0.032 C 
BRANCH   3   4
HETATM    4  C5  UNL     1     -36.395  14.808  -3.650  1.00 20.00     0.167 C 
BRANCH   4   5
HETATM    5  O8  UNL     1     -37.616  14.100  -3.823  1.00 20.00    -0.396 OA
HETATM    6  C3  UNL     1     -38.736  14.973  -3.773  1.00 20.00     0.201 C 
ENDBRANCH   4   5
ENDBRANCH   3   4
ENDBRANCH   2   3
BRANCH   2   7
HETATM    7  C7  UNL     1     -34.470  15.599  -5.733  1.00 20.00     0.082 C 
HETATM    8  C2  UNL     1     -33.649  16.885  -5.669  1.00 20.00     0.027 C 
HETATM    9 CL9  UNL     1     -34.398  14.954  -7.402  1.00 20.00    -0.125 Cl
ENDBRANCH   2   7
TORSDOF 4
ENDMDL
