MODEL 1
REMARK VINA RESULT:      -5.1      0.000      0.000
REMARK  3 active torsions:
REMARK  status: ('A' for Active; 'I' for Inactive)
REMARK    1  A    between atoms: C2_2  and  C9_9 
REMARK    2  A    between atoms: C6_6  and  C9_9 
REMARK    3  A    between atoms: C7_7  and  O10_10 
ROOT
HETATM    1  C3  UNL     1     -35.230   4.090   5.566  1.00 20.00     0.003 C 
HETATM    2  C4  UNL     1     -34.959   4.820   4.251  1.00 20.00     0.007 C 
HETATM    3  C5  UNL     1     -34.697   4.995   6.677  1.00 20.00     0.032 C 
HETATM    4  C6  UNL     1     -33.904   5.867   4.596  1.00 20.00     0.018 C 
HETATM    5  C7  UNL     1     -34.331   6.308   5.994  1.00 20.00     0.122 C 
ENDROOT
BRANCH   4   6
HETATM    6  C9  UNL     1     -33.843   7.009   3.596  1.00 20.00     0.040 C 
BRANCH   6   7
HETATM    7  C2  UNL     1     -32.522   7.081   2.868  1.00 20.00    -0.093 C 
HETATM    8  C1  UNL     1     -31.618   6.094   2.958  1.00 20.00     0.014 C 
HETATM    9  C8  UNL     1     -32.251   8.322   2.066  1.00 20.00     0.042 C 
ENDBRANCH   6   7
ENDBRANCH   4   6
BRANCH   5  10
HETATM   10  O10 UNL     1     -33.277   6.968   6.667  1.00 20.00    -0.395 OA
HETATM   11  H26 UNL     1     -33.602   7.194   7.556  1.00 20.00     0.210 HD
ENDBRANCH   5  10
TORSDOF 3
ENDMDL
MODEL 2
REMARK VINA RESULT:      -4.7     11.677     12.461
REMARK  3 active torsions:
REMARK  status: ('A' for Active; 'I' for Inactive)
REMARK    1  A    between atoms: C2_2  and  C9_9 
REMARK    2  A    between atoms: C6_6  and  C9_9 
REMARK    3  A    between atoms: C7_7  and  O10_10 
ROOT
HETATM    1  C3  UNL     1     -33.667  13.723  -4.046  1.00 20.00     0.003 C 
HETATM    2  C4  UNL     1     -33.041  14.996  -3.480  1.00 20.00     0.007 C 
HETATM    3  C5  UNL     1     -35.182  13.903  -3.934  1.00 20.00     0.032 C 
HETATM    4  C6  UNL     1     -34.154  15.648  -2.664  1.00 20.00     0.018 C 
HETATM    5  C7  UNL     1     -35.391  15.352  -3.508  1.00 20.00     0.122 C 
ENDROOT
BRANCH   4   6
HETATM    6  C9  UNL     1     -33.930  17.132  -2.423  1.00 20.00     0.040 C 
BRANCH   6   7
HETATM    7  C2  UNL     1     -33.912  17.492  -0.957  1.00 20.00    -0.093 C 
HETATM    8  C1  UNL     1     -34.821  16.998  -0.103  1.00 20.00     0.014 C 
HETATM    9  C8  UNL     1     -32.852  18.454  -0.502  1.00 20.00     0.042 C 
ENDBRANCH   6   7
ENDBRANCH   4   6
BRANCH   5  10
HETATM   10  O10 UNL     1     -36.576  15.505  -2.751  1.00 20.00    -0.395 OA
HETATM   11  H26 UNL     1     -36.876  14.614  -2.504  1.00 20.00     0.210 HD
ENDBRANCH   5  10
TORSDOF 3
ENDMDL
MODEL 3
REMARK VINA RESULT:      -4.4      1.650      2.060
REMARK  3 active torsions:
REMARK  status: ('A' for Active; 'I' for Inactive)
REMARK    1  A    between atoms: C2_2  and  C9_9 
REMARK    2  A    between atoms: C6_6  and  C9_9 
REMARK    3  A    between atoms: C7_7  and  O10_10 
ROOT
HETATM    1  C3  UNL     1     -34.175   6.296   6.696  1.00 20.00     0.003 C 
HETATM    2  C4  UNL     1     -33.839   6.758   5.279  1.00 20.00     0.007 C 
HETATM    3  C5  UNL     1     -34.769   4.894   6.561  1.00 20.00     0.032 C 
HETATM    4  C6  UNL     1     -34.644   5.837   4.367  1.00 20.00     0.018 C 
HETATM    5  C7  UNL     1     -34.563   4.501   5.103  1.00 20.00     0.122 C 
ENDROOT
BRANCH   4   6
HETATM    6  C9  UNL     1     -34.105   5.777   2.948  1.00 20.00     0.040 C 
BRANCH   6   7
HETATM    7  C2  UNL     1     -32.672   6.244   2.845  1.00 20.00    -0.093 C 
HETATM    8  C1  UNL     1     -31.647   5.422   3.117  1.00 20.00     0.014 C 
HETATM    9  C8  UNL     1     -32.447   7.677   2.457  1.00 20.00     0.042 C 
ENDBRANCH   6   7
ENDBRANCH   4   6
BRANCH   5  10
HETATM   10  O10 UNL     1     -35.565   3.609   4.657  1.00 20.00    -0.395 OA
HETATM   11  H26 UNL     1     -36.049   4.056   3.941  1.00 20.00     0.210 HD
ENDBRANCH   5  10
TORSDOF 3
ENDMDL
MODEL 4
REMARK VINA RESULT:      -4.4     11.891     12.834
REMARK  3 active torsions:
REMARK  status: ('A' for Active; 'I' for Inactive)
REMARK    1  A    between atoms: C2_2  and  C9_9 
REMARK    2  A    between atoms: C6_6  and  C9_9 
REMARK    3  A    between atoms: C7_7  and  O10_10 
ROOT
HETATM    1  C3  UNL     1     -33.824  17.957  -0.566  1.00 20.00     0.003 C 
HETATM    2  C4  UNL     1     -34.525  16.626  -0.835  1.00 20.00     0.007 C 
HETATM    3  C5  UNL     1     -33.492  18.551  -1.935  1.00 20.00     0.032 C 
HETATM    4  C6  UNL     1     -34.175  16.287  -2.281  1.00 20.00     0.018 C 
HETATM    5  C7  UNL     1     -34.196  17.659  -2.950  1.00 20.00     0.122 C 
ENDROOT
BRANCH   4   6
HETATM    6  C9  UNL     1     -35.137  15.293  -2.912  1.00 20.00     0.040 C 
BRANCH   6   7
HETATM    7  C2  UNL     1     -34.431  14.199  -3.676  1.00 20.00    -0.093 C 
HETATM    8  C1  UNL     1     -35.113  13.281  -4.377  1.00 20.00     0.014 C 
HETATM    9  C8  UNL     1     -32.931  14.163  -3.589  1.00 20.00     0.042 C 
ENDBRANCH   6   7
ENDBRANCH   4   6
BRANCH   5  10
HETATM   10  O10 UNL     1     -33.511  17.636  -4.187  1.00 20.00    -0.395 OA
HETATM   11  H26 UNL     1     -32.818  18.317  -4.143  1.00 20.00     0.210 HD
ENDBRANCH   5  10
TORSDOF 3
ENDMDL
MODEL 5
REMARK VINA RESULT:      -4.4     11.872     12.820
REMARK  3 active torsions:
REMARK  status: ('A' for Active; 'I' for Inactive)
REMARK    1  A    between atoms: C2_2  and  C9_9 
REMARK    2  A    between atoms: C6_6  and  C9_9 
REMARK    3  A    between atoms: C7_7  and  O10_10 
ROOT
HETATM    1  C3  UNL     1     -33.881  17.989  -0.540  1.00 20.00     0.003 C 
HETATM    2  C4  UNL     1     -34.554  16.645  -0.814  1.00 20.00     0.007 C 
HETATM    3  C5  UNL     1     -33.513  18.570  -1.906  1.00 20.00     0.032 C 
HETATM    4  C6  UNL     1     -34.153  16.291  -2.243  1.00 20.00     0.018 C 
HETATM    5  C7  UNL     1     -34.172  17.654  -2.931  1.00 20.00     0.122 C 
ENDROOT
BRANCH   4   6
HETATM    6  C9  UNL     1     -35.079  15.276  -2.892  1.00 20.00     0.040 C 
BRANCH   6   7
HETATM    7  C2  UNL     1     -34.333  14.191  -3.631  1.00 20.00    -0.093 C 
HETATM    8  C1  UNL     1     -32.995  14.109  -3.591  1.00 20.00     0.014 C 
HETATM    9  C8  UNL     1     -35.154  13.228  -4.441  1.00 20.00     0.042 C 
ENDBRANCH   6   7
ENDBRANCH   4   6
BRANCH   5  10
HETATM   10  O10 UNL     1     -33.446  17.625  -4.144  1.00 20.00    -0.395 OA
HETATM   11  H26 UNL     1     -34.072  17.836  -4.858  1.00 20.00     0.210 HD
ENDBRANCH   5  10
TORSDOF 3
ENDMDL
MODEL 6
REMARK VINA RESULT:      -4.3     11.701     12.548
REMARK  3 active torsions:
REMARK  status: ('A' for Active; 'I' for Inactive)
REMARK    1  A    between atoms: C2_2  and  C9_9 
REMARK    2  A    between atoms: C6_6  and  C9_9 
REMARK    3  A    between atoms: C7_7  and  O10_10 
ROOT
HETATM    1  C3  UNL     1     -35.885  14.001  -4.613  1.00 20.00     0.003 C 
HETATM    2  C4  UNL     1     -36.043  14.948  -3.424  1.00 20.00     0.007 C 
HETATM    3  C5  UNL     1     -34.390  13.702  -4.728  1.00 20.00     0.032 C 
HETATM    4  C6  UNL     1     -34.645  15.512  -3.187  1.00 20.00     0.018 C 
HETATM    5  C7  UNL     1     -33.755  14.307  -3.481  1.00 20.00     0.122 C 
ENDROOT
BRANCH   4   6
HETATM    6  C9  UNL     1     -34.454  16.075  -1.788  1.00 20.00     0.040 C 
BRANCH   6   7
HETATM    7  C2  UNL     1     -33.833  17.451  -1.790  1.00 20.00    -0.093 C 
HETATM    8  C1  UNL     1     -33.368  18.011  -0.663  1.00 20.00     0.014 C 
HETATM    9  C8  UNL     1     -33.787  18.179  -3.103  1.00 20.00     0.042 C 
ENDBRANCH   6   7
ENDBRANCH   4   6
BRANCH   5  10
HETATM   10  O10 UNL     1     -32.418  14.703  -3.719  1.00 20.00    -0.395 OA
HETATM   11  H26 UNL     1     -31.881  13.893  -3.756  1.00 20.00     0.210 HD
ENDBRANCH   5  10
TORSDOF 3
ENDMDL
MODEL 7
REMARK VINA RESULT:      -4.3      1.666      2.349
REMARK  3 active torsions:
REMARK  status: ('A' for Active; 'I' for Inactive)
REMARK    1  A    between atoms: C2_2  and  C9_9 
REMARK    2  A    between atoms: C6_6  and  C9_9 
REMARK    3  A    between atoms: C7_7  and  O10_10 
ROOT
HETATM    1  C3  UNL     1     -34.212   6.250   6.719  1.00 20.00     0.003 C 
HETATM    2  C4  UNL     1     -33.873   6.730   5.309  1.00 20.00     0.007 C 
HETATM    3  C5  UNL     1     -34.806   4.849   6.564  1.00 20.00     0.032 C 
HETATM    4  C6  UNL     1     -34.677   5.821   4.384  1.00 20.00     0.018 C 
HETATM    5  C7  UNL     1     -34.597   4.476   5.101  1.00 20.00     0.122 C 
ENDROOT
BRANCH   4   6
HETATM    6  C9  UNL     1     -34.135   5.780   2.964  1.00 20.00     0.040 C 
BRANCH   6   7
HETATM    7  C2  UNL     1     -32.715   6.283   2.865  1.00 20.00    -0.093 C 
HETATM    8  C1  UNL     1     -32.444   7.560   2.554  1.00 20.00     0.014 C 
HETATM    9  C8  UNL     1     -31.618   5.283   3.095  1.00 20.00     0.042 C 
ENDBRANCH   6   7
ENDBRANCH   4   6
BRANCH   5  10
HETATM   10  O10 UNL     1     -35.599   3.590   4.642  1.00 20.00    -0.395 OA
HETATM   11  H26 UNL     1     -35.265   2.686   4.775  1.00 20.00     0.210 HD
ENDBRANCH   5  10
TORSDOF 3
ENDMDL
MODEL 8
REMARK VINA RESULT:      -4.2     11.773     13.004
REMARK  3 active torsions:
REMARK  status: ('A' for Active; 'I' for Inactive)
REMARK    1  A    between atoms: C2_2  and  C9_9 
REMARK    2  A    between atoms: C6_6  and  C9_9 
REMARK    3  A    between atoms: C7_7  and  O10_10 
ROOT
HETATM    1  C3  UNL     1     -34.684  13.265  -4.927  1.00 20.00     0.003 C 
HETATM    2  C4  UNL     1     -34.378  13.800  -3.529  1.00 20.00     0.007 C 
HETATM    3  C5  UNL     1     -34.588  14.462  -5.874  1.00 20.00     0.032 C 
HETATM    4  C6  UNL     1     -34.566  15.311  -3.640  1.00 20.00     0.018 C 
HETATM    5  C7  UNL     1     -34.024  15.603  -5.037  1.00 20.00     0.122 C 
ENDROOT
BRANCH   4   6
HETATM    6  C9  UNL     1     -33.855  16.086  -2.543  1.00 20.00     0.040 C 
BRANCH   6   7
HETATM    7  C2  UNL     1     -34.807  16.840  -1.646  1.00 20.00    -0.093 C 
HETATM    8  C1  UNL     1     -34.598  16.935  -0.324  1.00 20.00     0.014 C 
HETATM    9  C8  UNL     1     -36.016  17.453  -2.294  1.00 20.00     0.042 C 
ENDBRANCH   6   7
ENDBRANCH   4   6
BRANCH   5  10
HETATM   10  O10 UNL     1     -34.468  16.861  -5.505  1.00 20.00    -0.395 OA
HETATM   11  H26 UNL     1     -35.371  16.738  -5.845  1.00 20.00     0.210 HD
ENDBRANCH   5  10
TORSDOF 3
ENDMDL
MODEL 9
REMARK VINA RESULT:      -4.2     12.130     13.502
REMARK  3 active torsions:
REMARK  status: ('A' for Active; 'I' for Inactive)
REMARK    1  A    between atoms: C2_2  and  C9_9 
REMARK    2  A    between atoms: C6_6  and  C9_9 
REMARK    3  A    between atoms: C7_7  and  O10_10 
ROOT
HETATM    1  C3  UNL     1     -34.326  17.460  -5.342  1.00 20.00     0.003 C 
HETATM    2  C4  UNL     1     -34.801  17.567  -3.893  1.00 20.00     0.007 C 
HETATM    3  C5  UNL     1     -33.402  16.244  -5.403  1.00 20.00     0.032 C 
HETATM    4  C6  UNL     1     -33.810  16.723  -3.096  1.00 20.00     0.018 C 
HETATM    5  C7  UNL     1     -33.536  15.560  -4.047  1.00 20.00     0.122 C 
ENDROOT
BRANCH   4   6
HETATM    6  C9  UNL     1     -34.349  16.282  -1.745  1.00 20.00     0.040 C 
BRANCH   6   7
HETATM    7  C2  UNL     1     -34.121  17.307  -0.660  1.00 20.00    -0.093 C 
HETATM    8  C1  UNL     1     -33.070  18.141  -0.694  1.00 20.00     0.014 C 
HETATM    9  C8  UNL     1     -35.102  17.329   0.477  1.00 20.00     0.042 C 
ENDBRANCH   6   7
ENDBRANCH   4   6
BRANCH   5  10
HETATM   10  O10 UNL     1     -32.352  14.875  -3.690  1.00 20.00    -0.395 OA
HETATM   11  H26 UNL     1     -31.991  15.318  -2.903  1.00 20.00     0.210 HD
ENDBRANCH   5  10
TORSDOF 3
ENDMDL
