MODEL 1
REMARK VINA RESULT:      -5.3      0.000      0.000
REMARK  4 active torsions:
REMARK  status: ('A' for Active; 'I' for Inactive)
REMARK    1  A    between atoms: C5_5  and  C6_6 
REMARK    2  A    between atoms: C6_6  and  C8_8 
REMARK    3  A    between atoms: C7_7  and  C8_8 
REMARK    4  A    between atoms: C8_8  and  O9_9 
ROOT
HETATM    1  C1  UNL     1     -31.983   8.929   1.219  1.00 20.00     0.012 C 
HETATM    2  C2  UNL     1     -32.101   8.049   2.028  1.00 20.00    -0.117 C 
HETATM    3  C5  UNL     1     -32.237   6.972   3.017  1.00 20.00     0.095 C 
ENDROOT
BRANCH   3   4
HETATM    4  C6  UNL     1     -33.629   6.935   3.648  1.00 20.00     0.044 C 
BRANCH   4   5
HETATM    5  C8  UNL     1     -34.153   5.537   4.026  1.00 20.00     0.122 C 
BRANCH   5   6
HETATM    6  C7  UNL     1     -34.057   5.173   5.524  1.00 20.00     0.006 C 
HETATM    7  C3  UNL     1     -34.056   6.440   6.389  1.00 20.00     0.012 C 
HETATM    8  C4  UNL     1     -35.186   4.249   5.990  1.00 20.00     0.012 C 
ENDBRANCH   5   6
BRANCH   5   9
HETATM    9  O9  UNL     1     -35.523   5.457   3.620  1.00 20.00    -0.395 OA
HETATM   10  H23 UNL     1     -35.568   4.753   2.957  1.00 20.00     0.210 HD
ENDBRANCH   5   9
ENDBRANCH   4   5
ENDBRANCH   3   4
TORSDOF 4
ENDMDL
MODEL 2
REMARK VINA RESULT:      -4.9      1.433      1.716
REMARK  4 active torsions:
REMARK  status: ('A' for Active; 'I' for Inactive)
REMARK    1  A    between atoms: C5_5  and  C6_6 
REMARK    2  A    between atoms: C6_6  and  C8_8 
REMARK    3  A    between atoms: C7_7  and  C8_8 
REMARK    4  A    between atoms: C8_8  and  O9_9 
ROOT
HETATM    1  C1  UNL     1     -32.245   8.983   1.115  1.00 20.00     0.012 C 
HETATM    2  C2  UNL     1     -31.965   8.312   2.070  1.00 20.00    -0.117 C 
HETATM    3  C5  UNL     1     -31.618   7.496   3.241  1.00 20.00     0.095 C 
ENDROOT
BRANCH   3   4
HETATM    4  C6  UNL     1     -32.530   6.279   3.394  1.00 20.00     0.044 C 
BRANCH   4   5
HETATM    5  C8  UNL     1     -33.700   6.441   4.381  1.00 20.00     0.122 C 
BRANCH   5   6
HETATM    6  C7  UNL     1     -34.627   5.212   4.523  1.00 20.00     0.006 C 
HETATM    7  C3  UNL     1     -34.913   4.919   6.001  1.00 20.00     0.012 C 
HETATM    8  C4  UNL     1     -35.955   5.374   3.777  1.00 20.00     0.012 C 
ENDBRANCH   5   6
BRANCH   5   9
HETATM    9  O9  UNL     1     -33.152   6.754   5.665  1.00 20.00    -0.395 OA
HETATM   10  H23 UNL     1     -33.413   6.032   6.255  1.00 20.00     0.210 HD
ENDBRANCH   5   9
ENDBRANCH   4   5
ENDBRANCH   3   4
TORSDOF 4
ENDMDL
MODEL 3
REMARK VINA RESULT:      -4.5     11.168     12.212
REMARK  4 active torsions:
REMARK  status: ('A' for Active; 'I' for Inactive)
REMARK    1  A    between atoms: C5_5  and  C6_6 
REMARK    2  A    between atoms: C6_6  and  C8_8 
REMARK    3  A    between atoms: C7_7  and  C8_8 
REMARK    4  A    between atoms: C8_8  and  O9_9 
ROOT
HETATM    1  C1  UNL     1     -34.746  16.396  -1.405  1.00 20.00     0.012 C 
HETATM    2  C2  UNL     1     -34.061  16.022  -2.318  1.00 20.00    -0.117 C 
HETATM    3  C5  UNL     1     -33.219  15.569  -3.433  1.00 20.00     0.095 C 
ENDROOT
BRANCH   3   4
HETATM    4  C6  UNL     1     -33.618  14.184  -3.940  1.00 20.00     0.044 C 
BRANCH   4   5
HETATM    5  C8  UNL     1     -35.124  13.967  -4.177  1.00 20.00     0.122 C 
BRANCH   5   6
HETATM    6  C7  UNL     1     -35.670  14.503  -5.519  1.00 20.00     0.006 C 
HETATM    7  C3  UNL     1     -36.419  15.824  -5.308  1.00 20.00     0.012 C 
HETATM    8  C4  UNL     1     -34.576  14.708  -6.572  1.00 20.00     0.012 C 
ENDBRANCH   5   6
BRANCH   5   9
HETATM    9  O9  UNL     1     -35.383  12.562  -4.102  1.00 20.00    -0.395 OA
HETATM   10  H23 UNL     1     -35.695  12.391  -3.201  1.00 20.00     0.210 HD
ENDBRANCH   5   9
ENDBRANCH   4   5
ENDBRANCH   3   4
TORSDOF 4
ENDMDL
MODEL 4
REMARK VINA RESULT:      -4.5     11.520     12.432
REMARK  4 active torsions:
REMARK  status: ('A' for Active; 'I' for Inactive)
REMARK    1  A    between atoms: C5_5  and  C6_6 
REMARK    2  A    between atoms: C6_6  and  C8_8 
REMARK    3  A    between atoms: C7_7  and  C8_8 
REMARK    4  A    between atoms: C8_8  and  O9_9 
ROOT
HETATM    1  C1  UNL     1     -34.723  17.409   0.265  1.00 20.00     0.012 C 
HETATM    2  C2  UNL     1     -34.733  16.743  -0.735  1.00 20.00    -0.117 C 
HETATM    3  C5  UNL     1     -34.752  15.927  -1.955  1.00 20.00     0.095 C 
ENDROOT
BRANCH   3   4
HETATM    4  C6  UNL     1     -33.637  16.307  -2.928  1.00 20.00     0.044 C 
BRANCH   4   5
HETATM    5  C8  UNL     1     -33.333  15.276  -4.031  1.00 20.00     0.122 C 
BRANCH   5   6
HETATM    6  C7  UNL     1     -34.562  14.744  -4.801  1.00 20.00     0.006 C 
HETATM    7  C3  UNL     1     -34.410  15.004  -6.305  1.00 20.00     0.012 C 
HETATM    8  C4  UNL     1     -34.811  13.249  -4.573  1.00 20.00     0.012 C 
ENDBRANCH   5   6
BRANCH   5   9
HETATM    9  O9  UNL     1     -32.432  15.882  -4.963  1.00 20.00    -0.395 OA
HETATM   10  H23 UNL     1     -31.540  15.653  -4.667  1.00 20.00     0.210 HD
ENDBRANCH   5   9
ENDBRANCH   4   5
ENDBRANCH   3   4
TORSDOF 4
ENDMDL
MODEL 5
REMARK VINA RESULT:      -4.4     10.976     12.243
REMARK  4 active torsions:
REMARK  status: ('A' for Active; 'I' for Inactive)
REMARK    1  A    between atoms: C5_5  and  C6_6 
REMARK    2  A    between atoms: C6_6  and  C8_8 
REMARK    3  A    between atoms: C7_7  and  C8_8 
REMARK    4  A    between atoms: C8_8  and  O9_9 
ROOT
HETATM    1  C1  UNL     1     -34.723  14.940  -6.902  1.00 20.00     0.012 C 
HETATM    2  C2  UNL     1     -34.805  14.194  -5.965  1.00 20.00    -0.117 C 
HETATM    3  C5  UNL     1     -34.909  13.275  -4.823  1.00 20.00     0.095 C 
ENDROOT
BRANCH   3   4
HETATM    4  C6  UNL     1     -34.112  13.759  -3.612  1.00 20.00     0.044 C 
BRANCH   4   5
HETATM    5  C8  UNL     1     -33.260  15.022  -3.835  1.00 20.00     0.122 C 
BRANCH   5   6
HETATM    6  C7  UNL     1     -33.580  16.213  -2.903  1.00 20.00     0.006 C 
HETATM    7  C3  UNL     1     -33.801  17.492  -3.720  1.00 20.00     0.012 C 
HETATM    8  C4  UNL     1     -34.804  15.967  -2.015  1.00 20.00     0.012 C 
ENDBRANCH   5   6
BRANCH   5   9
HETATM    9  O9  UNL     1     -31.886  14.661  -3.666  1.00 20.00    -0.395 OA
HETATM   10  H23 UNL     1     -31.777  14.441  -2.730  1.00 20.00     0.210 HD
ENDBRANCH   5   9
ENDBRANCH   4   5
ENDBRANCH   3   4
TORSDOF 4
ENDMDL
MODEL 6
REMARK VINA RESULT:      -4.3     11.088     12.523
REMARK  4 active torsions:
REMARK  status: ('A' for Active; 'I' for Inactive)
REMARK    1  A    between atoms: C5_5  and  C6_6 
REMARK    2  A    between atoms: C6_6  and  C8_8 
REMARK    3  A    between atoms: C7_7  and  C8_8 
REMARK    4  A    between atoms: C8_8  and  O9_9 
ROOT
HETATM    1  C1  UNL     1     -34.366  17.418  -7.028  1.00 20.00     0.012 C 
HETATM    2  C2  UNL     1     -34.464  16.222  -6.971  1.00 20.00    -0.117 C 
HETATM    3  C5  UNL     1     -34.579  14.760  -6.906  1.00 20.00     0.095 C 
ENDROOT
BRANCH   3   4
HETATM    4  C6  UNL     1     -35.386  14.292  -5.696  1.00 20.00     0.044 C 
BRANCH   4   5
HETATM    5  C8  UNL     1     -34.578  13.610  -4.577  1.00 20.00     0.122 C 
BRANCH   5   6
HETATM    6  C7  UNL     1     -34.218  14.510  -3.374  1.00 20.00     0.006 C 
HETATM    7  C3  UNL     1     -32.907  15.263  -3.636  1.00 20.00     0.012 C 
HETATM    8  C4  UNL     1     -35.316  15.522  -3.032  1.00 20.00     0.012 C 
ENDBRANCH   5   6
BRANCH   5   9
HETATM    9  O9  UNL     1     -35.336  12.492  -4.104  1.00 20.00    -0.395 OA
HETATM   10  H23 UNL     1     -34.778  12.041  -3.456  1.00 20.00     0.210 HD
ENDBRANCH   5   9
ENDBRANCH   4   5
ENDBRANCH   3   4
TORSDOF 4
ENDMDL
MODEL 7
REMARK VINA RESULT:      -4.2      1.554      4.747
REMARK  4 active torsions:
REMARK  status: ('A' for Active; 'I' for Inactive)
REMARK    1  A    between atoms: C5_5  and  C6_6 
REMARK    2  A    between atoms: C6_6  and  C8_8 
REMARK    3  A    between atoms: C7_7  and  C8_8 
REMARK    4  A    between atoms: C8_8  and  O9_9 
ROOT
HETATM    1  C1  UNL     1     -35.122   4.280   6.301  1.00 20.00     0.012 C 
HETATM    2  C2  UNL     1     -35.023   4.704   5.182  1.00 20.00    -0.117 C 
HETATM    3  C5  UNL     1     -34.908   5.218   3.811  1.00 20.00     0.095 C 
ENDROOT
BRANCH   3   4
HETATM    4  C6  UNL     1     -34.201   6.571   3.754  1.00 20.00     0.044 C 
BRANCH   4   5
HETATM    5  C8  UNL     1     -33.003   6.659   2.790  1.00 20.00     0.122 C 
BRANCH   5   6
HETATM    6  C7  UNL     1     -32.271   8.020   2.761  1.00 20.00     0.006 C 
HETATM    7  C3  UNL     1     -31.028   7.984   3.657  1.00 20.00     0.012 C 
HETATM    8  C4  UNL     1     -31.859   8.448   1.348  1.00 20.00     0.012 C 
ENDBRANCH   5   6
BRANCH   5   9
HETATM    9  O9  UNL     1     -32.067   5.641   3.157  1.00 20.00    -0.395 OA
HETATM   10  H23 UNL     1     -32.443   4.804   2.851  1.00 20.00     0.210 HD
ENDBRANCH   5   9
ENDBRANCH   4   5
ENDBRANCH   3   4
TORSDOF 4
ENDMDL
MODEL 8
REMARK VINA RESULT:      -4.1     11.164     12.945
REMARK  4 active torsions:
REMARK  status: ('A' for Active; 'I' for Inactive)
REMARK    1  A    between atoms: C5_5  and  C6_6 
REMARK    2  A    between atoms: C6_6  and  C8_8 
REMARK    3  A    between atoms: C7_7  and  C8_8 
REMARK    4  A    between atoms: C8_8  and  O9_9 
ROOT
HETATM    1  C1  UNL     1     -35.534  14.392  -7.458  1.00 20.00     0.012 C 
HETATM    2  C2  UNL     1     -34.827  15.275  -7.054  1.00 20.00    -0.117 C 
HETATM    3  C5  UNL     1     -33.960  16.356  -6.568  1.00 20.00     0.095 C 
ENDROOT
BRANCH   3   4
HETATM    4  C6  UNL     1     -34.303  16.779  -5.140  1.00 20.00     0.044 C 
BRANCH   4   5
HETATM    5  C8  UNL     1     -33.469  16.116  -4.028  1.00 20.00     0.122 C 
BRANCH   5   6
HETATM    6  C7  UNL     1     -34.156  14.946  -3.289  1.00 20.00     0.006 C 
HETATM    7  C3  UNL     1     -35.681  15.103  -3.330  1.00 20.00     0.012 C 
HETATM    8  C4  UNL     1     -33.778  13.574  -3.857  1.00 20.00     0.012 C 
ENDBRANCH   5   6
BRANCH   5   9
HETATM    9  O9  UNL     1     -32.254  15.640  -4.615  1.00 20.00    -0.395 OA
HETATM   10  H23 UNL     1     -32.440  15.509  -5.556  1.00 20.00     0.210 HD
ENDBRANCH   5   9
ENDBRANCH   4   5
ENDBRANCH   3   4
TORSDOF 4
ENDMDL
MODEL 9
REMARK VINA RESULT:      -4.1      1.864      5.002
REMARK  4 active torsions:
REMARK  status: ('A' for Active; 'I' for Inactive)
REMARK    1  A    between atoms: C5_5  and  C6_6 
REMARK    2  A    between atoms: C6_6  and  C8_8 
REMARK    3  A    between atoms: C7_7  and  C8_8 
REMARK    4  A    between atoms: C8_8  and  O9_9 
ROOT
HETATM    1  C1  UNL     1     -35.187   4.453   5.145  1.00 20.00     0.012 C 
HETATM    2  C2  UNL     1     -34.452   5.353   4.838  1.00 20.00    -0.117 C 
HETATM    3  C5  UNL     1     -33.554   6.455   4.470  1.00 20.00     0.095 C 
ENDROOT
BRANCH   3   4
HETATM    4  C6  UNL     1     -32.946   6.271   3.080  1.00 20.00     0.044 C 
BRANCH   4   5
HETATM    5  C8  UNL     1     -31.915   7.333   2.657  1.00 20.00     0.122 C 
BRANCH   5   6
HETATM    6  C7  UNL     1     -32.424   8.392   1.652  1.00 20.00     0.006 C 
HETATM    7  C3  UNL     1     -32.652   9.736   2.355  1.00 20.00     0.012 C 
HETATM    8  C4  UNL     1     -31.475   8.599   0.468  1.00 20.00     0.012 C 
ENDBRANCH   5   6
BRANCH   5   9
HETATM    9  O9  UNL     1     -31.460   8.001   3.838  1.00 20.00    -0.395 OA
HETATM   10  H23 UNL     1     -31.402   7.323   4.527  1.00 20.00     0.210 HD
ENDBRANCH   5   9
ENDBRANCH   4   5
ENDBRANCH   3   4
TORSDOF 4
ENDMDL
