MODEL 1
REMARK VINA RESULT:      -4.5      0.000      0.000
REMARK  5 active torsions:
REMARK  status: ('A' for Active; 'I' for Inactive)
REMARK    1  A    between atoms: C3_3  and  C7_7 
REMARK    2  A    between atoms: C4_4  and  C5_5 
REMARK    3  A    between atoms: C4_4  and  C6_6 
REMARK    4  A    between atoms: C5_5  and  C7_7 
REMARK    5  A    between atoms: C6_6  and  O8_8 
ROOT
HETATM    1  C5  UNL     1     -33.454   5.885   3.081  1.00 20.00     0.022 C 
ENDROOT
BRANCH   1   2
HETATM    2  C4  UNL     1     -32.112   6.596   3.304  1.00 20.00     0.028 C 
BRANCH   2   3
HETATM    3  C6  UNL     1     -32.162   8.061   2.883  1.00 20.00     0.167 C 
BRANCH   3   4
HETATM    4  O8  UNL     1     -31.843   8.182   1.504  1.00 20.00    -0.396 OA
HETATM    5  C2  UNL     1     -32.256   9.437   0.980  1.00 20.00     0.201 C 
ENDBRANCH   3   4
ENDBRANCH   2   3
ENDBRANCH   1   2
BRANCH   1   6
HETATM    6  C7  UNL     1     -34.439   6.059   4.249  1.00 20.00     0.082 C 
HETATM    7 CL9  UNL     1     -33.573   6.608   5.720  1.00 20.00    -0.125 Cl
BRANCH   6   8
HETATM    8  C3  UNL     1     -35.185   4.746   4.530  1.00 20.00     0.016 C 
HETATM    9  C1  UNL     1     -35.029   4.249   5.962  1.00 20.00     0.006 C 
ENDBRANCH   6   8
ENDBRANCH   1   6
TORSDOF 5
ENDMDL
MODEL 2
REMARK VINA RESULT:      -4.5      1.695      1.893
REMARK  5 active torsions:
REMARK  status: ('A' for Active; 'I' for Inactive)
REMARK    1  A    between atoms: C3_3  and  C7_7 
REMARK    2  A    between atoms: C4_4  and  C5_5 
REMARK    3  A    between atoms: C4_4  and  C6_6 
REMARK    4  A    between atoms: C5_5  and  C7_7 
REMARK    5  A    between atoms: C6_6  and  O8_8 
ROOT
HETATM    1  C5  UNL     1     -34.058   6.238   3.896  1.00 20.00     0.022 C 
ENDROOT
BRANCH   1   2
HETATM    2  C4  UNL     1     -32.755   6.204   3.085  1.00 20.00     0.028 C 
BRANCH   2   3
HETATM    3  C6  UNL     1     -32.055   7.559   3.067  1.00 20.00     0.167 C 
BRANCH   3   4
HETATM    4  O8  UNL     1     -31.932   8.026   1.732  1.00 20.00    -0.396 OA
HETATM    5  C2  UNL     1     -32.394   9.365   1.601  1.00 20.00     0.201 C 
ENDBRANCH   3   4
ENDBRANCH   2   3
ENDBRANCH   1   2
BRANCH   1   6
HETATM    6  C7  UNL     1     -34.042   5.304   5.117  1.00 20.00     0.082 C 
HETATM    7 CL9  UNL     1     -35.187   3.944   4.879  1.00 20.00    -0.125 Cl
BRANCH   6   8
HETATM    8  C3  UNL     1     -34.394   6.078   6.396  1.00 20.00     0.016 C 
HETATM    9  C1  UNL     1     -33.439   7.227   6.697  1.00 20.00     0.006 C 
ENDBRANCH   6   8
ENDBRANCH   1   6
TORSDOF 5
ENDMDL
MODEL 3
REMARK VINA RESULT:      -4.0      2.407      4.833
REMARK  5 active torsions:
REMARK  status: ('A' for Active; 'I' for Inactive)
REMARK    1  A    between atoms: C3_3  and  C7_7 
REMARK    2  A    between atoms: C4_4  and  C5_5 
REMARK    3  A    between atoms: C4_4  and  C6_6 
REMARK    4  A    between atoms: C5_5  and  C7_7 
REMARK    5  A    between atoms: C6_6  and  O8_8 
ROOT
HETATM    1  C5  UNL     1     -32.790   6.111   3.018  1.00 20.00     0.022 C 
ENDROOT
BRANCH   1   2
HETATM    2  C4  UNL     1     -33.911   6.398   4.027  1.00 20.00     0.028 C 
BRANCH   2   3
HETATM    3  C6  UNL     1     -35.005   5.337   3.986  1.00 20.00     0.167 C 
BRANCH   3   4
HETATM    4  O8  UNL     1     -35.304   4.894   5.302  1.00 20.00    -0.396 OA
HETATM    5  C2  UNL     1     -34.520   5.572   6.274  1.00 20.00     0.201 C 
ENDBRANCH   3   4
ENDBRANCH   2   3
ENDBRANCH   1   2
BRANCH   1   6
HETATM    6  C7  UNL     1     -31.837   7.299   2.809  1.00 20.00     0.082 C 
HETATM    7 CL9  UNL     1     -31.172   7.852   4.380  1.00 20.00    -0.125 Cl
BRANCH   6   8
HETATM    8  C3  UNL     1     -32.559   8.455   2.100  1.00 20.00     0.016 C 
HETATM    9  C1  UNL     1     -31.907   8.866   0.785  1.00 20.00     0.006 C 
ENDBRANCH   6   8
ENDBRANCH   1   6
TORSDOF 5
ENDMDL
MODEL 4
REMARK VINA RESULT:      -3.8     10.567     11.502
REMARK  5 active torsions:
REMARK  status: ('A' for Active; 'I' for Inactive)
REMARK    1  A    between atoms: C3_3  and  C7_7 
REMARK    2  A    between atoms: C4_4  and  C5_5 
REMARK    3  A    between atoms: C4_4  and  C6_6 
REMARK    4  A    between atoms: C5_5  and  C7_7 
REMARK    5  A    between atoms: C6_6  and  O8_8 
ROOT
HETATM    1  C5  UNL     1     -33.615  16.002  -3.045  1.00 20.00     0.022 C 
ENDROOT
BRANCH   1   2
HETATM    2  C4  UNL     1     -33.297  14.723  -3.832  1.00 20.00     0.028 C 
BRANCH   2   3
HETATM    3  C6  UNL     1     -34.249  13.584  -3.485  1.00 20.00     0.167 C 
BRANCH   3   4
HETATM    4  O8  UNL     1     -34.597  12.864  -4.659  1.00 20.00    -0.396 OA
HETATM    5  C2  UNL     1     -34.985  13.737  -5.712  1.00 20.00     0.201 C 
ENDBRANCH   3   4
ENDBRANCH   2   3
ENDBRANCH   1   2
BRANCH   1   6
HETATM    6  C7  UNL     1     -34.863  15.878  -2.156  1.00 20.00     0.082 C 
HETATM    7 CL9  UNL     1     -36.305  16.515  -3.011  1.00 20.00    -0.125 Cl
BRANCH   6   8
HETATM    8  C3  UNL     1     -34.660  16.623  -0.828  1.00 20.00     0.016 C 
HETATM    9  C1  UNL     1     -33.558  17.675  -0.881  1.00 20.00     0.006 C 
ENDBRANCH   6   8
ENDBRANCH   1   6
TORSDOF 5
ENDMDL
MODEL 5
REMARK VINA RESULT:      -3.8     11.173     11.935
REMARK  5 active torsions:
REMARK  status: ('A' for Active; 'I' for Inactive)
REMARK    1  A    between atoms: C3_3  and  C7_7 
REMARK    2  A    between atoms: C4_4  and  C5_5 
REMARK    3  A    between atoms: C4_4  and  C6_6 
REMARK    4  A    between atoms: C5_5  and  C7_7 
REMARK    5  A    between atoms: C6_6  and  O8_8 
ROOT
HETATM    1  C5  UNL     1     -33.996  14.269  -3.526  1.00 20.00     0.022 C 
ENDROOT
BRANCH   1   2
HETATM    2  C4  UNL     1     -35.175  13.506  -4.146  1.00 20.00     0.028 C 
BRANCH   2   3
HETATM    3  C6  UNL     1     -36.343  14.428  -4.480  1.00 20.00     0.167 C 
BRANCH   3   4
HETATM    4  O8  UNL     1     -37.477  14.078  -3.701  1.00 20.00    -0.396 OA
HETATM    5  C2  UNL     1     -38.499  15.062  -3.793  1.00 20.00     0.201 C 
ENDBRANCH   3   4
ENDBRANCH   2   3
ENDBRANCH   1   2
BRANCH   1   6
HETATM    6  C7  UNL     1     -34.123  15.796  -3.649  1.00 20.00     0.082 C 
HETATM    7 CL9  UNL     1     -33.149  16.394  -5.031  1.00 20.00    -0.125 Cl
BRANCH   6   8
HETATM    8  C3  UNL     1     -33.680  16.484  -2.349  1.00 20.00     0.016 C 
HETATM    9  C1  UNL     1     -34.717  16.408  -1.235  1.00 20.00     0.006 C 
ENDBRANCH   6   8
ENDBRANCH   1   6
TORSDOF 5
ENDMDL
MODEL 6
REMARK VINA RESULT:      -3.6     11.189     12.054
REMARK  5 active torsions:
REMARK  status: ('A' for Active; 'I' for Inactive)
REMARK    1  A    between atoms: C3_3  and  C7_7 
REMARK    2  A    between atoms: C4_4  and  C5_5 
REMARK    3  A    between atoms: C4_4  and  C6_6 
REMARK    4  A    between atoms: C5_5  and  C7_7 
REMARK    5  A    between atoms: C6_6  and  O8_8 
ROOT
HETATM    1  C5  UNL     1     -33.511  14.795  -3.502  1.00 20.00     0.022 C 
ENDROOT
BRANCH   1   2
HETATM    2  C4  UNL     1     -34.599  13.735  -3.722  1.00 20.00     0.028 C 
BRANCH   2   3
HETATM    3  C6  UNL     1     -34.696  13.308  -5.183  1.00 20.00     0.167 C 
BRANCH   3   4
HETATM    4  O8  UNL     1     -35.480  14.240  -5.912  1.00 20.00    -0.396 OA
HETATM    5  C2  UNL     1     -34.791  14.719  -7.060  1.00 20.00     0.201 C 
ENDBRANCH   3   4
ENDBRANCH   2   3
ENDBRANCH   1   2
BRANCH   1   6
HETATM    6  C7  UNL     1     -34.063  16.227  -3.403  1.00 20.00     0.082 C 
HETATM    7 CL9  UNL     1     -33.431  17.234  -4.746  1.00 20.00    -0.125 Cl
BRANCH   6   8
HETATM    8  C3  UNL     1     -33.700  16.856  -2.050  1.00 20.00     0.016 C 
HETATM    9  C1  UNL     1     -34.697  16.537  -0.942  1.00 20.00     0.006 C 
ENDBRANCH   6   8
ENDBRANCH   1   6
TORSDOF 5
ENDMDL
MODEL 7
REMARK VINA RESULT:      -3.6     11.144     11.740
REMARK  5 active torsions:
REMARK  status: ('A' for Active; 'I' for Inactive)
REMARK    1  A    between atoms: C3_3  and  C7_7 
REMARK    2  A    between atoms: C4_4  and  C5_5 
REMARK    3  A    between atoms: C4_4  and  C6_6 
REMARK    4  A    between atoms: C5_5  and  C7_7 
REMARK    5  A    between atoms: C6_6  and  O8_8 
ROOT
HETATM    1  C5  UNL     1     -34.792  15.846  -2.810  1.00 20.00     0.022 C 
ENDROOT
BRANCH   1   2
HETATM    2  C4  UNL     1     -34.667  16.285  -1.344  1.00 20.00     0.028 C 
BRANCH   2   3
HETATM    3  C6  UNL     1     -33.675  17.430  -1.170  1.00 20.00     0.167 C 
BRANCH   3   4
HETATM    4  O8  UNL     1     -33.926  18.111   0.050  1.00 20.00    -0.396 OA
HETATM    5  C2  UNL     1     -35.042  17.560   0.738  1.00 20.00     0.201 C 
ENDBRANCH   3   4
ENDBRANCH   2   3
ENDBRANCH   1   2
BRANCH   1   6
HETATM    6  C7  UNL     1     -33.461  15.387  -3.427  1.00 20.00     0.082 C 
HETATM    7 CL9  UNL     1     -33.086  16.350  -4.892  1.00 20.00    -0.125 Cl
BRANCH   6   8
HETATM    8  C3  UNL     1     -33.510  13.891  -3.771  1.00 20.00     0.016 C 
HETATM    9  C1  UNL     1     -34.889  13.410  -4.206  1.00 20.00     0.006 C 
ENDBRANCH   6   8
ENDBRANCH   1   6
TORSDOF 5
ENDMDL
MODEL 8
REMARK VINA RESULT:      -3.6     10.674     12.116
REMARK  5 active torsions:
REMARK  status: ('A' for Active; 'I' for Inactive)
REMARK    1  A    between atoms: C3_3  and  C7_7 
REMARK    2  A    between atoms: C4_4  and  C5_5 
REMARK    3  A    between atoms: C4_4  and  C6_6 
REMARK    4  A    between atoms: C5_5  and  C7_7 
REMARK    5  A    between atoms: C6_6  and  O8_8 
ROOT
HETATM    1  C5  UNL     1     -34.979  14.988  -3.184  1.00 20.00     0.022 C 
ENDROOT
BRANCH   1   2
HETATM    2  C4  UNL     1     -34.285  13.690  -3.619  1.00 20.00     0.028 C 
BRANCH   2   3
HETATM    3  C6  UNL     1     -34.692  13.266  -5.026  1.00 20.00     0.167 C 
BRANCH   3   4
HETATM    4  O8  UNL     1     -35.536  14.250  -5.607  1.00 20.00    -0.396 OA
HETATM    5  C2  UNL     1     -35.285  14.400  -6.998  1.00 20.00     0.201 C 
ENDBRANCH   3   4
ENDBRANCH   2   3
ENDBRANCH   1   2
BRANCH   1   6
HETATM    6  C7  UNL     1     -34.008  16.048  -2.638  1.00 20.00     0.082 C 
HETATM    7 CL9  UNL     1     -34.480  16.532  -0.977  1.00 20.00    -0.125 Cl
BRANCH   6   8
HETATM    8  C3  UNL     1     -33.970  17.275  -3.560  1.00 20.00     0.016 C 
HETATM    9  C1  UNL     1     -33.375  16.989  -4.933  1.00 20.00     0.006 C 
ENDBRANCH   6   8
ENDBRANCH   1   6
TORSDOF 5
ENDMDL
MODEL 9
REMARK VINA RESULT:      -3.5     10.818     11.812
REMARK  5 active torsions:
REMARK  status: ('A' for Active; 'I' for Inactive)
REMARK    1  A    between atoms: C3_3  and  C7_7 
REMARK    2  A    between atoms: C4_4  and  C5_5 
REMARK    3  A    between atoms: C4_4  and  C6_6 
REMARK    4  A    between atoms: C5_5  and  C7_7 
REMARK    5  A    between atoms: C6_6  and  O8_8 
ROOT
HETATM    1  C5  UNL     1     -36.144  16.361  -3.686  1.00 20.00     0.022 C 
ENDROOT
BRANCH   1   2
HETATM    2  C4  UNL     1     -36.297  14.854  -3.437  1.00 20.00     0.028 C 
BRANCH   2   3
HETATM    3  C6  UNL     1     -35.802  14.024  -4.617  1.00 20.00     0.167 C 
BRANCH   3   4
HETATM    4  O8  UNL     1     -34.973  12.967  -4.156  1.00 20.00    -0.396 OA
HETATM    5  C2  UNL     1     -33.631  13.397  -3.968  1.00 20.00     0.201 C 
ENDBRANCH   3   4
ENDBRANCH   2   3
ENDBRANCH   1   2
BRANCH   1   6
HETATM    6  C7  UNL     1     -34.921  16.975  -2.986  1.00 20.00     0.082 C 
HETATM    7 CL9  UNL     1     -33.526  17.042  -4.111  1.00 20.00    -0.125 Cl
BRANCH   6   8
HETATM    8  C3  UNL     1     -34.554  16.171  -1.730  1.00 20.00     0.016 C 
HETATM    9  C1  UNL     1     -34.714  16.956  -0.434  1.00 20.00     0.006 C 
ENDBRANCH   6   8
ENDBRANCH   1   6
TORSDOF 5
ENDMDL
