MODEL 1
REMARK VINA RESULT:      -4.9      0.000      0.000
REMARK  3 active torsions:
REMARK  status: ('A' for Active; 'I' for Inactive)
REMARK    1  A    between atoms: C5_5  and  C9_9 
REMARK    2  A    between atoms: C6_6  and  C10_10 
REMARK    3  A    between atoms: C10_10  and  C11_11 
ROOT
HETATM    1  C1  UNL     1     -34.840  13.693  -4.367  1.00 20.00     0.131 C 
HETATM    2  C2  UNL     1     -33.496  13.736  -3.675  1.00 20.00     0.079 C 
HETATM    3  C3  UNL     1     -33.079  15.175  -3.405  1.00 20.00     0.012 C 
HETATM    4  C4  UNL     1     -35.486  15.919  -3.436  1.00 20.00     0.016 C 
HETATM    5  C5  UNL     1     -35.960  14.485  -3.702  1.00 20.00     0.055 C 
HETATM    6  C6  UNL     1     -34.167  15.950  -2.648  1.00 20.00    -0.013 C 
HETATM    7  O12 UNL     1     -35.021  12.984  -5.356  1.00 20.00    -0.298 OA
ENDROOT
BRANCH   6   8
HETATM    8  C10 UNL     1     -33.725  17.390  -2.398  1.00 20.00     0.004 C 
BRANCH   8   9
HETATM    9  C11 UNL     1     -33.594  17.676  -0.906  1.00 20.00    -0.004 C 
HETATM   10  C8  UNL     1     -34.744  17.061  -0.123  1.00 20.00     0.005 C 
ENDBRANCH   8   9
ENDBRANCH   6   8
BRANCH   5  11
HETATM   11  C9  UNL     1     -37.231  14.484  -4.544  1.00 20.00     0.007 C 
HETATM   12  C7  UNL     1     -38.418  14.933  -3.755  1.00 20.00     0.006 C 
ENDBRANCH   5  11
TORSDOF 3
ENDMDL
MODEL 2
REMARK VINA RESULT:      -4.8      1.734      2.605
REMARK  3 active torsions:
REMARK  status: ('A' for Active; 'I' for Inactive)
REMARK    1  A    between atoms: C5_5  and  C9_9 
REMARK    2  A    between atoms: C6_6  and  C10_10 
REMARK    3  A    between atoms: C10_10  and  C11_11 
ROOT
HETATM    1  C1  UNL     1     -33.713  16.132  -4.968  1.00 20.00     0.131 C 
HETATM    2  C2  UNL     1     -33.411  17.513  -4.426  1.00 20.00     0.079 C 
HETATM    3  C3  UNL     1     -34.171  17.756  -3.130  1.00 20.00     0.012 C 
HETATM    4  C4  UNL     1     -34.304  15.277  -2.697  1.00 20.00     0.016 C 
HETATM    5  C5  UNL     1     -33.535  14.978  -3.989  1.00 20.00     0.055 C 
HETATM    6  C6  UNL     1     -33.918  16.642  -2.104  1.00 20.00    -0.013 C 
HETATM    7  O12 UNL     1     -33.995  15.966  -6.153  1.00 20.00    -0.298 OA
ENDROOT
BRANCH   6   8
HETATM    8  C10 UNL     1     -34.697  16.908  -0.818  1.00 20.00     0.004 C 
BRANCH   8   9
HETATM    9  C11 UNL     1     -33.984  17.933   0.058  1.00 20.00    -0.004 C 
HETATM   10  C8  UNL     1     -34.654  18.057   1.417  1.00 20.00     0.005 C 
ENDBRANCH   8   9
ENDBRANCH   6   8
BRANCH   5  11
HETATM   11  C9  UNL     1     -33.989  13.651  -4.591  1.00 20.00     0.007 C 
HETATM   12  C7  UNL     1     -35.422  13.364  -4.280  1.00 20.00     0.006 C 
ENDBRANCH   5  11
TORSDOF 3
ENDMDL
MODEL 3
REMARK VINA RESULT:      -4.8     10.588     11.682
REMARK  3 active torsions:
REMARK  status: ('A' for Active; 'I' for Inactive)
REMARK    1  A    between atoms: C5_5  and  C9_9 
REMARK    2  A    between atoms: C6_6  and  C10_10 
REMARK    3  A    between atoms: C10_10  and  C11_11 
ROOT
HETATM    1  C1  UNL     1     -34.768   5.265   4.010  1.00 20.00     0.131 C 
HETATM    2  C2  UNL     1     -34.230   5.084   2.607  1.00 20.00     0.079 C 
HETATM    3  C3  UNL     1     -33.409   6.295   2.188  1.00 20.00     0.012 C 
HETATM    4  C4  UNL     1     -32.934   6.855   4.599  1.00 20.00     0.016 C 
HETATM    5  C5  UNL     1     -33.744   5.643   5.074  1.00 20.00     0.055 C 
HETATM    6  C6  UNL     1     -32.313   6.621   3.213  1.00 20.00    -0.013 C 
HETATM    7  O12 UNL     1     -35.947   5.029   4.271  1.00 20.00    -0.298 OA
ENDROOT
BRANCH   6   8
HETATM    8  C10 UNL     1     -31.511   7.843   2.771  1.00 20.00     0.004 C 
BRANCH   8   9
HETATM    9  C11 UNL     1     -31.990   8.359   1.418  1.00 20.00    -0.004 C 
HETATM   10  C8  UNL     1     -32.439   9.809   1.509  1.00 20.00     0.005 C 
ENDBRANCH   8   9
ENDBRANCH   6   8
BRANCH   5  11
HETATM   11  C9  UNL     1     -34.405   5.929   6.419  1.00 20.00     0.007 C 
HETATM   12  C7  UNL     1     -33.890   7.191   7.031  1.00 20.00     0.006 C 
ENDBRANCH   5  11
TORSDOF 3
ENDMDL
MODEL 4
REMARK VINA RESULT:      -4.6      2.676      5.113
REMARK  3 active torsions:
REMARK  status: ('A' for Active; 'I' for Inactive)
REMARK    1  A    between atoms: C5_5  and  C9_9 
REMARK    2  A    between atoms: C6_6  and  C10_10 
REMARK    3  A    between atoms: C10_10  and  C11_11 
ROOT
HETATM    1  C1  UNL     1     -35.857  18.015  -1.399  1.00 20.00     0.131 C 
HETATM    2  C2  UNL     1     -36.523  17.316  -2.564  1.00 20.00     0.079 C 
HETATM    3  C3  UNL     1     -35.479  16.738  -3.509  1.00 20.00     0.012 C 
HETATM    4  C4  UNL     1     -33.791  16.632  -1.640  1.00 20.00     0.016 C 
HETATM    5  C5  UNL     1     -34.807  17.205  -0.647  1.00 20.00     0.055 C 
HETATM    6  C6  UNL     1     -34.475  15.843  -2.768  1.00 20.00    -0.013 C 
HETATM    7  O12 UNL     1     -36.218  19.135  -1.042  1.00 20.00    -0.298 OA
ENDROOT
BRANCH   6   8
HETATM    8  C10 UNL     1     -33.437  15.283  -3.738  1.00 20.00     0.004 C 
BRANCH   8   9
HETATM    9  C11 UNL     1     -33.496  13.760  -3.792  1.00 20.00    -0.004 C 
HETATM   10  C8  UNL     1     -34.591  13.284  -4.733  1.00 20.00     0.005 C 
ENDBRANCH   8   9
ENDBRANCH   6   8
BRANCH   5  11
HETATM   11  C9  UNL     1     -34.106  18.040   0.420  1.00 20.00     0.007 C 
HETATM   12  C7  UNL     1     -32.794  18.566  -0.063  1.00 20.00     0.006 C 
ENDBRANCH   5  11
TORSDOF 3
ENDMDL
MODEL 5
REMARK VINA RESULT:      -4.5      1.883      2.353
REMARK  3 active torsions:
REMARK  status: ('A' for Active; 'I' for Inactive)
REMARK    1  A    between atoms: C5_5  and  C9_9 
REMARK    2  A    between atoms: C6_6  and  C10_10 
REMARK    3  A    between atoms: C10_10  and  C11_11 
ROOT
HETATM    1  C1  UNL     1     -35.339  14.368  -5.736  1.00 20.00     0.131 C 
HETATM    2  C2  UNL     1     -35.164  13.512  -4.501  1.00 20.00     0.079 C 
HETATM    3  C3  UNL     1     -34.285  14.220  -3.480  1.00 20.00     0.012 C 
HETATM    4  C4  UNL     1     -34.899  16.463  -4.450  1.00 20.00     0.016 C 
HETATM    5  C5  UNL     1     -35.803  15.800  -5.495  1.00 20.00     0.055 C 
HETATM    6  C6  UNL     1     -34.805  15.629  -3.162  1.00 20.00    -0.013 C 
HETATM    7  O12 UNL     1     -35.198  13.892  -6.862  1.00 20.00    -0.298 OA
ENDROOT
BRANCH   6   8
HETATM    8  C10 UNL     1     -33.902  16.317  -2.142  1.00 20.00     0.004 C 
BRANCH   8   9
HETATM    9  C11 UNL     1     -34.656  16.621  -0.852  1.00 20.00    -0.004 C 
HETATM   10  C8  UNL     1     -34.041  17.801  -0.117  1.00 20.00     0.005 C 
ENDBRANCH   8   9
ENDBRANCH   6   8
BRANCH   5  11
HETATM   11  C9  UNL     1     -35.822  16.613  -6.786  1.00 20.00     0.007 C 
HETATM   12  C7  UNL     1     -34.546  17.365  -6.985  1.00 20.00     0.006 C 
ENDBRANCH   5  11
TORSDOF 3
ENDMDL
MODEL 6
REMARK VINA RESULT:      -4.5      1.471      2.899
REMARK  3 active torsions:
REMARK  status: ('A' for Active; 'I' for Inactive)
REMARK    1  A    between atoms: C5_5  and  C9_9 
REMARK    2  A    between atoms: C6_6  and  C10_10 
REMARK    3  A    between atoms: C10_10  and  C11_11 
ROOT
HETATM    1  C1  UNL     1     -37.182  15.093  -3.826  1.00 20.00     0.131 C 
HETATM    2  C2  UNL     1     -37.734  16.494  -3.678  1.00 20.00     0.079 C 
HETATM    3  C3  UNL     1     -36.904  17.294  -2.684  1.00 20.00     0.012 C 
HETATM    4  C4  UNL     1     -34.902  15.825  -3.116  1.00 20.00     0.016 C 
HETATM    5  C5  UNL     1     -35.692  14.992  -4.131  1.00 20.00     0.055 C 
HETATM    6  C6  UNL     1     -35.412  17.273  -3.043  1.00 20.00    -0.013 C 
HETATM    7  O12 UNL     1     -37.924  14.112  -3.789  1.00 20.00    -0.298 OA
ENDROOT
BRANCH   6   8
HETATM    8  C10 UNL     1     -34.604  18.076  -2.027  1.00 20.00     0.004 C 
BRANCH   8   9
HETATM    9  C11 UNL     1     -34.075  17.183  -0.910  1.00 20.00    -0.004 C 
HETATM   10  C8  UNL     1     -34.890  17.349   0.362  1.00 20.00     0.005 C 
ENDBRANCH   8   9
ENDBRANCH   6   8
BRANCH   5  11
HETATM   11  C9  UNL     1     -35.212  13.544  -4.131  1.00 20.00     0.007 C 
HETATM   12  C7  UNL     1     -33.751  13.445  -3.833  1.00 20.00     0.006 C 
ENDBRANCH   5  11
TORSDOF 3
ENDMDL
MODEL 7
REMARK VINA RESULT:      -4.4     10.658     12.932
REMARK  3 active torsions:
REMARK  status: ('A' for Active; 'I' for Inactive)
REMARK    1  A    between atoms: C5_5  and  C9_9 
REMARK    2  A    between atoms: C6_6  and  C10_10 
REMARK    3  A    between atoms: C10_10  and  C11_11 
ROOT
HETATM    1  C1  UNL     1     -41.502   6.937  -1.419  1.00 20.00     0.131 C 
HETATM    2  C2  UNL     1     -40.740   5.791  -0.792  1.00 20.00     0.079 C 
HETATM    3  C3  UNL     1     -41.555   4.507  -0.858  1.00 20.00     0.012 C 
HETATM    4  C4  UNL     1     -42.843   5.381  -2.839  1.00 20.00     0.016 C 
HETATM    5  C5  UNL     1     -42.046   6.690  -2.821  1.00 20.00     0.055 C 
HETATM    6  C6  UNL     1     -42.024   4.204  -2.288  1.00 20.00    -0.013 C 
HETATM    7  O12 UNL     1     -41.589   8.025  -0.851  1.00 20.00    -0.298 OA
ENDROOT
BRANCH   6   8
HETATM    8  C10 UNL     1     -42.843   2.916  -2.323  1.00 20.00     0.004 C 
BRANCH   8   9
HETATM    9  C11 UNL     1     -42.587   2.132  -3.605  1.00 20.00    -0.004 C 
HETATM   10  C8  UNL     1     -41.097   1.964  -3.861  1.00 20.00     0.005 C 
ENDBRANCH   8   9
ENDBRANCH   6   8
BRANCH   5  11
HETATM   11  C9  UNL     1     -42.907   7.853  -3.307  1.00 20.00     0.007 C 
HETATM   12  C7  UNL     1     -42.346   8.477  -4.543  1.00 20.00     0.006 C 
ENDBRANCH   5  11
TORSDOF 3
ENDMDL
MODEL 8
REMARK VINA RESULT:      -4.4      2.297      3.969
REMARK  3 active torsions:
REMARK  status: ('A' for Active; 'I' for Inactive)
REMARK    1  A    between atoms: C5_5  and  C9_9 
REMARK    2  A    between atoms: C6_6  and  C10_10 
REMARK    3  A    between atoms: C10_10  and  C11_11 
ROOT
HETATM    1  C1  UNL     1     -33.855  17.711  -3.160  1.00 20.00     0.131 C 
HETATM    2  C2  UNL     1     -33.466  18.864  -2.262  1.00 20.00     0.079 C 
HETATM    3  C3  UNL     1     -34.295  18.852  -0.986  1.00 20.00     0.012 C 
HETATM    4  C4  UNL     1     -34.697  16.376  -1.224  1.00 20.00     0.016 C 
HETATM    5  C5  UNL     1     -33.864  16.332  -2.510  1.00 20.00     0.055 C 
HETATM    6  C6  UNL     1     -34.229  17.492  -0.277  1.00 20.00    -0.013 C 
HETATM    7  O12 UNL     1     -34.061  17.885  -4.360  1.00 20.00    -0.298 OA
ENDROOT
BRANCH   6   8
HETATM    8  C10 UNL     1     -35.075  17.507   0.994  1.00 20.00     0.004 C 
BRANCH   8   9
HETATM    9  C11 UNL     1     -34.555  18.536   1.992  1.00 20.00    -0.004 C 
HETATM   10  C8  UNL     1     -34.608  18.000   3.415  1.00 20.00     0.005 C 
ENDBRANCH   8   9
ENDBRANCH   6   8
BRANCH   5  11
HETATM   11  C9  UNL     1     -34.395  15.263  -3.461  1.00 20.00     0.007 C 
HETATM   12  C7  UNL     1     -33.399  14.170  -3.675  1.00 20.00     0.006 C 
ENDBRANCH   5  11
TORSDOF 3
ENDMDL
MODEL 9
REMARK VINA RESULT:      -4.4      1.396      1.648
REMARK  3 active torsions:
REMARK  status: ('A' for Active; 'I' for Inactive)
REMARK    1  A    between atoms: C5_5  and  C9_9 
REMARK    2  A    between atoms: C6_6  and  C10_10 
REMARK    3  A    between atoms: C10_10  and  C11_11 
ROOT
HETATM    1  C1  UNL     1     -36.172  14.878  -5.570  1.00 20.00     0.131 C 
HETATM    2  C2  UNL     1     -34.668  14.870  -5.735  1.00 20.00     0.079 C 
HETATM    3  C3  UNL     1     -34.010  15.768  -4.697  1.00 20.00     0.012 C 
HETATM    4  C4  UNL     1     -35.988  15.501  -3.158  1.00 20.00     0.016 C 
HETATM    5  C5  UNL     1     -36.690  14.585  -4.166  1.00 20.00     0.055 C 
HETATM    6  C6  UNL     1     -34.457  15.412  -3.272  1.00 20.00    -0.013 C 
HETATM    7  O12 UNL     1     -36.915  15.025  -6.539  1.00 20.00    -0.298 OA
ENDROOT
BRANCH   6   8
HETATM    8  C10 UNL     1     -33.788  16.332  -2.254  1.00 20.00     0.004 C 
BRANCH   8   9
HETATM    9  C11 UNL     1     -34.665  16.521  -1.020  1.00 20.00    -0.004 C 
HETATM   10  C8  UNL     1     -34.149  17.653  -0.145  1.00 20.00     0.005 C 
ENDBRANCH   8   9
ENDBRANCH   6   8
BRANCH   5  11
HETATM   11  C9  UNL     1     -38.205  14.747  -4.078  1.00 20.00     0.007 C 
HETATM   12  C7  UNL     1     -38.587  16.082  -3.527  1.00 20.00     0.006 C 
ENDBRANCH   5  11
TORSDOF 3
ENDMDL
