MODEL 1
REMARK VINA RESULT:      -4.8      0.000      0.000
REMARK  3 active torsions:
REMARK  status: ('A' for Active; 'I' for Inactive)
REMARK    1  A    between atoms: C5_5  and  C9_9 
REMARK    2  A    between atoms: C6_6  and  C10_10 
REMARK    3  A    between atoms: C9_9  and  C11_11 
ROOT
HETATM    1  C1  UNL     1     -33.776  17.624  -3.344  1.00 20.00     0.131 C 
HETATM    2  C2  UNL     1     -34.004  16.931  -4.670  1.00 20.00     0.079 C 
HETATM    3  C3  UNL     1     -35.245  16.051  -4.610  1.00 20.00     0.012 C 
HETATM    4  C4  UNL     1     -35.034  15.854  -2.106  1.00 20.00     0.016 C 
HETATM    5  C5  UNL     1     -33.776  16.731  -2.108  1.00 20.00     0.055 C 
HETATM    6  C6  UNL     1     -35.242  15.083  -3.419  1.00 20.00    -0.014 C 
HETATM    7  O12 UNL     1     -33.514  18.826  -3.297  1.00 20.00    -0.298 OA
ENDROOT
BRANCH   5   8
HETATM    8  C9  UNL     1     -33.692  17.551  -0.823  1.00 20.00     0.012 C 
BRANCH   8   9
HETATM    9  C11 UNL     1     -34.865  17.247   0.104  1.00 20.00    -0.004 C 
HETATM   10  C8  UNL     1     -34.753  18.023   1.406  1.00 20.00     0.005 C 
ENDBRANCH   8   9
ENDBRANCH   5   8
BRANCH   6  11
HETATM   11  C10 UNL     1     -34.217  13.960  -3.595  1.00 20.00     0.000 C 
HETATM   12  C7  UNL     1     -34.462  13.184  -4.846  1.00 20.00     0.005 C 
ENDBRANCH   6  11
TORSDOF 3
ENDMDL
MODEL 2
REMARK VINA RESULT:      -4.7      2.482      3.969
REMARK  3 active torsions:
REMARK  status: ('A' for Active; 'I' for Inactive)
REMARK    1  A    between atoms: C5_5  and  C9_9 
REMARK    2  A    between atoms: C6_6  and  C10_10 
REMARK    3  A    between atoms: C9_9  and  C11_11 
ROOT
HETATM    1  C1  UNL     1     -34.956  13.958  -5.076  1.00 20.00     0.131 C 
HETATM    2  C2  UNL     1     -35.286  14.053  -6.550  1.00 20.00     0.079 C 
HETATM    3  C3  UNL     1     -34.327  15.002  -7.256  1.00 20.00     0.012 C 
HETATM    4  C4  UNL     1     -33.859  16.204  -5.091  1.00 20.00     0.016 C 
HETATM    5  C5  UNL     1     -34.818  15.281  -4.330  1.00 20.00     0.055 C 
HETATM    6  C6  UNL     1     -34.223  16.373  -6.574  1.00 20.00    -0.014 C 
HETATM    7  O12 UNL     1     -34.899  12.866  -4.512  1.00 20.00    -0.298 OA
ENDROOT
BRANCH   5   8
HETATM    8  C9  UNL     1     -34.335  15.069  -2.898  1.00 20.00     0.012 C 
BRANCH   8   9
HETATM    9  C11 UNL     1     -33.914  16.387  -2.256  1.00 20.00    -0.004 C 
HETATM   10  C8  UNL     1     -34.600  16.591  -0.915  1.00 20.00     0.005 C 
ENDBRANCH   8   9
ENDBRANCH   5   8
BRANCH   6  11
HETATM   11  C10 UNL     1     -35.493  17.206  -6.764  1.00 20.00     0.000 C 
HETATM   12  C7  UNL     1     -35.392  18.527  -6.077  1.00 20.00     0.005 C 
ENDBRANCH   6  11
TORSDOF 3
ENDMDL
MODEL 3
REMARK VINA RESULT:      -4.6      2.231      3.400
REMARK  3 active torsions:
REMARK  status: ('A' for Active; 'I' for Inactive)
REMARK    1  A    between atoms: C5_5  and  C9_9 
REMARK    2  A    between atoms: C6_6  and  C10_10 
REMARK    3  A    between atoms: C9_9  and  C11_11 
ROOT
HETATM    1  C1  UNL     1     -34.151  13.955  -4.259  1.00 20.00     0.131 C 
HETATM    2  C2  UNL     1     -34.842  13.399  -5.486  1.00 20.00     0.079 C 
HETATM    3  C3  UNL     1     -34.859  14.429  -6.607  1.00 20.00     0.012 C 
HETATM    4  C4  UNL     1     -34.652  16.308  -4.940  1.00 20.00     0.016 C 
HETATM    5  C5  UNL     1     -34.636  15.316  -3.771  1.00 20.00     0.055 C 
HETATM    6  C6  UNL     1     -35.416  15.791  -6.169  1.00 20.00    -0.014 C 
HETATM    7  O12 UNL     1     -33.313  13.290  -3.652  1.00 20.00    -0.298 OA
ENDROOT
BRANCH   5   8
HETATM    8  C9  UNL     1     -33.770  15.845  -2.631  1.00 20.00     0.012 C 
BRANCH   8   9
HETATM    9  C11 UNL     1     -34.627  16.349  -1.474  1.00 20.00    -0.004 C 
HETATM   10  C8  UNL     1     -33.925  17.463  -0.713  1.00 20.00     0.005 C 
ENDBRANCH   8   9
ENDBRANCH   5   8
BRANCH   6  11
HETATM   11  C10 UNL     1     -36.926  15.742  -5.930  1.00 20.00     0.000 C 
HETATM   12  C7  UNL     1     -37.660  15.272  -7.141  1.00 20.00     0.005 C 
ENDBRANCH   6  11
TORSDOF 3
ENDMDL
MODEL 4
REMARK VINA RESULT:      -4.6      1.917      2.743
REMARK  3 active torsions:
REMARK  status: ('A' for Active; 'I' for Inactive)
REMARK    1  A    between atoms: C5_5  and  C9_9 
REMARK    2  A    between atoms: C6_6  and  C10_10 
REMARK    3  A    between atoms: C9_9  and  C11_11 
ROOT
HETATM    1  C1  UNL     1     -33.686  14.643  -3.754  1.00 20.00     0.131 C 
HETATM    2  C2  UNL     1     -34.335  13.729  -4.772  1.00 20.00     0.079 C 
HETATM    3  C3  UNL     1     -35.293  14.509  -5.661  1.00 20.00     0.012 C 
HETATM    4  C4  UNL     1     -35.584  16.265  -3.877  1.00 20.00     0.016 C 
HETATM    5  C5  UNL     1     -34.630  15.518  -2.936  1.00 20.00     0.055 C 
HETATM    6  C6  UNL     1     -36.310  15.343  -4.868  1.00 20.00    -0.014 C 
HETATM    7  O12 UNL     1     -32.473  14.598  -3.549  1.00 20.00    -0.298 OA
ENDROOT
BRANCH   5   8
HETATM    8  C9  UNL     1     -33.862  16.503  -2.058  1.00 20.00     0.012 C 
BRANCH   8   9
HETATM    9  C11 UNL     1     -34.582  16.741  -0.735  1.00 20.00    -0.004 C 
HETATM   10  C8  UNL     1     -33.961  17.899   0.030  1.00 20.00     0.005 C 
ENDBRANCH   8   9
ENDBRANCH   5   8
BRANCH   6  11
HETATM   11  C10 UNL     1     -37.357  14.466  -4.178  1.00 20.00     0.000 C 
HETATM   12  C7  UNL     1     -38.427  15.287  -3.540  1.00 20.00     0.005 C 
ENDBRANCH   6  11
TORSDOF 3
ENDMDL
MODEL 5
REMARK VINA RESULT:      -4.6      1.554      4.523
REMARK  3 active torsions:
REMARK  status: ('A' for Active; 'I' for Inactive)
REMARK    1  A    between atoms: C5_5  and  C9_9 
REMARK    2  A    between atoms: C6_6  and  C10_10 
REMARK    3  A    between atoms: C9_9  and  C11_11 
ROOT
HETATM    1  C1  UNL     1     -35.895  16.998  -3.929  1.00 20.00     0.131 C 
HETATM    2  C2  UNL     1     -35.297  18.224  -3.273  1.00 20.00     0.079 C 
HETATM    3  C3  UNL     1     -33.939  17.901  -2.666  1.00 20.00     0.012 C 
HETATM    4  C4  UNL     1     -34.557  15.465  -2.477  1.00 20.00     0.016 C 
HETATM    5  C5  UNL     1     -35.942  15.733  -3.078  1.00 20.00     0.055 C 
HETATM    6  C6  UNL     1     -33.966  16.677  -1.740  1.00 20.00    -0.014 C 
HETATM    7  O12 UNL     1     -36.393  17.064  -5.052  1.00 20.00    -0.298 OA
ENDROOT
BRANCH   5   8
HETATM    8  C9  UNL     1     -36.417  14.530  -3.888  1.00 20.00     0.012 C 
BRANCH   8   9
HETATM    9  C11 UNL     1     -35.246  13.643  -4.299  1.00 20.00    -0.004 C 
HETATM   10  C8  UNL     1     -34.890  13.846  -5.763  1.00 20.00     0.005 C 
ENDBRANCH   8   9
ENDBRANCH   5   8
BRANCH   6  11
HETATM   11  C10 UNL     1     -34.699  16.966  -0.428  1.00 20.00     0.000 C 
HETATM   12  C7  UNL     1     -34.034  18.056   0.344  1.00 20.00     0.005 C 
ENDBRANCH   6  11
TORSDOF 3
ENDMDL
MODEL 6
REMARK VINA RESULT:      -4.4      0.994      1.406
REMARK  3 active torsions:
REMARK  status: ('A' for Active; 'I' for Inactive)
REMARK    1  A    between atoms: C5_5  and  C9_9 
REMARK    2  A    between atoms: C6_6  and  C10_10 
REMARK    3  A    between atoms: C9_9  and  C11_11 
ROOT
HETATM    1  C1  UNL     1     -33.689  17.806  -4.432  1.00 20.00     0.131 C 
HETATM    2  C2  UNL     1     -33.966  17.490  -5.886  1.00 20.00     0.079 C 
HETATM    3  C3  UNL     1     -35.287  16.748  -6.034  1.00 20.00     0.012 C 
HETATM    4  C4  UNL     1     -35.130  15.915  -3.660  1.00 20.00     0.016 C 
HETATM    5  C5  UNL     1     -33.793  16.638  -3.457  1.00 20.00     0.055 C 
HETATM    6  C6  UNL     1     -35.394  15.518  -5.121  1.00 20.00    -0.014 C 
HETATM    7  O12 UNL     1     -33.313  18.927  -4.091  1.00 20.00    -0.298 OA
ENDROOT
BRANCH   5   8
HETATM    8  C9  UNL     1     -33.648  17.101  -2.010  1.00 20.00     0.012 C 
BRANCH   8   9
HETATM    9  C11 UNL     1     -34.699  16.453  -1.115  1.00 20.00    -0.004 C 
HETATM   10  C8  UNL     1     -34.911  17.258   0.158  1.00 20.00     0.005 C 
ENDBRANCH   8   9
ENDBRANCH   5   8
BRANCH   6  11
HETATM   11  C10 UNL     1     -34.480  14.380  -5.582  1.00 20.00     0.000 C 
HETATM   12  C7  UNL     1     -34.579  13.196  -4.679  1.00 20.00     0.005 C 
ENDBRANCH   6  11
TORSDOF 3
ENDMDL
MODEL 7
REMARK VINA RESULT:      -4.4      1.016      4.465
REMARK  3 active torsions:
REMARK  status: ('A' for Active; 'I' for Inactive)
REMARK    1  A    between atoms: C5_5  and  C9_9 
REMARK    2  A    between atoms: C6_6  and  C10_10 
REMARK    3  A    between atoms: C9_9  and  C11_11 
ROOT
HETATM    1  C1  UNL     1     -33.942  17.954  -3.180  1.00 20.00     0.131 C 
HETATM    2  C2  UNL     1     -33.597  18.961  -2.104  1.00 20.00     0.079 C 
HETATM    3  C3  UNL     1     -33.234  18.256  -0.803  1.00 20.00     0.012 C 
HETATM    4  C4  UNL     1     -34.571  16.230  -1.482  1.00 20.00     0.016 C 
HETATM    5  C5  UNL     1     -34.973  16.894  -2.805  1.00 20.00     0.055 C 
HETATM    6  C6  UNL     1     -34.290  17.236  -0.355  1.00 20.00    -0.014 C 
HETATM    7  O12 UNL     1     -33.477  18.059  -4.314  1.00 20.00    -0.298 OA
ENDROOT
BRANCH   5   8
HETATM    8  C9  UNL     1     -35.127  15.847  -3.905  1.00 20.00     0.012 C 
BRANCH   8   9
HETATM    9  C11 UNL     1     -34.557  14.501  -3.471  1.00 20.00    -0.004 C 
HETATM   10  C8  UNL     1     -35.132  13.365  -4.301  1.00 20.00     0.005 C 
ENDBRANCH   8   9
ENDBRANCH   5   8
BRANCH   6  11
HETATM   11  C10 UNL     1     -35.568  17.914   0.143  1.00 20.00     0.000 C 
HETATM   12  C7  UNL     1     -35.699  17.817   1.627  1.00 20.00     0.005 C 
ENDBRANCH   6  11
TORSDOF 3
ENDMDL
MODEL 8
REMARK VINA RESULT:      -4.4      2.265      4.334
REMARK  3 active torsions:
REMARK  status: ('A' for Active; 'I' for Inactive)
REMARK    1  A    between atoms: C5_5  and  C9_9 
REMARK    2  A    between atoms: C6_6  and  C10_10 
REMARK    3  A    between atoms: C9_9  and  C11_11 
ROOT
HETATM    1  C1  UNL     1     -34.684  16.017  -5.545  1.00 20.00     0.131 C 
HETATM    2  C2  UNL     1     -33.282  16.315  -5.061  1.00 20.00     0.079 C 
HETATM    3  C3  UNL     1     -32.920  15.425  -3.879  1.00 20.00     0.012 C 
HETATM    4  C4  UNL     1     -35.357  15.122  -3.310  1.00 20.00     0.016 C 
HETATM    5  C5  UNL     1     -35.778  16.016  -4.483  1.00 20.00     0.055 C 
HETATM    6  C6  UNL     1     -33.965  15.461  -2.755  1.00 20.00    -0.014 C 
HETATM    7  O12 UNL     1     -34.921  15.878  -6.745  1.00 20.00    -0.298 OA
ENDROOT
BRANCH   5   8
HETATM    8  C9  UNL     1     -37.116  15.554  -5.055  1.00 20.00     0.012 C 
BRANCH   8   9
HETATM    9  C11 UNL     1     -37.907  14.749  -4.029  1.00 20.00    -0.004 C 
HETATM   10  C8  UNL     1     -39.380  14.681  -4.400  1.00 20.00     0.005 C 
ENDBRANCH   8   9
ENDBRANCH   5   8
BRANCH   6  11
HETATM   11  C10 UNL     1     -33.953  16.794  -2.003  1.00 20.00     0.000 C 
HETATM   12  C7  UNL     1     -34.665  16.694  -0.696  1.00 20.00     0.005 C 
ENDBRANCH   6  11
TORSDOF 3
ENDMDL
MODEL 9
REMARK VINA RESULT:      -4.3     12.257     14.435
REMARK  3 active torsions:
REMARK  status: ('A' for Active; 'I' for Inactive)
REMARK    1  A    between atoms: C5_5  and  C9_9 
REMARK    2  A    between atoms: C6_6  and  C10_10 
REMARK    3  A    between atoms: C9_9  and  C11_11 
ROOT
HETATM    1  C1  UNL     1     -42.770   6.243  -2.916  1.00 20.00     0.131 C 
HETATM    2  C2  UNL     1     -42.452   7.364  -1.949  1.00 20.00     0.079 C 
HETATM    3  C3  UNL     1     -41.124   7.109  -1.249  1.00 20.00     0.012 C 
HETATM    4  C4  UNL     1     -41.344   4.630  -1.646  1.00 20.00     0.016 C 
HETATM    5  C5  UNL     1     -42.689   4.827  -2.356  1.00 20.00     0.055 C 
HETATM    6  C6  UNL     1     -41.038   5.718  -0.605  1.00 20.00    -0.014 C 
HETATM    7  O12 UNL     1     -43.160   6.487  -4.057  1.00 20.00    -0.298 OA
ENDROOT
BRANCH   5   8
HETATM    8  C9  UNL     1     -42.876   3.779  -3.450  1.00 20.00     0.012 C 
BRANCH   8   9
HETATM    9  C11 UNL     1     -42.372   2.412  -2.998  1.00 20.00    -0.004 C 
HETATM   10  C8  UNL     1     -41.533   1.750  -4.079  1.00 20.00     0.005 C 
ENDBRANCH   8   9
ENDBRANCH   5   8
BRANCH   6  11
HETATM   11  C10 UNL     1     -41.933   5.601   0.630  1.00 20.00     0.000 C 
HETATM   12  C7  UNL     1     -42.542   4.243   0.741  1.00 20.00     0.005 C 
ENDBRANCH   6  11
TORSDOF 3
ENDMDL
