MODEL 1
REMARK VINA RESULT:      -4.8      0.000      0.000
REMARK  3 active torsions:
REMARK  status: ('A' for Active; 'I' for Inactive)
REMARK    1  A    between atoms: C5_5  and  C9_9 
REMARK    2  A    between atoms: C6_6  and  C10_10 
REMARK    3  A    between atoms: C9_9  and  C11_11 
ROOT
HETATM    1  C1  UNL     1     -34.109  17.924  -3.889  1.00 20.00     0.131 C 
HETATM    2  C2  UNL     1     -33.562  17.276  -5.141  1.00 20.00     0.079 C 
HETATM    3  C3  UNL     1     -33.801  15.773  -5.114  1.00 20.00     0.012 C 
HETATM    4  C4  UNL     1     -33.904  15.798  -2.596  1.00 20.00     0.016 C 
HETATM    5  C5  UNL     1     -33.658  17.311  -2.568  1.00 20.00     0.055 C 
HETATM    6  C6  UNL     1     -33.262  15.136  -3.825  1.00 20.00    -0.014 C 
HETATM    7  O12 UNL     1     -34.801  18.941  -3.952  1.00 20.00    -0.298 OA
ENDROOT
BRANCH   5   8
HETATM    8  C9  UNL     1     -34.365  17.952  -1.378  1.00 20.00     0.012 C 
BRANCH   8   9
HETATM    9  C11 UNL     1     -34.771  16.905  -0.345  1.00 20.00    -0.004 C 
HETATM   10  C8  UNL     1     -35.191  17.554   0.964  1.00 20.00     0.005 C 
ENDBRANCH   8   9
ENDBRANCH   5   8
BRANCH   6  11
HETATM   11  C10 UNL     1     -33.522  13.631  -3.821  1.00 20.00     0.000 C 
HETATM   12  C7  UNL     1     -34.644  13.263  -4.736  1.00 20.00     0.005 C 
ENDBRANCH   6  11
TORSDOF 3
ENDMDL
MODEL 2
REMARK VINA RESULT:      -4.8      2.316      3.920
REMARK  3 active torsions:
REMARK  status: ('A' for Active; 'I' for Inactive)
REMARK    1  A    between atoms: C5_5  and  C9_9 
REMARK    2  A    between atoms: C6_6  and  C10_10 
REMARK    3  A    between atoms: C9_9  and  C11_11 
ROOT
HETATM    1  C1  UNL     1     -34.904  13.883  -5.131  1.00 20.00     0.131 C 
HETATM    2  C2  UNL     1     -35.155  13.990  -6.619  1.00 20.00     0.079 C 
HETATM    3  C3  UNL     1     -34.494  15.239  -7.184  1.00 20.00     0.012 C 
HETATM    4  C4  UNL     1     -34.569  16.348  -4.923  1.00 20.00     0.016 C 
HETATM    5  C5  UNL     1     -35.244  15.119  -4.306  1.00 20.00     0.055 C 
HETATM    6  C6  UNL     1     -34.909  16.500  -6.414  1.00 20.00    -0.014 C 
HETATM    7  O12 UNL     1     -34.533  12.823  -4.626  1.00 20.00    -0.298 OA
ENDROOT
BRANCH   5   8
HETATM    8  C9  UNL     1     -34.834  14.953  -2.846  1.00 20.00     0.012 C 
BRANCH   8   9
HETATM    9  C11 UNL     1     -34.098  16.187  -2.333  1.00 20.00    -0.004 C 
HETATM   10  C8  UNL     1     -34.594  16.594  -0.956  1.00 20.00     0.005 C 
ENDBRANCH   8   9
ENDBRANCH   5   8
BRANCH   6  11
HETATM   11  C10 UNL     1     -34.225  17.735  -6.998  1.00 20.00     0.000 C 
HETATM   12  C7  UNL     1     -33.634  18.595  -5.929  1.00 20.00     0.005 C 
ENDBRANCH   6  11
TORSDOF 3
ENDMDL
MODEL 3
REMARK VINA RESULT:      -4.8      1.395      4.520
REMARK  3 active torsions:
REMARK  status: ('A' for Active; 'I' for Inactive)
REMARK    1  A    between atoms: C5_5  and  C9_9 
REMARK    2  A    between atoms: C6_6  and  C10_10 
REMARK    3  A    between atoms: C9_9  and  C11_11 
ROOT
HETATM    1  C1  UNL     1     -33.579  16.637  -3.971  1.00 20.00     0.131 C 
HETATM    2  C2  UNL     1     -33.845  18.075  -3.585  1.00 20.00     0.079 C 
HETATM    3  C3  UNL     1     -33.876  18.226  -2.071  1.00 20.00     0.012 C 
HETATM    4  C4  UNL     1     -34.491  15.797  -1.805  1.00 20.00     0.016 C 
HETATM    5  C5  UNL     1     -34.482  15.594  -3.323  1.00 20.00     0.055 C 
HETATM    6  C6  UNL     1     -34.857  17.239  -1.422  1.00 20.00    -0.014 C 
HETATM    7  O12 UNL     1     -32.740  16.357  -4.828  1.00 20.00    -0.298 OA
ENDROOT
BRANCH   5   8
HETATM    8  C9  UNL     1     -34.048  14.175  -3.677  1.00 20.00     0.012 C 
BRANCH   8   9
HETATM    9  C11 UNL     1     -35.115  13.457  -4.498  1.00 20.00    -0.004 C 
HETATM   10  C8  UNL     1     -35.120  13.941  -5.939  1.00 20.00     0.005 C 
ENDBRANCH   8   9
ENDBRANCH   5   8
BRANCH   6  11
HETATM   11  C10 UNL     1     -34.860  17.408   0.096  1.00 20.00     0.000 C 
HETATM   12  C7  UNL     1     -33.752  18.299   0.555  1.00 20.00     0.005 C 
ENDBRANCH   6  11
TORSDOF 3
ENDMDL
MODEL 4
REMARK VINA RESULT:      -4.8      2.481      3.193
REMARK  3 active torsions:
REMARK  status: ('A' for Active; 'I' for Inactive)
REMARK    1  A    between atoms: C5_5  and  C9_9 
REMARK    2  A    between atoms: C6_6  and  C10_10 
REMARK    3  A    between atoms: C9_9  and  C11_11 
ROOT
HETATM    1  C1  UNL     1     -33.702  14.683  -3.548  1.00 20.00     0.131 C 
HETATM    2  C2  UNL     1     -34.294  13.556  -4.366  1.00 20.00     0.079 C 
HETATM    3  C3  UNL     1     -35.555  14.019  -5.081  1.00 20.00     0.012 C 
HETATM    4  C4  UNL     1     -35.917  15.820  -3.356  1.00 20.00     0.016 C 
HETATM    5  C5  UNL     1     -34.660  15.388  -2.594  1.00 20.00     0.055 C 
HETATM    6  C6  UNL     1     -36.563  14.646  -4.107  1.00 20.00    -0.014 C 
HETATM    7  O12 UNL     1     -32.499  14.938  -3.598  1.00 20.00    -0.298 OA
ENDROOT
BRANCH   5   8
HETATM    8  C9  UNL     1     -34.000  16.586  -1.916  1.00 20.00     0.012 C 
BRANCH   8   9
HETATM    9  C11 UNL     1     -34.625  16.864  -0.552  1.00 20.00    -0.004 C 
HETATM   10  C8  UNL     1     -33.916  18.007   0.157  1.00 20.00     0.005 C 
ENDBRANCH   8   9
ENDBRANCH   5   8
BRANCH   6  11
HETATM   11  C10 UNL     1     -37.814  15.108  -4.852  1.00 20.00     0.000 C 
HETATM   12  C7  UNL     1     -39.062  14.704  -4.138  1.00 20.00     0.005 C 
ENDBRANCH   6  11
TORSDOF 3
ENDMDL
MODEL 5
REMARK VINA RESULT:      -4.7      2.705      5.290
REMARK  3 active torsions:
REMARK  status: ('A' for Active; 'I' for Inactive)
REMARK    1  A    between atoms: C5_5  and  C9_9 
REMARK    2  A    between atoms: C6_6  and  C10_10 
REMARK    3  A    between atoms: C9_9  and  C11_11 
ROOT
HETATM    1  C1  UNL     1     -34.320  13.647  -4.829  1.00 20.00     0.131 C 
HETATM    2  C2  UNL     1     -33.370  13.946  -3.691  1.00 20.00     0.079 C 
HETATM    3  C3  UNL     1     -33.611  15.346  -3.145  1.00 20.00     0.012 C 
HETATM    4  C4  UNL     1     -34.598  16.073  -5.347  1.00 20.00     0.016 C 
HETATM    5  C5  UNL     1     -34.369  14.682  -5.947  1.00 20.00     0.055 C 
HETATM    6  C6  UNL     1     -33.567  16.404  -4.258  1.00 20.00    -0.014 C 
HETATM    7  O12 UNL     1     -34.939  12.584  -4.874  1.00 20.00    -0.298 OA
ENDROOT
BRANCH   5   8
HETATM    8  C9  UNL     1     -35.447  14.352  -6.975  1.00 20.00     0.012 C 
BRANCH   8   9
HETATM    9  C11 UNL     1     -36.717  15.159  -6.724  1.00 20.00    -0.004 C 
HETATM   10  C8  UNL     1     -37.662  15.084  -7.912  1.00 20.00     0.005 C 
ENDBRANCH   8   9
ENDBRANCH   5   8
BRANCH   6  11
HETATM   11  C10 UNL     1     -33.820  17.797  -3.683  1.00 20.00     0.000 C 
HETATM   12  C7  UNL     1     -33.812  17.787  -2.189  1.00 20.00     0.005 C 
ENDBRANCH   6  11
TORSDOF 3
ENDMDL
MODEL 6
REMARK VINA RESULT:      -4.7      0.898      1.068
REMARK  3 active torsions:
REMARK  status: ('A' for Active; 'I' for Inactive)
REMARK    1  A    between atoms: C5_5  and  C9_9 
REMARK    2  A    between atoms: C6_6  and  C10_10 
REMARK    3  A    between atoms: C9_9  and  C11_11 
ROOT
HETATM    1  C1  UNL     1     -34.295  17.945  -3.284  1.00 20.00     0.131 C 
HETATM    2  C2  UNL     1     -33.547  17.544  -4.536  1.00 20.00     0.079 C 
HETATM    3  C3  UNL     1     -33.714  16.055  -4.806  1.00 20.00     0.012 C 
HETATM    4  C4  UNL     1     -34.171  15.627  -2.365  1.00 20.00     0.016 C 
HETATM    5  C5  UNL     1     -34.005  17.115  -2.039  1.00 20.00     0.055 C 
HETATM    6  C6  UNL     1     -33.331  15.210  -3.582  1.00 20.00    -0.014 C 
HETATM    7  O12 UNL     1     -35.020  18.940  -3.271  1.00 20.00    -0.298 OA
ENDROOT
BRANCH   5   8
HETATM    8  C9  UNL     1     -34.902  17.516  -0.872  1.00 20.00     0.012 C 
BRANCH   8   9
HETATM    9  C11 UNL     1     -34.079  18.005   0.317  1.00 20.00    -0.004 C 
HETATM   10  C8  UNL     1     -32.736  18.556  -0.131  1.00 20.00     0.005 C 
ENDBRANCH   8   9
ENDBRANCH   5   8
BRANCH   6  11
HETATM   11  C10 UNL     1     -33.515  13.723  -3.879  1.00 20.00     0.000 C 
HETATM   12  C7  UNL     1     -34.936  13.399  -4.210  1.00 20.00     0.005 C 
ENDBRANCH   6  11
TORSDOF 3
ENDMDL
MODEL 7
REMARK VINA RESULT:      -4.6      1.500      4.566
REMARK  3 active torsions:
REMARK  status: ('A' for Active; 'I' for Inactive)
REMARK    1  A    between atoms: C5_5  and  C9_9 
REMARK    2  A    between atoms: C6_6  and  C10_10 
REMARK    3  A    between atoms: C9_9  and  C11_11 
ROOT
HETATM    1  C1  UNL     1     -35.557  16.645  -3.439  1.00 20.00     0.131 C 
HETATM    2  C2  UNL     1     -36.566  17.325  -2.539  1.00 20.00     0.079 C 
HETATM    3  C3  UNL     1     -35.861  18.101  -1.436  1.00 20.00     0.012 C 
HETATM    4  C4  UNL     1     -33.838  16.610  -1.629  1.00 20.00     0.016 C 
HETATM    5  C5  UNL     1     -34.506  15.792  -2.738  1.00 20.00     0.055 C 
HETATM    6  C6  UNL     1     -34.869  17.217  -0.665  1.00 20.00    -0.014 C 
HETATM    7  O12 UNL     1     -35.652  16.717  -4.665  1.00 20.00    -0.298 OA
ENDROOT
BRANCH   5   8
HETATM    8  C9  UNL     1     -33.466  15.260  -3.719  1.00 20.00     0.012 C 
BRANCH   8   9
HETATM    9  C11 UNL     1     -33.503  13.736  -3.795  1.00 20.00    -0.004 C 
HETATM   10  C8  UNL     1     -34.602  13.256  -4.728  1.00 20.00     0.005 C 
ENDBRANCH   8   9
ENDBRANCH   5   8
BRANCH   6  11
HETATM   11  C10 UNL     1     -34.172  18.023   0.430  1.00 20.00     0.000 C 
HETATM   12  C7  UNL     1     -32.866  18.576  -0.040  1.00 20.00     0.005 C 
ENDBRANCH   6  11
TORSDOF 3
ENDMDL
MODEL 8
REMARK VINA RESULT:      -4.6      2.796      4.677
REMARK  3 active torsions:
REMARK  status: ('A' for Active; 'I' for Inactive)
REMARK    1  A    between atoms: C5_5  and  C9_9 
REMARK    2  A    between atoms: C6_6  and  C10_10 
REMARK    3  A    between atoms: C9_9  and  C11_11 
ROOT
HETATM    1  C1  UNL     1     -35.069  13.832  -4.184  1.00 20.00     0.131 C 
HETATM    2  C2  UNL     1     -33.595  14.171  -4.198  1.00 20.00     0.079 C 
HETATM    3  C3  UNL     1     -33.234  15.037  -2.999  1.00 20.00     0.012 C 
HETATM    4  C4  UNL     1     -35.610  15.859  -2.831  1.00 20.00     0.016 C 
HETATM    5  C5  UNL     1     -36.024  15.012  -4.039  1.00 20.00     0.055 C 
HETATM    6  C6  UNL     1     -34.134  16.278  -2.903  1.00 20.00    -0.014 C 
HETATM    7  O12 UNL     1     -35.455  12.678  -4.372  1.00 20.00    -0.298 OA
ENDROOT
BRANCH   5   8
HETATM    8  C9  UNL     1     -37.472  14.552  -3.906  1.00 20.00     0.012 C 
BRANCH   8   9
HETATM    9  C11 UNL     1     -38.349  15.161  -4.996  1.00 20.00    -0.004 C 
HETATM   10  C8  UNL     1     -37.509  15.844  -6.063  1.00 20.00     0.005 C 
ENDBRANCH   8   9
ENDBRANCH   5   8
BRANCH   6  11
HETATM   11  C10 UNL     1     -33.755  17.123  -1.689  1.00 20.00     0.000 C 
HETATM   12  C7  UNL     1     -34.642  16.839  -0.521  1.00 20.00     0.005 C 
ENDBRANCH   6  11
TORSDOF 3
ENDMDL
MODEL 9
REMARK VINA RESULT:      -4.5     12.049     14.292
REMARK  3 active torsions:
REMARK  status: ('A' for Active; 'I' for Inactive)
REMARK    1  A    between atoms: C5_5  and  C9_9 
REMARK    2  A    between atoms: C6_6  and  C10_10 
REMARK    3  A    between atoms: C9_9  and  C11_11 
ROOT
HETATM    1  C1  UNL     1     -41.468   5.034  -0.596  1.00 20.00     0.131 C 
HETATM    2  C2  UNL     1     -40.820   6.394  -0.455  1.00 20.00     0.079 C 
HETATM    3  C3  UNL     1     -41.650   7.457  -1.160  1.00 20.00     0.012 C 
HETATM    4  C4  UNL     1     -42.648   5.718  -2.687  1.00 20.00     0.016 C 
HETATM    5  C5  UNL     1     -41.828   4.611  -2.015  1.00 20.00     0.055 C 
HETATM    6  C6  UNL     1     -41.936   7.078  -2.621  1.00 20.00    -0.014 C 
HETATM    7  O12 UNL     1     -41.602   4.293   0.378  1.00 20.00    -0.298 OA
ENDROOT
BRANCH   5   8
HETATM    8  C9  UNL     1     -42.589   3.288  -2.034  1.00 20.00     0.012 C 
BRANCH   8   9
HETATM    9  C11 UNL     1     -42.592   2.670  -3.429  1.00 20.00    -0.004 C 
HETATM   10  C8  UNL     1     -41.264   1.997  -3.737  1.00 20.00     0.005 C 
ENDBRANCH   8   9
ENDBRANCH   5   8
BRANCH   6  11
HETATM   11  C10 UNL     1     -42.775   8.158  -3.301  1.00 20.00     0.000 C 
HETATM   12  C7  UNL     1     -42.215   8.533  -4.634  1.00 20.00     0.005 C 
ENDBRANCH   6  11
TORSDOF 3
ENDMDL
