MODEL 1
REMARK VINA RESULT:      -4.8      0.000      0.000
REMARK  2 active torsions:
REMARK  status: ('A' for Active; 'I' for Inactive)
REMARK    1  A    between atoms: C4_4  and  C10_10 
REMARK    2  A    between atoms: C8_8  and  C10_10 
ROOT
HETATM    1  C5  UNL     1     -34.113  13.309  -4.322  1.00 20.00     0.002 C 
HETATM    2  C6  UNL     1     -33.226  14.402  -3.723  1.00 20.00     0.006 C 
HETATM    3  C7  UNL     1     -35.560  13.793  -4.179  1.00 20.00     0.016 C 
HETATM    4  C8  UNL     1     -34.190  15.383  -3.052  1.00 20.00     0.004 C 
HETATM    5  C9  UNL     1     -35.463  15.285  -3.892  1.00 20.00     0.062 C 
HETATM    6 BR12 UNL     1     -35.366  16.265  -5.578  1.00 20.00    -0.091 Br
ENDROOT
BRANCH   4   7
HETATM    7  C10 UNL     1     -33.603  16.771  -2.846  1.00 20.00     0.045 C 
BRANCH   7   8
HETATM    8  C4  UNL     1     -33.887  17.299  -1.463  1.00 20.00    -0.051 A 
HETATM    9  C1  UNL     1     -34.844  16.728  -0.576  1.00 20.00     0.014 A 
HETATM   10  C2  UNL     1     -34.905  17.404   0.623  1.00 20.00     0.050 A 
HETATM   11  S11 UNL     1     -33.813  18.722   0.675  1.00 20.00    -0.113 SA
HETATM   12  C3  UNL     1     -33.254  18.390  -0.909  1.00 20.00     0.056 A 
ENDBRANCH   7   8
ENDBRANCH   4   7
TORSDOF 2
ENDMDL
MODEL 2
REMARK VINA RESULT:      -4.7      1.745      2.556
REMARK  2 active torsions:
REMARK  status: ('A' for Active; 'I' for Inactive)
REMARK    1  A    between atoms: C4_4  and  C10_10 
REMARK    2  A    between atoms: C8_8  and  C10_10 
ROOT
HETATM    1  C5  UNL     1     -34.661  16.983  -5.284  1.00 20.00     0.002 C 
HETATM    2  C6  UNL     1     -35.304  17.085  -3.899  1.00 20.00     0.006 C 
HETATM    3  C7  UNL     1     -33.280  16.351  -5.081  1.00 20.00     0.016 C 
HETATM    4  C8  UNL     1     -34.195  16.716  -2.911  1.00 20.00     0.004 C 
HETATM    5  C9  UNL     1     -33.317  15.736  -3.688  1.00 20.00     0.062 C 
HETATM    6 BR12 UNL     1     -34.060  13.933  -3.794  1.00 20.00    -0.091 Br
ENDROOT
BRANCH   4   7
HETATM    7  C10 UNL     1     -34.713  16.257  -1.557  1.00 20.00     0.045 C 
BRANCH   7   8
HETATM    8  C4  UNL     1     -34.351  17.225  -0.461  1.00 20.00    -0.051 A 
HETATM    9  C1  UNL     1     -33.200  18.063  -0.490  1.00 20.00     0.014 A 
HETATM   10  C2  UNL     1     -33.105  18.852   0.636  1.00 20.00     0.050 A 
HETATM   11  S11 UNL     1     -34.400  18.579   1.722  1.00 20.00    -0.113 SA
HETATM   12  C3  UNL     1     -35.092  17.404   0.686  1.00 20.00     0.056 A 
ENDBRANCH   7   8
ENDBRANCH   4   7
TORSDOF 2
ENDMDL
MODEL 3
REMARK VINA RESULT:      -4.7      0.831      1.292
REMARK  2 active torsions:
REMARK  status: ('A' for Active; 'I' for Inactive)
REMARK    1  A    between atoms: C4_4  and  C10_10 
REMARK    2  A    between atoms: C8_8  and  C10_10 
ROOT
HETATM    1  C5  UNL     1     -34.865  13.257  -4.434  1.00 20.00     0.002 C 
HETATM    2  C6  UNL     1     -33.807  13.949  -3.572  1.00 20.00     0.006 C 
HETATM    3  C7  UNL     1     -35.980  14.281  -4.665  1.00 20.00     0.016 C 
HETATM    4  C8  UNL     1     -34.439  15.275  -3.144  1.00 20.00     0.004 C 
HETATM    5  C9  UNL     1     -35.375  15.630  -4.298  1.00 20.00     0.062 C 
HETATM    6 BR12 UNL     1     -34.454  16.372  -5.853  1.00 20.00    -0.091 Br
ENDROOT
BRANCH   4   7
HETATM    7  C10 UNL     1     -33.424  16.329  -2.728  1.00 20.00     0.045 C 
BRANCH   7   8
HETATM    8  C4  UNL     1     -33.853  17.058  -1.480  1.00 20.00    -0.051 A 
HETATM    9  C1  UNL     1     -33.307  18.305  -1.062  1.00 20.00     0.014 A 
HETATM   10  C2  UNL     1     -33.875  18.751   0.112  1.00 20.00     0.050 A 
HETATM   11  S11 UNL     1     -35.060  17.666   0.705  1.00 20.00    -0.113 SA
HETATM   12  C3  UNL     1     -34.816  16.597  -0.610  1.00 20.00     0.056 A 
ENDBRANCH   7   8
ENDBRANCH   4   7
TORSDOF 2
ENDMDL
MODEL 4
REMARK VINA RESULT:      -4.5      3.145      5.118
REMARK  2 active torsions:
REMARK  status: ('A' for Active; 'I' for Inactive)
REMARK    1  A    between atoms: C4_4  and  C10_10 
REMARK    2  A    between atoms: C8_8  and  C10_10 
ROOT
HETATM    1  C5  UNL     1     -36.389  18.270  -0.979  1.00 20.00     0.002 C 
HETATM    2  C6  UNL     1     -35.722  17.638  -2.203  1.00 20.00     0.006 C 
HETATM    3  C7  UNL     1     -35.642  17.740   0.249  1.00 20.00     0.016 C 
HETATM    4  C8  UNL     1     -34.756  16.592  -1.642  1.00 20.00     0.004 C 
HETATM    5  C9  UNL     1     -34.338  17.161  -0.287  1.00 20.00     0.062 C 
HETATM    6 BR12 UNL     1     -33.002  18.580  -0.412  1.00 20.00    -0.091 Br
ENDROOT
BRANCH   4   7
HETATM    7  C10 UNL     1     -33.642  16.211  -2.606  1.00 20.00     0.045 C 
BRANCH   7   8
HETATM    8  C4  UNL     1     -34.131  15.286  -3.690  1.00 20.00    -0.051 A 
HETATM    9  C1  UNL     1     -34.462  13.917  -3.476  1.00 20.00     0.014 A 
HETATM   10  C2  UNL     1     -34.882  13.299  -4.634  1.00 20.00     0.050 A 
HETATM   11  S11 UNL     1     -34.875  14.369  -5.972  1.00 20.00    -0.113 SA
HETATM   12  C3  UNL     1     -34.311  15.663  -5.003  1.00 20.00     0.056 A 
ENDBRANCH   7   8
ENDBRANCH   4   7
TORSDOF 2
ENDMDL
MODEL 5
REMARK VINA RESULT:      -4.3     13.493     15.688
REMARK  2 active torsions:
REMARK  status: ('A' for Active; 'I' for Inactive)
REMARK    1  A    between atoms: C4_4  and  C10_10 
REMARK    2  A    between atoms: C8_8  and  C10_10 
ROOT
HETATM    1  C5  UNL     1     -42.237   5.202   0.650  1.00 20.00     0.002 C 
HETATM    2  C6  UNL     1     -42.887   4.304  -0.405  1.00 20.00     0.006 C 
HETATM    3  C7  UNL     1     -41.003   5.828  -0.008  1.00 20.00     0.016 C 
HETATM    4  C8  UNL     1     -41.893   4.261  -1.568  1.00 20.00     0.004 C 
HETATM    5  C9  UNL     1     -41.190   5.616  -1.505  1.00 20.00     0.062 C 
HETATM    6 BR12 UNL     1     -42.250   7.083  -2.239  1.00 20.00    -0.091 Br
ENDROOT
BRANCH   4   7
HETATM    7  C10 UNL     1     -42.523   3.870  -2.896  1.00 20.00     0.045 C 
BRANCH   7   8
HETATM    8  C4  UNL     1     -42.428   2.387  -3.145  1.00 20.00    -0.051 A 
HETATM    9  C1  UNL     1     -41.381   1.772  -3.889  1.00 20.00     0.014 A 
HETATM   10  C2  UNL     1     -41.534   0.405  -3.967  1.00 20.00     0.050 A 
HETATM   11  S11 UNL     1     -42.938  -0.131  -3.145  1.00 20.00    -0.113 SA
HETATM   12  C3  UNL     1     -43.343   1.467  -2.683  1.00 20.00     0.056 A 
ENDBRANCH   7   8
ENDBRANCH   4   7
TORSDOF 2
ENDMDL
MODEL 6
REMARK VINA RESULT:      -4.3      1.226      1.518
REMARK  2 active torsions:
REMARK  status: ('A' for Active; 'I' for Inactive)
REMARK    1  A    between atoms: C4_4  and  C10_10 
REMARK    2  A    between atoms: C8_8  and  C10_10 
ROOT
HETATM    1  C5  UNL     1     -36.063  14.761  -4.218  1.00 20.00     0.002 C 
HETATM    2  C6  UNL     1     -35.044  14.867  -3.081  1.00 20.00     0.006 C 
HETATM    3  C7  UNL     1     -36.311  16.188  -4.719  1.00 20.00     0.016 C 
HETATM    4  C8  UNL     1     -34.899  16.366  -2.808  1.00 20.00     0.004 C 
HETATM    5  C9  UNL     1     -35.160  17.018  -4.164  1.00 20.00     0.062 C 
HETATM    6 BR12 UNL     1     -33.641  16.917  -5.387  1.00 20.00    -0.091 Br
ENDROOT
BRANCH   4   7
HETATM    7  C10 UNL     1     -33.603  16.734  -2.101  1.00 20.00     0.045 C 
BRANCH   7   8
HETATM    8  C4  UNL     1     -33.858  17.420  -0.784  1.00 20.00    -0.051 A 
HETATM    9  C1  UNL     1     -34.961  17.120   0.067  1.00 20.00     0.014 A 
HETATM   10  C2  UNL     1     -34.959  17.892   1.208  1.00 20.00     0.050 A 
HETATM   11  S11 UNL     1     -33.632  18.975   1.249  1.00 20.00    -0.113 SA
HETATM   12  C3  UNL     1     -33.056  18.410  -0.262  1.00 20.00     0.056 A 
ENDBRANCH   7   8
ENDBRANCH   4   7
TORSDOF 2
ENDMDL
MODEL 7
REMARK VINA RESULT:      -4.1      3.766      5.445
REMARK  2 active torsions:
REMARK  status: ('A' for Active; 'I' for Inactive)
REMARK    1  A    between atoms: C4_4  and  C10_10 
REMARK    2  A    between atoms: C8_8  and  C10_10 
ROOT
HETATM    1  C5  UNL     1     -33.245  13.918  -3.738  1.00 20.00     0.002 C 
HETATM    2  C6  UNL     1     -34.747  13.629  -3.694  1.00 20.00     0.006 C 
HETATM    3  C7  UNL     1     -33.096  15.432  -3.920  1.00 20.00     0.016 C 
HETATM    4  C8  UNL     1     -35.423  14.948  -4.073  1.00 20.00     0.004 C 
HETATM    5  C9  UNL     1     -34.457  16.019  -3.570  1.00 20.00     0.062 C 
HETATM    6 BR12 UNL     1     -34.557  16.321  -1.644  1.00 20.00    -0.091 Br
ENDROOT
BRANCH   4   7
HETATM    7  C10 UNL     1     -36.868  15.047  -3.609  1.00 20.00     0.045 C 
BRANCH   7   8
HETATM    8  C4  UNL     1     -37.830  15.054  -4.769  1.00 20.00    -0.051 A 
HETATM    9  C1  UNL     1     -37.447  15.309  -6.117  1.00 20.00     0.014 A 
HETATM   10  C2  UNL     1     -38.520  15.256  -6.979  1.00 20.00     0.050 A 
HETATM   11  S11 UNL     1     -39.983  14.901  -6.162  1.00 20.00    -0.113 SA
HETATM   12  C3  UNL     1     -39.182  14.817  -4.651  1.00 20.00     0.056 A 
ENDBRANCH   7   8
ENDBRANCH   4   7
TORSDOF 2
ENDMDL
MODEL 8
REMARK VINA RESULT:      -4.1      3.646      5.480
REMARK  2 active torsions:
REMARK  status: ('A' for Active; 'I' for Inactive)
REMARK    1  A    between atoms: C4_4  and  C10_10 
REMARK    2  A    between atoms: C8_8  and  C10_10 
ROOT
HETATM    1  C5  UNL     1     -33.956  17.157  -1.701  1.00 20.00     0.002 C 
HETATM    2  C6  UNL     1     -33.670  17.725  -3.093  1.00 20.00     0.006 C 
HETATM    3  C7  UNL     1     -34.796  15.893  -1.908  1.00 20.00     0.016 C 
HETATM    4  C8  UNL     1     -34.536  16.902  -4.050  1.00 20.00     0.004 C 
HETATM    5  C9  UNL     1     -34.633  15.533  -3.379  1.00 20.00     0.062 C 
HETATM    6 BR12 UNL     1     -33.034  14.435  -3.605  1.00 20.00    -0.091 Br
ENDROOT
BRANCH   4   7
HETATM    7  C10 UNL     1     -34.050  16.933  -5.491  1.00 20.00     0.045 C 
BRANCH   7   8
HETATM    8  C4  UNL     1     -34.946  16.134  -6.401  1.00 20.00    -0.051 A 
HETATM    9  C1  UNL     1     -34.507  15.017  -7.168  1.00 20.00     0.014 A 
HETATM   10  C2  UNL     1     -35.527  14.468  -7.915  1.00 20.00     0.050 A 
HETATM   11  S11 UNL     1     -37.006  15.302  -7.691  1.00 20.00    -0.113 SA
HETATM   12  C3  UNL     1     -36.285  16.399  -6.592  1.00 20.00     0.056 A 
ENDBRANCH   7   8
ENDBRANCH   4   7
TORSDOF 2
ENDMDL
MODEL 9
REMARK VINA RESULT:      -3.9      3.734      5.205
REMARK  2 active torsions:
REMARK  status: ('A' for Active; 'I' for Inactive)
REMARK    1  A    between atoms: C4_4  and  C10_10 
REMARK    2  A    between atoms: C8_8  and  C10_10 
ROOT
HETATM    1  C5  UNL     1     -33.507  14.027  -3.596  1.00 20.00     0.002 C 
HETATM    2  C6  UNL     1     -34.503  15.146  -3.283  1.00 20.00     0.006 C 
HETATM    3  C7  UNL     1     -34.163  13.143  -4.662  1.00 20.00     0.016 C 
HETATM    4  C8  UNL     1     -35.792  14.755  -4.009  1.00 20.00     0.004 C 
HETATM    5  C9  UNL     1     -35.308  13.973  -5.229  1.00 20.00     0.062 C 
HETATM    6 BR12 UNL     1     -34.635  15.106  -6.670  1.00 20.00    -0.091 Br
ENDROOT
BRANCH   4   7
HETATM    7  C10 UNL     1     -36.727  15.928  -4.265  1.00 20.00     0.045 C 
BRANCH   7   8
HETATM    8  C4  UNL     1     -38.045  15.477  -4.839  1.00 20.00    -0.051 A 
HETATM    9  C1  UNL     1     -38.982  14.668  -4.136  1.00 20.00     0.014 A 
HETATM   10  C2  UNL     1     -40.104  14.400  -4.889  1.00 20.00     0.050 A 
HETATM   11  S11 UNL     1     -40.023  15.123  -6.440  1.00 20.00    -0.113 SA
HETATM   12  C3  UNL     1     -38.485  15.797  -6.105  1.00 20.00     0.056 A 
ENDBRANCH   7   8
ENDBRANCH   4   7
TORSDOF 2
ENDMDL
