MODEL 1
REMARK VINA RESULT:      -4.6      0.000      0.000
REMARK  5 active torsions:
REMARK  status: ('A' for Active; 'I' for Inactive)
REMARK    1  A    between atoms: C3_3  and  C4_4 
REMARK    2  A    between atoms: C3_3  and  C5_5 
REMARK    3  A    between atoms: C4_4  and  C6_6 
REMARK    4  A    between atoms: C5_5  and  C7_7 
REMARK    5  A    between atoms: C6_6  and  O8_8 
ROOT
HETATM    1  C3  UNL     1     -33.642   5.675   2.850  1.00 20.00     0.004 C 
ENDROOT
BRANCH   1   2
HETATM    2  C4  UNL     1     -32.237   6.224   3.108  1.00 20.00     0.026 C 
BRANCH   2   3
HETATM    3  C6  UNL     1     -32.142   7.739   2.995  1.00 20.00     0.167 C 
BRANCH   3   4
HETATM    4  O8  UNL     1     -31.830   8.077   1.650  1.00 20.00    -0.396 OA
HETATM    5  C2  UNL     1     -32.325   9.365   1.308  1.00 20.00     0.201 C 
ENDBRANCH   3   4
ENDBRANCH   2   3
ENDBRANCH   1   2
BRANCH   1   6
HETATM    6  C5  UNL     1     -34.612   5.932   4.010  1.00 20.00     0.020 C 
BRANCH   6   7
HETATM    7  C7  UNL     1     -34.095   5.411   5.358  1.00 20.00     0.078 C 
HETATM    8  C1  UNL     1     -34.035   6.529   6.392  1.00 20.00     0.026 C 
HETATM    9 CL9  UNL     1     -35.139   4.099   5.984  1.00 20.00    -0.125 Cl
ENDBRANCH   6   7
ENDBRANCH   1   6
TORSDOF 5
ENDMDL
MODEL 2
REMARK VINA RESULT:      -4.5      1.225      1.414
REMARK  5 active torsions:
REMARK  status: ('A' for Active; 'I' for Inactive)
REMARK    1  A    between atoms: C3_3  and  C4_4 
REMARK    2  A    between atoms: C3_3  and  C5_5 
REMARK    3  A    between atoms: C4_4  and  C6_6 
REMARK    4  A    between atoms: C5_5  and  C7_7 
REMARK    5  A    between atoms: C6_6  and  O8_8 
ROOT
HETATM    1  C3  UNL     1     -34.000   6.673   3.606  1.00 20.00     0.004 C 
ENDROOT
BRANCH   1   2
HETATM    2  C4  UNL     1     -32.579   6.435   3.089  1.00 20.00     0.026 C 
BRANCH   2   3
HETATM    3  C6  UNL     1     -31.763   7.711   2.937  1.00 20.00     0.167 C 
BRANCH   3   4
HETATM    4  O8  UNL     1     -31.860   8.156   1.590  1.00 20.00    -0.396 OA
HETATM    5  C2  UNL     1     -32.399   9.469   1.512  1.00 20.00     0.201 C 
ENDBRANCH   3   4
ENDBRANCH   2   3
ENDBRANCH   1   2
BRANCH   1   6
HETATM    6  C5  UNL     1     -34.760   5.373   3.902  1.00 20.00     0.020 C 
BRANCH   6   7
HETATM    7  C7  UNL     1     -35.064   5.176   5.393  1.00 20.00     0.078 C 
HETATM    8  C1  UNL     1     -34.706   3.766   5.845  1.00 20.00     0.026 C 
HETATM    9 CL9  UNL     1     -34.160   6.352   6.395  1.00 20.00    -0.125 Cl
ENDBRANCH   6   7
ENDBRANCH   1   6
TORSDOF 5
ENDMDL
MODEL 3
REMARK VINA RESULT:      -4.0      3.266      4.550
REMARK  5 active torsions:
REMARK  status: ('A' for Active; 'I' for Inactive)
REMARK    1  A    between atoms: C3_3  and  C4_4 
REMARK    2  A    between atoms: C3_3  and  C5_5 
REMARK    3  A    between atoms: C4_4  and  C6_6 
REMARK    4  A    between atoms: C5_5  and  C7_7 
REMARK    5  A    between atoms: C6_6  and  O8_8 
ROOT
HETATM    1  C3  UNL     1     -33.916   5.409   2.800  1.00 20.00     0.004 C 
ENDROOT
BRANCH   1   2
HETATM    2  C4  UNL     1     -34.663   5.895   4.043  1.00 20.00     0.026 C 
BRANCH   2   3
HETATM    3  C6  UNL     1     -34.991   4.785   5.032  1.00 20.00     0.167 C 
BRANCH   3   4
HETATM    4  O8  UNL     1     -34.880   5.302   6.351  1.00 20.00    -0.396 OA
HETATM    5  C2  UNL     1     -34.042   6.449   6.393  1.00 20.00     0.201 C 
ENDBRANCH   3   4
ENDBRANCH   2   3
ENDBRANCH   1   2
BRANCH   1   6
HETATM    6  C5  UNL     1     -32.475   5.930   2.719  1.00 20.00     0.020 C 
BRANCH   6   7
HETATM    7  C7  UNL     1     -32.364   7.441   2.966  1.00 20.00     0.078 C 
HETATM    8  C1  UNL     1     -31.330   7.747   4.043  1.00 20.00     0.026 C 
HETATM    9 CL9  UNL     1     -31.910   8.307   1.467  1.00 20.00    -0.125 Cl
ENDBRANCH   6   7
ENDBRANCH   1   6
TORSDOF 5
ENDMDL
MODEL 4
REMARK VINA RESULT:      -4.0      3.449      5.081
REMARK  5 active torsions:
REMARK  status: ('A' for Active; 'I' for Inactive)
REMARK    1  A    between atoms: C3_3  and  C4_4 
REMARK    2  A    between atoms: C3_3  and  C5_5 
REMARK    3  A    between atoms: C4_4  and  C6_6 
REMARK    4  A    between atoms: C5_5  and  C7_7 
REMARK    5  A    between atoms: C6_6  and  O8_8 
ROOT
HETATM    1  C3  UNL     1     -32.367   6.369   3.247  1.00 20.00     0.004 C 
ENDROOT
BRANCH   1   2
HETATM    2  C4  UNL     1     -33.699   6.385   3.999  1.00 20.00     0.026 C 
BRANCH   2   3
HETATM    3  C6  UNL     1     -34.711   5.377   3.471  1.00 20.00     0.167 C 
BRANCH   3   4
HETATM    4  O8  UNL     1     -35.565   4.987   4.539  1.00 20.00    -0.396 OA
HETATM    5  C2  UNL     1     -34.831   4.410   5.610  1.00 20.00     0.201 C 
ENDBRANCH   3   4
ENDBRANCH   2   3
ENDBRANCH   1   2
BRANCH   1   6
HETATM    6  C5  UNL     1     -31.797   7.771   2.998  1.00 20.00     0.020 C 
BRANCH   6   7
HETATM    7  C7  UNL     1     -32.422   8.472   1.784  1.00 20.00     0.078 C 
HETATM    8  C1  UNL     1     -32.718   9.935   2.088  1.00 20.00     0.026 C 
HETATM    9 CL9  UNL     1     -31.339   8.384   0.362  1.00 20.00    -0.125 Cl
ENDBRANCH   6   7
ENDBRANCH   1   6
TORSDOF 5
ENDMDL
MODEL 5
REMARK VINA RESULT:      -3.7     11.259     11.590
REMARK  5 active torsions:
REMARK  status: ('A' for Active; 'I' for Inactive)
REMARK    1  A    between atoms: C3_3  and  C4_4 
REMARK    2  A    between atoms: C3_3  and  C5_5 
REMARK    3  A    between atoms: C4_4  and  C6_6 
REMARK    4  A    between atoms: C5_5  and  C7_7 
REMARK    5  A    between atoms: C6_6  and  O8_8 
ROOT
HETATM    1  C3  UNL     1     -33.915  16.504  -2.131  1.00 20.00     0.004 C 
ENDROOT
BRANCH   1   2
HETATM    2  C4  UNL     1     -34.330  15.268  -2.930  1.00 20.00     0.026 C 
BRANCH   2   3
HETATM    3  C6  UNL     1     -33.184  14.621  -3.695  1.00 20.00     0.167 C 
BRANCH   3   4
HETATM    4  O8  UNL     1     -33.536  13.276  -3.993  1.00 20.00    -0.396 OA
HETATM    5  C2  UNL     1     -34.694  13.210  -4.814  1.00 20.00     0.201 C 
ENDBRANCH   3   4
ENDBRANCH   2   3
ENDBRANCH   1   2
BRANCH   1   6
HETATM    6  C5  UNL     1     -34.641  16.626  -0.785  1.00 20.00     0.020 C 
BRANCH   6   7
HETATM    7  C7  UNL     1     -34.418  17.980  -0.098  1.00 20.00     0.078 C 
HETATM    8  C1  UNL     1     -34.866  17.937   1.358  1.00 20.00     0.026 C 
HETATM    9 CL9  UNL     1     -32.694  18.456  -0.158  1.00 20.00    -0.125 Cl
ENDBRANCH   6   7
ENDBRANCH   1   6
TORSDOF 5
ENDMDL
MODEL 6
REMARK VINA RESULT:      -3.6     11.057     11.799
REMARK  5 active torsions:
REMARK  status: ('A' for Active; 'I' for Inactive)
REMARK    1  A    between atoms: C3_3  and  C4_4 
REMARK    2  A    between atoms: C3_3  and  C5_5 
REMARK    3  A    between atoms: C4_4  and  C6_6 
REMARK    4  A    between atoms: C5_5  and  C7_7 
REMARK    5  A    between atoms: C6_6  and  O8_8 
ROOT
HETATM    1  C3  UNL     1     -33.124  14.781  -3.707  1.00 20.00     0.004 C 
ENDROOT
BRANCH   1   2
HETATM    2  C4  UNL     1     -34.192  13.689  -3.611  1.00 20.00     0.026 C 
BRANCH   2   3
HETATM    3  C6  UNL     1     -34.821  13.329  -4.950  1.00 20.00     0.167 C 
BRANCH   3   4
HETATM    4  O8  UNL     1     -34.424  14.296  -5.914  1.00 20.00    -0.396 OA
HETATM    5  C2  UNL     1     -35.384  14.418  -6.955  1.00 20.00     0.201 C 
ENDBRANCH   3   4
ENDBRANCH   2   3
ENDBRANCH   1   2
BRANCH   1   6
HETATM    6  C5  UNL     1     -33.539  16.093  -3.028  1.00 20.00     0.020 C 
BRANCH   6   7
HETATM    7  C7  UNL     1     -34.789  15.950  -2.149  1.00 20.00     0.078 C 
HETATM    8  C1  UNL     1     -34.602  16.651  -0.810  1.00 20.00     0.026 C 
HETATM    9 CL9  UNL     1     -36.230  16.631  -2.963  1.00 20.00    -0.125 Cl
ENDBRANCH   6   7
ENDBRANCH   1   6
TORSDOF 5
ENDMDL
MODEL 7
REMARK VINA RESULT:      -3.5     11.204     12.128
REMARK  5 active torsions:
REMARK  status: ('A' for Active; 'I' for Inactive)
REMARK    1  A    between atoms: C3_3  and  C4_4 
REMARK    2  A    between atoms: C3_3  and  C5_5 
REMARK    3  A    between atoms: C4_4  and  C6_6 
REMARK    4  A    between atoms: C5_5  and  C7_7 
REMARK    5  A    between atoms: C6_6  and  O8_8 
ROOT
HETATM    1  C3  UNL     1     -34.297  13.893  -4.858  1.00 20.00     0.004 C 
ENDROOT
BRANCH   1   2
HETATM    2  C4  UNL     1     -35.648  13.500  -4.255  1.00 20.00     0.026 C 
BRANCH   2   3
HETATM    3  C6  UNL     1     -36.675  14.623  -4.275  1.00 20.00     0.167 C 
BRANCH   3   4
HETATM    4  O8  UNL     1     -37.889  14.141  -3.714  1.00 20.00    -0.396 OA
HETATM    5  C2  UNL     1     -39.016  14.830  -4.238  1.00 20.00     0.201 C 
ENDBRANCH   3   4
ENDBRANCH   2   3
ENDBRANCH   1   2
BRANCH   1   6
HETATM    6  C5  UNL     1     -33.221  14.165  -3.799  1.00 20.00     0.020 C 
BRANCH   6   7
HETATM    7  C7  UNL     1     -33.064  15.654  -3.466  1.00 20.00     0.078 C 
HETATM    8  C1  UNL     1     -33.357  16.524  -4.682  1.00 20.00     0.026 C 
HETATM    9 CL9  UNL     1     -34.158  16.135  -2.134  1.00 20.00    -0.125 Cl
ENDBRANCH   6   7
ENDBRANCH   1   6
TORSDOF 5
ENDMDL
MODEL 8
REMARK VINA RESULT:      -3.5     11.457     12.106
REMARK  5 active torsions:
REMARK  status: ('A' for Active; 'I' for Inactive)
REMARK    1  A    between atoms: C3_3  and  C4_4 
REMARK    2  A    between atoms: C3_3  and  C5_5 
REMARK    3  A    between atoms: C4_4  and  C6_6 
REMARK    4  A    between atoms: C5_5  and  C7_7 
REMARK    5  A    between atoms: C6_6  and  O8_8 
ROOT
HETATM    1  C3  UNL     1     -34.035  16.520  -1.853  1.00 20.00     0.004 C 
ENDROOT
BRANCH   1   2
HETATM    2  C4  UNL     1     -34.696  16.857  -0.515  1.00 20.00     0.026 C 
BRANCH   2   3
HETATM    3  C6  UNL     1     -34.017  17.996   0.233  1.00 20.00     0.167 C 
BRANCH   3   4
HETATM    4  O8  UNL     1     -32.863  18.395  -0.496  1.00 20.00    -0.396 OA
HETATM    5  C2  UNL     1     -31.934  19.080   0.334  1.00 20.00     0.201 C 
ENDBRANCH   3   4
ENDBRANCH   2   3
ENDBRANCH   1   2
BRANCH   1   6
HETATM    6  C5  UNL     1     -34.872  15.568  -2.717  1.00 20.00     0.020 C 
BRANCH   6   7
HETATM    7  C7  UNL     1     -34.158  15.134  -4.004  1.00 20.00     0.078 C 
HETATM    8  C1  UNL     1     -33.216  16.223  -4.503  1.00 20.00     0.026 C 
HETATM    9 CL9  UNL     1     -33.220  13.632  -3.745  1.00 20.00    -0.125 Cl
ENDBRANCH   6   7
ENDBRANCH   1   6
TORSDOF 5
ENDMDL
MODEL 9
REMARK VINA RESULT:      -3.4     10.973     12.097
REMARK  5 active torsions:
REMARK  status: ('A' for Active; 'I' for Inactive)
REMARK    1  A    between atoms: C3_3  and  C4_4 
REMARK    2  A    between atoms: C3_3  and  C5_5 
REMARK    3  A    between atoms: C4_4  and  C6_6 
REMARK    4  A    between atoms: C5_5  and  C7_7 
REMARK    5  A    between atoms: C6_6  and  O8_8 
ROOT
HETATM    1  C3  UNL     1     -34.155  13.766  -3.547  1.00 20.00     0.004 C 
ENDROOT
BRANCH   1   2
HETATM    2  C4  UNL     1     -34.489  13.247  -4.947  1.00 20.00     0.026 C 
BRANCH   2   3
HETATM    3  C6  UNL     1     -35.259  14.245  -5.801  1.00 20.00     0.167 C 
BRANCH   3   4
HETATM    4  O8  UNL     1     -34.410  14.699  -6.847  1.00 20.00    -0.396 OA
HETATM    5  C2  UNL     1     -34.239  16.109  -6.804  1.00 20.00     0.201 C 
ENDBRANCH   3   4
ENDBRANCH   2   3
ENDBRANCH   1   2
BRANCH   1   6
HETATM    6  C5  UNL     1     -34.871  15.078  -3.203  1.00 20.00     0.020 C 
BRANCH   6   7
HETATM    7  C7  UNL     1     -33.967  16.091  -2.486  1.00 20.00     0.078 C 
HETATM    8  C1  UNL     1     -33.824  17.371  -3.300  1.00 20.00     0.026 C 
HETATM    9 CL9  UNL     1     -34.616  16.502  -0.870  1.00 20.00    -0.125 Cl
ENDBRANCH   6   7
ENDBRANCH   1   6
TORSDOF 5
ENDMDL
