MODEL 1
REMARK VINA RESULT:      -5.7      0.000      0.000
REMARK  1 active torsions:
REMARK  status: ('A' for Active; 'I' for Inactive)
REMARK    1  A    between atoms: C6_6  and  O8_8 
ROOT
HETATM    1  C1  UNL     1     -33.783   6.419   6.148  1.00 20.00    -0.023 C 
HETATM    2  C2  UNL     1     -34.725   5.478   6.346  1.00 20.00     0.001 C 
HETATM    3  C3  UNL     1     -32.589   6.690   3.716  1.00 20.00     0.009 C 
HETATM    4  C4  UNL     1     -33.565   5.845   2.797  1.00 20.00     0.009 C 
HETATM    5  C5  UNL     1     -33.746   6.652   4.704  1.00 20.00     0.015 C 
HETATM    6  C6  UNL     1     -35.215   4.904   5.023  1.00 20.00     0.145 C 
HETATM    7  C7  UNL     1     -34.004   5.194   4.141  1.00 20.00     0.026 C 
ENDROOT
BRANCH   6   8
HETATM    8  O8  UNL     1     -35.406   3.505   5.138  1.00 20.00    -0.391 OA
HETATM    9  H18 UNL     1     -34.871   3.205   5.892  1.00 20.00     0.210 HD
ENDBRANCH   6   8
TORSDOF 1
ENDMDL
MODEL 2
REMARK VINA RESULT:      -5.1      1.905      3.334
REMARK  1 active torsions:
REMARK  status: ('A' for Active; 'I' for Inactive)
REMARK    1  A    between atoms: C6_6  and  O8_8 
ROOT
HETATM    1  C1  UNL     1     -34.875   4.785   3.751  1.00 20.00    -0.023 C 
HETATM    2  C2  UNL     1     -34.072   5.457   2.906  1.00 20.00     0.001 C 
HETATM    3  C3  UNL     1     -34.760   5.252   6.432  1.00 20.00     0.009 C 
HETATM    4  C4  UNL     1     -33.942   6.608   6.474  1.00 20.00     0.009 C 
HETATM    5  C5  UNL     1     -34.954   5.601   4.963  1.00 20.00     0.015 C 
HETATM    6  C6  UNL     1     -33.425   6.652   3.594  1.00 20.00     0.145 C 
HETATM    7  C7  UNL     1     -33.485   6.188   5.047  1.00 20.00     0.026 C 
ENDROOT
BRANCH   6   8
HETATM    8  O8  UNL     1     -32.076   6.782   3.184  1.00 20.00    -0.391 OA
HETATM    9  H18 UNL     1     -31.640   5.931   3.361  1.00 20.00     0.210 HD
ENDBRANCH   6   8
TORSDOF 1
ENDMDL
MODEL 3
REMARK VINA RESULT:      -5.1      1.628      2.297
REMARK  1 active torsions:
REMARK  status: ('A' for Active; 'I' for Inactive)
REMARK    1  A    between atoms: C6_6  and  O8_8 
ROOT
HETATM    1  C1  UNL     1     -35.230   4.596   5.163  1.00 20.00    -0.023 C 
HETATM    2  C2  UNL     1     -34.910   5.189   6.328  1.00 20.00     0.001 C 
HETATM    3  C3  UNL     1     -34.200   5.514   2.815  1.00 20.00     0.009 C 
HETATM    4  C4  UNL     1     -33.025   6.442   3.336  1.00 20.00     0.009 C 
HETATM    5  C5  UNL     1     -34.162   4.947   4.226  1.00 20.00     0.015 C 
HETATM    6  C6  UNL     1     -33.716   6.121   6.160  1.00 20.00     0.145 C 
HETATM    7  C7  UNL     1     -33.825   6.430   4.670  1.00 20.00     0.026 C 
ENDROOT
BRANCH   6   8
HETATM    8  O8  UNL     1     -33.909   7.304   6.915  1.00 20.00    -0.391 OA
HETATM    9  H18 UNL     1     -33.411   8.010   6.471  1.00 20.00     0.210 HD
ENDBRANCH   6   8
TORSDOF 1
ENDMDL
MODEL 4
REMARK VINA RESULT:      -4.7      1.883      3.255
REMARK  1 active torsions:
REMARK  status: ('A' for Active; 'I' for Inactive)
REMARK    1  A    between atoms: C6_6  and  O8_8 
ROOT
HETATM    1  C1  UNL     1     -33.764   5.849   3.806  1.00 20.00    -0.023 C 
HETATM    2  C2  UNL     1     -33.338   6.905   4.522  1.00 20.00     0.001 C 
HETATM    3  C3  UNL     1     -34.971   3.740   5.037  1.00 20.00     0.009 C 
HETATM    4  C4  UNL     1     -35.299   4.360   6.458  1.00 20.00     0.009 C 
HETATM    5  C5  UNL     1     -34.784   5.194   4.625  1.00 20.00     0.015 C 
HETATM    6  C6  UNL     1     -33.916   6.884   5.931  1.00 20.00     0.145 C 
HETATM    7  C7  UNL     1     -34.196   5.392   6.082  1.00 20.00     0.026 C 
ENDROOT
BRANCH   6   8
HETATM    8  O8  UNL     1     -32.936   7.290   6.869  1.00 20.00    -0.391 OA
HETATM    9  H18 UNL     1     -33.244   7.004   7.745  1.00 20.00     0.210 HD
ENDBRANCH   6   8
TORSDOF 1
ENDMDL
MODEL 5
REMARK VINA RESULT:      -4.4      1.766      2.870
REMARK  1 active torsions:
REMARK  status: ('A' for Active; 'I' for Inactive)
REMARK    1  A    between atoms: C6_6  and  O8_8 
ROOT
HETATM    1  C1  UNL     1     -33.929   6.638   6.484  1.00 20.00    -0.023 C 
HETATM    2  C2  UNL     1     -33.279   7.131   5.414  1.00 20.00     0.001 C 
HETATM    3  C3  UNL     1     -35.412   4.363   6.276  1.00 20.00     0.009 C 
HETATM    4  C4  UNL     1     -34.901   3.789   4.890  1.00 20.00     0.009 C 
HETATM    5  C5  UNL     1     -34.157   5.221   6.199  1.00 20.00     0.015 C 
HETATM    6  C6  UNL     1     -33.221   6.107   4.287  1.00 20.00     0.145 C 
HETATM    7  C7  UNL     1     -34.434   5.252   4.640  1.00 20.00     0.026 C 
ENDROOT
BRANCH   6   8
HETATM    8  O8  UNL     1     -33.423   6.743   3.038  1.00 20.00    -0.391 OA
HETATM    9  H18 UNL     1     -34.260   7.233   3.100  1.00 20.00     0.210 HD
ENDBRANCH   6   8
TORSDOF 1
ENDMDL
MODEL 6
REMARK VINA RESULT:      -4.2     12.313     13.391
REMARK  1 active torsions:
REMARK  status: ('A' for Active; 'I' for Inactive)
REMARK    1  A    between atoms: C6_6  and  O8_8 
ROOT
HETATM    1  C1  UNL     1     -33.541  15.412  -4.302  1.00 20.00    -0.023 C 
HETATM    2  C2  UNL     1     -34.133  14.479  -3.533  1.00 20.00     0.001 C 
HETATM    3  C3  UNL     1     -34.129  15.595  -6.955  1.00 20.00     0.009 C 
HETATM    4  C4  UNL     1     -35.446  14.718  -7.039  1.00 20.00     0.009 C 
HETATM    5  C5  UNL     1     -34.416  15.593  -5.460  1.00 20.00     0.015 C 
HETATM    6  C6  UNL     1     -35.328  13.858  -4.245  1.00 20.00     0.145 C 
HETATM    7  C7  UNL     1     -34.937  14.116  -5.697  1.00 20.00     0.026 C 
ENDROOT
BRANCH   6   8
HETATM    8  O8  UNL     1     -35.375  12.464  -3.997  1.00 20.00    -0.391 OA
HETATM    9  H18 UNL     1     -35.660  12.038  -4.823  1.00 20.00     0.210 HD
ENDBRANCH   6   8
TORSDOF 1
ENDMDL
MODEL 7
REMARK VINA RESULT:      -4.2      1.547      2.442
REMARK  1 active torsions:
REMARK  status: ('A' for Active; 'I' for Inactive)
REMARK    1  A    between atoms: C6_6  and  O8_8 
ROOT
HETATM    1  C1  UNL     1     -34.958   4.289   5.910  1.00 20.00    -0.023 C 
HETATM    2  C2  UNL     1     -35.221   4.131   4.600  1.00 20.00     0.001 C 
HETATM    3  C3  UNL     1     -33.488   6.410   6.781  1.00 20.00     0.009 C 
HETATM    4  C4  UNL     1     -33.514   7.348   5.504  1.00 20.00     0.009 C 
HETATM    5  C5  UNL     1     -34.648   5.707   6.091  1.00 20.00     0.015 C 
HETATM    6  C6  UNL     1     -34.905   5.401   3.820  1.00 20.00     0.145 C 
HETATM    7  C7  UNL     1     -33.874   6.036   4.748  1.00 20.00     0.026 C 
ENDROOT
BRANCH   6   8
HETATM    8  O8  UNL     1     -34.304   5.076   2.579  1.00 20.00    -0.391 OA
HETATM    9  H18 UNL     1     -33.490   5.603   2.510  1.00 20.00     0.210 HD
ENDBRANCH   6   8
TORSDOF 1
ENDMDL
MODEL 8
REMARK VINA RESULT:      -4.2     12.129     12.615
REMARK  1 active torsions:
REMARK  status: ('A' for Active; 'I' for Inactive)
REMARK    1  A    between atoms: C6_6  and  O8_8 
ROOT
HETATM    1  C1  UNL     1     -36.284  15.744  -3.211  1.00 20.00    -0.023 C 
HETATM    2  C2  UNL     1     -36.585  14.583  -3.820  1.00 20.00     0.001 C 
HETATM    3  C3  UNL     1     -33.701  16.358  -2.604  1.00 20.00     0.009 C 
HETATM    4  C4  UNL     1     -32.918  15.294  -3.480  1.00 20.00     0.009 C 
HETATM    5  C5  UNL     1     -34.873  15.998  -3.505  1.00 20.00     0.015 C 
HETATM    6  C6  UNL     1     -35.336  13.916  -4.381  1.00 20.00     0.145 C 
HETATM    7  C7  UNL     1     -34.274  14.532  -3.475  1.00 20.00     0.026 C 
ENDROOT
BRANCH   6   8
HETATM    8  O8  UNL     1     -35.394  12.515  -4.176  1.00 20.00    -0.391 OA
HETATM    9  H18 UNL     1     -34.920  12.329  -3.348  1.00 20.00     0.210 HD
ENDBRANCH   6   8
TORSDOF 1
ENDMDL
MODEL 9
REMARK VINA RESULT:      -4.1     12.329     13.352
REMARK  1 active torsions:
REMARK  status: ('A' for Active; 'I' for Inactive)
REMARK    1  A    between atoms: C6_6  and  O8_8 
ROOT
HETATM    1  C1  UNL     1     -34.762  15.324  -6.196  1.00 20.00    -0.023 C 
HETATM    2  C2  UNL     1     -35.051  14.018  -6.051  1.00 20.00     0.001 C 
HETATM    3  C3  UNL     1     -33.788  16.768  -4.102  1.00 20.00     0.009 C 
HETATM    4  C4  UNL     1     -33.366  15.613  -3.102  1.00 20.00     0.009 C 
HETATM    5  C5  UNL     1     -33.812  15.647  -5.132  1.00 20.00     0.015 C 
HETATM    6  C6  UNL     1     -34.455  13.464  -4.763  1.00 20.00     0.145 C 
HETATM    7  C7  UNL     1     -34.348  14.747  -3.944  1.00 20.00     0.026 C 
ENDROOT
BRANCH   6   8
HETATM    8  O8  UNL     1     -35.366  12.571  -4.146  1.00 20.00    -0.391 OA
HETATM    9  H18 UNL     1     -34.855  12.027  -3.524  1.00 20.00     0.210 HD
ENDBRANCH   6   8
TORSDOF 1
ENDMDL
