MODEL 1
REMARK VINA RESULT:      -5.1      0.000      0.000
REMARK  1 active torsions:
REMARK  status: ('A' for Active; 'I' for Inactive)
REMARK    1  A    between atoms: C8_8  and  O10_10 
ROOT
HETATM    1  C1  UNL     1     -34.271  15.233  -3.254  1.00 20.00    -0.023 C 
HETATM    2  C2  UNL     1     -33.689  14.140  -3.775  1.00 20.00     0.001 C 
HETATM    3  C3  UNL     1     -34.159  15.321  -6.433  1.00 20.00     0.003 C 
HETATM    4  C4  UNL     1     -35.042  14.160  -5.903  1.00 20.00     0.036 C 
HETATM    5  C5  UNL     1     -34.463  16.707  -5.819  1.00 20.00     0.005 C 
HETATM    6  C6  UNL     1     -34.238  17.825  -3.499  1.00 20.00     0.014 A 
HETATM    7  C7  UNL     1     -33.558  16.510  -3.279  1.00 20.00     0.012 A 
HETATM    8  C8  UNL     1     -34.431  13.300  -4.769  1.00 20.00     0.140 C 
HETATM    9  C9  UNL     1     -33.570  17.149  -4.671  1.00 20.00    -0.006 A 
ENDROOT
BRANCH   8  10
HETATM   10  O10 UNL     1     -35.431  12.514  -4.135  1.00 20.00    -0.392 OA
HETATM   11  H24 UNL     1     -35.204  11.585  -4.300  1.00 20.00     0.210 HD
ENDBRANCH   8  10
TORSDOF 1
ENDMDL
MODEL 2
REMARK VINA RESULT:      -4.7     12.004     13.342
REMARK  1 active torsions:
REMARK  status: ('A' for Active; 'I' for Inactive)
REMARK    1  A    between atoms: C8_8  and  O10_10 
ROOT
HETATM    1  C1  UNL     1     -33.759   5.400   3.366  1.00 20.00    -0.023 C 
HETATM    2  C2  UNL     1     -35.033   5.400   3.794  1.00 20.00     0.001 C 
HETATM    3  C3  UNL     1     -34.068   6.718   6.246  1.00 20.00     0.003 C 
HETATM    4  C4  UNL     1     -34.446   5.212   6.239  1.00 20.00     0.036 C 
HETATM    5  C5  UNL     1     -32.708   7.053   5.591  1.00 20.00     0.005 C 
HETATM    6  C6  UNL     1     -31.702   6.988   3.211  1.00 20.00     0.014 A 
HETATM    7  C7  UNL     1     -33.138   6.658   2.951  1.00 20.00     0.012 A 
HETATM    8  C8  UNL     1     -35.383   4.749   5.096  1.00 20.00     0.140 C 
HETATM    9  C9  UNL     1     -32.751   7.531   4.150  1.00 20.00    -0.006 A 
ENDROOT
BRANCH   8  10
HETATM   10  O10 UNL     1     -35.381   3.332   4.982  1.00 20.00    -0.392 OA
HETATM   11  H24 UNL     1     -34.973   3.121   4.127  1.00 20.00     0.210 HD
ENDBRANCH   8  10
TORSDOF 1
ENDMDL
MODEL 3
REMARK VINA RESULT:      -4.6      1.692      2.147
REMARK  1 active torsions:
REMARK  status: ('A' for Active; 'I' for Inactive)
REMARK    1  A    between atoms: C8_8  and  O10_10 
ROOT
HETATM    1  C1  UNL     1     -34.015  14.953  -2.880  1.00 20.00    -0.023 C 
HETATM    2  C2  UNL     1     -34.186  14.617  -4.171  1.00 20.00     0.001 C 
HETATM    3  C3  UNL     1     -36.718  16.122  -4.087  1.00 20.00     0.003 C 
HETATM    4  C4  UNL     1     -36.704  14.570  -4.055  1.00 20.00     0.036 C 
HETATM    5  C5  UNL     1     -36.326  16.806  -2.757  1.00 20.00     0.005 C 
HETATM    6  C6  UNL     1     -34.192  17.025  -1.314  1.00 20.00     0.014 A 
HETATM    7  C7  UNL     1     -33.673  16.332  -2.535  1.00 20.00     0.012 A 
HETATM    8  C8  UNL     1     -35.423  13.887  -4.594  1.00 20.00     0.140 C 
HETATM    9  C9  UNL     1     -34.883  17.267  -2.633  1.00 20.00    -0.006 A 
ENDROOT
BRANCH   8  10
HETATM   10  O10 UNL     1     -35.375  12.521  -4.204  1.00 20.00    -0.392 OA
HETATM   11  H24 UNL     1     -35.577  11.996  -4.995  1.00 20.00     0.210 HD
ENDBRANCH   8  10
TORSDOF 1
ENDMDL
MODEL 4
REMARK VINA RESULT:      -4.6      1.135      2.566
REMARK  1 active torsions:
REMARK  status: ('A' for Active; 'I' for Inactive)
REMARK    1  A    between atoms: C8_8  and  O10_10 
ROOT
HETATM    1  C1  UNL     1     -35.622  15.001  -5.979  1.00 20.00    -0.023 C 
HETATM    2  C2  UNL     1     -36.029  14.736  -4.726  1.00 20.00     0.001 C 
HETATM    3  C3  UNL     1     -33.473  15.872  -3.799  1.00 20.00     0.003 C 
HETATM    4  C4  UNL     1     -33.710  14.337  -3.819  1.00 20.00     0.036 C 
HETATM    5  C5  UNL     1     -33.198  16.508  -5.181  1.00 20.00     0.005 C 
HETATM    6  C6  UNL     1     -34.524  16.914  -7.362  1.00 20.00     0.014 A 
HETATM    7  C7  UNL     1     -35.584  16.386  -6.446  1.00 20.00     0.012 A 
HETATM    8  C8  UNL     1     -35.188  13.875  -3.834  1.00 20.00     0.140 C 
HETATM    9  C9  UNL     1     -34.384  17.151  -5.878  1.00 20.00    -0.006 A 
ENDROOT
BRANCH   8  10
HETATM   10  O10 UNL     1     -35.286  12.504  -4.198  1.00 20.00    -0.392 OA
HETATM   11  H24 UNL     1     -34.604  12.031  -3.694  1.00 20.00     0.210 HD
ENDBRANCH   8  10
TORSDOF 1
ENDMDL
MODEL 5
REMARK VINA RESULT:      -4.4      1.916      3.789
REMARK  1 active torsions:
REMARK  status: ('A' for Active; 'I' for Inactive)
REMARK    1  A    between atoms: C8_8  and  O10_10 
ROOT
HETATM    1  C1  UNL     1     -34.310  16.270  -5.712  1.00 20.00    -0.023 C 
HETATM    2  C2  UNL     1     -33.252  16.322  -4.885  1.00 20.00     0.001 C 
HETATM    3  C3  UNL     1     -34.372  13.962  -3.522  1.00 20.00     0.003 C 
HETATM    4  C4  UNL     1     -34.480  15.379  -2.895  1.00 20.00     0.036 C 
HETATM    5  C5  UNL     1     -35.348  13.689  -4.689  1.00 20.00     0.005 C 
HETATM    6  C6  UNL     1     -35.675  14.547  -7.105  1.00 20.00     0.014 A 
HETATM    7  C7  UNL     1     -34.390  15.206  -6.712  1.00 20.00     0.012 A 
HETATM    8  C8  UNL     1     -33.465  16.431  -3.406  1.00 20.00     0.140 C 
HETATM    9  C9  UNL     1     -34.791  13.864  -6.092  1.00 20.00    -0.006 A 
ENDROOT
BRANCH   8  10
HETATM   10  O10 UNL     1     -33.867  17.743  -3.038  1.00 20.00    -0.392 OA
HETATM   11  H24 UNL     1     -33.167  18.345  -3.337  1.00 20.00     0.210 HD
ENDBRANCH   8  10
TORSDOF 1
ENDMDL
MODEL 6
REMARK VINA RESULT:      -4.4      0.875      2.420
REMARK  1 active torsions:
REMARK  status: ('A' for Active; 'I' for Inactive)
REMARK    1  A    between atoms: C8_8  and  O10_10 
ROOT
HETATM    1  C1  UNL     1     -34.736  15.420  -5.873  1.00 20.00    -0.023 C 
HETATM    2  C2  UNL     1     -35.680  14.680  -5.266  1.00 20.00     0.001 C 
HETATM    3  C3  UNL     1     -34.529  15.562  -2.701  1.00 20.00     0.003 C 
HETATM    4  C4  UNL     1     -34.269  14.133  -3.249  1.00 20.00     0.036 C 
HETATM    5  C5  UNL     1     -33.720  16.684  -3.392  1.00 20.00     0.005 C 
HETATM    6  C6  UNL     1     -33.647  17.780  -5.731  1.00 20.00     0.014 A 
HETATM    7  C7  UNL     1     -34.836  16.878  -5.847  1.00 20.00     0.012 A 
HETATM    8  C8  UNL     1     -35.281  13.609  -4.297  1.00 20.00     0.140 C 
HETATM    9  C9  UNL     1     -34.435  17.458  -4.486  1.00 20.00    -0.006 A 
ENDROOT
BRANCH   8  10
HETATM   10  O10 UNL     1     -34.766  12.469  -4.972  1.00 20.00    -0.392 OA
HETATM   11  H24 UNL     1     -34.941  11.703  -4.402  1.00 20.00     0.210 HD
ENDBRANCH   8  10
TORSDOF 1
ENDMDL
MODEL 7
REMARK VINA RESULT:      -4.4      1.749      3.255
REMARK  1 active torsions:
REMARK  status: ('A' for Active; 'I' for Inactive)
REMARK    1  A    between atoms: C8_8  and  O10_10 
ROOT
HETATM    1  C1  UNL     1     -34.119  16.598  -5.316  1.00 20.00    -0.023 C 
HETATM    2  C2  UNL     1     -33.104  16.165  -4.549  1.00 20.00     0.001 C 
HETATM    3  C3  UNL     1     -34.275  13.470  -4.757  1.00 20.00     0.003 C 
HETATM    4  C4  UNL     1     -34.424  14.313  -3.461  1.00 20.00     0.036 C 
HETATM    5  C5  UNL     1     -35.189  13.902  -5.926  1.00 20.00     0.005 C 
HETATM    6  C6  UNL     1     -35.400  15.951  -7.488  1.00 20.00     0.014 A 
HETATM    7  C7  UNL     1     -34.141  16.259  -6.738  1.00 20.00     0.012 A 
HETATM    8  C8  UNL     1     -33.392  15.450  -3.264  1.00 20.00     0.140 C 
HETATM    9  C9  UNL     1     -34.563  14.805  -6.976  1.00 20.00    -0.006 A 
ENDROOT
BRANCH   8  10
HETATM   10  O10 UNL     1     -33.821  16.355  -2.255  1.00 20.00    -0.392 OA
HETATM   11  H24 UNL     1     -33.949  17.215  -2.686  1.00 20.00     0.210 HD
ENDBRANCH   8  10
TORSDOF 1
ENDMDL
MODEL 8
REMARK VINA RESULT:      -4.3      1.473      2.242
REMARK  1 active torsions:
REMARK  status: ('A' for Active; 'I' for Inactive)
REMARK    1  A    between atoms: C8_8  and  O10_10 
ROOT
HETATM    1  C1  UNL     1     -35.154  14.486  -4.249  1.00 20.00    -0.023 C 
HETATM    2  C2  UNL     1     -34.467  14.027  -5.309  1.00 20.00     0.001 C 
HETATM    3  C3  UNL     1     -33.293  16.720  -5.541  1.00 20.00     0.003 C 
HETATM    4  C4  UNL     1     -34.408  16.244  -6.511  1.00 20.00     0.036 C 
HETATM    5  C5  UNL     1     -33.779  17.109  -4.126  1.00 20.00     0.005 C 
HETATM    6  C6  UNL     1     -34.792  15.888  -2.086  1.00 20.00     0.014 A 
HETATM    7  C7  UNL     1     -34.452  14.748  -2.994  1.00 20.00     0.012 A 
HETATM    8  C8  UNL     1     -34.596  14.711  -6.635  1.00 20.00     0.140 C 
HETATM    9  C9  UNL     1     -33.641  16.047  -3.048  1.00 20.00    -0.006 A 
ENDROOT
BRANCH   8  10
HETATM   10  O10 UNL     1     -35.836  14.402  -7.257  1.00 20.00    -0.392 OA
HETATM   11  H24 UNL     1     -35.869  14.908  -8.084  1.00 20.00     0.210 HD
ENDBRANCH   8  10
TORSDOF 1
ENDMDL
MODEL 9
REMARK VINA RESULT:      -4.3     11.438     12.836
REMARK  1 active torsions:
REMARK  status: ('A' for Active; 'I' for Inactive)
REMARK    1  A    between atoms: C8_8  and  O10_10 
ROOT
HETATM    1  C1  UNL     1     -42.824   5.519  -3.089  1.00 20.00    -0.023 C 
HETATM    2  C2  UNL     1     -43.098   4.590  -2.156  1.00 20.00     0.001 C 
HETATM    3  C3  UNL     1     -41.180   5.980  -0.403  1.00 20.00     0.003 C 
HETATM    4  C4  UNL     1     -40.806   4.647  -1.107  1.00 20.00     0.036 C 
HETATM    5  C5  UNL     1     -41.170   7.226  -1.318  1.00 20.00     0.005 C 
HETATM    6  C6  UNL     1     -42.548   8.097  -3.323  1.00 20.00     0.014 A 
HETATM    7  C7  UNL     1     -43.323   6.882  -2.916  1.00 20.00     0.012 A 
HETATM    8  C8  UNL     1     -41.991   3.766  -1.575  1.00 20.00     0.140 C 
HETATM    9  C9  UNL     1     -42.512   7.665  -1.878  1.00 20.00    -0.006 A 
ENDROOT
BRANCH   8  10
HETATM   10  O10 UNL     1     -41.552   2.772  -2.491  1.00 20.00    -0.392 OA
HETATM   11  H24 UNL     1     -42.291   2.604  -3.098  1.00 20.00     0.210 HD
ENDBRANCH   8  10
TORSDOF 1
ENDMDL
