MODEL 1
REMARK VINA RESULT:      -5.2      0.000      0.000
REMARK  0 active torsions:
REMARK  status: ('A' for Active; 'I' for Inactive)
ROOT
HETATM    1  C1  UNL     1     -34.048  16.687  -5.188  1.00 20.00    -0.082 C 
HETATM    2  C2  UNL     1     -33.649  17.871  -5.678  1.00 20.00     0.015 C 
HETATM    3  C3  UNL     1     -33.182  15.887  -4.242  1.00 20.00     0.038 C 
HETATM    4  C4  UNL     1     -36.153  15.868  -4.199  1.00 20.00     0.018 C 
HETATM    5  C5  UNL     1     -35.316  13.531  -4.228  1.00 20.00     0.173 C 
HETATM    6  C6  UNL     1     -35.411  16.101  -5.519  1.00 20.00     0.043 C 
HETATM    7  C7  UNL     1     -35.380  14.821  -3.390  1.00 20.00     0.014 C 
HETATM    8  C8  UNL     1     -33.963  15.350  -3.023  1.00 20.00    -0.009 C 
HETATM    9  C9  UNL     1     -35.345  14.757  -6.285  1.00 20.00     0.125 C 
HETATM   10  C10 UNL     1     -34.046  16.426  -1.929  1.00 20.00     0.011 C 
HETATM   11  C11 UNL     1     -34.598  14.864  -7.610  1.00 20.00     0.040 C 
HETATM   12  O12 UNL     1     -34.714  13.733  -5.507  1.00 20.00    -0.385 OA
ENDROOT
TORSDOF 0
ENDMDL
MODEL 2
REMARK VINA RESULT:      -5.1      1.341      2.653
REMARK  0 active torsions:
REMARK  status: ('A' for Active; 'I' for Inactive)
ROOT
HETATM    1  C1  UNL     1     -36.297  15.125  -3.931  1.00 20.00    -0.082 C 
HETATM    2  C2  UNL     1     -37.564  14.733  -3.730  1.00 20.00     0.015 C 
HETATM    3  C3  UNL     1     -35.839  16.529  -3.604  1.00 20.00     0.038 C 
HETATM    4  C4  UNL     1     -34.098  14.127  -3.432  1.00 20.00     0.018 C 
HETATM    5  C5  UNL     1     -32.944  15.887  -4.748  1.00 20.00     0.173 C 
HETATM    6  C6  UNL     1     -35.236  14.172  -4.457  1.00 20.00     0.043 C 
HETATM    7  C7  UNL     1     -33.470  15.523  -3.348  1.00 20.00     0.014 C 
HETATM    8  C8  UNL     1     -34.507  16.558  -2.824  1.00 20.00    -0.009 C 
HETATM    9  C9  UNL     1     -34.643  14.589  -5.825  1.00 20.00     0.125 C 
HETATM   10  C10 UNL     1     -34.765  16.365  -1.322  1.00 20.00     0.011 C 
HETATM   11  C11 UNL     1     -35.697  14.695  -6.922  1.00 20.00     0.040 C 
HETATM   12  O12 UNL     1     -33.962  15.847  -5.748  1.00 20.00    -0.385 OA
ENDROOT
TORSDOF 0
ENDMDL
MODEL 3
REMARK VINA RESULT:      -5.0      1.577      3.702
REMARK  0 active torsions:
REMARK  status: ('A' for Active; 'I' for Inactive)
ROOT
HETATM    1  C1  UNL     1     -33.482  15.186  -3.869  1.00 20.00    -0.082 C 
HETATM    2  C2  UNL     1     -32.382  14.494  -3.538  1.00 20.00     0.015 C 
HETATM    3  C3  UNL     1     -33.462  16.241  -4.952  1.00 20.00     0.038 C 
HETATM    4  C4  UNL     1     -35.827  14.562  -4.309  1.00 20.00     0.018 C 
HETATM    5  C5  UNL     1     -36.505  16.949  -4.368  1.00 20.00     0.173 C 
HETATM    6  C6  UNL     1     -34.826  14.921  -3.207  1.00 20.00     0.043 C 
HETATM    7  C7  UNL     1     -35.992  15.779  -5.226  1.00 20.00     0.014 C 
HETATM    8  C8  UNL     1     -34.647  16.116  -5.933  1.00 20.00    -0.009 C 
HETATM    9  C9  UNL     1     -35.383  16.131  -2.418  1.00 20.00     0.125 C 
HETATM   10  C10 UNL     1     -34.327  15.085  -7.026  1.00 20.00     0.011 C 
HETATM   11  C11 UNL     1     -34.448  16.597  -1.306  1.00 20.00     0.040 C 
HETATM   12  O12 UNL     1     -35.640  17.251  -3.273  1.00 20.00    -0.385 OA
ENDROOT
TORSDOF 0
ENDMDL
MODEL 4
REMARK VINA RESULT:      -4.9      1.529      2.686
REMARK  0 active torsions:
REMARK  status: ('A' for Active; 'I' for Inactive)
ROOT
HETATM    1  C1  UNL     1     -33.990  14.732  -3.928  1.00 20.00    -0.082 C 
HETATM    2  C2  UNL     1     -33.231  13.642  -3.739  1.00 20.00     0.015 C 
HETATM    3  C3  UNL     1     -35.285  14.938  -3.176  1.00 20.00     0.038 C 
HETATM    4  C4  UNL     1     -33.510  17.147  -4.068  1.00 20.00     0.018 C 
HETATM    5  C5  UNL     1     -35.837  17.620  -4.790  1.00 20.00     0.173 C 
HETATM    6  C6  UNL     1     -33.573  15.847  -4.875  1.00 20.00     0.043 C 
HETATM    7  C7  UNL     1     -34.921  17.469  -3.563  1.00 20.00     0.014 C 
HETATM    8  C8  UNL     1     -35.420  16.361  -2.591  1.00 20.00    -0.009 C 
HETATM    9  C9  UNL     1     -34.545  16.056  -6.062  1.00 20.00     0.125 C 
HETATM   10  C10 UNL     1     -34.699  16.451  -1.238  1.00 20.00     0.011 C 
HETATM   11  C11 UNL     1     -34.708  14.808  -6.923  1.00 20.00     0.040 C 
HETATM   12  O12 UNL     1     -35.846  16.456  -5.618  1.00 20.00    -0.385 OA
ENDROOT
TORSDOF 0
ENDMDL
MODEL 5
REMARK VINA RESULT:      -4.8      1.558      3.238
REMARK  0 active torsions:
REMARK  status: ('A' for Active; 'I' for Inactive)
ROOT
HETATM    1  C1  UNL     1     -34.432  15.995  -5.785  1.00 20.00    -0.082 C 
HETATM    2  C2  UNL     1     -34.311  15.909  -7.118  1.00 20.00     0.015 C 
HETATM    3  C3  UNL     1     -35.688  15.549  -5.071  1.00 20.00     0.038 C 
HETATM    4  C4  UNL     1     -32.964  15.407  -3.893  1.00 20.00     0.018 C 
HETATM    5  C5  UNL     1     -34.496  16.523  -2.291  1.00 20.00     0.173 C 
HETATM    6  C6  UNL     1     -33.300  16.504  -4.907  1.00 20.00     0.043 C 
HETATM    7  C7  UNL     1     -34.188  15.190  -2.995  1.00 20.00     0.014 C 
HETATM    8  C8  UNL     1     -35.396  14.676  -3.831  1.00 20.00    -0.009 C 
HETATM    9  C9  UNL     1     -33.644  17.798  -4.130  1.00 20.00     0.125 C 
HETATM   10  C10 UNL     1     -35.192  13.211  -4.247  1.00 20.00     0.011 C 
HETATM   11  C11 UNL     1     -34.024  18.957  -5.044  1.00 20.00     0.040 C 
HETATM   12  O12 UNL     1     -34.722  17.594  -3.209  1.00 20.00    -0.385 OA
ENDROOT
TORSDOF 0
ENDMDL
MODEL 6
REMARK VINA RESULT:      -4.8      1.713      3.449
REMARK  0 active torsions:
REMARK  status: ('A' for Active; 'I' for Inactive)
ROOT
HETATM    1  C1  UNL     1     -34.336  16.406  -2.618  1.00 20.00    -0.082 C 
HETATM    2  C2  UNL     1     -34.521  16.453  -1.290  1.00 20.00     0.015 C 
HETATM    3  C3  UNL     1     -33.329  15.469  -3.247  1.00 20.00     0.038 C 
HETATM    4  C4  UNL     1     -35.860  16.315  -4.555  1.00 20.00     0.018 C 
HETATM    5  C5  UNL     1     -33.968  16.660  -6.124  1.00 20.00     0.173 C 
HETATM    6  C6  UNL     1     -35.157  17.257  -3.574  1.00 20.00     0.043 C 
HETATM    7  C7  UNL     1     -34.788  15.592  -5.380  1.00 20.00     0.014 C 
HETATM    8  C8  UNL     1     -33.898  14.704  -4.462  1.00 20.00    -0.009 C 
HETATM    9  C9  UNL     1     -34.317  18.271  -4.388  1.00 20.00     0.125 C 
HETATM   10  C10 UNL     1     -34.664  13.458  -3.993  1.00 20.00     0.011 C 
HETATM   11  C11 UNL     1     -33.546  19.248  -3.507  1.00 20.00     0.040 C 
HETATM   12  O12 UNL     1     -33.374  17.614  -5.243  1.00 20.00    -0.385 OA
ENDROOT
TORSDOF 0
ENDMDL
MODEL 7
REMARK VINA RESULT:      -4.8      1.387      3.878
REMARK  0 active torsions:
REMARK  status: ('A' for Active; 'I' for Inactive)
ROOT
HETATM    1  C1  UNL     1     -36.255  15.046  -4.276  1.00 20.00    -0.082 C 
HETATM    2  C2  UNL     1     -37.481  14.670  -3.880  1.00 20.00     0.015 C 
HETATM    3  C3  UNL     1     -35.293  14.071  -4.915  1.00 20.00     0.038 C 
HETATM    4  C4  UNL     1     -35.385  16.973  -5.546  1.00 20.00     0.018 C 
HETATM    5  C5  UNL     1     -33.046  16.316  -5.039  1.00 20.00     0.173 C 
HETATM    6  C6  UNL     1     -35.777  16.484  -4.149  1.00 20.00     0.043 C 
HETATM    7  C7  UNL     1     -34.202  16.130  -6.037  1.00 20.00     0.014 C 
HETATM    8  C8  UNL     1     -34.617  14.637  -6.182  1.00 20.00    -0.009 C 
HETATM    9  C9  UNL     1     -34.557  16.656  -3.212  1.00 20.00     0.125 C 
HETATM   10  C10 UNL     1     -35.526  14.436  -7.405  1.00 20.00     0.011 C 
HETATM   11  C11 UNL     1     -34.825  16.172  -1.791  1.00 20.00     0.040 C 
HETATM   12  O12 UNL     1     -33.407  15.958  -3.704  1.00 20.00    -0.385 OA
ENDROOT
TORSDOF 0
ENDMDL
MODEL 8
REMARK VINA RESULT:      -4.7      1.684      2.386
REMARK  0 active torsions:
REMARK  status: ('A' for Active; 'I' for Inactive)
ROOT
HETATM    1  C1  UNL     1     -35.240  17.914  -3.661  1.00 20.00    -0.082 C 
HETATM    2  C2  UNL     1     -36.174  18.873  -3.751  1.00 20.00     0.015 C 
HETATM    3  C3  UNL     1     -34.060  18.040  -2.725  1.00 20.00     0.038 C 
HETATM    4  C4  UNL     1     -35.325  15.457  -3.470  1.00 20.00     0.018 C 
HETATM    5  C5  UNL     1     -32.870  15.295  -3.799  1.00 20.00     0.173 C 
HETATM    6  C6  UNL     1     -35.335  16.624  -4.461  1.00 20.00     0.043 C 
HETATM    7  C7  UNL     1     -33.976  15.455  -2.741  1.00 20.00     0.014 C 
HETATM    8  C8  UNL     1     -33.804  16.757  -1.906  1.00 20.00    -0.009 C 
HETATM    9  C9  UNL     1     -34.172  16.423  -5.463  1.00 20.00     0.125 C 
HETATM   10  C10 UNL     1     -34.703  16.733  -0.660  1.00 20.00     0.011 C 
HETATM   11  C11 UNL     1     -34.067  17.548  -6.486  1.00 20.00     0.040 C 
HETATM   12  O12 UNL     1     -32.908  16.317  -4.796  1.00 20.00    -0.385 OA
ENDROOT
TORSDOF 0
ENDMDL
MODEL 9
REMARK VINA RESULT:      -4.7      1.774      3.236
REMARK  0 active torsions:
REMARK  status: ('A' for Active; 'I' for Inactive)
ROOT
HETATM    1  C1  UNL     1     -34.782  16.244  -2.410  1.00 20.00    -0.082 C 
HETATM    2  C2  UNL     1     -34.606  16.442  -1.095  1.00 20.00     0.015 C 
HETATM    3  C3  UNL     1     -33.611  16.118  -3.357  1.00 20.00     0.038 C 
HETATM    4  C4  UNL     1     -36.214  14.735  -3.735  1.00 20.00     0.018 C 
HETATM    5  C5  UNL     1     -35.592  15.907  -5.833  1.00 20.00     0.173 C 
HETATM    6  C6  UNL     1     -36.166  16.088  -3.020  1.00 20.00     0.043 C 
HETATM    7  C7  UNL     1     -35.199  14.762  -4.884  1.00 20.00     0.014 C 
HETATM    8  C8  UNL     1     -33.753  14.929  -4.332  1.00 20.00    -0.009 C 
HETATM    9  C9  UNL     1     -36.526  17.194  -4.043  1.00 20.00     0.125 C 
HETATM   10  C10 UNL     1     -33.266  13.633  -3.666  1.00 20.00     0.011 C 
HETATM   11  C11 UNL     1     -36.482  18.595  -3.444  1.00 20.00     0.040 C 
HETATM   12  O12 UNL     1     -35.651  17.174  -5.177  1.00 20.00    -0.385 OA
ENDROOT
TORSDOF 0
ENDMDL
