MODEL 1
REMARK VINA RESULT:      -5.2      0.000      0.000
REMARK  0 active torsions:
REMARK  status: ('A' for Active; 'I' for Inactive)
ROOT
HETATM    1  C1  UNL     1     -33.903  16.786  -4.786  1.00 20.00    -0.082 C 
HETATM    2  C2  UNL     1     -33.447  18.014  -5.080  1.00 20.00     0.015 C 
HETATM    3  C3  UNL     1     -33.311  15.966  -3.663  1.00 20.00     0.038 C 
HETATM    4  C4  UNL     1     -36.151  15.813  -4.518  1.00 20.00     0.018 C 
HETATM    5  C5  UNL     1     -35.208  13.522  -4.405  1.00 20.00     0.173 C 
HETATM    6  C6  UNL     1     -35.069  16.161  -5.541  1.00 20.00     0.043 C 
HETATM    7  C7  UNL     1     -35.594  14.752  -3.565  1.00 20.00     0.014 C 
HETATM    8  C8  UNL     1     -34.385  15.316  -2.763  1.00 20.00    -0.009 C 
HETATM    9  C9  UNL     1     -34.619  14.896  -6.310  1.00 20.00     0.125 C 
HETATM   10  C10 UNL     1     -34.854  16.312  -1.692  1.00 20.00     0.011 C 
HETATM   11  C11 UNL     1     -35.654  14.417  -7.329  1.00 20.00     0.040 C 
HETATM   12  O12 UNL     1     -34.264  13.819  -5.432  1.00 20.00    -0.385 OA
ENDROOT
TORSDOF 0
ENDMDL
MODEL 2
REMARK VINA RESULT:      -5.0      1.644      2.114
REMARK  0 active torsions:
REMARK  status: ('A' for Active; 'I' for Inactive)
ROOT
HETATM    1  C1  UNL     1     -35.225  17.850  -3.734  1.00 20.00    -0.082 C 
HETATM    2  C2  UNL     1     -36.162  18.804  -3.849  1.00 20.00     0.015 C 
HETATM    3  C3  UNL     1     -34.062  17.990  -2.779  1.00 20.00     0.038 C 
HETATM    4  C4  UNL     1     -35.296  15.395  -3.529  1.00 20.00     0.018 C 
HETATM    5  C5  UNL     1     -32.837  15.244  -3.817  1.00 20.00     0.173 C 
HETATM    6  C6  UNL     1     -35.297  16.553  -4.528  1.00 20.00     0.043 C 
HETATM    7  C7  UNL     1     -33.960  15.405  -2.779  1.00 20.00     0.014 C 
HETATM    8  C8  UNL     1     -33.808  16.713  -1.949  1.00 20.00    -0.009 C 
HETATM    9  C9  UNL     1     -34.103  16.431  -5.505  1.00 20.00     0.125 C 
HETATM   10  C10 UNL     1     -34.724  16.690  -0.716  1.00 20.00     0.011 C 
HETATM   11  C11 UNL     1     -34.291  15.325  -6.543  1.00 20.00     0.040 C 
HETATM   12  O12 UNL     1     -32.854  16.255  -4.823  1.00 20.00    -0.385 OA
ENDROOT
TORSDOF 0
ENDMDL
MODEL 3
REMARK VINA RESULT:      -4.9      1.959      4.126
REMARK  0 active torsions:
REMARK  status: ('A' for Active; 'I' for Inactive)
ROOT
HETATM    1  C1  UNL     1     -33.709  15.068  -3.697  1.00 20.00    -0.082 C 
HETATM    2  C2  UNL     1     -33.316  13.785  -3.736  1.00 20.00     0.015 C 
HETATM    3  C3  UNL     1     -33.271  16.066  -4.744  1.00 20.00     0.038 C 
HETATM    4  C4  UNL     1     -35.873  16.185  -3.317  1.00 20.00     0.018 C 
HETATM    5  C5  UNL     1     -34.769  18.403  -3.189  1.00 20.00     0.173 C 
HETATM    6  C6  UNL     1     -34.652  15.586  -2.619  1.00 20.00     0.043 C 
HETATM    7  C7  UNL     1     -35.414  17.387  -4.148  1.00 20.00     0.014 C 
HETATM    8  C8  UNL     1     -34.434  16.936  -5.269  1.00 20.00    -0.009 C 
HETATM    9  C9  UNL     1     -33.954  16.648  -1.734  1.00 20.00     0.125 C 
HETATM   10  C10 UNL     1     -35.183  16.199  -6.390  1.00 20.00     0.011 C 
HETATM   11  C11 UNL     1     -34.731  16.963  -0.455  1.00 20.00     0.040 C 
HETATM   12  O12 UNL     1     -33.678  17.859  -2.449  1.00 20.00    -0.385 OA
ENDROOT
TORSDOF 0
ENDMDL
MODEL 4
REMARK VINA RESULT:      -4.9      1.264      3.169
REMARK  0 active torsions:
REMARK  status: ('A' for Active; 'I' for Inactive)
ROOT
HETATM    1  C1  UNL     1     -34.769  16.582  -2.118  1.00 20.00    -0.082 C 
HETATM    2  C2  UNL     1     -34.622  16.614  -0.785  1.00 20.00     0.015 C 
HETATM    3  C3  UNL     1     -35.441  17.706  -2.872  1.00 20.00     0.038 C 
HETATM    4  C4  UNL     1     -33.273  16.014  -3.993  1.00 20.00     0.018 C 
HETATM    5  C5  UNL     1     -35.163  16.089  -5.597  1.00 20.00     0.173 C 
HETATM    6  C6  UNL     1     -34.234  15.428  -2.957  1.00 20.00     0.043 C 
HETATM    7  C7  UNL     1     -34.069  16.934  -4.924  1.00 20.00     0.014 C 
HETATM    8  C8  UNL     1     -34.659  18.136  -4.133  1.00 20.00    -0.009 C 
HETATM    9  C9  UNL     1     -35.386  14.664  -3.652  1.00 20.00     0.125 C 
HETATM   10  C10 UNL     1     -33.560  19.141  -3.758  1.00 20.00     0.011 C 
HETATM   11  C11 UNL     1     -34.946  13.322  -4.237  1.00 20.00     0.040 C 
HETATM   12  O12 UNL     1     -36.032  15.450  -4.663  1.00 20.00    -0.385 OA
ENDROOT
TORSDOF 0
ENDMDL
MODEL 5
REMARK VINA RESULT:      -4.8      1.498      3.195
REMARK  0 active torsions:
REMARK  status: ('A' for Active; 'I' for Inactive)
ROOT
HETATM    1  C1  UNL     1     -34.362  16.199  -2.722  1.00 20.00    -0.082 C 
HETATM    2  C2  UNL     1     -34.607  16.282  -1.405  1.00 20.00     0.015 C 
HETATM    3  C3  UNL     1     -33.519  15.089  -3.306  1.00 20.00     0.038 C 
HETATM    4  C4  UNL     1     -35.761  16.407  -4.740  1.00 20.00     0.018 C 
HETATM    5  C5  UNL     1     -33.757  16.387  -6.200  1.00 20.00     0.173 C 
HETATM    6  C6  UNL     1     -34.950  17.196  -3.712  1.00 20.00     0.043 C 
HETATM    7  C7  UNL     1     -34.805  15.495  -5.514  1.00 20.00     0.014 C 
HETATM    8  C8  UNL     1     -34.153  14.450  -4.562  1.00 20.00    -0.009 C 
HETATM    9  C9  UNL     1     -33.835  18.013  -4.408  1.00 20.00     0.125 C 
HETATM   10  C10 UNL     1     -35.166  13.370  -4.154  1.00 20.00     0.011 C 
HETATM   11  C11 UNL     1     -34.368  19.232  -5.160  1.00 20.00     0.040 C 
HETATM   12  O12 UNL     1     -33.035  17.208  -5.285  1.00 20.00    -0.385 OA
ENDROOT
TORSDOF 0
ENDMDL
MODEL 6
REMARK VINA RESULT:      -4.8      1.304      3.890
REMARK  0 active torsions:
REMARK  status: ('A' for Active; 'I' for Inactive)
ROOT
HETATM    1  C1  UNL     1     -36.439  14.852  -3.996  1.00 20.00    -0.082 C 
HETATM    2  C2  UNL     1     -37.766  14.703  -3.858  1.00 20.00     0.015 C 
HETATM    3  C3  UNL     1     -35.584  13.790  -4.648  1.00 20.00     0.038 C 
HETATM    4  C4  UNL     1     -34.993  16.699  -4.750  1.00 20.00     0.018 C 
HETATM    5  C5  UNL     1     -32.960  15.477  -4.025  1.00 20.00     0.173 C 
HETATM    6  C6  UNL     1     -35.721  16.115  -3.539  1.00 20.00     0.043 C 
HETATM    7  C7  UNL     1     -33.925  15.698  -5.201  1.00 20.00     0.014 C 
HETATM    8  C8  UNL     1     -34.585  14.370  -5.674  1.00 20.00    -0.009 C 
HETATM    9  C9  UNL     1     -34.723  15.805  -2.398  1.00 20.00     0.125 C 
HETATM   10  C10 UNL     1     -35.271  14.552  -7.037  1.00 20.00     0.011 C 
HETATM   11  C11 UNL     1     -34.218  17.062  -1.689  1.00 20.00     0.040 C 
HETATM   12  O12 UNL     1     -33.612  15.015  -2.843  1.00 20.00    -0.385 OA
ENDROOT
TORSDOF 0
ENDMDL
MODEL 7
REMARK VINA RESULT:      -4.7      1.583      2.727
REMARK  0 active torsions:
REMARK  status: ('A' for Active; 'I' for Inactive)
ROOT
HETATM    1  C1  UNL     1     -34.102  14.783  -3.903  1.00 20.00    -0.082 C 
HETATM    2  C2  UNL     1     -33.337  13.688  -3.778  1.00 20.00     0.015 C 
HETATM    3  C3  UNL     1     -35.305  15.018  -3.019  1.00 20.00     0.038 C 
HETATM    4  C4  UNL     1     -33.621  17.188  -4.148  1.00 20.00     0.018 C 
HETATM    5  C5  UNL     1     -36.006  17.674  -4.624  1.00 20.00     0.173 C 
HETATM    6  C6  UNL     1     -33.781  15.875  -4.915  1.00 20.00     0.043 C 
HETATM    7  C7  UNL     1     -34.965  17.537  -3.500  1.00 20.00     0.014 C 
HETATM    8  C8  UNL     1     -35.367  16.455  -2.457  1.00 20.00    -0.009 C 
HETATM    9  C9  UNL     1     -34.901  15.997  -5.976  1.00 20.00     0.125 C 
HETATM   10  C10 UNL     1     -34.505  16.567  -1.190  1.00 20.00     0.011 C 
HETATM   11  C11 UNL     1     -34.491  16.839  -7.184  1.00 20.00     0.040 C 
HETATM   12  O12 UNL     1     -36.126  16.499  -5.423  1.00 20.00    -0.385 OA
ENDROOT
TORSDOF 0
ENDMDL
MODEL 8
REMARK VINA RESULT:      -4.7      1.400      2.731
REMARK  0 active torsions:
REMARK  status: ('A' for Active; 'I' for Inactive)
ROOT
HETATM    1  C1  UNL     1     -36.461  15.587  -3.911  1.00 20.00    -0.082 C 
HETATM    2  C2  UNL     1     -37.656  15.043  -3.634  1.00 20.00     0.015 C 
HETATM    3  C3  UNL     1     -36.037  16.915  -3.327  1.00 20.00     0.038 C 
HETATM    4  C4  UNL     1     -34.158  14.713  -3.989  1.00 20.00     0.018 C 
HETATM    5  C5  UNL     1     -33.332  16.823  -4.997  1.00 20.00     0.173 C 
HETATM    6  C6  UNL     1     -35.444  14.882  -4.799  1.00 20.00     0.043 C 
HETATM    7  C7  UNL     1     -33.604  16.104  -3.666  1.00 20.00     0.014 C 
HETATM    8  C8  UNL     1     -34.598  16.893  -2.766  1.00 20.00    -0.009 C 
HETATM    9  C9  UNL     1     -35.174  15.694  -6.089  1.00 20.00     0.125 C 
HETATM   10  C10 UNL     1     -34.597  16.344  -1.331  1.00 20.00     0.011 C 
HETATM   11  C11 UNL     1     -34.421  14.894  -7.151  1.00 20.00     0.040 C 
HETATM   12  O12 UNL     1     -34.488  16.925  -5.826  1.00 20.00    -0.385 OA
ENDROOT
TORSDOF 0
ENDMDL
MODEL 9
REMARK VINA RESULT:      -4.7      1.698      3.039
REMARK  0 active torsions:
REMARK  status: ('A' for Active; 'I' for Inactive)
ROOT
HETATM    1  C1  UNL     1     -34.803  16.220  -2.443  1.00 20.00    -0.082 C 
HETATM    2  C2  UNL     1     -34.636  16.430  -1.128  1.00 20.00     0.015 C 
HETATM    3  C3  UNL     1     -33.627  16.083  -3.382  1.00 20.00     0.038 C 
HETATM    4  C4  UNL     1     -36.233  14.712  -3.767  1.00 20.00     0.018 C 
HETATM    5  C5  UNL     1     -35.598  15.865  -5.869  1.00 20.00     0.173 C 
HETATM    6  C6  UNL     1     -36.186  16.067  -3.062  1.00 20.00     0.043 C 
HETATM    7  C7  UNL     1     -35.213  14.726  -4.910  1.00 20.00     0.014 C 
HETATM    8  C8  UNL     1     -33.770  14.891  -4.354  1.00 20.00    -0.009 C 
HETATM    9  C9  UNL     1     -36.478  17.213  -4.061  1.00 20.00     0.125 C 
HETATM   10  C10 UNL     1     -33.289  13.597  -3.680  1.00 20.00     0.011 C 
HETATM   11  C11 UNL     1     -37.951  17.293  -4.464  1.00 20.00     0.040 C 
HETATM   12  O12 UNL     1     -35.654  17.139  -5.232  1.00 20.00    -0.385 OA
ENDROOT
TORSDOF 0
ENDMDL
