MODEL 1
REMARK VINA RESULT:      -5.0      0.000      0.000
REMARK  0 active torsions:
REMARK  status: ('A' for Active; 'I' for Inactive)
ROOT
HETATM    1  C1  UNL     1     -36.752  15.893  -4.088  1.00 20.00    -0.029 C 
HETATM    2  C2  UNL     1     -36.151  15.071  -4.964  1.00 20.00    -0.014 C 
HETATM    3  C3  UNL     1     -33.730  15.656  -4.372  1.00 20.00     0.143 C 
HETATM    4  C4  UNL     1     -36.116  16.736  -3.026  1.00 20.00     0.032 C 
HETATM    5  C5  UNL     1     -33.728  16.752  -2.011  1.00 20.00     0.018 A 
HETATM    6  C6  UNL     1     -33.813  15.534  -2.895  1.00 20.00     0.061 A 
HETATM    7  C7  UNL     1     -35.049  16.065  -2.216  1.00 20.00     0.001 A 
HETATM    8  C8  UNL     1     -34.682  14.762  -5.187  1.00 20.00     0.031 C 
HETATM    9  C9  UNL     1     -34.418  13.288  -4.837  1.00 20.00     0.027 C 
HETATM   10  C10 UNL     1     -34.376  14.967  -6.684  1.00 20.00     0.027 C 
HETATM   11  O11 UNL     1     -32.929  16.440  -4.872  1.00 20.00    -0.296 OA
ENDROOT
TORSDOF 0
ENDMDL
MODEL 2
REMARK VINA RESULT:      -5.0      1.750      3.816
REMARK  0 active torsions:
REMARK  status: ('A' for Active; 'I' for Inactive)
ROOT
HETATM    1  C1  UNL     1     -33.454  16.903  -5.530  1.00 20.00    -0.029 C 
HETATM    2  C2  UNL     1     -33.412  16.248  -4.359  1.00 20.00    -0.014 C 
HETATM    3  C3  UNL     1     -35.351  14.636  -4.800  1.00 20.00     0.143 C 
HETATM    4  C4  UNL     1     -34.307  16.604  -6.725  1.00 20.00     0.032 C 
HETATM    5  C5  UNL     1     -35.739  14.539  -7.371  1.00 20.00     0.018 A 
HETATM    6  C6  UNL     1     -34.953  14.152  -6.145  1.00 20.00     0.061 A 
HETATM    7  C7  UNL     1     -34.395  15.160  -7.116  1.00 20.00     0.001 A 
HETATM    8  C8  UNL     1     -34.207  15.056  -3.858  1.00 20.00     0.031 C 
HETATM    9  C9  UNL     1     -33.256  13.865  -3.651  1.00 20.00     0.027 C 
HETATM   10  C10 UNL     1     -34.818  15.433  -2.494  1.00 20.00     0.027 C 
HETATM   11  O11 UNL     1     -36.539  14.679  -4.498  1.00 20.00    -0.296 OA
ENDROOT
TORSDOF 0
ENDMDL
MODEL 3
REMARK VINA RESULT:      -4.8      1.036      3.520
REMARK  0 active torsions:
REMARK  status: ('A' for Active; 'I' for Inactive)
ROOT
HETATM    1  C1  UNL     1     -35.110  13.451  -4.022  1.00 20.00    -0.029 C 
HETATM    2  C2  UNL     1     -35.092  14.528  -3.221  1.00 20.00    -0.014 C 
HETATM    3  C3  UNL     1     -33.984  16.153  -4.860  1.00 20.00     0.143 C 
HETATM    4  C4  UNL     1     -34.723  13.368  -5.467  1.00 20.00     0.032 C 
HETATM    5  C5  UNL     1     -34.280  15.190  -7.260  1.00 20.00     0.018 A 
HETATM    6  C6  UNL     1     -34.833  15.900  -6.051  1.00 20.00     0.061 A 
HETATM    7  C7  UNL     1     -35.229  14.475  -6.340  1.00 20.00     0.001 A 
HETATM    8  C8  UNL     1     -34.655  15.957  -3.488  1.00 20.00     0.031 C 
HETATM    9  C9  UNL     1     -35.875  16.887  -3.382  1.00 20.00     0.027 C 
HETATM   10  C10 UNL     1     -33.645  16.357  -2.394  1.00 20.00     0.027 C 
HETATM   11  O11 UNL     1     -32.817  16.499  -5.010  1.00 20.00    -0.296 OA
ENDROOT
TORSDOF 0
ENDMDL
MODEL 4
REMARK VINA RESULT:      -4.8      1.545      2.553
REMARK  0 active torsions:
REMARK  status: ('A' for Active; 'I' for Inactive)
ROOT
HETATM    1  C1  UNL     1     -34.443  13.263  -4.791  1.00 20.00    -0.029 C 
HETATM    2  C2  UNL     1     -34.961  13.914  -5.844  1.00 20.00    -0.014 C 
HETATM    3  C3  UNL     1     -35.224  16.206  -4.734  1.00 20.00     0.143 C 
HETATM    4  C4  UNL     1     -34.035  13.830  -3.465  1.00 20.00     0.032 C 
HETATM    5  C5  UNL     1     -33.668  16.265  -2.649  1.00 20.00     0.018 A 
HETATM    6  C6  UNL     1     -33.870  16.336  -4.141  1.00 20.00     0.061 A 
HETATM    7  C7  UNL     1     -33.256  15.109  -3.516  1.00 20.00     0.001 A 
HETATM    8  C8  UNL     1     -35.327  15.376  -6.027  1.00 20.00     0.031 C 
HETATM    9  C9  UNL     1     -34.417  15.994  -7.101  1.00 20.00     0.027 C 
HETATM   10  C10 UNL     1     -36.783  15.441  -6.528  1.00 20.00     0.027 C 
HETATM   11  O11 UNL     1     -36.180  16.749  -4.189  1.00 20.00    -0.296 OA
ENDROOT
TORSDOF 0
ENDMDL
MODEL 5
REMARK VINA RESULT:      -4.6     12.060     13.065
REMARK  0 active torsions:
REMARK  status: ('A' for Active; 'I' for Inactive)
ROOT
HETATM    1  C1  UNL     1     -42.772   6.255  -3.044  1.00 20.00    -0.029 C 
HETATM    2  C2  UNL     1     -43.012   4.936  -2.977  1.00 20.00    -0.014 C 
HETATM    3  C3  UNL     1     -41.143   4.333  -1.334  1.00 20.00     0.143 C 
HETATM    4  C4  UNL     1     -41.790   7.057  -2.244  1.00 20.00     0.032 C 
HETATM    5  C5  UNL     1     -40.427   6.513  -0.106  1.00 20.00     0.018 A 
HETATM    6  C6  UNL     1     -41.392   5.372  -0.304  1.00 20.00     0.061 A 
HETATM    7  C7  UNL     1     -41.749   6.758  -0.777  1.00 20.00     0.001 A 
HETATM    8  C8  UNL     1     -42.370   3.852  -2.130  1.00 20.00     0.031 C 
HETATM    9  C9  UNL     1     -43.417   3.285  -1.156  1.00 20.00     0.027 C 
HETATM   10  C10 UNL     1     -41.921   2.717  -3.072  1.00 20.00     0.027 C 
HETATM   11  O11 UNL     1     -40.004   3.909  -1.505  1.00 20.00    -0.296 OA
ENDROOT
TORSDOF 0
ENDMDL
MODEL 6
REMARK VINA RESULT:      -4.6      1.861      3.762
REMARK  0 active torsions:
REMARK  status: ('A' for Active; 'I' for Inactive)
ROOT
HETATM    1  C1  UNL     1     -33.587  17.390  -4.343  1.00 20.00    -0.029 C 
HETATM    2  C2  UNL     1     -34.268  17.693  -3.226  1.00 20.00    -0.014 C 
HETATM    3  C3  UNL     1     -35.529  15.479  -2.984  1.00 20.00     0.143 C 
HETATM    4  C4  UNL     1     -33.531  16.076  -5.063  1.00 20.00     0.032 C 
HETATM    5  C5  UNL     1     -34.265  13.684  -4.381  1.00 20.00     0.018 A 
HETATM    6  C6  UNL     1     -34.390  14.541  -3.147  1.00 20.00     0.061 A 
HETATM    7  C7  UNL     1     -33.358  14.867  -4.195  1.00 20.00     0.001 A 
HETATM    8  C8  UNL     1     -35.200  16.854  -2.373  1.00 20.00     0.031 C 
HETATM    9  C9  UNL     1     -34.572  16.654  -0.983  1.00 20.00     0.027 C 
HETATM   10  C10 UNL     1     -36.518  17.634  -2.201  1.00 20.00     0.027 C 
HETATM   11  O11 UNL     1     -36.655  15.133  -3.329  1.00 20.00    -0.296 OA
ENDROOT
TORSDOF 0
ENDMDL
MODEL 7
REMARK VINA RESULT:      -4.6      1.664      2.485
REMARK  0 active torsions:
REMARK  status: ('A' for Active; 'I' for Inactive)
ROOT
HETATM    1  C1  UNL     1     -35.172  16.538  -2.563  1.00 20.00    -0.029 C 
HETATM    2  C2  UNL     1     -34.842  15.249  -2.742  1.00 20.00    -0.014 C 
HETATM    3  C3  UNL     1     -34.157  15.410  -5.203  1.00 20.00     0.143 C 
HETATM    4  C4  UNL     1     -35.006  17.675  -3.525  1.00 20.00     0.032 C 
HETATM    5  C5  UNL     1     -33.662  17.910  -5.731  1.00 20.00     0.018 A 
HETATM    6  C6  UNL     1     -33.262  16.591  -5.120  1.00 20.00     0.061 A 
HETATM    7  C7  UNL     1     -33.690  17.735  -4.239  1.00 20.00     0.001 A 
HETATM    8  C8  UNL     1     -34.248  14.532  -3.941  1.00 20.00     0.031 C 
HETATM    9  C9  UNL     1     -32.846  14.016  -3.578  1.00 20.00     0.027 C 
HETATM   10  C10 UNL     1     -35.144  13.319  -4.260  1.00 20.00     0.027 C 
HETATM   11  O11 UNL     1     -34.768  15.184  -6.242  1.00 20.00    -0.296 OA
ENDROOT
TORSDOF 0
ENDMDL
MODEL 8
REMARK VINA RESULT:      -4.6      1.594      3.175
REMARK  0 active torsions:
REMARK  status: ('A' for Active; 'I' for Inactive)
ROOT
HETATM    1  C1  UNL     1     -35.202  14.358  -7.001  1.00 20.00    -0.029 C 
HETATM    2  C2  UNL     1     -35.104  13.967  -5.720  1.00 20.00    -0.014 C 
HETATM    3  C3  UNL     1     -33.834  16.007  -4.838  1.00 20.00     0.143 C 
HETATM    4  C4  UNL     1     -34.800  15.672  -7.599  1.00 20.00     0.032 C 
HETATM    5  C5  UNL     1     -34.173  17.952  -6.533  1.00 20.00     0.018 A 
HETATM    6  C6  UNL     1     -34.682  17.079  -5.415  1.00 20.00     0.061 A 
HETATM    7  C7  UNL     1     -35.195  16.889  -6.819  1.00 20.00     0.001 A 
HETATM    8  C8  UNL     1     -34.542  14.680  -4.505  1.00 20.00     0.031 C 
HETATM    9  C9  UNL     1     -35.679  14.949  -3.505  1.00 20.00     0.027 C 
HETATM   10  C10 UNL     1     -33.519  13.742  -3.834  1.00 20.00     0.027 C 
HETATM   11  O11 UNL     1     -32.639  16.213  -4.652  1.00 20.00    -0.296 OA
ENDROOT
TORSDOF 0
ENDMDL
MODEL 9
REMARK VINA RESULT:      -4.5      1.465      3.689
REMARK  0 active torsions:
REMARK  status: ('A' for Active; 'I' for Inactive)
ROOT
HETATM    1  C1  UNL     1     -33.365  14.635  -3.929  1.00 20.00    -0.029 C 
HETATM    2  C2  UNL     1     -33.300  15.656  -3.060  1.00 20.00    -0.014 C 
HETATM    3  C3  UNL     1     -35.659  16.576  -3.438  1.00 20.00     0.143 C 
HETATM    4  C4  UNL     1     -34.552  14.165  -4.715  1.00 20.00     0.032 C 
HETATM    5  C5  UNL     1     -37.085  14.691  -4.528  1.00 20.00     0.018 A 
HETATM    6  C6  UNL     1     -36.425  15.310  -3.322  1.00 20.00     0.061 A 
HETATM    7  C7  UNL     1     -35.840  14.075  -3.955  1.00 20.00     0.001 A 
HETATM    8  C8  UNL     1     -34.352  16.660  -2.627  1.00 20.00     0.031 C 
HETATM    9  C9  UNL     1     -34.665  16.453  -1.136  1.00 20.00     0.027 C 
HETATM   10  C10 UNL     1     -33.762  18.073  -2.806  1.00 20.00     0.027 C 
HETATM   11  O11 UNL     1     -36.083  17.479  -4.151  1.00 20.00    -0.296 OA
ENDROOT
TORSDOF 0
ENDMDL
