MODEL 1
REMARK VINA RESULT:      -4.5      0.000      0.000
REMARK  1 active torsions:
REMARK  status: ('A' for Active; 'I' for Inactive)
REMARK    1  A    between atoms: C6_6  and  O10_10 
ROOT
HETATM    1  C1  UNL     1     -40.801   5.914  -0.155  1.00 20.00     0.003 C 
HETATM    2  C2  UNL     1     -41.360   7.151  -0.865  1.00 20.00     0.032 C 
HETATM    3  C3  UNL     1     -40.684   4.660  -1.020  1.00 20.00     0.010 C 
HETATM    4  C4  UNL     1     -43.247   4.920  -1.601  1.00 20.00     0.017 A 
HETATM    5  C5  UNL     1     -42.410   5.653  -2.620  1.00 20.00     0.023 A 
HETATM    6  C6  UNL     1     -41.715   6.950  -2.339  1.00 20.00     0.125 C 
HETATM    7  C7  UNL     1     -41.858   4.422  -1.947  1.00 20.00    -0.038 A 
HETATM    8  C8  UNL     1     -41.756   3.159  -2.759  1.00 20.00     0.015 C 
ENDROOT
BRANCH   6   9
HETATM    9  O10 UNL     1     -42.549   8.023  -2.772  1.00 20.00    -0.390 OA
HETATM   10  C9  UNL     1     -42.701   8.023  -4.183  1.00 20.00     0.202 C 
ENDBRANCH   6   9
TORSDOF 1
ENDMDL
MODEL 2
REMARK VINA RESULT:      -4.3     11.375     12.858
REMARK  1 active torsions:
REMARK  status: ('A' for Active; 'I' for Inactive)
REMARK    1  A    between atoms: C6_6  and  O10_10 
ROOT
HETATM    1  C1  UNL     1     -33.770  17.051  -4.708  1.00 20.00     0.003 C 
HETATM    2  C2  UNL     1     -33.645  15.557  -5.026  1.00 20.00     0.032 C 
HETATM    3  C3  UNL     1     -33.739  17.408  -3.222  1.00 20.00     0.010 C 
HETATM    4  C4  UNL     1     -35.731  15.712  -2.858  1.00 20.00     0.017 A 
HETATM    5  C5  UNL     1     -34.412  15.005  -2.673  1.00 20.00     0.023 A 
HETATM    6  C6  UNL     1     -33.504  14.643  -3.809  1.00 20.00     0.125 C 
HETATM    7  C7  UNL     1     -34.527  16.469  -2.332  1.00 20.00    -0.038 A 
HETATM    8  C8  UNL     1     -34.531  16.857  -0.878  1.00 20.00     0.015 C 
ENDROOT
BRANCH   6   9
HETATM    9  O10 UNL     1     -33.769  13.297  -4.199  1.00 20.00    -0.390 OA
HETATM   10  C9  UNL     1     -34.718  13.241  -5.254  1.00 20.00     0.202 C 
ENDBRANCH   6   9
TORSDOF 1
ENDMDL
MODEL 3
REMARK VINA RESULT:      -4.3      9.251     10.541
REMARK  1 active torsions:
REMARK  status: ('A' for Active; 'I' for Inactive)
REMARK    1  A    between atoms: C6_6  and  O10_10 
ROOT
HETATM    1  C1  UNL     1     -33.658   7.047   6.117  1.00 20.00     0.003 C 
HETATM    2  C2  UNL     1     -32.931   7.320   4.796  1.00 20.00     0.032 C 
HETATM    3  C3  UNL     1     -34.157   5.615   6.305  1.00 20.00     0.010 C 
HETATM    4  C4  UNL     1     -35.439   5.847   4.007  1.00 20.00     0.017 A 
HETATM    5  C5  UNL     1     -34.056   5.291   3.773  1.00 20.00     0.023 A 
HETATM    6  C6  UNL     1     -32.809   6.116   3.861  1.00 20.00     0.125 C 
HETATM    7  C7  UNL     1     -34.771   4.993   5.067  1.00 20.00    -0.038 A 
HETATM    8  C8  UNL     1     -35.304   3.601   5.276  1.00 20.00     0.015 C 
ENDROOT
BRANCH   6   9
HETATM    9  O10 UNL     1     -32.465   6.571   2.554  1.00 20.00    -0.390 OA
HETATM   10  C9  UNL     1     -32.078   7.937   2.565  1.00 20.00     0.202 C 
ENDBRANCH   6   9
TORSDOF 1
ENDMDL
MODEL 4
REMARK VINA RESULT:      -4.3     10.687     12.249
REMARK  1 active torsions:
REMARK  status: ('A' for Active; 'I' for Inactive)
REMARK    1  A    between atoms: C6_6  and  O10_10 
ROOT
HETATM    1  C1  UNL     1     -33.094  14.545  -3.766  1.00 20.00     0.003 C 
HETATM    2  C2  UNL     1     -34.463  13.925  -3.470  1.00 20.00     0.032 C 
HETATM    3  C3  UNL     1     -33.129  15.902  -4.468  1.00 20.00     0.010 C 
HETATM    4  C4  UNL     1     -34.620  14.799  -6.349  1.00 20.00     0.017 A 
HETATM    5  C5  UNL     1     -35.499  15.381  -5.269  1.00 20.00     0.023 A 
HETATM    6  C6  UNL     1     -35.665  14.758  -3.916  1.00 20.00     0.125 C 
HETATM    7  C7  UNL     1     -34.164  16.017  -5.568  1.00 20.00    -0.038 A 
HETATM    8  C8  UNL     1     -34.158  17.340  -6.286  1.00 20.00     0.015 C 
ENDROOT
BRANCH   6   9
HETATM    9  O10 UNL     1     -36.829  13.934  -3.929  1.00 20.00    -0.390 OA
HETATM   10  C9  UNL     1     -38.013  14.710  -4.031  1.00 20.00     0.202 C 
ENDBRANCH   6   9
TORSDOF 1
ENDMDL
MODEL 5
REMARK VINA RESULT:      -4.2     11.758     13.128
REMARK  1 active torsions:
REMARK  status: ('A' for Active; 'I' for Inactive)
REMARK    1  A    between atoms: C6_6  and  O10_10 
ROOT
HETATM    1  C1  UNL     1     -33.627  16.860  -5.536  1.00 20.00     0.003 C 
HETATM    2  C2  UNL     1     -33.584  17.535  -4.161  1.00 20.00     0.032 C 
HETATM    3  C3  UNL     1     -34.355  15.517  -5.582  1.00 20.00     0.010 C 
HETATM    4  C4  UNL     1     -32.765  14.681  -3.645  1.00 20.00     0.017 A 
HETATM    5  C5  UNL     1     -34.015  15.292  -3.060  1.00 20.00     0.023 A 
HETATM    6  C6  UNL     1     -34.280  16.767  -3.037  1.00 20.00     0.125 C 
HETATM    7  C7  UNL     1     -34.077  14.608  -4.403  1.00 20.00    -0.038 A 
HETATM    8  C8  UNL     1     -34.760  13.269  -4.481  1.00 20.00     0.015 C 
ENDROOT
BRANCH   6   9
HETATM    9  O10 UNL     1     -33.858  17.291  -1.780  1.00 20.00    -0.390 OA
HETATM   10  C9  UNL     1     -34.595  16.721  -0.708  1.00 20.00     0.202 C 
ENDBRANCH   6   9
TORSDOF 1
ENDMDL
MODEL 6
REMARK VINA RESULT:      -4.1     11.277     12.508
REMARK  1 active torsions:
REMARK  status: ('A' for Active; 'I' for Inactive)
REMARK    1  A    between atoms: C6_6  and  O10_10 
ROOT
HETATM    1  C1  UNL     1     -33.394  13.633  -3.668  1.00 20.00     0.003 C 
HETATM    2  C2  UNL     1     -32.720  14.966  -4.006  1.00 20.00     0.032 C 
HETATM    3  C3  UNL     1     -34.884  13.552  -3.995  1.00 20.00     0.010 C 
HETATM    4  C4  UNL     1     -35.239  15.726  -2.538  1.00 20.00     0.017 A 
HETATM    5  C5  UNL     1     -34.986  16.105  -3.976  1.00 20.00     0.023 A 
HETATM    6  C6  UNL     1     -33.638  16.020  -4.626  1.00 20.00     0.125 C 
HETATM    7  C7  UNL     1     -35.673  14.801  -3.658  1.00 20.00    -0.038 A 
HETATM    8  C8  UNL     1     -37.148  14.694  -3.939  1.00 20.00     0.015 C 
ENDROOT
BRANCH   6   9
HETATM    9  O10 UNL     1     -33.008  17.297  -4.547  1.00 20.00    -0.390 OA
HETATM   10  C9  UNL     1     -33.861  18.327  -5.023  1.00 20.00     0.202 C 
ENDBRANCH   6   9
TORSDOF 1
ENDMDL
MODEL 7
REMARK VINA RESULT:      -4.1     10.437     11.994
REMARK  1 active torsions:
REMARK  status: ('A' for Active; 'I' for Inactive)
REMARK    1  A    between atoms: C6_6  and  O10_10 
ROOT
HETATM    1  C1  UNL     1     -35.166  16.580  -5.580  1.00 20.00     0.003 C 
HETATM    2  C2  UNL     1     -36.428  15.826  -5.149  1.00 20.00     0.032 C 
HETATM    3  C3  UNL     1     -33.845  15.883  -5.260  1.00 20.00     0.010 C 
HETATM    4  C4  UNL     1     -34.621  15.749  -2.738  1.00 20.00     0.017 A 
HETATM    5  C5  UNL     1     -35.051  14.505  -3.477  1.00 20.00     0.023 A 
HETATM    6  C6  UNL     1     -36.179  14.481  -4.464  1.00 20.00     0.125 C 
HETATM    7  C7  UNL     1     -33.794  15.225  -3.896  1.00 20.00    -0.038 A 
HETATM    8  C8  UNL     1     -32.472  14.582  -3.571  1.00 20.00     0.015 C 
ENDROOT
BRANCH   6   9
HETATM    9  O10 UNL     1     -37.368  14.068  -3.794  1.00 20.00    -0.390 OA
HETATM   10  C9  UNL     1     -38.324  15.117  -3.742  1.00 20.00     0.202 C 
ENDBRANCH   6   9
TORSDOF 1
ENDMDL
MODEL 8
REMARK VINA RESULT:      -4.1     11.239     12.675
REMARK  1 active torsions:
REMARK  status: ('A' for Active; 'I' for Inactive)
REMARK    1  A    between atoms: C6_6  and  O10_10 
ROOT
HETATM    1  C1  UNL     1     -34.771  13.673  -3.814  1.00 20.00     0.003 C 
HETATM    2  C2  UNL     1     -34.279  14.936  -3.099  1.00 20.00     0.032 C 
HETATM    3  C3  UNL     1     -34.548  13.648  -5.326  1.00 20.00     0.010 C 
HETATM    4  C4  UNL     1     -35.837  15.949  -5.471  1.00 20.00     0.017 A 
HETATM    5  C5  UNL     1     -34.359  16.196  -5.298  1.00 20.00     0.023 A 
HETATM    6  C6  UNL     1     -33.633  15.985  -4.004  1.00 20.00     0.125 C 
HETATM    7  C7  UNL     1     -34.829  14.962  -6.026  1.00 20.00    -0.038 A 
HETATM    8  C8  UNL     1     -34.654  14.914  -7.520  1.00 20.00     0.015 C 
ENDROOT
BRANCH   6   9
HETATM    9  O10 UNL     1     -33.564  17.227  -3.307  1.00 20.00    -0.390 OA
HETATM   10  C9  UNL     1     -33.841  17.062  -1.925  1.00 20.00     0.202 C 
ENDBRANCH   6   9
TORSDOF 1
ENDMDL
MODEL 9
REMARK VINA RESULT:      -4.1     11.299     12.798
REMARK  1 active torsions:
REMARK  status: ('A' for Active; 'I' for Inactive)
REMARK    1  A    between atoms: C6_6  and  O10_10 
ROOT
HETATM    1  C1  UNL     1     -35.979  14.434  -3.883  1.00 20.00     0.003 C 
HETATM    2  C2  UNL     1     -35.516  14.767  -5.305  1.00 20.00     0.032 C 
HETATM    3  C3  UNL     1     -35.548  15.427  -2.805  1.00 20.00     0.010 C 
HETATM    4  C4  UNL     1     -33.052  15.080  -3.598  1.00 20.00     0.017 A 
HETATM    5  C5  UNL     1     -33.677  16.229  -4.350  1.00 20.00     0.023 A 
HETATM    6  C6  UNL     1     -34.693  16.049  -5.437  1.00 20.00     0.125 C 
HETATM    7  C7  UNL     1     -34.124  15.928  -2.941  1.00 20.00    -0.038 A 
HETATM    8  C8  UNL     1     -33.693  16.867  -1.848  1.00 20.00     0.015 C 
ENDROOT
BRANCH   6   9
HETATM    9  O10 UNL     1     -34.024  16.050  -6.696  1.00 20.00    -0.390 OA
HETATM   10  C9  UNL     1     -34.481  14.993  -7.527  1.00 20.00     0.202 C 
ENDBRANCH   6   9
TORSDOF 1
ENDMDL
