MODEL 1
REMARK VINA RESULT:      -4.9      0.000      0.000
REMARK  1 active torsions:
REMARK  status: ('A' for Active; 'I' for Inactive)
REMARK    1  A    between atoms: C6_6  and  O10_10 
ROOT
HETATM    1  C1  UNL     1     -34.906   5.040   2.990  1.00 20.00     0.003 C 
HETATM    2  C2  UNL     1     -33.586   5.786   2.736  1.00 20.00     0.032 C 
HETATM    3  C3  UNL     1     -35.544   5.327   4.353  1.00 20.00     0.010 C 
HETATM    4  C4  UNL     1     -34.230   6.560   6.236  1.00 20.00     0.017 A 
HETATM    5  C5  UNL     1     -33.264   6.112   5.173  1.00 20.00     0.023 A 
HETATM    6  C6  UNL     1     -33.214   6.788   3.833  1.00 20.00     0.125 C 
HETATM    7  C7  UNL     1     -34.505   5.294   5.453  1.00 20.00    -0.038 A 
HETATM    8  C8  UNL     1     -34.339   3.973   6.149  1.00 20.00     0.015 C 
ENDROOT
BRANCH   6   9
HETATM    9  O10 UNL     1     -31.900   7.286   3.604  1.00 20.00    -0.390 OA
HETATM   10  C9  UNL     1     -31.831   8.007   2.386  1.00 20.00     0.202 C 
ENDBRANCH   6   9
TORSDOF 1
ENDMDL
MODEL 2
REMARK VINA RESULT:      -4.4      9.375     10.769
REMARK  1 active torsions:
REMARK  status: ('A' for Active; 'I' for Inactive)
REMARK    1  A    between atoms: C6_6  and  O10_10 
ROOT
HETATM    1  C1  UNL     1     -41.187   7.250  -0.709  1.00 20.00     0.003 C 
HETATM    2  C2  UNL     1     -42.109   7.529  -1.908  1.00 20.00     0.032 C 
HETATM    3  C3  UNL     1     -40.682   5.806  -0.621  1.00 20.00     0.010 C 
HETATM    4  C4  UNL     1     -41.720   3.913  -2.082  1.00 20.00     0.017 A 
HETATM    5  C5  UNL     1     -42.627   5.113  -2.115  1.00 20.00     0.023 A 
HETATM    6  C6  UNL     1     -42.248   6.351  -2.876  1.00 20.00     0.125 C 
HETATM    7  C7  UNL     1     -41.806   4.824  -0.877  1.00 20.00    -0.038 A 
HETATM    8  C8  UNL     1     -42.524   4.328   0.346  1.00 20.00     0.015 C 
ENDROOT
BRANCH   6   9
HETATM    9  O10 UNL     1     -43.256   6.638  -3.841  1.00 20.00    -0.390 OA
HETATM   10  C9  UNL     1     -43.147   7.969  -4.315  1.00 20.00     0.202 C 
ENDBRANCH   6   9
TORSDOF 1
ENDMDL
MODEL 3
REMARK VINA RESULT:      -4.3      0.814      2.467
REMARK  1 active torsions:
REMARK  status: ('A' for Active; 'I' for Inactive)
REMARK    1  A    between atoms: C6_6  and  O10_10 
ROOT
HETATM    1  C1  UNL     1     -34.482   5.788   6.202  1.00 20.00     0.003 C 
HETATM    2  C2  UNL     1     -33.353   6.717   5.726  1.00 20.00     0.032 C 
HETATM    3  C3  UNL     1     -34.940   4.762   5.161  1.00 20.00     0.010 C 
HETATM    4  C4  UNL     1     -34.212   4.942   2.664  1.00 20.00     0.017 A 
HETATM    5  C5  UNL     1     -33.918   6.245   3.358  1.00 20.00     0.023 A 
HETATM    6  C6  UNL     1     -32.793   6.362   4.346  1.00 20.00     0.125 C 
HETATM    7  C7  UNL     1     -35.098   5.407   3.800  1.00 20.00    -0.038 A 
HETATM    8  C8  UNL     1     -36.478   5.902   3.475  1.00 20.00     0.015 C 
ENDROOT
BRANCH   6   9
HETATM    9  O10 UNL     1     -31.892   7.378   3.916  1.00 20.00    -0.390 OA
HETATM   10  C9  UNL     1     -32.142   7.748   2.571  1.00 20.00     0.202 C 
ENDBRANCH   6   9
TORSDOF 1
ENDMDL
MODEL 4
REMARK VINA RESULT:      -4.3     11.599     13.402
REMARK  1 active torsions:
REMARK  status: ('A' for Active; 'I' for Inactive)
REMARK    1  A    between atoms: C6_6  and  O10_10 
ROOT
HETATM    1  C1  UNL     1     -33.292  16.601  -5.238  1.00 20.00     0.003 C 
HETATM    2  C2  UNL     1     -34.147  16.044  -6.389  1.00 20.00     0.032 C 
HETATM    3  C3  UNL     1     -33.114  15.640  -4.058  1.00 20.00     0.010 C 
HETATM    4  C4  UNL     1     -34.560  13.482  -3.834  1.00 20.00     0.017 A 
HETATM    5  C5  UNL     1     -35.182  14.388  -4.862  1.00 20.00     0.023 A 
HETATM    6  C6  UNL     1     -34.553  14.578  -6.212  1.00 20.00     0.125 C 
HETATM    7  C7  UNL     1     -34.428  14.983  -3.693  1.00 20.00    -0.038 A 
HETATM    8  C8  UNL     1     -35.220  15.673  -2.618  1.00 20.00     0.015 C 
ENDROOT
BRANCH   6   9
HETATM    9  O10 UNL     1     -35.487  14.213  -7.223  1.00 20.00    -0.390 OA
HETATM   10  C9  UNL     1     -36.626  15.055  -7.197  1.00 20.00     0.202 C 
ENDBRANCH   6   9
TORSDOF 1
ENDMDL
MODEL 5
REMARK VINA RESULT:      -4.3     11.809     13.141
REMARK  1 active torsions:
REMARK  status: ('A' for Active; 'I' for Inactive)
REMARK    1  A    between atoms: C6_6  and  O10_10 
ROOT
HETATM    1  C1  UNL     1     -35.397  16.629  -5.452  1.00 20.00     0.003 C 
HETATM    2  C2  UNL     1     -36.628  16.097  -4.700  1.00 20.00     0.032 C 
HETATM    3  C3  UNL     1     -34.345  15.565  -5.780  1.00 20.00     0.010 C 
HETATM    4  C4  UNL     1     -34.429  13.195  -4.699  1.00 20.00     0.017 A 
HETATM    5  C5  UNL     1     -35.347  14.114  -3.941  1.00 20.00     0.023 A 
HETATM    6  C6  UNL     1     -36.648  14.574  -4.534  1.00 20.00     0.125 C 
HETATM    7  C7  UNL     1     -34.096  14.667  -4.588  1.00 20.00    -0.038 A 
HETATM    8  C8  UNL     1     -32.960  15.078  -3.694  1.00 20.00     0.015 C 
ENDROOT
BRANCH   6   9
HETATM    9  O10 UNL     1     -37.718  14.199  -3.673  1.00 20.00    -0.390 OA
HETATM   10  C9  UNL     1     -38.934  14.805  -4.073  1.00 20.00     0.202 C 
ENDBRANCH   6   9
TORSDOF 1
ENDMDL
MODEL 6
REMARK VINA RESULT:      -4.2     11.497     12.406
REMARK  1 active torsions:
REMARK  status: ('A' for Active; 'I' for Inactive)
REMARK    1  A    between atoms: C6_6  and  O10_10 
ROOT
HETATM    1  C1  UNL     1     -36.788  15.271  -3.687  1.00 20.00     0.003 C 
HETATM    2  C2  UNL     1     -35.949  16.196  -2.790  1.00 20.00     0.032 C 
HETATM    3  C3  UNL     1     -36.060  14.004  -4.149  1.00 20.00     0.010 C 
HETATM    4  C4  UNL     1     -33.485  13.732  -3.849  1.00 20.00     0.017 A 
HETATM    5  C5  UNL     1     -33.855  15.175  -3.641  1.00 20.00     0.023 A 
HETATM    6  C6  UNL     1     -34.582  15.620  -2.405  1.00 20.00     0.125 C 
HETATM    7  C7  UNL     1     -34.653  14.326  -4.606  1.00 20.00    -0.038 A 
HETATM    8  C8  UNL     1     -34.494  14.588  -6.077  1.00 20.00     0.015 C 
ENDROOT
BRANCH   6   9
HETATM    9  O10 UNL     1     -33.813  16.614  -1.737  1.00 20.00    -0.390 OA
HETATM   10  C9  UNL     1     -34.455  17.047  -0.549  1.00 20.00     0.202 C 
ENDBRANCH   6   9
TORSDOF 1
ENDMDL
MODEL 7
REMARK VINA RESULT:      -4.2     11.703     13.024
REMARK  1 active torsions:
REMARK  status: ('A' for Active; 'I' for Inactive)
REMARK    1  A    between atoms: C6_6  and  O10_10 
ROOT
HETATM    1  C1  UNL     1     -33.564  17.548  -4.743  1.00 20.00     0.003 C 
HETATM    2  C2  UNL     1     -33.292  16.038  -4.850  1.00 20.00     0.032 C 
HETATM    3  C3  UNL     1     -33.919  18.030  -3.333  1.00 20.00     0.010 C 
HETATM    4  C4  UNL     1     -34.504  16.347  -1.430  1.00 20.00     0.017 A 
HETATM    5  C5  UNL     1     -34.549  15.630  -2.752  1.00 20.00     0.023 A 
HETATM    6  C6  UNL     1     -33.290  15.307  -3.504  1.00 20.00     0.125 C 
HETATM    7  C7  UNL     1     -34.916  17.096  -2.679  1.00 20.00    -0.038 A 
HETATM    8  C8  UNL     1     -36.361  17.473  -2.844  1.00 20.00     0.015 C 
ENDROOT
BRANCH   6   9
HETATM    9  O10 UNL     1     -33.216  13.902  -3.720  1.00 20.00    -0.390 OA
HETATM   10  C9  UNL     1     -34.232  13.466  -4.608  1.00 20.00     0.202 C 
ENDBRANCH   6   9
TORSDOF 1
ENDMDL
MODEL 8
REMARK VINA RESULT:      -4.2     11.522     13.142
REMARK  1 active torsions:
REMARK  status: ('A' for Active; 'I' for Inactive)
REMARK    1  A    between atoms: C6_6  and  O10_10 
ROOT
HETATM    1  C1  UNL     1     -33.854  13.673  -3.592  1.00 20.00     0.003 C 
HETATM    2  C2  UNL     1     -33.155  15.026  -3.803  1.00 20.00     0.032 C 
HETATM    3  C3  UNL     1     -34.962  13.367  -4.605  1.00 20.00     0.010 C 
HETATM    4  C4  UNL     1     -35.894  15.209  -6.197  1.00 20.00     0.017 A 
HETATM    5  C5  UNL     1     -35.096  15.862  -5.101  1.00 20.00     0.023 A 
HETATM    6  C6  UNL     1     -33.598  15.766  -5.069  1.00 20.00     0.125 C 
HETATM    7  C7  UNL     1     -35.845  14.578  -4.822  1.00 20.00    -0.038 A 
HETATM    8  C8  UNL     1     -37.072  14.648  -3.958  1.00 20.00     0.015 C 
ENDROOT
BRANCH   6   9
HETATM    9  O10 UNL     1     -33.041  17.077  -5.079  1.00 20.00    -0.390 OA
HETATM   10  C9  UNL     1     -33.846  17.981  -4.343  1.00 20.00     0.202 C 
ENDBRANCH   6   9
TORSDOF 1
ENDMDL
MODEL 9
REMARK VINA RESULT:      -4.1     11.618     13.043
REMARK  1 active torsions:
REMARK  status: ('A' for Active; 'I' for Inactive)
REMARK    1  A    between atoms: C6_6  and  O10_10 
ROOT
HETATM    1  C1  UNL     1     -33.701  13.666  -4.131  1.00 20.00     0.003 C 
HETATM    2  C2  UNL     1     -35.213  13.397  -4.200  1.00 20.00     0.032 C 
HETATM    3  C3  UNL     1     -33.328  15.062  -3.623  1.00 20.00     0.010 C 
HETATM    4  C4  UNL     1     -35.114  16.948  -3.400  1.00 20.00     0.017 A 
HETATM    5  C5  UNL     1     -35.678  15.833  -4.237  1.00 20.00     0.023 A 
HETATM    6  C6  UNL     1     -36.075  14.522  -3.620  1.00 20.00     0.125 C 
HETATM    7  C7  UNL     1     -34.193  16.122  -4.272  1.00 20.00    -0.038 A 
HETATM    8  C8  UNL     1     -33.624  16.753  -5.511  1.00 20.00     0.015 C 
ENDROOT
BRANCH   6   9
HETATM    9  O10 UNL     1     -37.448  14.268  -3.896  1.00 20.00    -0.390 OA
HETATM   10  C9  UNL     1     -37.927  15.109  -4.932  1.00 20.00     0.202 C 
ENDBRANCH   6   9
TORSDOF 1
ENDMDL
