MODEL 1
REMARK VINA RESULT:      -5.3      0.000      0.000
REMARK  0 active torsions:
REMARK  status: ('A' for Active; 'I' for Inactive)
ROOT
HETATM    1  C1  UNL     1     -33.831  16.282  -6.225  1.00 20.00    -0.030 C 
HETATM    2  C2  UNL     1     -33.720  17.337  -5.412  1.00 20.00    -0.030 C 
HETATM    3  C3  UNL     1     -36.739  14.651  -3.843  1.00 20.00     0.128 C 
HETATM    4  C4  UNL     1     -34.354  14.955  -5.781  1.00 20.00     0.037 C 
HETATM    5  C5  UNL     1     -34.088  17.308  -3.962  1.00 20.00     0.037 C 
HETATM    6  C6  UNL     1     -35.532  13.743  -3.912  1.00 20.00     0.088 C 
HETATM    7  C7  UNL     1     -36.360  16.114  -3.801  1.00 20.00     0.088 C 
HETATM    8  C8  UNL     1     -34.401  14.746  -4.233  1.00 20.00    -0.026 C 
HETATM    9  C9  UNL     1     -34.846  16.048  -3.483  1.00 20.00    -0.026 C 
HETATM   10  C10 UNL     1     -33.044  14.201  -3.758  1.00 20.00     0.016 C 
HETATM   11  C11 UNL     1     -34.682  15.971  -1.944  1.00 20.00     0.016 C 
HETATM   12  O12 UNL     1     -37.895  14.246  -3.825  1.00 20.00    -0.298 OA
ENDROOT
TORSDOF 0
ENDMDL
MODEL 2
REMARK VINA RESULT:      -5.3      1.536      2.297
REMARK  0 active torsions:
REMARK  status: ('A' for Active; 'I' for Inactive)
ROOT
HETATM    1  C1  UNL     1     -33.546  17.375  -4.971  1.00 20.00    -0.030 C 
HETATM    2  C2  UNL     1     -34.790  17.777  -5.245  1.00 20.00    -0.030 C 
HETATM    3  C3  UNL     1     -34.783  13.478  -4.694  1.00 20.00     0.128 C 
HETATM    4  C4  UNL     1     -33.235  16.111  -4.237  1.00 20.00     0.037 C 
HETATM    5  C5  UNL     1     -36.015  17.023  -4.834  1.00 20.00     0.037 C 
HETATM    6  C6  UNL     1     -34.212  13.953  -3.378  1.00 20.00     0.088 C 
HETATM    7  C7  UNL     1     -35.582  14.552  -5.399  1.00 20.00     0.088 C 
HETATM    8  C8  UNL     1     -34.439  15.479  -3.468  1.00 20.00    -0.026 C 
HETATM    9  C9  UNL     1     -35.776  15.601  -4.276  1.00 20.00    -0.026 C 
HETATM   10  C10 UNL     1     -34.518  16.098  -2.062  1.00 20.00     0.016 C 
HETATM   11  C11 UNL     1     -37.037  15.207  -3.466  1.00 20.00     0.016 C 
HETATM   12  O12 UNL     1     -34.616  12.350  -5.142  1.00 20.00    -0.298 OA
ENDROOT
TORSDOF 0
ENDMDL
MODEL 3
REMARK VINA RESULT:      -5.2      1.741      3.369
REMARK  0 active torsions:
REMARK  status: ('A' for Active; 'I' for Inactive)
ROOT
HETATM    1  C1  UNL     1     -34.246  17.301  -1.482  1.00 20.00    -0.030 C 
HETATM    2  C2  UNL     1     -33.719  18.104  -2.412  1.00 20.00    -0.030 C 
HETATM    3  C3  UNL     1     -33.502  14.001  -3.795  1.00 20.00     0.128 C 
HETATM    4  C4  UNL     1     -34.808  15.950  -1.786  1.00 20.00     0.037 C 
HETATM    5  C5  UNL     1     -33.646  17.754  -3.864  1.00 20.00     0.037 C 
HETATM    6  C6  UNL     1     -34.986  14.161  -3.551  1.00 20.00     0.088 C 
HETATM    7  C7  UNL     1     -32.804  15.327  -3.996  1.00 20.00     0.088 C 
HETATM    8  C8  UNL     1     -35.102  15.681  -3.297  1.00 20.00    -0.026 C 
HETATM    9  C9  UNL     1     -33.995  16.290  -4.224  1.00 20.00    -0.026 C 
HETATM   10  C10 UNL     1     -36.518  16.179  -3.630  1.00 20.00     0.016 C 
HETATM   11  C11 UNL     1     -34.354  16.261  -5.731  1.00 20.00     0.016 C 
HETATM   12  O12 UNL     1     -32.930  12.919  -3.824  1.00 20.00    -0.298 OA
ENDROOT
TORSDOF 0
ENDMDL
MODEL 4
REMARK VINA RESULT:      -5.0      1.568      2.837
REMARK  0 active torsions:
REMARK  status: ('A' for Active; 'I' for Inactive)
ROOT
HETATM    1  C1  UNL     1     -36.157  17.025  -3.300  1.00 20.00    -0.030 C 
HETATM    2  C2  UNL     1     -35.357  16.906  -2.236  1.00 20.00    -0.030 C 
HETATM    3  C3  UNL     1     -34.647  13.577  -4.920  1.00 20.00     0.128 C 
HETATM    4  C4  UNL     1     -35.858  16.402  -4.626  1.00 20.00     0.037 C 
HETATM    5  C5  UNL     1     -34.064  16.154  -2.252  1.00 20.00     0.037 C 
HETATM    6  C6  UNL     1     -34.371  14.758  -5.823  1.00 20.00     0.088 C 
HETATM    7  C7  UNL     1     -34.520  13.927  -3.455  1.00 20.00     0.088 C 
HETATM    8  C8  UNL     1     -34.381  15.931  -4.818  1.00 20.00    -0.026 C 
HETATM    9  C9  UNL     1     -33.797  15.296  -3.510  1.00 20.00    -0.026 C 
HETATM   10  C10 UNL     1     -33.545  17.107  -5.351  1.00 20.00     0.016 C 
HETATM   11  C11 UNL     1     -32.271  15.030  -3.570  1.00 20.00     0.016 C 
HETATM   12  O12 UNL     1     -34.943  12.461  -5.330  1.00 20.00    -0.298 OA
ENDROOT
TORSDOF 0
ENDMDL
MODEL 5
REMARK VINA RESULT:      -5.0      1.972      3.071
REMARK  0 active torsions:
REMARK  status: ('A' for Active; 'I' for Inactive)
ROOT
HETATM    1  C1  UNL     1     -34.494  16.327  -7.197  1.00 20.00    -0.030 C 
HETATM    2  C2  UNL     1     -35.692  15.764  -7.383  1.00 20.00    -0.030 C 
HETATM    3  C3  UNL     1     -33.703  13.794  -4.074  1.00 20.00     0.128 C 
HETATM    4  C4  UNL     1     -33.763  16.288  -5.894  1.00 20.00     0.037 C 
HETATM    5  C5  UNL     1     -36.448  15.049  -6.309  1.00 20.00     0.037 C 
HETATM    6  C6  UNL     1     -33.716  15.232  -3.607  1.00 20.00     0.088 C 
HETATM    7  C7  UNL     1     -34.761  13.516  -5.117  1.00 20.00     0.088 C 
HETATM    8  C8  UNL     1     -34.634  15.896  -4.657  1.00 20.00    -0.026 C 
HETATM    9  C9  UNL     1     -35.665  14.768  -5.005  1.00 20.00    -0.026 C 
HETATM   10  C10 UNL     1     -35.287  17.163  -4.081  1.00 20.00     0.016 C 
HETATM   11  C11 UNL     1     -36.709  14.508  -3.890  1.00 20.00     0.016 C 
HETATM   12  O12 UNL     1     -32.921  12.950  -3.655  1.00 20.00    -0.298 OA
ENDROOT
TORSDOF 0
ENDMDL
MODEL 6
REMARK VINA RESULT:      -5.0      1.495      2.645
REMARK  0 active torsions:
REMARK  status: ('A' for Active; 'I' for Inactive)
ROOT
HETATM    1  C1  UNL     1     -35.000  13.386  -5.140  1.00 20.00    -0.030 C 
HETATM    2  C2  UNL     1     -34.830  14.125  -6.241  1.00 20.00    -0.030 C 
HETATM    3  C3  UNL     1     -35.632  16.749  -2.885  1.00 20.00     0.128 C 
HETATM    4  C4  UNL     1     -34.782  13.911  -3.758  1.00 20.00     0.037 C 
HETATM    5  C5  UNL     1     -34.387  15.553  -6.220  1.00 20.00     0.037 C 
HETATM    6  C6  UNL     1     -34.411  16.001  -2.400  1.00 20.00     0.088 C 
HETATM    7  C7  UNL     1     -35.763  16.726  -4.392  1.00 20.00     0.088 C 
HETATM    8  C8  UNL     1     -33.976  15.247  -3.676  1.00 20.00    -0.026 C 
HETATM    9  C9  UNL     1     -34.362  16.233  -4.832  1.00 20.00    -0.026 C 
HETATM   10  C10 UNL     1     -32.473  14.924  -3.627  1.00 20.00     0.016 C 
HETATM   11  C11 UNL     1     -33.431  17.467  -4.940  1.00 20.00     0.016 C 
HETATM   12  O12 UNL     1     -36.427  17.310  -2.141  1.00 20.00    -0.298 OA
ENDROOT
TORSDOF 0
ENDMDL
MODEL 7
REMARK VINA RESULT:      -5.0      2.132      3.438
REMARK  0 active torsions:
REMARK  status: ('A' for Active; 'I' for Inactive)
ROOT
HETATM    1  C1  UNL     1     -35.126  13.758  -5.746  1.00 20.00    -0.030 C 
HETATM    2  C2  UNL     1     -34.469  13.230  -4.709  1.00 20.00    -0.030 C 
HETATM    3  C3  UNL     1     -33.915  17.529  -4.693  1.00 20.00     0.128 C 
HETATM    4  C4  UNL     1     -35.593  15.177  -5.785  1.00 20.00     0.037 C 
HETATM    5  C5  UNL     1     -34.141  13.988  -3.462  1.00 20.00     0.037 C 
HETATM    6  C6  UNL     1     -35.422  17.417  -4.644  1.00 20.00     0.088 C 
HETATM    7  C7  UNL     1     -33.226  16.273  -4.208  1.00 20.00     0.088 C 
HETATM    8  C8  UNL     1     -35.618  15.904  -4.402  1.00 20.00    -0.026 C 
HETATM    9  C9  UNL     1     -34.385  15.514  -3.516  1.00 20.00    -0.026 C 
HETATM   10  C10 UNL     1     -36.969  15.636  -3.718  1.00 20.00     0.016 C 
HETATM   11  C11 UNL     1     -34.482  16.017  -2.053  1.00 20.00     0.016 C 
HETATM   12  O12 UNL     1     -33.319  18.525  -5.085  1.00 20.00    -0.298 OA
ENDROOT
TORSDOF 0
ENDMDL
MODEL 8
REMARK VINA RESULT:      -4.9      1.209      2.175
REMARK  0 active torsions:
REMARK  status: ('A' for Active; 'I' for Inactive)
ROOT
HETATM    1  C1  UNL     1     -34.275  17.637  -4.902  1.00 20.00    -0.030 C 
HETATM    2  C2  UNL     1     -33.326  16.999  -4.210  1.00 20.00    -0.030 C 
HETATM    3  C3  UNL     1     -36.940  14.606  -4.188  1.00 20.00     0.128 C 
HETATM    4  C4  UNL     1     -35.434  16.940  -5.539  1.00 20.00     0.037 C 
HETATM    5  C5  UNL     1     -33.301  15.518  -4.008  1.00 20.00     0.037 C 
HETATM    6  C6  UNL     1     -36.685  14.757  -5.671  1.00 20.00     0.088 C 
HETATM    7  C7  UNL     1     -35.692  14.822  -3.363  1.00 20.00     0.088 C 
HETATM    8  C8  UNL     1     -35.277  15.392  -5.686  1.00 20.00    -0.026 C 
HETATM    9  C9  UNL     1     -34.577  14.756  -4.436  1.00 20.00    -0.026 C 
HETATM   10  C10 UNL     1     -34.558  15.084  -7.010  1.00 20.00     0.016 C 
HETATM   11  C11 UNL     1     -34.183  13.270  -4.628  1.00 20.00     0.016 C 
HETATM   12  O12 UNL     1     -38.036  14.341  -3.709  1.00 20.00    -0.298 OA
ENDROOT
TORSDOF 0
ENDMDL
MODEL 9
REMARK VINA RESULT:      -4.9      1.868      3.188
REMARK  0 active torsions:
REMARK  status: ('A' for Active; 'I' for Inactive)
ROOT
HETATM    1  C1  UNL     1     -33.727  13.373  -4.292  1.00 20.00    -0.030 C 
HETATM    2  C2  UNL     1     -34.948  13.418  -4.834  1.00 20.00    -0.030 C 
HETATM    3  C3  UNL     1     -34.694  16.376  -1.676  1.00 20.00     0.128 C 
HETATM    4  C4  UNL     1     -33.106  14.526  -3.573  1.00 20.00     0.037 C 
HETATM    5  C5  UNL     1     -35.826  14.628  -4.802  1.00 20.00     0.037 C 
HETATM    6  C6  UNL     1     -33.556  16.797  -2.579  1.00 20.00     0.088 C 
HETATM    7  C7  UNL     1     -35.729  15.545  -2.401  1.00 20.00     0.088 C 
HETATM    8  C8  UNL     1     -33.793  15.908  -3.820  1.00 20.00    -0.026 C 
HETATM    9  C9  UNL     1     -35.354  15.780  -3.885  1.00 20.00    -0.026 C 
HETATM   10  C10 UNL     1     -33.181  16.555  -5.074  1.00 20.00     0.016 C 
HETATM   11  C11 UNL     1     -36.068  17.070  -4.361  1.00 20.00     0.016 C 
HETATM   12  O12 UNL     1     -34.768  16.673  -0.490  1.00 20.00    -0.298 OA
ENDROOT
TORSDOF 0
ENDMDL
