MODEL 1
REMARK VINA RESULT:      -4.1      0.000      0.000
REMARK  4 active torsions:
REMARK  status: ('A' for Active; 'I' for Inactive)
REMARK    1  A    between atoms: C1_1  and  C3_3 
REMARK    2  A    between atoms: C3_3  and  N6_6 
REMARK    3  A    between atoms: C4_4  and  C5_5 
REMARK    4  A    between atoms: C4_4  and  N6_6 
ROOT
HETATM    1  C4  UNL     1     -34.668  15.773  -2.633  1.00 20.00     0.389 C 
ENDROOT
BRANCH   1   2
HETATM    2  C5  UNL     1     -34.433  16.736  -1.496  1.00 20.00     0.413 C 
HETATM    3  F8  UNL     1     -33.114  17.004  -1.369  1.00 20.00    -0.169 F 
HETATM    4  F9  UNL     1     -35.070  17.908  -1.704  1.00 20.00    -0.169 F 
HETATM    5  F10 UNL     1     -34.862  16.226  -0.323  1.00 20.00    -0.169 F 
ENDBRANCH   1   2
BRANCH   1   6
HETATM    6  N6  UNL     1     -33.425  15.455  -3.336  1.00 20.00     0.099 N 
HETATM    7  C2  UNL     1     -33.305  16.261  -4.551  1.00 20.00     0.310 C 
BRANCH   6   8
HETATM    8  C3  UNL     1     -33.371  14.030  -3.660  1.00 20.00     0.341 C 
BRANCH   8   9
HETATM    9  C1  UNL     1     -34.754  13.577  -4.036  1.00 20.00     0.261 C 
HETATM   10  O7  UNL     1     -34.963  12.537  -4.656  1.00 20.00    -0.305 OA
ENDBRANCH   8   9
ENDBRANCH   6   8
ENDBRANCH   1   6
TORSDOF 4
ENDMDL
MODEL 2
REMARK VINA RESULT:      -4.0     10.895     11.593
REMARK  4 active torsions:
REMARK  status: ('A' for Active; 'I' for Inactive)
REMARK    1  A    between atoms: C1_1  and  C3_3 
REMARK    2  A    between atoms: C3_3  and  N6_6 
REMARK    3  A    between atoms: C4_4  and  C5_5 
REMARK    4  A    between atoms: C4_4  and  N6_6 
ROOT
HETATM    1  C4  UNL     1     -32.748   6.269   3.168  1.00 20.00     0.389 C 
ENDROOT
BRANCH   1   2
HETATM    2  C5  UNL     1     -32.106   7.581   2.795  1.00 20.00     0.413 C 
HETATM    3  F8  UNL     1     -31.174   7.928   3.711  1.00 20.00    -0.169 F 
HETATM    4  F9  UNL     1     -31.492   7.506   1.596  1.00 20.00    -0.169 F 
HETATM    5  F10 UNL     1     -33.016   8.577   2.740  1.00 20.00    -0.169 F 
ENDBRANCH   1   2
BRANCH   1   6
HETATM    6  N6  UNL     1     -33.983   6.469   3.926  1.00 20.00     0.099 N 
HETATM    7  C2  UNL     1     -33.698   6.536   5.359  1.00 20.00     0.310 C 
BRANCH   6   8
HETATM    8  C3  UNL     1     -34.936   5.395   3.644  1.00 20.00     0.341 C 
BRANCH   8   9
HETATM    9  C1  UNL     1     -35.227   4.670   4.927  1.00 20.00     0.261 C 
HETATM   10  O7  UNL     1     -35.119   3.451   5.037  1.00 20.00    -0.305 OA
ENDBRANCH   8   9
ENDBRANCH   6   8
ENDBRANCH   1   6
TORSDOF 4
ENDMDL
MODEL 3
REMARK VINA RESULT:      -3.9     11.461     12.139
REMARK  4 active torsions:
REMARK  status: ('A' for Active; 'I' for Inactive)
REMARK    1  A    between atoms: C1_1  and  C3_3 
REMARK    2  A    between atoms: C3_3  and  N6_6 
REMARK    3  A    between atoms: C4_4  and  C5_5 
REMARK    4  A    between atoms: C4_4  and  N6_6 
ROOT
HETATM    1  C4  UNL     1     -33.585   7.127   3.487  1.00 20.00     0.389 C 
ENDROOT
BRANCH   1   2
HETATM    2  C5  UNL     1     -32.122   7.040   3.131  1.00 20.00     0.413 C 
HETATM    3  F8  UNL     1     -31.723   5.750   3.082  1.00 20.00    -0.169 F 
HETATM    4  F9  UNL     1     -31.876   7.591   1.923  1.00 20.00    -0.169 F 
HETATM    5  F10 UNL     1     -31.355   7.671   4.045  1.00 20.00    -0.169 F 
ENDBRANCH   1   2
BRANCH   1   6
HETATM    6  N6  UNL     1     -34.056   5.904   4.138  1.00 20.00     0.099 N 
HETATM    7  C2  UNL     1     -35.352   5.502   3.594  1.00 20.00     0.310 C 
BRANCH   6   8
HETATM    8  C3  UNL     1     -34.145   6.098   5.585  1.00 20.00     0.341 C 
BRANCH   8   9
HETATM    9  C1  UNL     1     -34.829   4.902   6.183  1.00 20.00     0.261 C 
HETATM   10  O7  UNL     1     -34.334   3.778   6.160  1.00 20.00    -0.305 OA
ENDBRANCH   8   9
ENDBRANCH   6   8
ENDBRANCH   1   6
TORSDOF 4
ENDMDL
MODEL 4
REMARK VINA RESULT:      -3.8     11.455     12.177
REMARK  4 active torsions:
REMARK  status: ('A' for Active; 'I' for Inactive)
REMARK    1  A    between atoms: C1_1  and  C3_3 
REMARK    2  A    between atoms: C3_3  and  N6_6 
REMARK    3  A    between atoms: C4_4  and  C5_5 
REMARK    4  A    between atoms: C4_4  and  N6_6 
ROOT
HETATM    1  C4  UNL     1     -33.707   6.860   3.928  1.00 20.00     0.389 C 
ENDROOT
BRANCH   1   2
HETATM    2  C5  UNL     1     -32.380   6.870   3.210  1.00 20.00     0.413 C 
HETATM    3  F8  UNL     1     -31.432   7.450   3.978  1.00 20.00    -0.169 F 
HETATM    4  F9  UNL     1     -31.965   5.617   2.926  1.00 20.00    -0.169 F 
HETATM    5  F10 UNL     1     -32.451   7.562   2.054  1.00 20.00    -0.169 F 
ENDBRANCH   1   2
BRANCH   1   6
HETATM    6  N6  UNL     1     -34.096   5.507   4.325  1.00 20.00     0.099 N 
HETATM    7  C2  UNL     1     -35.453   5.211   3.867  1.00 20.00     0.310 C 
BRANCH   6   8
HETATM    8  C3  UNL     1     -33.999   5.353   5.776  1.00 20.00     0.341 C 
BRANCH   8   9
HETATM    9  C1  UNL     1     -34.086   6.714   6.405  1.00 20.00     0.261 C 
HETATM   10  O7  UNL     1     -33.142   7.228   7.000  1.00 20.00    -0.305 OA
ENDBRANCH   8   9
ENDBRANCH   6   8
ENDBRANCH   1   6
TORSDOF 4
ENDMDL
MODEL 5
REMARK VINA RESULT:      -3.8     11.516     12.361
REMARK  4 active torsions:
REMARK  status: ('A' for Active; 'I' for Inactive)
REMARK    1  A    between atoms: C1_1  and  C3_3 
REMARK    2  A    between atoms: C3_3  and  N6_6 
REMARK    3  A    between atoms: C4_4  and  C5_5 
REMARK    4  A    between atoms: C4_4  and  N6_6 
ROOT
HETATM    1  C4  UNL     1     -33.755   5.406   5.044  1.00 20.00     0.389 C 
ENDROOT
BRANCH   1   2
HETATM    2  C5  UNL     1     -35.110   4.766   5.218  1.00 20.00     0.413 C 
HETATM    3  F8  UNL     1     -35.042   3.441   4.962  1.00 20.00    -0.169 F 
HETATM    4  F9  UNL     1     -35.567   4.916   6.479  1.00 20.00    -0.169 F 
HETATM    5  F10 UNL     1     -36.018   5.300   4.375  1.00 20.00    -0.169 F 
ENDBRANCH   1   2
BRANCH   1   6
HETATM    6  N6  UNL     1     -33.697   6.226   3.833  1.00 20.00     0.099 N 
HETATM    7  C2  UNL     1     -33.786   5.384   2.641  1.00 20.00     0.310 C 
BRANCH   6   8
HETATM    8  C3  UNL     1     -32.468   7.018   3.811  1.00 20.00     0.341 C 
BRANCH   8   9
HETATM    9  C1  UNL     1     -32.230   7.485   2.403  1.00 20.00     0.261 C 
HETATM   10  O7  UNL     1     -32.257   8.672   2.087  1.00 20.00    -0.305 OA
ENDBRANCH   8   9
ENDBRANCH   6   8
ENDBRANCH   1   6
TORSDOF 4
ENDMDL
MODEL 6
REMARK VINA RESULT:      -3.8      3.243      3.827
REMARK  4 active torsions:
REMARK  status: ('A' for Active; 'I' for Inactive)
REMARK    1  A    between atoms: C1_1  and  C3_3 
REMARK    2  A    between atoms: C3_3  and  N6_6 
REMARK    3  A    between atoms: C4_4  and  C5_5 
REMARK    4  A    between atoms: C4_4  and  N6_6 
ROOT
HETATM    1  C4  UNL     1     -34.356  14.772  -5.057  1.00 20.00     0.389 C 
ENDROOT
BRANCH   1   2
HETATM    2  C5  UNL     1     -34.112  13.933  -3.827  1.00 20.00     0.413 C 
HETATM    3  F8  UNL     1     -34.948  12.872  -3.805  1.00 20.00    -0.169 F 
HETATM    4  F9  UNL     1     -32.848  13.459  -3.798  1.00 20.00    -0.169 F 
HETATM    5  F10 UNL     1     -34.321  14.643  -2.698  1.00 20.00    -0.169 F 
ENDBRANCH   1   2
BRANCH   1   6
HETATM    6  N6  UNL     1     -35.751  14.698  -5.492  1.00 20.00     0.099 N 
HETATM    7  C2  UNL     1     -35.828  14.632  -6.951  1.00 20.00     0.310 C 
BRANCH   6   8
HETATM    8  C3  UNL     1     -36.504  15.847  -4.991  1.00 20.00     0.341 C 
BRANCH   8   9
HETATM    9  C1  UNL     1     -37.521  15.353  -4.002  1.00 20.00     0.261 C 
HETATM   10  O7  UNL     1     -37.742  14.158  -3.822  1.00 20.00    -0.305 OA
ENDBRANCH   8   9
ENDBRANCH   6   8
ENDBRANCH   1   6
TORSDOF 4
ENDMDL
MODEL 7
REMARK VINA RESULT:      -3.8     11.914     12.706
REMARK  4 active torsions:
REMARK  status: ('A' for Active; 'I' for Inactive)
REMARK    1  A    between atoms: C1_1  and  C3_3 
REMARK    2  A    between atoms: C3_3  and  N6_6 
REMARK    3  A    between atoms: C4_4  and  C5_5 
REMARK    4  A    between atoms: C4_4  and  N6_6 
ROOT
HETATM    1  C4  UNL     1     -34.288   4.701   4.865  1.00 20.00     0.389 C 
ENDROOT
BRANCH   1   2
HETATM    2  C5  UNL     1     -34.523   5.063   6.311  1.00 20.00     0.413 C 
HETATM    3  F8  UNL     1     -33.618   4.448   7.104  1.00 20.00    -0.169 F 
HETATM    4  F9  UNL     1     -34.406   6.392   6.511  1.00 20.00    -0.169 F 
HETATM    5  F10 UNL     1     -35.751   4.682   6.720  1.00 20.00    -0.169 F 
ENDBRANCH   1   2
BRANCH   1   6
HETATM    6  N6  UNL     1     -34.414   5.867   3.990  1.00 20.00     0.099 N 
HETATM    7  C2  UNL     1     -35.725   5.881   3.343  1.00 20.00     0.310 C 
BRANCH   6   8
HETATM    8  C3  UNL     1     -33.348   5.871   2.988  1.00 20.00     0.341 C 
BRANCH   8   9
HETATM    9  C1  UNL     1     -32.316   6.883   3.397  1.00 20.00     0.261 C 
HETATM   10  O7  UNL     1     -31.958   7.798   2.659  1.00 20.00    -0.305 OA
ENDBRANCH   8   9
ENDBRANCH   6   8
ENDBRANCH   1   6
TORSDOF 4
ENDMDL
MODEL 8
REMARK VINA RESULT:      -3.8      1.598      2.147
REMARK  4 active torsions:
REMARK  status: ('A' for Active; 'I' for Inactive)
REMARK    1  A    between atoms: C1_1  and  C3_3 
REMARK    2  A    between atoms: C3_3  and  N6_6 
REMARK    3  A    between atoms: C4_4  and  C5_5 
REMARK    4  A    between atoms: C4_4  and  N6_6 
ROOT
HETATM    1  C4  UNL     1     -34.671  16.582  -3.954  1.00 20.00     0.389 C 
ENDROOT
BRANCH   1   2
HETATM    2  C5  UNL     1     -33.922  16.134  -2.724  1.00 20.00     0.413 C 
HETATM    3  F8  UNL     1     -34.745  15.463  -1.888  1.00 20.00    -0.169 F 
HETATM    4  F9  UNL     1     -32.902  15.309  -3.042  1.00 20.00    -0.169 F 
HETATM    5  F10 UNL     1     -33.416  17.185  -2.045  1.00 20.00    -0.169 F 
ENDBRANCH   1   2
BRANCH   1   6
HETATM    6  N6  UNL     1     -34.326  15.770  -5.121  1.00 20.00     0.099 N 
HETATM    7  C2  UNL     1     -34.141  16.619  -6.297  1.00 20.00     0.310 C 
BRANCH   6   8
HETATM    8  C3  UNL     1     -35.362  14.768  -5.370  1.00 20.00     0.341 C 
BRANCH   8   9
HETATM    9  C1  UNL     1     -34.760  13.405  -5.182  1.00 20.00     0.261 C 
HETATM   10  O7  UNL     1     -34.913  12.751  -4.154  1.00 20.00    -0.305 OA
ENDBRANCH   8   9
ENDBRANCH   6   8
ENDBRANCH   1   6
TORSDOF 4
ENDMDL
MODEL 9
REMARK VINA RESULT:      -3.7      3.306      3.819
REMARK  4 active torsions:
REMARK  status: ('A' for Active; 'I' for Inactive)
REMARK    1  A    between atoms: C1_1  and  C3_3 
REMARK    2  A    between atoms: C3_3  and  N6_6 
REMARK    3  A    between atoms: C4_4  and  C5_5 
REMARK    4  A    between atoms: C4_4  and  N6_6 
ROOT
HETATM    1  C4  UNL     1     -34.386  15.074  -3.411  1.00 20.00     0.389 C 
ENDROOT
BRANCH   1   2
HETATM    2  C5  UNL     1     -34.112  13.808  -4.183  1.00 20.00     0.413 C 
HETATM    3  F8  UNL     1     -32.912  13.293  -3.837  1.00 20.00    -0.169 F 
HETATM    4  F9  UNL     1     -35.047  12.867  -3.933  1.00 20.00    -0.169 F 
HETATM    5  F10 UNL     1     -34.092  14.037  -5.513  1.00 20.00    -0.169 F 
ENDBRANCH   1   2
BRANCH   1   6
HETATM    6  N6  UNL     1     -35.324  15.946  -4.119  1.00 20.00     0.099 N 
HETATM    7  C2  UNL     1     -34.795  17.307  -4.198  1.00 20.00     0.310 C 
BRANCH   6   8
HETATM    8  C3  UNL     1     -36.627  15.940  -3.454  1.00 20.00     0.341 C 
BRANCH   8   9
HETATM    9  C1  UNL     1     -37.556  15.060  -4.241  1.00 20.00     0.261 C 
HETATM   10  O7  UNL     1     -38.195  14.146  -3.725  1.00 20.00    -0.305 OA
ENDBRANCH   8   9
ENDBRANCH   6   8
ENDBRANCH   1   6
TORSDOF 4
ENDMDL
