MODEL 1
REMARK VINA RESULT:      -4.0      0.000      0.000
REMARK  4 active torsions:
REMARK  status: ('A' for Active; 'I' for Inactive)
REMARK    1  A    between atoms: C1_1  and  C7_7 
REMARK    2  A    between atoms: C7_7  and  N10_10 
REMARK    3  A    between atoms: C8_8  and  C9_9 
REMARK    4  A    between atoms: C8_8  and  N10_10 
ROOT
HETATM    1  C2  UNL     1     -34.461  13.261  -4.692  1.00 20.00     0.043 C 
HETATM    2  C8  UNL     1     -34.869  14.672  -4.266  1.00 20.00     0.226 C 
ENDROOT
BRANCH   2   3
HETATM    3  C9  UNL     1     -33.706  15.559  -3.710  1.00 20.00    -0.021 C 
HETATM    4  C3  UNL     1     -33.386  16.746  -4.638  1.00 20.00     0.016 C 
HETATM    5  C4  UNL     1     -34.072  16.113  -2.318  1.00 20.00     0.016 C 
HETATM    6  C5  UNL     1     -32.428  14.706  -3.551  1.00 20.00     0.016 C 
ENDBRANCH   2   3
BRANCH   2   7
HETATM    7  N10 UNL     1     -35.547  15.319  -5.370  1.00 20.00     0.095 N 
HETATM    8  C6  UNL     1     -35.603  14.437  -6.541  1.00 20.00     0.310 C 
BRANCH   7   9
HETATM    9  C7  UNL     1     -36.904  15.727  -4.986  1.00 20.00     0.341 C 
BRANCH   9  10
HETATM   10  C1  UNL     1     -37.318  14.924  -3.786  1.00 20.00     0.261 C 
HETATM   11  O11 UNL     1     -38.295  14.179  -3.794  1.00 20.00    -0.305 OA
ENDBRANCH   9  10
ENDBRANCH   7   9
ENDBRANCH   2   7
TORSDOF 4
ENDMDL
MODEL 2
REMARK VINA RESULT:      -3.9      1.120      2.099
REMARK  4 active torsions:
REMARK  status: ('A' for Active; 'I' for Inactive)
REMARK    1  A    between atoms: C1_1  and  C7_7 
REMARK    2  A    between atoms: C7_7  and  N10_10 
REMARK    3  A    between atoms: C8_8  and  C9_9 
REMARK    4  A    between atoms: C8_8  and  N10_10 
ROOT
HETATM    1  C2  UNL     1     -33.802  16.646  -5.738  1.00 20.00     0.043 C 
HETATM    2  C8  UNL     1     -34.778  15.688  -5.052  1.00 20.00     0.226 C 
ENDROOT
BRANCH   2   3
HETATM    3  C9  UNL     1     -34.232  14.999  -3.758  1.00 20.00    -0.021 C 
HETATM    4  C3  UNL     1     -34.826  15.615  -2.477  1.00 20.00     0.016 C 
HETATM    5  C4  UNL     1     -34.562  13.493  -3.773  1.00 20.00     0.016 C 
HETATM    6  C5  UNL     1     -32.695  15.139  -3.700  1.00 20.00     0.016 C 
ENDBRANCH   2   3
BRANCH   2   7
HETATM    7  N10 UNL     1     -36.021  16.387  -4.796  1.00 20.00     0.095 N 
HETATM    8  C6  UNL     1     -35.964  17.762  -5.305  1.00 20.00     0.310 C 
BRANCH   7   9
HETATM    9  C7  UNL     1     -37.156  15.678  -5.399  1.00 20.00     0.341 C 
BRANCH   9  10
HETATM   10  C1  UNL     1     -38.092  15.262  -4.301  1.00 20.00     0.261 C 
HETATM   11  O11 UNL     1     -38.009  14.175  -3.737  1.00 20.00    -0.305 OA
ENDBRANCH   9  10
ENDBRANCH   7   9
ENDBRANCH   2   7
TORSDOF 4
ENDMDL
MODEL 3
REMARK VINA RESULT:      -3.8      1.854      2.648
REMARK  4 active torsions:
REMARK  status: ('A' for Active; 'I' for Inactive)
REMARK    1  A    between atoms: C1_1  and  C7_7 
REMARK    2  A    between atoms: C7_7  and  N10_10 
REMARK    3  A    between atoms: C8_8  and  C9_9 
REMARK    4  A    between atoms: C8_8  and  N10_10 
ROOT
HETATM    1  C2  UNL     1     -33.339  16.567  -4.720  1.00 20.00     0.043 C 
HETATM    2  C8  UNL     1     -34.411  16.129  -3.721  1.00 20.00     0.226 C 
ENDROOT
BRANCH   2   3
HETATM    3  C9  UNL     1     -34.701  17.148  -2.569  1.00 20.00    -0.021 C 
HETATM    4  C3  UNL     1     -33.703  18.322  -2.568  1.00 20.00     0.016 C 
HETATM    5  C4  UNL     1     -36.127  17.718  -2.703  1.00 20.00     0.016 C 
HETATM    6  C5  UNL     1     -34.612  16.431  -1.204  1.00 20.00     0.016 C 
ENDBRANCH   2   3
BRANCH   2   7
HETATM    7  N10 UNL     1     -35.619  15.792  -4.446  1.00 20.00     0.095 N 
HETATM    8  C6  UNL     1     -35.402  15.874  -5.894  1.00 20.00     0.310 C 
BRANCH   7   9
HETATM    9  C7  UNL     1     -36.089  14.448  -4.086  1.00 20.00     0.341 C 
BRANCH   9  10
HETATM   10  C1  UNL     1     -34.902  13.529  -4.037  1.00 20.00     0.261 C 
HETATM   11  O11 UNL     1     -34.794  12.550  -4.770  1.00 20.00    -0.305 OA
ENDBRANCH   9  10
ENDBRANCH   7   9
ENDBRANCH   2   7
TORSDOF 4
ENDMDL
MODEL 4
REMARK VINA RESULT:      -3.8      1.925      3.016
REMARK  4 active torsions:
REMARK  status: ('A' for Active; 'I' for Inactive)
REMARK    1  A    between atoms: C1_1  and  C7_7 
REMARK    2  A    between atoms: C7_7  and  N10_10 
REMARK    3  A    between atoms: C8_8  and  C9_9 
REMARK    4  A    between atoms: C8_8  and  N10_10 
ROOT
HETATM    1  C2  UNL     1     -33.223  15.622  -3.295  1.00 20.00     0.043 C 
HETATM    2  C8  UNL     1     -34.635  15.853  -2.753  1.00 20.00     0.226 C 
ENDROOT
BRANCH   2   3
HETATM    3  C9  UNL     1     -34.811  17.145  -1.888  1.00 20.00    -0.021 C 
HETATM    4  C3  UNL     1     -34.696  16.854  -0.380  1.00 20.00     0.016 C 
HETATM    5  C4  UNL     1     -33.745  18.193  -2.266  1.00 20.00     0.016 C 
HETATM    6  C5  UNL     1     -36.197  17.771  -2.160  1.00 20.00     0.016 C 
ENDBRANCH   2   3
BRANCH   2   7
HETATM    7  N10 UNL     1     -35.574  15.823  -3.857  1.00 20.00     0.095 N 
HETATM    8  C6  UNL     1     -34.888  16.052  -5.134  1.00 20.00     0.310 C 
BRANCH   7   9
HETATM    9  C7  UNL     1     -36.293  14.544  -3.899  1.00 20.00     0.341 C 
BRANCH   9  10
HETATM   10  C1  UNL     1     -35.544  13.608  -4.803  1.00 20.00     0.261 C 
HETATM   11  O11 UNL     1     -34.978  12.600  -4.388  1.00 20.00    -0.305 OA
ENDBRANCH   9  10
ENDBRANCH   7   9
ENDBRANCH   2   7
TORSDOF 4
ENDMDL
MODEL 5
REMARK VINA RESULT:      -3.7      2.033      3.264
REMARK  4 active torsions:
REMARK  status: ('A' for Active; 'I' for Inactive)
REMARK    1  A    between atoms: C1_1  and  C7_7 
REMARK    2  A    between atoms: C7_7  and  N10_10 
REMARK    3  A    between atoms: C8_8  and  C9_9 
REMARK    4  A    between atoms: C8_8  and  N10_10 
ROOT
HETATM    1  C2  UNL     1     -36.473  17.762  -5.089  1.00 20.00     0.043 C 
HETATM    2  C8  UNL     1     -35.753  16.431  -5.312  1.00 20.00     0.226 C 
ENDROOT
BRANCH   2   3
HETATM    3  C9  UNL     1     -34.433  16.523  -6.148  1.00 20.00    -0.021 C 
HETATM    4  C3  UNL     1     -34.368  17.811  -6.990  1.00 20.00     0.016 C 
HETATM    5  C4  UNL     1     -33.205  16.485  -5.217  1.00 20.00     0.016 C 
HETATM    6  C5  UNL     1     -34.333  15.311  -7.101  1.00 20.00     0.016 C 
ENDBRANCH   2   3
BRANCH   2   7
HETATM    7  N10 UNL     1     -35.523  15.799  -4.028  1.00 20.00     0.095 N 
HETATM    8  C6  UNL     1     -36.104  16.595  -2.941  1.00 20.00     0.310 C 
BRANCH   7   9
HETATM    9  C7  UNL     1     -36.080  14.441  -4.006  1.00 20.00     0.341 C 
BRANCH   9  10
HETATM   10  C1  UNL     1     -34.941  13.462  -3.964  1.00 20.00     0.261 C 
HETATM   11  O11 UNL     1     -34.792  12.585  -4.810  1.00 20.00    -0.305 OA
ENDBRANCH   9  10
ENDBRANCH   7   9
ENDBRANCH   2   7
TORSDOF 4
ENDMDL
MODEL 6
REMARK VINA RESULT:      -3.7      2.354      3.280
REMARK  4 active torsions:
REMARK  status: ('A' for Active; 'I' for Inactive)
REMARK    1  A    between atoms: C1_1  and  C7_7 
REMARK    2  A    between atoms: C7_7  and  N10_10 
REMARK    3  A    between atoms: C8_8  and  C9_9 
REMARK    4  A    between atoms: C8_8  and  N10_10 
ROOT
HETATM    1  C2  UNL     1     -36.703  14.736  -3.903  1.00 20.00     0.043 C 
HETATM    2  C8  UNL     1     -35.358  15.319  -3.463  1.00 20.00     0.226 C 
ENDROOT
BRANCH   2   3
HETATM    3  C9  UNL     1     -34.136  14.909  -4.350  1.00 20.00    -0.021 C 
HETATM    4  C3  UNL     1     -33.128  16.062  -4.520  1.00 20.00     0.016 C 
HETATM    5  C4  UNL     1     -33.400  13.706  -3.726  1.00 20.00     0.016 C 
HETATM    6  C5  UNL     1     -34.627  14.480  -5.750  1.00 20.00     0.016 C 
ENDBRANCH   2   3
BRANCH   2   7
HETATM    7  N10 UNL     1     -35.480  16.759  -3.363  1.00 20.00     0.095 N 
HETATM    8  C6  UNL     1     -36.549  17.257  -4.236  1.00 20.00     0.310 C 
BRANCH   7   9
HETATM    9  C7  UNL     1     -35.734  17.169  -1.977  1.00 20.00     0.341 C 
BRANCH   9  10
HETATM   10  C1  UNL     1     -34.600  16.680  -1.122  1.00 20.00     0.261 C 
HETATM   11  O11 UNL     1     -33.493  17.211  -1.124  1.00 20.00    -0.305 OA
ENDBRANCH   9  10
ENDBRANCH   7   9
ENDBRANCH   2   7
TORSDOF 4
ENDMDL
MODEL 7
REMARK VINA RESULT:      -3.6      1.918      3.018
REMARK  4 active torsions:
REMARK  status: ('A' for Active; 'I' for Inactive)
REMARK    1  A    between atoms: C1_1  and  C7_7 
REMARK    2  A    between atoms: C7_7  and  N10_10 
REMARK    3  A    between atoms: C8_8  and  C9_9 
REMARK    4  A    between atoms: C8_8  and  N10_10 
ROOT
HETATM    1  C2  UNL     1     -36.736  16.726  -3.270  1.00 20.00     0.043 C 
HETATM    2  C8  UNL     1     -35.750  16.015  -4.198  1.00 20.00     0.226 C 
ENDROOT
BRANCH   2   3
HETATM    3  C9  UNL     1     -34.434  15.517  -3.513  1.00 20.00    -0.021 C 
HETATM    4  C3  UNL     1     -34.325  13.980  -3.513  1.00 20.00     0.016 C 
HETATM    5  C4  UNL     1     -33.201  16.094  -4.235  1.00 20.00     0.016 C 
HETATM    6  C5  UNL     1     -34.390  16.009  -2.049  1.00 20.00     0.016 C 
ENDBRANCH   2   3
BRANCH   2   7
HETATM    7  N10 UNL     1     -36.436  14.934  -4.875  1.00 20.00     0.095 N 
HETATM    8  C6  UNL     1     -37.787  14.751  -4.334  1.00 20.00     0.310 C 
BRANCH   7   9
HETATM    9  C7  UNL     1     -36.506  15.180  -6.321  1.00 20.00     0.341 C 
BRANCH   9  10
HETATM   10  C1  UNL     1     -35.428  14.377  -6.991  1.00 20.00     0.261 C 
HETATM   11  O11 UNL     1     -34.350  14.862  -7.322  1.00 20.00    -0.305 OA
ENDBRANCH   9  10
ENDBRANCH   7   9
ENDBRANCH   2   7
TORSDOF 4
ENDMDL
MODEL 8
REMARK VINA RESULT:      -3.6      1.943      3.840
REMARK  4 active torsions:
REMARK  status: ('A' for Active; 'I' for Inactive)
REMARK    1  A    between atoms: C1_1  and  C7_7 
REMARK    2  A    between atoms: C7_7  and  N10_10 
REMARK    3  A    between atoms: C8_8  and  C9_9 
REMARK    4  A    between atoms: C8_8  and  N10_10 
ROOT
HETATM    1  C2  UNL     1     -35.747  17.293  -4.847  1.00 20.00     0.043 C 
HETATM    2  C8  UNL     1     -35.487  15.903  -5.430  1.00 20.00     0.226 C 
ENDROOT
BRANCH   2   3
HETATM    3  C9  UNL     1     -35.794  15.755  -6.956  1.00 20.00    -0.021 C 
HETATM    4  C3  UNL     1     -37.204  15.190  -7.213  1.00 20.00     0.016 C 
HETATM    5  C4  UNL     1     -35.680  17.122  -7.661  1.00 20.00     0.016 C 
HETATM    6  C5  UNL     1     -34.763  14.808  -7.608  1.00 20.00     0.016 C 
ENDBRANCH   2   3
BRANCH   2   7
HETATM    7  N10 UNL     1     -34.126  15.511  -5.123  1.00 20.00     0.095 N 
HETATM    8  C6  UNL     1     -33.277  16.688  -4.910  1.00 20.00     0.310 C 
BRANCH   7   9
HETATM    9  C7  UNL     1     -34.084  14.644  -3.940  1.00 20.00     0.341 C 
BRANCH   9  10
HETATM   10  C1  UNL     1     -35.073  13.530  -4.132  1.00 20.00     0.261 C 
HETATM   11  O11 UNL     1     -34.819  12.527  -4.793  1.00 20.00    -0.305 OA
ENDBRANCH   9  10
ENDBRANCH   7   9
ENDBRANCH   2   7
TORSDOF 4
ENDMDL
MODEL 9
REMARK VINA RESULT:      -3.6      1.995      3.518
REMARK  4 active torsions:
REMARK  status: ('A' for Active; 'I' for Inactive)
REMARK    1  A    between atoms: C1_1  and  C7_7 
REMARK    2  A    between atoms: C7_7  and  N10_10 
REMARK    3  A    between atoms: C8_8  and  C9_9 
REMARK    4  A    between atoms: C8_8  and  N10_10 
ROOT
HETATM    1  C2  UNL     1     -36.203  16.832  -3.679  1.00 20.00     0.043 C 
HETATM    2  C8  UNL     1     -35.146  16.083  -4.493  1.00 20.00     0.226 C 
ENDROOT
BRANCH   2   3
HETATM    3  C9  UNL     1     -34.730  16.774  -5.834  1.00 20.00    -0.021 C 
HETATM    4  C3  UNL     1     -34.306  15.752  -6.907  1.00 20.00     0.016 C 
HETATM    5  C4  UNL     1     -35.898  17.611  -6.392  1.00 20.00     0.016 C 
HETATM    6  C5  UNL     1     -33.546  17.734  -5.582  1.00 20.00     0.016 C 
ENDBRANCH   2   3
BRANCH   2   7
HETATM    7  N10 UNL     1     -33.996  15.828  -3.650  1.00 20.00     0.095 N 
HETATM    8  C6  UNL     1     -34.287  16.165  -2.251  1.00 20.00     0.310 C 
BRANCH   7   9
HETATM    9  C7  UNL     1     -33.575  14.425  -3.748  1.00 20.00     0.341 C 
BRANCH   9  10
HETATM   10  C1  UNL     1     -34.799  13.573  -3.920  1.00 20.00     0.261 C 
HETATM   11  O11 UNL     1     -34.831  12.604  -4.673  1.00 20.00    -0.305 OA
ENDBRANCH   9  10
ENDBRANCH   7   9
ENDBRANCH   2   7
TORSDOF 4
ENDMDL
