MODEL 1
REMARK VINA RESULT:      -4.5      0.000      0.000
REMARK  2 active torsions:
REMARK  status: ('A' for Active; 'I' for Inactive)
REMARK    1  A    between atoms: C2_2  and  C8_8 
REMARK    2  A    between atoms: C8_8  and  O9_9 
ROOT
HETATM    1  C3  UNL     1     -35.835  14.294  -4.105  1.00 20.00     0.012 C 
HETATM    2  C4  UNL     1     -34.743  14.248  -5.880  1.00 20.00     0.012 C 
HETATM    3  C5  UNL     1     -33.461  13.714  -3.847  1.00 20.00     0.047 C 
HETATM    4  C6  UNL     1     -34.727  13.325  -4.623  1.00 20.00    -0.010 C 
HETATM    5  C7  UNL     1     -34.867  15.338  -4.761  1.00 20.00     0.024 C 
HETATM    6  C8  UNL     1     -33.554  15.246  -3.975  1.00 20.00     0.079 C 
ENDROOT
BRANCH   6   7
HETATM    7  C2  UNL     1     -33.661  15.991  -2.688  1.00 20.00     0.001 C 
HETATM    8  C1  UNL     1     -33.933  17.298  -2.601  1.00 20.00     0.010 C 
ENDBRANCH   6   7
BRANCH   6   9
HETATM    9  O9  UNL     1     -32.486  15.799  -4.731  1.00 20.00    -0.385 OA
HETATM   10  H21 UNL     1     -32.338  16.697  -4.394  1.00 20.00     0.211 HD
ENDBRANCH   6   9
TORSDOF 2
ENDMDL
MODEL 2
REMARK VINA RESULT:      -4.1      1.244      1.775
REMARK  2 active torsions:
REMARK  status: ('A' for Active; 'I' for Inactive)
REMARK    1  A    between atoms: C2_2  and  C8_8 
REMARK    2  A    between atoms: C8_8  and  O9_9 
ROOT
HETATM    1  C3  UNL     1     -35.852  14.862  -5.274  1.00 20.00     0.012 C 
HETATM    2  C4  UNL     1     -34.967  13.280  -4.243  1.00 20.00     0.012 C 
HETATM    3  C5  UNL     1     -34.644  15.501  -3.232  1.00 20.00     0.047 C 
HETATM    4  C6  UNL     1     -35.729  14.548  -3.750  1.00 20.00    -0.010 C 
HETATM    5  C7  UNL     1     -34.375  14.337  -5.238  1.00 20.00     0.024 C 
HETATM    6  C8  UNL     1     -33.601  15.320  -4.352  1.00 20.00     0.079 C 
ENDROOT
BRANCH   6   7
HETATM    7  C2  UNL     1     -33.259  16.554  -5.115  1.00 20.00     0.001 C 
HETATM    8  C1  UNL     1     -33.602  17.789  -4.734  1.00 20.00     0.010 C 
ENDBRANCH   6   7
BRANCH   6   9
HETATM    9  O9  UNL     1     -32.397  14.725  -3.889  1.00 20.00    -0.385 OA
HETATM   10  H21 UNL     1     -31.666  15.199  -4.318  1.00 20.00     0.211 HD
ENDBRANCH   6   9
TORSDOF 2
ENDMDL
MODEL 3
REMARK VINA RESULT:      -4.1      0.870      3.104
REMARK  2 active torsions:
REMARK  status: ('A' for Active; 'I' for Inactive)
REMARK    1  A    between atoms: C2_2  and  C8_8 
REMARK    2  A    between atoms: C8_8  and  O9_9 
ROOT
HETATM    1  C3  UNL     1     -35.024  16.105  -2.096  1.00 20.00     0.012 C 
HETATM    2  C4  UNL     1     -33.859  17.645  -2.885  1.00 20.00     0.012 C 
HETATM    3  C5  UNL     1     -34.916  16.171  -4.550  1.00 20.00     0.047 C 
HETATM    4  C6  UNL     1     -35.229  17.043  -3.327  1.00 20.00    -0.010 C 
HETATM    5  C7  UNL     1     -33.557  16.124  -2.652  1.00 20.00     0.024 C 
HETATM    6  C8  UNL     1     -33.628  15.492  -4.047  1.00 20.00     0.079 C 
ENDROOT
BRANCH   6   7
HETATM    7  C2  UNL     1     -33.686  14.005  -3.944  1.00 20.00     0.001 C 
HETATM    8  C1  UNL     1     -34.605  13.248  -4.554  1.00 20.00     0.010 C 
ENDBRANCH   6   7
BRANCH   6   9
HETATM    9  O9  UNL     1     -32.485  15.849  -4.810  1.00 20.00    -0.385 OA
HETATM   10  H21 UNL     1     -32.784  16.476  -5.488  1.00 20.00     0.211 HD
ENDBRANCH   6   9
TORSDOF 2
ENDMDL
MODEL 4
REMARK VINA RESULT:      -4.1      1.735      3.117
REMARK  2 active torsions:
REMARK  status: ('A' for Active; 'I' for Inactive)
REMARK    1  A    between atoms: C2_2  and  C8_8 
REMARK    2  A    between atoms: C8_8  and  O9_9 
ROOT
HETATM    1  C3  UNL     1     -34.236  16.252  -3.523  1.00 20.00     0.012 C 
HETATM    2  C4  UNL     1     -32.952  14.614  -3.648  1.00 20.00     0.012 C 
HETATM    3  C5  UNL     1     -34.643  14.758  -5.431  1.00 20.00     0.047 C 
HETATM    4  C6  UNL     1     -33.537  15.564  -4.738  1.00 20.00    -0.010 C 
HETATM    5  C7  UNL     1     -34.417  14.752  -3.107  1.00 20.00     0.024 C 
HETATM    6  C8  UNL     1     -35.296  14.118  -4.191  1.00 20.00     0.079 C 
ENDROOT
BRANCH   6   7
HETATM    7  C2  UNL     1     -36.729  14.465  -3.970  1.00 20.00     0.001 C 
HETATM    8  C1  UNL     1     -37.500  15.075  -4.877  1.00 20.00     0.010 C 
ENDBRANCH   6   7
BRANCH   6   9
HETATM    9  O9  UNL     1     -35.164  12.704  -4.170  1.00 20.00    -0.385 OA
HETATM   10  H21 UNL     1     -35.823  12.351  -4.791  1.00 20.00     0.211 HD
ENDBRANCH   6   9
TORSDOF 2
ENDMDL
MODEL 5
REMARK VINA RESULT:      -4.1      1.876      2.414
REMARK  2 active torsions:
REMARK  status: ('A' for Active; 'I' for Inactive)
REMARK    1  A    between atoms: C2_2  and  C8_8 
REMARK    2  A    between atoms: C8_8  and  O9_9 
ROOT
HETATM    1  C3  UNL     1     -33.281  14.237  -3.983  1.00 20.00     0.012 C 
HETATM    2  C4  UNL     1     -35.235  13.652  -4.412  1.00 20.00     0.012 C 
HETATM    3  C5  UNL     1     -34.834  16.080  -4.461  1.00 20.00     0.047 C 
HETATM    4  C6  UNL     1     -34.318  14.751  -5.030  1.00 20.00    -0.010 C 
HETATM    5  C7  UNL     1     -34.576  14.201  -3.100  1.00 20.00     0.024 C 
HETATM    6  C8  UNL     1     -35.056  15.653  -2.997  1.00 20.00     0.079 C 
ENDROOT
BRANCH   6   7
HETATM    7  C2  UNL     1     -34.255  16.398  -1.984  1.00 20.00     0.001 C 
HETATM    8  C1  UNL     1     -34.681  16.669  -0.745  1.00 20.00     0.010 C 
ENDBRANCH   6   7
BRANCH   6   9
HETATM    9  O9  UNL     1     -36.422  15.697  -2.615  1.00 20.00    -0.385 OA
HETATM   10  H21 UNL     1     -36.846  16.379  -3.160  1.00 20.00     0.211 HD
ENDBRANCH   6   9
TORSDOF 2
ENDMDL
MODEL 6
REMARK VINA RESULT:      -4.1      1.786      2.472
REMARK  2 active torsions:
REMARK  status: ('A' for Active; 'I' for Inactive)
REMARK    1  A    between atoms: C2_2  and  C8_8 
REMARK    2  A    between atoms: C8_8  and  O9_9 
ROOT
HETATM    1  C3  UNL     1     -34.791  16.019  -5.942  1.00 20.00     0.012 C 
HETATM    2  C4  UNL     1     -35.416  14.207  -6.764  1.00 20.00     0.012 C 
HETATM    3  C5  UNL     1     -36.445  14.788  -4.605  1.00 20.00     0.047 C 
HETATM    4  C6  UNL     1     -36.192  15.334  -6.017  1.00 20.00    -0.010 C 
HETATM    5  C7  UNL     1     -34.369  14.538  -5.645  1.00 20.00     0.024 C 
HETATM    6  C8  UNL     1     -35.066  14.158  -4.333  1.00 20.00     0.079 C 
ENDROOT
BRANCH   6   7
HETATM    7  C2  UNL     1     -34.324  14.719  -3.167  1.00 20.00     0.001 C 
HETATM    8  C1  UNL     1     -34.803  15.676  -2.365  1.00 20.00     0.010 C 
ENDBRANCH   6   7
BRANCH   6   9
HETATM    9  O9  UNL     1     -35.125  12.746  -4.195  1.00 20.00    -0.385 OA
HETATM   10  H21 UNL     1     -36.052  12.520  -4.017  1.00 20.00     0.211 HD
ENDBRANCH   6   9
TORSDOF 2
ENDMDL
MODEL 7
REMARK VINA RESULT:      -4.0     11.741     13.047
REMARK  2 active torsions:
REMARK  status: ('A' for Active; 'I' for Inactive)
REMARK    1  A    between atoms: C2_2  and  C8_8 
REMARK    2  A    between atoms: C8_8  and  O9_9 
ROOT
HETATM    1  C3  UNL     1     -41.842   6.839  -2.340  1.00 20.00     0.012 C 
HETATM    2  C4  UNL     1     -42.855   6.858  -0.518  1.00 20.00     0.012 C 
HETATM    3  C5  UNL     1     -40.606   5.861  -0.455  1.00 20.00     0.047 C 
HETATM    4  C6  UNL     1     -41.363   7.125  -0.882  1.00 20.00    -0.010 C 
HETATM    5  C7  UNL     1     -42.646   5.726  -1.582  1.00 20.00     0.024 C 
HETATM    6  C8  UNL     1     -41.595   4.796  -0.963  1.00 20.00     0.079 C 
ENDROOT
BRANCH   6   7
HETATM    7  C2  UNL     1     -41.057   3.859  -1.991  1.00 20.00     0.001 C 
HETATM    8  C1  UNL     1     -41.822   3.110  -2.794  1.00 20.00     0.010 C 
ENDBRANCH   6   7
BRANCH   6   9
HETATM    9  O9  UNL     1     -42.168   4.033   0.088  1.00 20.00    -0.385 OA
HETATM   10  H21 UNL     1     -41.532   4.041   0.821  1.00 20.00     0.211 HD
ENDBRANCH   6   9
TORSDOF 2
ENDMDL
MODEL 8
REMARK VINA RESULT:      -3.9      1.687      3.270
REMARK  2 active torsions:
REMARK  status: ('A' for Active; 'I' for Inactive)
REMARK    1  A    between atoms: C2_2  and  C8_8 
REMARK    2  A    between atoms: C8_8  and  O9_9 
ROOT
HETATM    1  C3  UNL     1     -33.481  16.123  -4.401  1.00 20.00     0.012 C 
HETATM    2  C4  UNL     1     -34.518  15.603  -2.669  1.00 20.00     0.012 C 
HETATM    3  C5  UNL     1     -33.530  13.717  -3.904  1.00 20.00     0.047 C 
HETATM    4  C6  UNL     1     -33.184  15.077  -3.282  1.00 20.00    -0.010 C 
HETATM    5  C7  UNL     1     -34.929  15.566  -4.181  1.00 20.00     0.024 C 
HETATM    6  C8  UNL     1     -34.872  14.083  -4.566  1.00 20.00     0.079 C 
ENDROOT
BRANCH   6   7
HETATM    7  C2  UNL     1     -34.920  13.926  -6.048  1.00 20.00     0.001 C 
HETATM    8  C1  UNL     1     -35.722  14.636  -6.850  1.00 20.00     0.010 C 
ENDBRANCH   6   7
BRANCH   6   9
HETATM    9  O9  UNL     1     -35.971  13.382  -4.001  1.00 20.00    -0.385 OA
HETATM   10  H21 UNL     1     -35.655  12.489  -3.786  1.00 20.00     0.211 HD
ENDBRANCH   6   9
TORSDOF 2
ENDMDL
MODEL 9
REMARK VINA RESULT:      -3.9      1.498      3.175
REMARK  2 active torsions:
REMARK  status: ('A' for Active; 'I' for Inactive)
REMARK    1  A    between atoms: C2_2  and  C8_8 
REMARK    2  A    between atoms: C8_8  and  O9_9 
ROOT
HETATM    1  C3  UNL     1     -35.229  16.845  -3.722  1.00 20.00     0.012 C 
HETATM    2  C4  UNL     1     -34.530  15.886  -2.007  1.00 20.00     0.012 C 
HETATM    3  C5  UNL     1     -33.193  15.506  -4.039  1.00 20.00     0.047 C 
HETATM    4  C6  UNL     1     -33.788  16.620  -3.166  1.00 20.00    -0.010 C 
HETATM    5  C7  UNL     1     -35.375  15.366  -3.221  1.00 20.00     0.024 C 
HETATM    6  C8  UNL     1     -34.392  14.540  -4.058  1.00 20.00     0.079 C 
ENDROOT
BRANCH   6   7
HETATM    7  C2  UNL     1     -34.964  14.254  -5.405  1.00 20.00     0.001 C 
HETATM    8  C1  UNL     1     -34.484  14.764  -6.545  1.00 20.00     0.010 C 
ENDBRANCH   6   7
BRANCH   6   9
HETATM    9  O9  UNL     1     -34.111  13.305  -3.415  1.00 20.00    -0.385 OA
HETATM   10  H21 UNL     1     -33.176  13.105  -3.585  1.00 20.00     0.211 HD
ENDBRANCH   6   9
TORSDOF 2
ENDMDL
