MODEL 1
REMARK VINA RESULT:      -3.7      0.000      0.000
REMARK  1 active torsions:
REMARK  status: ('A' for Active; 'I' for Inactive)
REMARK    1  A    between atoms: C2_2  and  C6_6 
ROOT
HETATM    1  C1  UNL     1     -35.446  15.393  -3.234  1.00 20.00     0.133 A 
HETATM    2  C2  UNL     1     -34.265  16.076  -3.028  1.00 20.00     0.007 A 
HETATM    3  C3  UNL     1     -34.688  15.370  -5.293  1.00 20.00     0.143 A 
HETATM    4  N7  UNL     1     -35.690  14.989  -4.532  1.00 20.00    -0.245 NA
HETATM    5  S8  UNL     1     -33.417  16.221  -4.513  1.00 20.00    -0.066 SA
HETATM    6 BR9  UNL     1     -34.650  15.000  -7.165  1.00 20.00    -0.021 Br
ENDROOT
BRANCH   2   7
HETATM    7  C6  UNL     1     -33.775  16.626  -1.678  1.00 20.00     0.027 A 
HETATM    8  C4  UNL     1     -34.789  16.859  -0.582  1.00 20.00     0.010 A 
HETATM    9  C5  UNL     1     -34.171  18.029  -1.281  1.00 20.00     0.010 A 
ENDBRANCH   2   7
TORSDOF 1
ENDMDL
MODEL 2
REMARK VINA RESULT:      -3.7      1.275      1.323
REMARK  1 active torsions:
REMARK  status: ('A' for Active; 'I' for Inactive)
REMARK    1  A    between atoms: C2_2  and  C6_6 
ROOT
HETATM    1  C1  UNL     1     -34.264  14.071  -3.523  1.00 20.00     0.133 A 
HETATM    2  C2  UNL     1     -34.697  15.343  -3.212  1.00 20.00     0.007 A 
HETATM    3  C3  UNL     1     -34.826  14.729  -5.538  1.00 20.00     0.143 A 
HETATM    4  N7  UNL     1     -34.338  13.717  -4.856  1.00 20.00    -0.245 NA
HETATM    5  S8  UNL     1     -35.218  16.138  -4.640  1.00 20.00    -0.066 SA
HETATM    6 BR9  UNL     1     -35.088  14.636  -7.427  1.00 20.00    -0.021 Br
ENDROOT
BRANCH   2   7
HETATM    7  C6  UNL     1     -34.712  15.962  -1.804  1.00 20.00     0.027 A 
HETATM    8  C4  UNL     1     -35.191  17.386  -1.646  1.00 20.00     0.010 A 
HETATM    9  C5  UNL     1     -33.735  17.072  -1.491  1.00 20.00     0.010 A 
ENDBRANCH   2   7
TORSDOF 1
ENDMDL
MODEL 3
REMARK VINA RESULT:      -3.7      2.660      4.732
REMARK  1 active torsions:
REMARK  status: ('A' for Active; 'I' for Inactive)
REMARK    1  A    between atoms: C2_2  and  C6_6 
ROOT
HETATM    1  C1  UNL     1     -34.223  13.950  -4.690  1.00 20.00     0.133 A 
HETATM    2  C2  UNL     1     -34.392  15.001  -5.567  1.00 20.00     0.007 A 
HETATM    3  C3  UNL     1     -34.481  15.563  -3.226  1.00 20.00     0.143 A 
HETATM    4  N7  UNL     1     -34.273  14.271  -3.348  1.00 20.00    -0.245 NA
HETATM    5  S8  UNL     1     -34.625  16.454  -4.686  1.00 20.00    -0.066 SA
HETATM    6 BR9  UNL     1     -34.611  16.405  -1.518  1.00 20.00    -0.021 Br
ENDROOT
BRANCH   2   7
HETATM    7  C6  UNL     1     -34.376  14.894  -7.102  1.00 20.00     0.027 A 
HETATM    8  C4  UNL     1     -35.124  15.931  -7.906  1.00 20.00     0.010 A 
HETATM    9  C5  UNL     1     -35.659  14.536  -7.815  1.00 20.00     0.010 A 
ENDBRANCH   2   7
TORSDOF 1
ENDMDL
MODEL 4
REMARK VINA RESULT:      -3.7      2.843      4.713
REMARK  1 active torsions:
REMARK  status: ('A' for Active; 'I' for Inactive)
REMARK    1  A    between atoms: C2_2  and  C6_6 
ROOT
HETATM    1  C1  UNL     1     -33.570  16.259  -4.744  1.00 20.00     0.133 A 
HETATM    2  C2  UNL     1     -34.448  15.201  -4.855  1.00 20.00     0.007 A 
HETATM    3  C3  UNL     1     -34.354  16.264  -2.695  1.00 20.00     0.143 A 
HETATM    4  N7  UNL     1     -33.515  16.870  -3.506  1.00 20.00    -0.245 NA
HETATM    5  S8  UNL     1     -35.241  14.951  -3.354  1.00 20.00    -0.066 SA
HETATM    6 BR9  UNL     1     -34.575  16.818  -0.881  1.00 20.00    -0.021 Br
ENDROOT
BRANCH   2   7
HETATM    7  C6  UNL     1     -34.685  14.366  -6.125  1.00 20.00     0.027 A 
HETATM    8  C4  UNL     1     -34.529  15.038  -7.470  1.00 20.00     0.010 A 
HETATM    9  C5  UNL     1     -35.895  14.673  -6.977  1.00 20.00     0.010 A 
ENDBRANCH   2   7
TORSDOF 1
ENDMDL
MODEL 5
REMARK VINA RESULT:      -3.6      1.373      1.545
REMARK  1 active torsions:
REMARK  status: ('A' for Active; 'I' for Inactive)
REMARK    1  A    between atoms: C2_2  and  C6_6 
ROOT
HETATM    1  C1  UNL     1     -33.388  16.924  -4.551  1.00 20.00     0.133 A 
HETATM    2  C2  UNL     1     -33.948  16.317  -3.445  1.00 20.00     0.007 A 
HETATM    3  C3  UNL     1     -34.634  15.442  -5.583  1.00 20.00     0.143 A 
HETATM    4  N7  UNL     1     -33.780  16.423  -5.776  1.00 20.00    -0.245 NA
HETATM    5  S8  UNL     1     -35.011  15.069  -3.950  1.00 20.00    -0.066 SA
HETATM    6 BR9  UNL     1     -35.411  14.482  -7.039  1.00 20.00    -0.021 Br
ENDROOT
BRANCH   2   7
HETATM    7  C6  UNL     1     -33.668  16.697  -1.981  1.00 20.00     0.027 A 
HETATM    8  C4  UNL     1     -34.772  16.520  -0.965  1.00 20.00     0.010 A 
HETATM    9  C5  UNL     1     -34.377  17.897  -1.397  1.00 20.00     0.010 A 
ENDBRANCH   2   7
TORSDOF 1
ENDMDL
MODEL 6
REMARK VINA RESULT:      -3.5     13.524     14.638
REMARK  1 active torsions:
REMARK  status: ('A' for Active; 'I' for Inactive)
REMARK    1  A    between atoms: C2_2  and  C6_6 
ROOT
HETATM    1  C1  UNL     1     -40.840   3.917  -1.702  1.00 20.00     0.133 A 
HETATM    2  C2  UNL     1     -41.957   3.609  -2.450  1.00 20.00     0.007 A 
HETATM    3  C3  UNL     1     -41.815   5.882  -1.663  1.00 20.00     0.143 A 
HETATM    4  N7  UNL     1     -40.756   5.219  -1.251  1.00 20.00    -0.245 NA
HETATM    5  S8  UNL     1     -42.951   4.999  -2.598  1.00 20.00    -0.066 SA
HETATM    6 BR9  UNL     1     -42.072   7.727  -1.245  1.00 20.00    -0.021 Br
ENDROOT
BRANCH   2   7
HETATM    7  C6  UNL     1     -42.272   2.233  -3.060  1.00 20.00     0.027 A 
HETATM    8  C4  UNL     1     -41.289   1.635  -4.040  1.00 20.00     0.010 A 
HETATM    9  C5  UNL     1     -42.605   2.153  -4.532  1.00 20.00     0.010 A 
ENDBRANCH   2   7
TORSDOF 1
ENDMDL
MODEL 7
REMARK VINA RESULT:      -3.3      2.781      4.608
REMARK  1 active torsions:
REMARK  status: ('A' for Active; 'I' for Inactive)
REMARK    1  A    between atoms: C2_2  and  C6_6 
ROOT
HETATM    1  C1  UNL     1     -35.263  17.233  -4.783  1.00 20.00     0.133 A 
HETATM    2  C2  UNL     1     -34.378  16.219  -5.086  1.00 20.00     0.007 A 
HETATM    3  C3  UNL     1     -34.648  16.711  -2.743  1.00 20.00     0.143 A 
HETATM    4  N7  UNL     1     -35.419  17.516  -3.441  1.00 20.00    -0.245 NA
HETATM    5  S8  UNL     1     -33.708  15.589  -3.639  1.00 20.00    -0.066 SA
HETATM    6 BR9  UNL     1     -34.580  16.784  -0.837  1.00 20.00    -0.021 Br
ENDROOT
BRANCH   2   7
HETATM    7  C6  UNL     1     -34.039  15.725  -6.503  1.00 20.00     0.027 A 
HETATM    8  C4  UNL     1     -34.993  16.046  -7.629  1.00 20.00     0.010 A 
HETATM    9  C5  UNL     1     -34.897  14.643  -7.117  1.00 20.00     0.010 A 
ENDBRANCH   2   7
TORSDOF 1
ENDMDL
MODEL 8
REMARK VINA RESULT:      -3.3     12.913     13.672
REMARK  1 active torsions:
REMARK  status: ('A' for Active; 'I' for Inactive)
REMARK    1  A    between atoms: C2_2  and  C6_6 
ROOT
HETATM    1  C1  UNL     1     -43.416   5.179  -2.758  1.00 20.00     0.133 A 
HETATM    2  C2  UNL     1     -42.469   5.307  -1.764  1.00 20.00     0.007 A 
HETATM    3  C3  UNL     1     -42.296   3.329  -3.129  1.00 20.00     0.143 A 
HETATM    4  N7  UNL     1     -43.318   4.045  -3.542  1.00 20.00    -0.245 NA
HETATM    5  S8  UNL     1     -41.408   3.959  -1.802  1.00 20.00    -0.066 SA
HETATM    6 BR9  UNL     1     -41.823   1.678  -3.962  1.00 20.00    -0.021 Br
ENDROOT
BRANCH   2   7
HETATM    7  C6  UNL     1     -42.371   6.476  -0.770  1.00 20.00     0.027 A 
HETATM    8  C4  UNL     1     -42.631   7.877  -1.273  1.00 20.00     0.010 A 
HETATM    9  C5  UNL     1     -41.236   7.462  -0.921  1.00 20.00     0.010 A 
ENDBRANCH   2   7
TORSDOF 1
ENDMDL
MODEL 9
REMARK VINA RESULT:      -3.3      2.948      4.357
REMARK  1 active torsions:
REMARK  status: ('A' for Active; 'I' for Inactive)
REMARK    1  A    between atoms: C2_2  and  C6_6 
ROOT
HETATM    1  C1  UNL     1     -36.431  16.249  -3.215  1.00 20.00     0.133 A 
HETATM    2  C2  UNL     1     -35.528  15.271  -3.574  1.00 20.00     0.007 A 
HETATM    3  C3  UNL     1     -34.744  16.881  -1.963  1.00 20.00     0.143 A 
HETATM    4  N7  UNL     1     -35.983  17.173  -2.290  1.00 20.00    -0.245 NA
HETATM    5  S8  UNL     1     -34.055  15.508  -2.729  1.00 20.00    -0.066 SA
HETATM    6 BR9  UNL     1     -33.764  17.926  -0.701  1.00 20.00    -0.021 Br
ENDROOT
BRANCH   2   7
HETATM    7  C6  UNL     1     -35.793  14.137  -4.580  1.00 20.00     0.027 A 
HETATM    8  C4  UNL     1     -34.670  13.179  -4.902  1.00 20.00     0.010 A 
HETATM    9  C5  UNL     1     -35.102  14.185  -5.923  1.00 20.00     0.010 A 
ENDBRANCH   2   7
TORSDOF 1
ENDMDL
