MODEL 1
REMARK VINA RESULT:      -4.4      0.000      0.000
REMARK  1 active torsions:
REMARK  status: ('A' for Active; 'I' for Inactive)
REMARK    1  A    between atoms: C4_4  and  C8_8 
ROOT
HETATM    1  C1  UNL     1     -33.514  16.540  -3.317  1.00 20.00     0.012 A 
HETATM    2  C2  UNL     1     -33.488  16.220  -4.671  1.00 20.00     0.040 A 
HETATM    3  C3  UNL     1     -35.585  15.385  -3.136  1.00 20.00     0.125 A 
HETATM    4  C4  UNL     1     -34.579  16.119  -2.528  1.00 20.00    -0.036 A 
HETATM    5  C5  UNL     1     -34.543  15.482  -5.181  1.00 20.00     0.102 A 
HETATM    6  N9  UNL     1     -35.595  15.055  -4.446  1.00 20.00    -0.253 NA
HETATM    7 BR10 UNL     1     -34.530  15.033  -7.027  1.00 20.00    -0.029 Br
ENDROOT
BRANCH   4   8
HETATM    8  C8  UNL     1     -34.634  16.444  -1.079  1.00 20.00     0.020 A 
HETATM    9  C6  UNL     1     -35.314  17.714  -0.635  1.00 20.00     0.010 A 
HETATM   10  C7  UNL     1     -33.825  17.602  -0.552  1.00 20.00     0.010 A 
ENDBRANCH   4   8
TORSDOF 1
ENDMDL
MODEL 2
REMARK VINA RESULT:      -4.3      0.894      1.500
REMARK  1 active torsions:
REMARK  status: ('A' for Active; 'I' for Inactive)
REMARK    1  A    between atoms: C4_4  and  C8_8 
ROOT
HETATM    1  C1  UNL     1     -35.324  15.075  -3.010  1.00 20.00     0.012 A 
HETATM    2  C2  UNL     1     -35.319  14.763  -4.365  1.00 20.00     0.040 A 
HETATM    3  C3  UNL     1     -33.711  16.768  -3.447  1.00 20.00     0.125 A 
HETATM    4  C4  UNL     1     -34.507  16.095  -2.533  1.00 20.00    -0.036 A 
HETATM    5  C5  UNL     1     -34.486  15.495  -5.195  1.00 20.00     0.102 A 
HETATM    6  N9  UNL     1     -33.679  16.493  -4.769  1.00 20.00    -0.253 NA
HETATM    7 BR10 UNL     1     -34.463  15.086  -7.050  1.00 20.00    -0.029 Br
ENDROOT
BRANCH   4   8
HETATM    8  C8  UNL     1     -34.491  16.454  -1.091  1.00 20.00     0.020 A 
HETATM    9  C6  UNL     1     -35.266  17.662  -0.625  1.00 20.00     0.010 A 
HETATM   10  C7  UNL     1     -33.771  17.704  -0.650  1.00 20.00     0.010 A 
ENDBRANCH   4   8
TORSDOF 1
ENDMDL
MODEL 3
REMARK VINA RESULT:      -4.3     11.484     12.162
REMARK  1 active torsions:
REMARK  status: ('A' for Active; 'I' for Inactive)
REMARK    1  A    between atoms: C4_4  and  C8_8 
ROOT
HETATM    1  C1  UNL     1     -33.314   6.183   2.454  1.00 20.00     0.012 A 
HETATM    2  C2  UNL     1     -34.082   5.307   3.214  1.00 20.00     0.040 A 
HETATM    3  C3  UNL     1     -32.653   7.269   4.463  1.00 20.00     0.125 A 
HETATM    4  C4  UNL     1     -32.584   7.186   3.082  1.00 20.00    -0.036 A 
HETATM    5  C5  UNL     1     -34.084   5.476   4.589  1.00 20.00     0.102 A 
HETATM    6  N9  UNL     1     -33.386   6.437   5.236  1.00 20.00    -0.253 NA
HETATM    7 BR10 UNL     1     -35.124   4.291   5.649  1.00 20.00    -0.029 Br
ENDROOT
BRANCH   4   8
HETATM    8  C8  UNL     1     -31.753   8.135   2.296  1.00 20.00     0.020 A 
HETATM    9  C6  UNL     1     -32.387   9.390   1.751  1.00 20.00     0.010 A 
HETATM   10  C7  UNL     1     -32.005   8.286   0.817  1.00 20.00     0.010 A 
ENDBRANCH   4   8
TORSDOF 1
ENDMDL
MODEL 4
REMARK VINA RESULT:      -4.3      2.549      4.536
REMARK  1 active torsions:
REMARK  status: ('A' for Active; 'I' for Inactive)
REMARK    1  A    between atoms: C4_4  and  C8_8 
ROOT
HETATM    1  C1  UNL     1     -33.434  15.344  -4.126  1.00 20.00     0.012 A 
HETATM    2  C2  UNL     1     -33.443  15.955  -2.877  1.00 20.00     0.040 A 
HETATM    3  C3  UNL     1     -35.799  15.145  -3.991  1.00 20.00     0.125 A 
HETATM    4  C4  UNL     1     -34.629  14.927  -4.701  1.00 20.00    -0.036 A 
HETATM    5  C5  UNL     1     -34.666  16.125  -2.249  1.00 20.00     0.102 A 
HETATM    6  N9  UNL     1     -35.849  15.735  -2.776  1.00 20.00    -0.253 NA
HETATM    7 BR10 UNL     1     -34.704  16.958  -0.542  1.00 20.00    -0.029 Br
ENDROOT
BRANCH   4   8
HETATM    8  C8  UNL     1     -34.652  14.273  -6.036  1.00 20.00     0.020 A 
HETATM    9  C6  UNL     1     -34.400  15.106  -7.267  1.00 20.00     0.010 A 
HETATM   10  C7  UNL     1     -35.775  14.588  -6.991  1.00 20.00     0.010 A 
ENDBRANCH   4   8
TORSDOF 1
ENDMDL
MODEL 5
REMARK VINA RESULT:      -4.1      2.864      4.415
REMARK  1 active torsions:
REMARK  status: ('A' for Active; 'I' for Inactive)
REMARK    1  A    between atoms: C4_4  and  C8_8 
ROOT
HETATM    1  C1  UNL     1     -34.860  15.649  -2.119  1.00 20.00     0.012 A 
HETATM    2  C2  UNL     1     -34.380  16.701  -1.347  1.00 20.00     0.040 A 
HETATM    3  C3  UNL     1     -34.117  16.802  -4.061  1.00 20.00     0.125 A 
HETATM    4  C4  UNL     1     -34.731  15.693  -3.503  1.00 20.00    -0.036 A 
HETATM    5  C5  UNL     1     -33.782  17.765  -2.002  1.00 20.00     0.102 A 
HETATM    6  N9  UNL     1     -33.637  17.843  -3.345  1.00 20.00    -0.253 NA
HETATM    7 BR10 UNL     1     -33.118  19.213  -0.968  1.00 20.00    -0.029 Br
ENDROOT
BRANCH   4   8
HETATM    8  C8  UNL     1     -35.232  14.583  -4.356  1.00 20.00     0.020 A 
HETATM    9  C6  UNL     1     -34.347  13.387  -4.602  1.00 20.00     0.010 A 
HETATM   10  C7  UNL     1     -34.611  14.356  -5.711  1.00 20.00     0.010 A 
ENDBRANCH   4   8
TORSDOF 1
ENDMDL
MODEL 6
REMARK VINA RESULT:      -4.1      2.653      4.777
REMARK  1 active torsions:
REMARK  status: ('A' for Active; 'I' for Inactive)
REMARK    1  A    between atoms: C4_4  and  C8_8 
ROOT
HETATM    1  C1  UNL     1     -34.812  14.955  -4.326  1.00 20.00     0.012 A 
HETATM    2  C2  UNL     1     -34.928  15.281  -2.979  1.00 20.00     0.040 A 
HETATM    3  C3  UNL     1     -33.590  16.967  -4.656  1.00 20.00     0.125 A 
HETATM    4  C4  UNL     1     -34.133  15.809  -5.188  1.00 20.00    -0.036 A 
HETATM    5  C5  UNL     1     -34.350  16.463  -2.548  1.00 20.00     0.102 A 
HETATM    6  N9  UNL     1     -33.681  17.318  -3.355  1.00 20.00    -0.253 NA
HETATM    7 BR10 UNL     1     -34.495  16.930  -0.712  1.00 20.00    -0.029 Br
ENDROOT
BRANCH   4   8
HETATM    8  C8  UNL     1     -33.990  15.486  -6.632  1.00 20.00     0.020 A 
HETATM    9  C6  UNL     1     -34.950  16.101  -7.620  1.00 20.00     0.010 A 
HETATM   10  C7  UNL     1     -35.042  14.642  -7.306  1.00 20.00     0.010 A 
ENDBRANCH   4   8
TORSDOF 1
ENDMDL
MODEL 7
REMARK VINA RESULT:      -4.0     13.277     14.756
REMARK  1 active torsions:
REMARK  status: ('A' for Active; 'I' for Inactive)
REMARK    1  A    between atoms: C4_4  and  C8_8 
ROOT
HETATM    1  C1  UNL     1     -42.998   4.366  -3.093  1.00 20.00     0.012 A 
HETATM    2  C2  UNL     1     -42.901   5.672  -2.625  1.00 20.00     0.040 A 
HETATM    3  C3  UNL     1     -41.041   3.831  -1.854  1.00 20.00     0.125 A 
HETATM    4  C4  UNL     1     -42.054   3.422  -2.706  1.00 20.00    -0.036 A 
HETATM    5  C5  UNL     1     -41.850   5.980  -1.777  1.00 20.00     0.102 A 
HETATM    6  N9  UNL     1     -40.914   5.089  -1.378  1.00 20.00    -0.253 NA
HETATM    7 BR10 UNL     1     -41.698   7.757  -1.125  1.00 20.00    -0.029 Br
ENDROOT
BRANCH   4   8
HETATM    8  C8  UNL     1     -42.132   2.018  -3.188  1.00 20.00     0.020 A 
HETATM    9  C6  UNL     1     -41.142   1.538  -4.220  1.00 20.00     0.010 A 
HETATM   10  C7  UNL     1     -42.572   1.748  -4.605  1.00 20.00     0.010 A 
ENDBRANCH   4   8
TORSDOF 1
ENDMDL
MODEL 8
REMARK VINA RESULT:      -4.0      2.147      3.136
REMARK  1 active torsions:
REMARK  status: ('A' for Active; 'I' for Inactive)
REMARK    1  A    between atoms: C4_4  and  C8_8 
ROOT
HETATM    1  C1  UNL     1     -34.732  16.593  -0.768  1.00 20.00     0.012 A 
HETATM    2  C2  UNL     1     -34.365  16.072  -2.004  1.00 20.00     0.040 A 
HETATM    3  C3  UNL     1     -34.016  18.734  -1.514  1.00 20.00     0.125 A 
HETATM    4  C4  UNL     1     -34.557  17.948  -0.510  1.00 20.00    -0.036 A 
HETATM    5  C5  UNL     1     -33.832  16.943  -2.941  1.00 20.00     0.102 A 
HETATM    6  N9  UNL     1     -33.648  18.265  -2.727  1.00 20.00    -0.253 NA
HETATM    7 BR10 UNL     1     -33.323  16.254  -4.636  1.00 20.00    -0.029 Br
ENDROOT
BRANCH   4   8
HETATM    8  C8  UNL     1     -34.942  18.534   0.801  1.00 20.00     0.020 A 
HETATM    9  C6  UNL     1     -33.989  18.422   1.965  1.00 20.00     0.010 A 
HETATM   10  C7  UNL     1     -35.249  17.616   1.957  1.00 20.00     0.010 A 
ENDBRANCH   4   8
TORSDOF 1
ENDMDL
MODEL 9
REMARK VINA RESULT:      -4.0      1.903      2.920
REMARK  1 active torsions:
REMARK  status: ('A' for Active; 'I' for Inactive)
REMARK    1  A    between atoms: C4_4  and  C8_8 
ROOT
HETATM    1  C1  UNL     1     -34.277  16.924  -0.898  1.00 20.00     0.012 A 
HETATM    2  C2  UNL     1     -34.693  16.029  -1.878  1.00 20.00     0.040 A 
HETATM    3  C3  UNL     1     -33.618  18.426  -2.620  1.00 20.00     0.125 A 
HETATM    4  C4  UNL     1     -33.728  18.147  -1.267  1.00 20.00    -0.036 A 
HETATM    5  C5  UNL     1     -34.539  16.403  -3.203  1.00 20.00     0.102 A 
HETATM    6  N9  UNL     1     -34.011  17.583  -3.601  1.00 20.00    -0.253 NA
HETATM    7 BR10 UNL     1     -35.100  15.198  -4.559  1.00 20.00    -0.029 Br
ENDROOT
BRANCH   4   8
HETATM    8  C8  UNL     1     -33.276  19.125  -0.242  1.00 20.00     0.020 A 
HETATM    9  C6  UNL     1     -31.882  19.010   0.320  1.00 20.00     0.010 A 
HETATM   10  C7  UNL     1     -33.058  18.659   1.175  1.00 20.00     0.010 A 
ENDBRANCH   4   8
TORSDOF 1
ENDMDL
