MODEL 1
REMARK VINA RESULT:      -4.6      0.000      0.000
REMARK  2 active torsions:
REMARK  status: ('A' for Active; 'I' for Inactive)
REMARK    1  A    between atoms: C3_3  and  C6_6 
REMARK    2  A    between atoms: C3_3  and  O10_10 
ROOT
HETATM    1  C1  UNL     1     -35.105   5.079   5.730  1.00 20.00    -0.003 C 
HETATM    2  C2  UNL     1     -34.235   5.948   6.260  1.00 20.00     0.132 C 
HETATM    3  C4  UNL     1     -35.106   4.763   4.268  1.00 20.00     0.032 C 
HETATM    4  C5  UNL     1     -34.262   5.778   3.499  1.00 20.00     0.046 C 
HETATM    5  C6  UNL     1     -32.983   6.081   4.273  1.00 20.00     0.227 C 
HETATM    6  O9  UNL     1     -33.236   6.600   5.583  1.00 20.00    -0.348 OA
ENDROOT
BRANCH   5   7
HETATM    7  C3  UNL     1     -32.199   7.158   3.598  1.00 20.00     0.288 C 
HETATM    8  O8  UNL     1     -31.216   7.699   4.087  1.00 20.00    -0.262 OA
BRANCH   7   9
HETATM    9  O10 UNL     1     -32.751   7.428   2.381  1.00 20.00    -0.324 OA
HETATM   10  C7  UNL     1     -32.095   8.450   1.623  1.00 20.00     0.213 C 
ENDBRANCH   7   9
ENDBRANCH   5   7
TORSDOF 2
ENDMDL
MODEL 2
REMARK VINA RESULT:      -4.6      1.254      1.806
REMARK  2 active torsions:
REMARK  status: ('A' for Active; 'I' for Inactive)
REMARK    1  A    between atoms: C3_3  and  C6_6 
REMARK    2  A    between atoms: C3_3  and  O10_10 
ROOT
HETATM    1  C1  UNL     1     -35.237   4.823   6.012  1.00 20.00    -0.003 C 
HETATM    2  C2  UNL     1     -35.131   4.449   4.731  1.00 20.00     0.132 C 
HETATM    3  C4  UNL     1     -34.466   5.984   6.556  1.00 20.00     0.032 C 
HETATM    4  C5  UNL     1     -33.366   6.402   5.582  1.00 20.00     0.046 C 
HETATM    5  C6  UNL     1     -33.900   6.368   4.153  1.00 20.00     0.227 C 
HETATM    6  O9  UNL     1     -34.380   5.074   3.770  1.00 20.00    -0.348 OA
ENDROOT
BRANCH   5   7
HETATM    7  C3  UNL     1     -32.810   6.658   3.174  1.00 20.00     0.288 C 
HETATM    8  O8  UNL     1     -31.924   5.867   2.882  1.00 20.00    -0.262 OA
BRANCH   7   9
HETATM    9  O10 UNL     1     -32.967   7.918   2.679  1.00 20.00    -0.324 OA
HETATM   10  C7  UNL     1     -31.946   8.355   1.776  1.00 20.00     0.213 C 
ENDBRANCH   7   9
ENDBRANCH   5   7
TORSDOF 2
ENDMDL
MODEL 3
REMARK VINA RESULT:      -4.2     11.353     12.494
REMARK  2 active torsions:
REMARK  status: ('A' for Active; 'I' for Inactive)
REMARK    1  A    between atoms: C3_3  and  C6_6 
REMARK    2  A    between atoms: C3_3  and  O10_10 
ROOT
HETATM    1  C1  UNL     1     -33.963  17.210  -2.568  1.00 20.00    -0.003 C 
HETATM    2  C2  UNL     1     -33.549  17.114  -3.837  1.00 20.00     0.132 C 
HETATM    3  C4  UNL     1     -34.649  16.073  -1.879  1.00 20.00     0.032 C 
HETATM    4  C5  UNL     1     -35.079  15.013  -2.890  1.00 20.00     0.046 C 
HETATM    5  C6  UNL     1     -33.974  14.802  -3.921  1.00 20.00     0.227 C 
HETATM    6  O9  UNL     1     -33.641  15.999  -4.631  1.00 20.00    -0.348 OA
ENDROOT
BRANCH   5   7
HETATM    7  C3  UNL     1     -34.419  13.855  -4.987  1.00 20.00     0.288 C 
HETATM    8  O8  UNL     1     -34.784  12.707  -4.774  1.00 20.00    -0.262 OA
BRANCH   7   9
HETATM    9  O10 UNL     1     -34.350  14.472  -6.200  1.00 20.00    -0.324 OA
HETATM   10  C7  UNL     1     -35.522  14.357  -7.015  1.00 20.00     0.213 C 
ENDBRANCH   7   9
ENDBRANCH   5   7
TORSDOF 2
ENDMDL
MODEL 4
REMARK VINA RESULT:      -4.1     11.363     12.976
REMARK  2 active torsions:
REMARK  status: ('A' for Active; 'I' for Inactive)
REMARK    1  A    between atoms: C3_3  and  C6_6 
REMARK    2  A    between atoms: C3_3  and  O10_10 
ROOT
HETATM    1  C1  UNL     1     -33.401  17.079  -5.251  1.00 20.00    -0.003 C 
HETATM    2  C2  UNL     1     -33.584  16.612  -4.010  1.00 20.00     0.132 C 
HETATM    3  C4  UNL     1     -34.036  16.426  -6.437  1.00 20.00     0.032 C 
HETATM    4  C5  UNL     1     -34.584  15.050  -6.063  1.00 20.00     0.046 C 
HETATM    5  C6  UNL     1     -35.263  15.116  -4.699  1.00 20.00     0.227 C 
HETATM    6  O9  UNL     1     -34.382  15.553  -3.659  1.00 20.00    -0.348 OA
ENDROOT
BRANCH   5   7
HETATM    7  C3  UNL     1     -35.702  13.757  -4.260  1.00 20.00     0.288 C 
HETATM    8  O8  UNL     1     -35.009  12.753  -4.348  1.00 20.00    -0.262 OA
BRANCH   7   9
HETATM    9  O10 UNL     1     -36.968  13.827  -3.761  1.00 20.00    -0.324 OA
HETATM   10  C7  UNL     1     -37.749  14.935  -4.219  1.00 20.00     0.213 C 
ENDBRANCH   7   9
ENDBRANCH   5   7
TORSDOF 2
ENDMDL
MODEL 5
REMARK VINA RESULT:      -4.0     11.246     11.993
REMARK  2 active torsions:
REMARK  status: ('A' for Active; 'I' for Inactive)
REMARK    1  A    between atoms: C3_3  and  C6_6 
REMARK    2  A    between atoms: C3_3  and  O10_10 
ROOT
HETATM    1  C1  UNL     1     -35.116  13.413  -4.276  1.00 20.00    -0.003 C 
HETATM    2  C2  UNL     1     -35.925  14.442  -3.996  1.00 20.00     0.132 C 
HETATM    3  C4  UNL     1     -33.649  13.467  -3.987  1.00 20.00     0.032 C 
HETATM    4  C5  UNL     1     -33.214  14.898  -3.680  1.00 20.00     0.046 C 
HETATM    5  C6  UNL     1     -34.252  15.576  -2.791  1.00 20.00     0.227 C 
HETATM    6  O9  UNL     1     -35.554  15.613  -3.385  1.00 20.00    -0.348 OA
ENDROOT
BRANCH   5   7
HETATM    7  C3  UNL     1     -33.907  17.013  -2.575  1.00 20.00     0.288 C 
HETATM    8  O8  UNL     1     -33.896  17.855  -3.463  1.00 20.00    -0.262 OA
BRANCH   7   9
HETATM    9  O10 UNL     1     -33.614  17.218  -1.260  1.00 20.00    -0.324 OA
HETATM   10  C7  UNL     1     -34.678  16.944  -0.343  1.00 20.00     0.213 C 
ENDBRANCH   7   9
ENDBRANCH   5   7
TORSDOF 2
ENDMDL
MODEL 6
REMARK VINA RESULT:      -3.9     11.376     12.482
REMARK  2 active torsions:
REMARK  status: ('A' for Active; 'I' for Inactive)
REMARK    1  A    between atoms: C3_3  and  C6_6 
REMARK    2  A    between atoms: C3_3  and  O10_10 
ROOT
HETATM    1  C1  UNL     1     -34.153  18.051  -1.163  1.00 20.00    -0.003 C 
HETATM    2  C2  UNL     1     -33.703  18.360  -2.386  1.00 20.00     0.132 C 
HETATM    3  C4  UNL     1     -34.593  16.664  -0.817  1.00 20.00     0.032 C 
HETATM    4  C5  UNL     1     -34.767  15.825  -2.081  1.00 20.00     0.046 C 
HETATM    5  C6  UNL     1     -33.623  16.106  -3.051  1.00 20.00     0.227 C 
HETATM    6  O9  UNL     1     -33.540  17.484  -3.428  1.00 20.00    -0.348 OA
ENDROOT
BRANCH   5   7
HETATM    7  C3  UNL     1     -33.835  15.386  -4.342  1.00 20.00     0.288 C 
HETATM    8  O8  UNL     1     -34.085  15.941  -5.403  1.00 20.00    -0.262 OA
BRANCH   7   9
HETATM    9  O10 UNL     1     -33.708  14.044  -4.141  1.00 20.00    -0.324 OA
HETATM   10  C7  UNL     1     -34.664  13.226  -4.825  1.00 20.00     0.213 C 
ENDBRANCH   7   9
ENDBRANCH   5   7
TORSDOF 2
ENDMDL
MODEL 7
REMARK VINA RESULT:      -3.9      9.968     11.229
REMARK  2 active torsions:
REMARK  status: ('A' for Active; 'I' for Inactive)
REMARK    1  A    between atoms: C3_3  and  C6_6 
REMARK    2  A    between atoms: C3_3  and  O10_10 
ROOT
HETATM    1  C1  UNL     1     -40.886   6.725  -0.503  1.00 20.00    -0.003 C 
HETATM    2  C2  UNL     1     -40.593   5.420  -0.454  1.00 20.00     0.132 C 
HETATM    3  C4  UNL     1     -41.852   7.275  -1.505  1.00 20.00     0.032 C 
HETATM    4  C5  UNL     1     -42.143   6.244  -2.592  1.00 20.00     0.046 C 
HETATM    5  C6  UNL     1     -42.306   4.862  -1.966  1.00 20.00     0.227 C 
HETATM    6  O9  UNL     1     -41.147   4.441  -1.238  1.00 20.00    -0.348 OA
ENDROOT
BRANCH   5   7
HETATM    7  C3  UNL     1     -42.474   3.819  -3.022  1.00 20.00     0.288 C 
HETATM    8  O8  UNL     1     -43.358   3.837  -3.867  1.00 20.00    -0.262 OA
BRANCH   7   9
HETATM    9  O10 UNL     1     -41.502   2.873  -2.886  1.00 20.00    -0.324 OA
HETATM   10  C7  UNL     1     -41.538   1.813  -3.847  1.00 20.00     0.213 C 
ENDBRANCH   7   9
ENDBRANCH   5   7
TORSDOF 2
ENDMDL
MODEL 8
REMARK VINA RESULT:      -3.8     11.288     12.513
REMARK  2 active torsions:
REMARK  status: ('A' for Active; 'I' for Inactive)
REMARK    1  A    between atoms: C3_3  and  C6_6 
REMARK    2  A    between atoms: C3_3  and  O10_10 
ROOT
HETATM    1  C1  UNL     1     -33.108  14.537  -3.654  1.00 20.00    -0.003 C 
HETATM    2  C2  UNL     1     -33.897  13.601  -4.196  1.00 20.00     0.132 C 
HETATM    3  C4  UNL     1     -33.663  15.826  -3.136  1.00 20.00     0.032 C 
HETATM    4  C5  UNL     1     -35.099  16.025  -3.616  1.00 20.00     0.046 C 
HETATM    5  C6  UNL     1     -35.862  14.707  -3.526  1.00 20.00     0.227 C 
HETATM    6  O9  UNL     1     -35.263  13.663  -4.302  1.00 20.00    -0.348 OA
ENDROOT
BRANCH   5   7
HETATM    7  C3  UNL     1     -37.233  14.849  -4.101  1.00 20.00     0.288 C 
HETATM    8  O8  UNL     1     -38.201  14.198  -3.732  1.00 20.00    -0.262 OA
BRANCH   7   9
HETATM    9  O10 UNL     1     -37.221  15.798  -5.078  1.00 20.00    -0.324 OA
HETATM   10  C7  UNL     1     -37.789  15.399  -6.330  1.00 20.00     0.213 C 
ENDBRANCH   7   9
ENDBRANCH   5   7
TORSDOF 2
ENDMDL
MODEL 9
REMARK VINA RESULT:      -3.8     11.411     12.660
REMARK  2 active torsions:
REMARK  status: ('A' for Active; 'I' for Inactive)
REMARK    1  A    between atoms: C3_3  and  C6_6 
REMARK    2  A    between atoms: C3_3  and  O10_10 
ROOT
HETATM    1  C1  UNL     1     -33.074  15.127  -3.575  1.00 20.00    -0.003 C 
HETATM    2  C2  UNL     1     -33.941  16.145  -3.627  1.00 20.00     0.132 C 
HETATM    3  C4  UNL     1     -33.487  13.727  -3.905  1.00 20.00     0.032 C 
HETATM    4  C5  UNL     1     -35.009  13.614  -3.956  1.00 20.00     0.046 C 
HETATM    5  C6  UNL     1     -35.595  14.833  -4.663  1.00 20.00     0.227 C 
HETATM    6  O9  UNL     1     -35.252  16.066  -4.022  1.00 20.00    -0.348 OA
ENDROOT
BRANCH   5   7
HETATM    7  C3  UNL     1     -37.088  14.801  -4.620  1.00 20.00     0.288 C 
HETATM    8  O8  UNL     1     -37.736  14.237  -3.750  1.00 20.00    -0.262 OA
BRANCH   7   9
HETATM    9  O10 UNL     1     -37.588  15.488  -5.686  1.00 20.00    -0.324 OA
HETATM   10  C7  UNL     1     -36.983  15.189  -6.948  1.00 20.00     0.213 C 
ENDBRANCH   7   9
ENDBRANCH   5   7
TORSDOF 2
ENDMDL
