MODEL 1
REMARK VINA RESULT:      -4.0      0.000      0.000
REMARK  1 active torsions:
REMARK  status: ('A' for Active; 'I' for Inactive)
REMARK    1  A    between atoms: C3_3  and  C7_7 
ROOT
HETATM    1  C1  UNL     1     -34.249  15.880  -4.881  1.00 20.00     0.034 A 
HETATM    2  C2  UNL     1     -34.369  14.144  -3.340  1.00 20.00     0.058 A 
HETATM    3  C3  UNL     1     -34.126  15.490  -3.516  1.00 20.00    -0.046 A 
HETATM    4  C4  UNL     1     -34.581  14.819  -5.695  1.00 20.00     0.051 A 
HETATM    5  S8  UNL     1     -34.743  13.359  -4.815  1.00 20.00    -0.094 SA
HETATM    6 BR9  UNL     1     -34.832  14.945  -7.574  1.00 20.00    -0.043 Br
ENDROOT
BRANCH   3   7
HETATM    7  C7  UNL     1     -33.768  16.449  -2.384  1.00 20.00     0.019 A 
HETATM    8  C5  UNL     1     -34.610  16.445  -1.124  1.00 20.00     0.010 A 
HETATM    9  C6  UNL     1     -34.703  17.600  -2.071  1.00 20.00     0.010 A 
ENDBRANCH   3   7
TORSDOF 1
ENDMDL
MODEL 2
REMARK VINA RESULT:      -4.0      1.813      2.288
REMARK  1 active torsions:
REMARK  status: ('A' for Active; 'I' for Inactive)
REMARK    1  A    between atoms: C3_3  and  C7_7 
ROOT
HETATM    1  C1  UNL     1     -34.274  15.394  -2.796  1.00 20.00     0.034 A 
HETATM    2  C2  UNL     1     -33.601  17.384  -3.792  1.00 20.00     0.058 A 
HETATM    3  C3  UNL     1     -33.886  16.751  -2.601  1.00 20.00    -0.046 A 
HETATM    4  C4  UNL     1     -34.270  15.040  -4.128  1.00 20.00     0.051 A 
HETATM    5  S8  UNL     1     -33.800  16.343  -5.137  1.00 20.00    -0.094 SA
HETATM    6 BR9  UNL     1     -34.729  13.318  -4.784  1.00 20.00    -0.043 Br
ENDROOT
BRANCH   3   7
HETATM    7  C7  UNL     1     -33.798  17.424  -1.234  1.00 20.00     0.019 A 
HETATM    8  C5  UNL     1     -34.768  17.007  -0.146  1.00 20.00     0.010 A 
HETATM    9  C6  UNL     1     -34.918  18.347  -0.796  1.00 20.00     0.010 A 
ENDBRANCH   3   7
TORSDOF 1
ENDMDL
MODEL 3
REMARK VINA RESULT:      -4.0      3.587      4.663
REMARK  1 active torsions:
REMARK  status: ('A' for Active; 'I' for Inactive)
REMARK    1  A    between atoms: C3_3  and  C7_7 
ROOT
HETATM    1  C1  UNL     1     -34.553  16.055  -1.834  1.00 20.00     0.034 A 
HETATM    2  C2  UNL     1     -33.707  17.437  -3.501  1.00 20.00     0.058 A 
HETATM    3  C3  UNL     1     -34.091  16.153  -3.178  1.00 20.00    -0.046 A 
HETATM    4  C4  UNL     1     -34.507  17.268  -1.181  1.00 20.00     0.051 A 
HETATM    5  S8  UNL     1     -33.906  18.517  -2.187  1.00 20.00    -0.094 SA
HETATM    6 BR9  UNL     1     -35.040  17.538   0.622  1.00 20.00    -0.043 Br
ENDROOT
BRANCH   3   7
HETATM    7  C7  UNL     1     -34.027  14.974  -4.145  1.00 20.00     0.019 A 
HETATM    8  C5  UNL     1     -34.743  13.688  -3.784  1.00 20.00     0.010 A 
HETATM    9  C6  UNL     1     -33.248  13.736  -3.746  1.00 20.00     0.010 A 
ENDBRANCH   3   7
TORSDOF 1
ENDMDL
MODEL 4
REMARK VINA RESULT:      -3.9      3.358      4.551
REMARK  1 active torsions:
REMARK  status: ('A' for Active; 'I' for Inactive)
REMARK    1  A    between atoms: C3_3  and  C7_7 
ROOT
HETATM    1  C1  UNL     1     -34.469  15.814  -1.923  1.00 20.00     0.034 A 
HETATM    2  C2  UNL     1     -33.706  16.757  -3.906  1.00 20.00     0.058 A 
HETATM    3  C3  UNL     1     -34.052  15.585  -3.267  1.00 20.00    -0.046 A 
HETATM    4  C4  UNL     1     -34.426  17.150  -1.587  1.00 20.00     0.051 A 
HETATM    5  S8  UNL     1     -33.884  18.122  -2.889  1.00 20.00    -0.094 SA
HETATM    6 BR9  UNL     1     -34.906  17.846   0.113  1.00 20.00    -0.043 Br
ENDROOT
BRANCH   3   7
HETATM    7  C7  UNL     1     -33.996  14.207  -3.919  1.00 20.00     0.019 A 
HETATM    8  C5  UNL     1     -34.473  14.050  -5.349  1.00 20.00     0.010 A 
HETATM    9  C6  UNL     1     -35.293  13.487  -4.231  1.00 20.00     0.010 A 
ENDBRANCH   3   7
TORSDOF 1
ENDMDL
MODEL 5
REMARK VINA RESULT:      -3.8      3.470      4.543
REMARK  1 active torsions:
REMARK  status: ('A' for Active; 'I' for Inactive)
REMARK    1  A    between atoms: C3_3  and  C7_7 
ROOT
HETATM    1  C1  UNL     1     -34.499  15.969  -1.909  1.00 20.00     0.034 A 
HETATM    2  C2  UNL     1     -36.352  16.391  -3.248  1.00 20.00     0.058 A 
HETATM    3  C3  UNL     1     -35.317  15.519  -2.986  1.00 20.00    -0.046 A 
HETATM    4  C4  UNL     1     -34.940  17.167  -1.390  1.00 20.00     0.051 A 
HETATM    5  S8  UNL     1     -36.335  17.744  -2.200  1.00 20.00    -0.094 SA
HETATM    6 BR9  UNL     1     -34.110  18.083   0.052  1.00 20.00    -0.043 Br
ENDROOT
BRANCH   3   7
HETATM    7  C7  UNL     1     -35.074  14.224  -3.757  1.00 20.00     0.019 A 
HETATM    8  C5  UNL     1     -33.657  13.703  -3.888  1.00 20.00     0.010 A 
HETATM    9  C6  UNL     1     -34.344  14.285  -5.084  1.00 20.00     0.010 A 
ENDBRANCH   3   7
TORSDOF 1
ENDMDL
MODEL 6
REMARK VINA RESULT:      -3.7      3.095      4.559
REMARK  1 active torsions:
REMARK  status: ('A' for Active; 'I' for Inactive)
REMARK    1  A    between atoms: C3_3  and  C7_7 
ROOT
HETATM    1  C1  UNL     1     -34.510  15.629  -3.035  1.00 20.00     0.034 A 
HETATM    2  C2  UNL     1     -33.847  17.087  -4.720  1.00 20.00     0.058 A 
HETATM    3  C3  UNL     1     -34.215  15.792  -4.419  1.00 20.00    -0.046 A 
HETATM    4  C4  UNL     1     -34.358  16.804  -2.331  1.00 20.00     0.051 A 
HETATM    5  S8  UNL     1     -33.860  18.097  -3.338  1.00 20.00    -0.094 SA
HETATM    6 BR9  UNL     1     -34.660  16.984  -0.464  1.00 20.00    -0.043 Br
ENDROOT
BRANCH   3   7
HETATM    7  C7  UNL     1     -34.295  14.666  -5.446  1.00 20.00     0.019 A 
HETATM    8  C5  UNL     1     -34.360  15.019  -6.919  1.00 20.00     0.010 A 
HETATM    9  C6  UNL     1     -35.577  14.480  -6.234  1.00 20.00     0.010 A 
ENDBRANCH   3   7
TORSDOF 1
ENDMDL
MODEL 7
REMARK VINA RESULT:      -3.7     13.496     14.873
REMARK  1 active torsions:
REMARK  status: ('A' for Active; 'I' for Inactive)
REMARK    1  A    between atoms: C3_3  and  C7_7 
ROOT
HETATM    1  C1  UNL     1     -41.063   3.854  -2.008  1.00 20.00     0.034 A 
HETATM    2  C2  UNL     1     -43.077   3.859  -3.169  1.00 20.00     0.058 A 
HETATM    3  C3  UNL     1     -41.887   3.194  -2.965  1.00 20.00    -0.046 A 
HETATM    4  C4  UNL     1     -41.654   4.998  -1.517  1.00 20.00     0.051 A 
HETATM    5  S8  UNL     1     -43.197   5.271  -2.209  1.00 20.00    -0.094 SA
HETATM    6 BR9  UNL     1     -40.865   6.145  -0.226  1.00 20.00    -0.043 Br
ENDROOT
BRANCH   3   7
HETATM    7  C7  UNL     1     -41.497   1.903  -3.680  1.00 20.00     0.019 A 
HETATM    8  C5  UNL     1     -42.435   1.328  -4.722  1.00 20.00     0.010 A 
HETATM    9  C6  UNL     1     -42.287   0.640  -3.401  1.00 20.00     0.010 A 
ENDBRANCH   3   7
TORSDOF 1
ENDMDL
MODEL 8
REMARK VINA RESULT:      -3.6     12.781     13.743
REMARK  1 active torsions:
REMARK  status: ('A' for Active; 'I' for Inactive)
REMARK    1  A    between atoms: C3_3  and  C7_7 
ROOT
HETATM    1  C1  UNL     1     -41.056   3.529  -2.514  1.00 20.00     0.034 A 
HETATM    2  C2  UNL     1     -42.850   3.965  -1.101  1.00 20.00     0.058 A 
HETATM    3  C3  UNL     1     -41.574   4.341  -1.464  1.00 20.00    -0.046 A 
HETATM    4  C4  UNL     1     -41.955   2.563  -2.913  1.00 20.00     0.051 A 
HETATM    5  S8  UNL     1     -43.416   2.639  -2.024  1.00 20.00    -0.094 SA
HETATM    6 BR9  UNL     1     -41.626   1.291  -4.285  1.00 20.00    -0.043 Br
ENDROOT
BRANCH   3   7
HETATM    7  C7  UNL     1     -40.807   5.492  -0.819  1.00 20.00     0.019 A 
HETATM    8  C5  UNL     1     -41.551   6.458   0.082  1.00 20.00     0.010 A 
HETATM    9  C6  UNL     1     -41.092   6.911  -1.269  1.00 20.00     0.010 A 
ENDBRANCH   3   7
TORSDOF 1
ENDMDL
MODEL 9
REMARK VINA RESULT:      -3.6      5.007      6.207
REMARK  1 active torsions:
REMARK  status: ('A' for Active; 'I' for Inactive)
REMARK    1  A    between atoms: C3_3  and  C7_7 
ROOT
HETATM    1  C1  UNL     1     -35.136  17.394   0.767  1.00 20.00     0.034 A 
HETATM    2  C2  UNL     1     -33.270  18.085  -0.435  1.00 20.00     0.058 A 
HETATM    3  C3  UNL     1     -34.353  17.233  -0.413  1.00 20.00    -0.046 A 
HETATM    4  C4  UNL     1     -34.622  18.363   1.601  1.00 20.00     0.051 A 
HETATM    5  S8  UNL     1     -33.200  19.073   0.961  1.00 20.00    -0.094 SA
HETATM    6 BR9  UNL     1     -35.386  18.863   3.266  1.00 20.00    -0.043 Br
ENDROOT
BRANCH   3   7
HETATM    7  C7  UNL     1     -34.677  16.233  -1.520  1.00 20.00     0.019 A 
HETATM    8  C5  UNL     1     -33.785  16.179  -2.745  1.00 20.00     0.010 A 
HETATM    9  C6  UNL     1     -35.163  16.752  -2.860  1.00 20.00     0.010 A 
ENDBRANCH   3   7
TORSDOF 1
ENDMDL
