MODEL 1
REMARK VINA RESULT:      -5.7      0.000      0.000
REMARK  1 active torsions:
REMARK  status: ('A' for Active; 'I' for Inactive)
REMARK    1  A    between atoms: C5_5  and  C8_8 
ROOT
HETATM    1  C1  UNL     1     -33.374  13.901  -3.768  1.00 20.00     0.047 C 
HETATM    2  C2  UNL     1     -33.150  15.143  -3.321  1.00 20.00    -0.009 C 
HETATM    3  C3  UNL     1     -34.609  13.590  -4.527  1.00 20.00     0.149 C 
HETATM    4  C6  UNL     1     -35.553  14.720  -4.862  1.00 20.00     0.084 C 
HETATM    5  C7  UNL     1     -35.529  15.793  -3.781  1.00 20.00     0.025 C 
HETATM    6  C8  UNL     1     -34.106  16.309  -3.475  1.00 20.00    -0.003 C 
HETATM    7  C11 UNL     1     -33.596  17.224  -4.600  1.00 20.00     0.024 C 
HETATM    8  O12 UNL     1     -34.809  12.442  -4.921  1.00 20.00    -0.293 OA
ENDROOT
BRANCH   6   9
HETATM    9  C5  UNL     1     -34.158  17.117  -2.200  1.00 20.00    -0.076 C 
HETATM   10  C4  UNL     1     -34.680  16.603  -1.070  1.00 20.00    -0.027 C 
HETATM   11  C9  UNL     1     -34.804  17.258   0.246  1.00 20.00     0.036 C 
HETATM   12  C10 UNL     1     -33.592  18.505  -2.303  1.00 20.00     0.044 C 
ENDBRANCH   6   9
TORSDOF 1
ENDMDL
MODEL 2
REMARK VINA RESULT:      -5.1      0.894      2.906
REMARK  1 active torsions:
REMARK  status: ('A' for Active; 'I' for Inactive)
REMARK    1  A    between atoms: C5_5  and  C8_8 
ROOT
HETATM    1  C1  UNL     1     -35.765  14.634  -4.244  1.00 20.00     0.047 C 
HETATM    2  C2  UNL     1     -35.504  15.874  -3.813  1.00 20.00    -0.009 C 
HETATM    3  C3  UNL     1     -34.710  13.593  -4.214  1.00 20.00     0.149 C 
HETATM    4  C6  UNL     1     -33.373  13.940  -3.601  1.00 20.00     0.084 C 
HETATM    5  C7  UNL     1     -33.038  15.411  -3.814  1.00 20.00     0.025 C 
HETATM    6  C8  UNL     1     -34.155  16.360  -3.324  1.00 20.00    -0.003 C 
HETATM    7  C11 UNL     1     -34.181  16.436  -1.789  1.00 20.00     0.024 C 
HETATM    8  O12 UNL     1     -34.958  12.460  -4.623  1.00 20.00    -0.293 OA
ENDROOT
BRANCH   6   9
HETATM    9  C5  UNL     1     -33.869  17.743  -3.858  1.00 20.00    -0.076 C 
HETATM   10  C4  UNL     1     -33.784  17.976  -5.182  1.00 20.00    -0.027 C 
HETATM   11  C9  UNL     1     -33.513  19.260  -5.857  1.00 20.00     0.036 C 
HETATM   12  C10 UNL     1     -33.692  18.805  -2.810  1.00 20.00     0.044 C 
ENDBRANCH   6   9
TORSDOF 1
ENDMDL
MODEL 3
REMARK VINA RESULT:      -5.1      1.414      1.989
REMARK  1 active torsions:
REMARK  status: ('A' for Active; 'I' for Inactive)
REMARK    1  A    between atoms: C5_5  and  C8_8 
ROOT
HETATM    1  C1  UNL     1     -35.672  14.225  -5.022  1.00 20.00     0.047 C 
HETATM    2  C2  UNL     1     -35.063  14.649  -3.907  1.00 20.00    -0.009 C 
HETATM    3  C3  UNL     1     -35.200  14.679  -6.352  1.00 20.00     0.149 C 
HETATM    4  C6  UNL     1     -33.967  15.548  -6.421  1.00 20.00     0.084 C 
HETATM    5  C7  UNL     1     -33.851  16.434  -5.187  1.00 20.00     0.025 C 
HETATM    6  C8  UNL     1     -33.917  15.638  -3.865  1.00 20.00    -0.003 C 
HETATM    7  C11 UNL     1     -32.607  14.871  -3.617  1.00 20.00     0.024 C 
HETATM    8  O12 UNL     1     -35.776  14.292  -7.367  1.00 20.00    -0.293 OA
ENDROOT
BRANCH   6   9
HETATM    9  C5  UNL     1     -34.109  16.617  -2.731  1.00 20.00    -0.076 C 
HETATM   10  C4  UNL     1     -34.531  16.206  -1.520  1.00 20.00    -0.027 C 
HETATM   11  C9  UNL     1     -34.766  17.031  -0.319  1.00 20.00     0.036 C 
HETATM   12  C10 UNL     1     -33.796  18.048  -3.066  1.00 20.00     0.044 C 
ENDBRANCH   6   9
TORSDOF 1
ENDMDL
MODEL 4
REMARK VINA RESULT:      -5.1      2.416      4.732
REMARK  1 active torsions:
REMARK  status: ('A' for Active; 'I' for Inactive)
REMARK    1  A    between atoms: C5_5  and  C8_8 
ROOT
HETATM    1  C1  UNL     1     -33.674  17.925  -3.679  1.00 20.00     0.047 C 
HETATM    2  C2  UNL     1     -33.470  16.830  -4.422  1.00 20.00    -0.009 C 
HETATM    3  C3  UNL     1     -34.166  17.804  -2.286  1.00 20.00     0.149 C 
HETATM    4  C6  UNL     1     -34.339  16.422  -1.700  1.00 20.00     0.084 C 
HETATM    5  C7  UNL     1     -34.729  15.416  -2.775  1.00 20.00     0.025 C 
HETATM    6  C8  UNL     1     -33.758  15.410  -3.977  1.00 20.00    -0.003 C 
HETATM    7  C11 UNL     1     -32.431  14.726  -3.611  1.00 20.00     0.024 C 
HETATM    8  O12 UNL     1     -34.361  18.818  -1.618  1.00 20.00    -0.293 OA
ENDROOT
BRANCH   6   9
HETATM    9  C5  UNL     1     -34.396  14.627  -5.099  1.00 20.00    -0.076 C 
HETATM   10  C4  UNL     1     -34.514  15.149  -6.335  1.00 20.00    -0.027 C 
HETATM   11  C9  UNL     1     -35.108  14.518  -7.529  1.00 20.00     0.036 C 
HETATM   12  C10 UNL     1     -34.875  13.253  -4.723  1.00 20.00     0.044 C 
ENDBRANCH   6   9
TORSDOF 1
ENDMDL
MODEL 5
REMARK VINA RESULT:      -4.8      1.960      3.256
REMARK  1 active torsions:
REMARK  status: ('A' for Active; 'I' for Inactive)
REMARK    1  A    between atoms: C5_5  and  C8_8 
ROOT
HETATM    1  C1  UNL     1     -37.335  15.170  -5.458  1.00 20.00     0.047 C 
HETATM    2  C2  UNL     1     -36.538  14.902  -4.416  1.00 20.00    -0.009 C 
HETATM    3  C3  UNL     1     -36.805  15.111  -6.841  1.00 20.00     0.149 C 
HETATM    4  C6  UNL     1     -35.381  14.654  -7.048  1.00 20.00     0.084 C 
HETATM    5  C7  UNL     1     -34.499  15.055  -5.871  1.00 20.00     0.025 C 
HETATM    6  C8  UNL     1     -35.060  14.583  -4.511  1.00 20.00    -0.003 C 
HETATM    7  C11 UNL     1     -34.866  13.069  -4.329  1.00 20.00     0.024 C 
HETATM    8  O12 UNL     1     -37.544  15.371  -7.789  1.00 20.00    -0.293 OA
ENDROOT
BRANCH   6   9
HETATM    9  C5  UNL     1     -34.298  15.289  -3.415  1.00 20.00    -0.076 C 
HETATM   10  C4  UNL     1     -34.941  15.899  -2.401  1.00 20.00    -0.027 C 
HETATM   11  C9  UNL     1     -34.347  16.626  -1.262  1.00 20.00     0.036 C 
HETATM   12  C10 UNL     1     -32.803  15.250  -3.553  1.00 20.00     0.044 C 
ENDBRANCH   6   9
TORSDOF 1
ENDMDL
MODEL 6
REMARK VINA RESULT:      -4.7      2.675      4.654
REMARK  1 active torsions:
REMARK  status: ('A' for Active; 'I' for Inactive)
REMARK    1  A    between atoms: C5_5  and  C8_8 
ROOT
HETATM    1  C1  UNL     1     -33.896  17.436  -0.484  1.00 20.00     0.047 C 
HETATM    2  C2  UNL     1     -34.783  16.650  -1.108  1.00 20.00    -0.009 C 
HETATM    3  C3  UNL     1     -33.248  18.554  -1.210  1.00 20.00     0.149 C 
HETATM    4  C6  UNL     1     -33.679  18.839  -2.629  1.00 20.00     0.084 C 
HETATM    5  C7  UNL     1     -34.096  17.559  -3.343  1.00 20.00     0.025 C 
HETATM    6  C8  UNL     1     -35.167  16.759  -2.569  1.00 20.00    -0.003 C 
HETATM    7  C11 UNL     1     -36.544  17.438  -2.670  1.00 20.00     0.024 C 
HETATM    8  O12 UNL     1     -32.426  19.263  -0.630  1.00 20.00    -0.293 OA
ENDROOT
BRANCH   6   9
HETATM    9  C5  UNL     1     -35.274  15.387  -3.189  1.00 20.00    -0.076 C 
HETATM   10  C4  UNL     1     -34.178  14.642  -3.428  1.00 20.00    -0.027 C 
HETATM   11  C9  UNL     1     -34.114  13.294  -4.024  1.00 20.00     0.036 C 
HETATM   12  C10 UNL     1     -36.673  14.940  -3.507  1.00 20.00     0.044 C 
ENDBRANCH   6   9
TORSDOF 1
ENDMDL
MODEL 7
REMARK VINA RESULT:      -4.7      1.634      2.303
REMARK  1 active torsions:
REMARK  status: ('A' for Active; 'I' for Inactive)
REMARK    1  A    between atoms: C5_5  and  C8_8 
ROOT
HETATM    1  C1  UNL     1     -34.637  14.916  -3.084  1.00 20.00     0.047 C 
HETATM    2  C2  UNL     1     -33.930  15.883  -2.485  1.00 20.00    -0.009 C 
HETATM    3  C3  UNL     1     -36.018  15.180  -3.552  1.00 20.00     0.149 C 
HETATM    4  C6  UNL     1     -36.568  16.581  -3.424  1.00 20.00     0.084 C 
HETATM    5  C7  UNL     1     -35.991  17.287  -2.203  1.00 20.00     0.025 C 
HETATM    6  C8  UNL     1     -34.446  17.273  -2.173  1.00 20.00    -0.003 C 
HETATM    7  C11 UNL     1     -33.865  18.259  -3.200  1.00 20.00     0.024 C 
HETATM    8  O12 UNL     1     -36.662  14.281  -4.091  1.00 20.00    -0.293 OA
ENDROOT
BRANCH   6   9
HETATM    9  C5  UNL     1     -33.994  17.706  -0.799  1.00 20.00    -0.076 C 
HETATM   10  C4  UNL     1     -32.852  18.399  -0.627  1.00 20.00    -0.027 C 
HETATM   11  C9  UNL     1     -32.277  18.892   0.639  1.00 20.00     0.036 C 
HETATM   12  C10 UNL     1     -34.905  17.304   0.326  1.00 20.00     0.044 C 
ENDBRANCH   6   9
TORSDOF 1
ENDMDL
MODEL 8
REMARK VINA RESULT:      -4.5      1.572      2.369
REMARK  1 active torsions:
REMARK  status: ('A' for Active; 'I' for Inactive)
REMARK    1  A    between atoms: C5_5  and  C8_8 
ROOT
HETATM    1  C1  UNL     1     -35.188  16.370  -6.222  1.00 20.00     0.047 C 
HETATM    2  C2  UNL     1     -35.463  16.729  -4.962  1.00 20.00    -0.009 C 
HETATM    3  C3  UNL     1     -34.614  15.034  -6.511  1.00 20.00     0.149 C 
HETATM    4  C6  UNL     1     -34.438  14.062  -5.368  1.00 20.00     0.084 C 
HETATM    5  C7  UNL     1     -34.139  14.795  -4.066  1.00 20.00     0.025 C 
HETATM    6  C8  UNL     1     -35.181  15.885  -3.735  1.00 20.00    -0.003 C 
HETATM    7  C11 UNL     1     -36.500  15.260  -3.250  1.00 20.00     0.024 C 
HETATM    8  O12 UNL     1     -34.355  14.720  -7.671  1.00 20.00    -0.293 OA
ENDROOT
BRANCH   6   9
HETATM    9  C5  UNL     1     -34.632  16.744  -2.621  1.00 20.00    -0.076 C 
HETATM   10  C4  UNL     1     -34.903  16.469  -1.331  1.00 20.00    -0.027 C 
HETATM   11  C9  UNL     1     -34.447  17.205  -0.136  1.00 20.00     0.036 C 
HETATM   12  C10 UNL     1     -33.781  17.899  -3.068  1.00 20.00     0.044 C 
ENDBRANCH   6   9
TORSDOF 1
ENDMDL
MODEL 9
REMARK VINA RESULT:      -4.4      2.377      4.675
REMARK  1 active torsions:
REMARK  status: ('A' for Active; 'I' for Inactive)
REMARK    1  A    between atoms: C5_5  and  C8_8 
ROOT
HETATM    1  C1  UNL     1     -33.325  16.284  -4.177  1.00 20.00     0.047 C 
HETATM    2  C2  UNL     1     -33.838  15.538  -5.163  1.00 20.00    -0.009 C 
HETATM    3  C3  UNL     1     -33.981  16.321  -2.847  1.00 20.00     0.149 C 
HETATM    4  C6  UNL     1     -35.176  15.428  -2.609  1.00 20.00     0.084 C 
HETATM    5  C7  UNL     1     -35.978  15.232  -3.889  1.00 20.00     0.025 C 
HETATM    6  C8  UNL     1     -35.115  14.729  -5.068  1.00 20.00    -0.003 C 
HETATM    7  C11 UNL     1     -34.752  13.245  -4.894  1.00 20.00     0.024 C 
HETATM    8  O12 UNL     1     -33.507  17.019  -1.953  1.00 20.00    -0.293 OA
ENDROOT
BRANCH   6   9
HETATM    9  C5  UNL     1     -35.921  14.869  -6.338  1.00 20.00    -0.076 C 
HETATM   10  C4  UNL     1     -37.227  15.194  -6.302  1.00 20.00    -0.027 C 
HETATM   11  C9  UNL     1     -38.146  15.367  -7.444  1.00 20.00     0.036 C 
HETATM   12  C10 UNL     1     -35.156  14.619  -7.607  1.00 20.00     0.044 C 
ENDBRANCH   6   9
TORSDOF 1
ENDMDL
