MODEL 1
REMARK VINA RESULT:      -4.7      0.000      0.000
REMARK  0 active torsions:
REMARK  status: ('A' for Active; 'I' for Inactive)
ROOT
HETATM    1  C1  UNL     1     -36.833  14.495  -4.277  1.00 20.00     0.069 C 
HETATM    2  C2  UNL     1     -33.847  13.598  -3.674  1.00 20.00     0.007 C 
HETATM    3  C3  UNL     1     -34.712  13.390  -4.922  1.00 20.00     0.025 C 
HETATM    4  C4  UNL     1     -33.992  15.069  -3.279  1.00 20.00     0.070 C 
HETATM    5  C5  UNL     1     -35.018  17.884  -5.083  1.00 20.00     0.197 C 
HETATM    6  C6  UNL     1     -33.618  17.490  -5.465  1.00 20.00     0.197 C 
HETATM    7  C7  UNL     1     -35.582  14.644  -5.043  1.00 20.00     0.155 C 
HETATM    8  C8  UNL     1     -34.664  15.735  -4.478  1.00 20.00     0.180 C 
HETATM    9  N9  UNL     1     -37.817  14.378  -3.675  1.00 20.00    -0.197 NA
HETATM   10  O10 UNL     1     -35.368  16.919  -4.094  1.00 20.00    -0.352 OA
HETATM   11  O11 UNL     1     -33.669  16.065  -5.466  1.00 20.00    -0.352 OA
ENDROOT
TORSDOF 0
ENDMDL
MODEL 2
REMARK VINA RESULT:      -4.5      1.988      2.991
REMARK  0 active torsions:
REMARK  status: ('A' for Active; 'I' for Inactive)
ROOT
HETATM    1  C1  UNL     1     -34.852  13.779  -4.721  1.00 20.00     0.069 C 
HETATM    2  C2  UNL     1     -33.624  16.069  -2.896  1.00 20.00     0.007 C 
HETATM    3  C3  UNL     1     -33.772  15.987  -4.420  1.00 20.00     0.025 C 
HETATM    4  C4  UNL     1     -34.972  15.656  -2.301  1.00 20.00     0.070 C 
HETATM    5  C5  UNL     1     -38.193  15.551  -3.658  1.00 20.00     0.197 C 
HETATM    6  C6  UNL     1     -37.796  16.965  -3.343  1.00 20.00     0.197 C 
HETATM    7  C7  UNL     1     -35.081  15.235  -4.674  1.00 20.00     0.155 C 
HETATM    8  C8  UNL     1     -35.942  15.663  -3.479  1.00 20.00     0.180 C 
HETATM    9  N9  UNL     1     -34.673  12.634  -4.760  1.00 20.00    -0.197 NA
HETATM   10  O10 UNL     1     -37.055  14.796  -3.248  1.00 20.00    -0.352 OA
HETATM   11  O11 UNL     1     -36.416  17.005  -3.704  1.00 20.00    -0.352 OA
ENDROOT
TORSDOF 0
ENDMDL
MODEL 3
REMARK VINA RESULT:      -4.5      1.367      1.568
REMARK  0 active torsions:
REMARK  status: ('A' for Active; 'I' for Inactive)
ROOT
HETATM    1  C1  UNL     1     -37.313  14.703  -4.195  1.00 20.00     0.069 C 
HETATM    2  C2  UNL     1     -34.506  13.384  -4.877  1.00 20.00     0.007 C 
HETATM    3  C3  UNL     1     -35.396  14.309  -5.714  1.00 20.00     0.025 C 
HETATM    4  C4  UNL     1     -34.415  14.006  -3.482  1.00 20.00     0.070 C 
HETATM    5  C5  UNL     1     -34.984  17.259  -2.331  1.00 20.00     0.197 C 
HETATM    6  C6  UNL     1     -33.666  17.173  -3.048  1.00 20.00     0.197 C 
HETATM    7  C7  UNL     1     -36.056  15.268  -4.720  1.00 20.00     0.155 C 
HETATM    8  C8  UNL     1     -34.975  15.417  -3.642  1.00 20.00     0.180 C 
HETATM    9  N9  UNL     1     -38.302  14.260  -3.783  1.00 20.00    -0.197 NA
HETATM   10  O10 UNL     1     -35.480  15.924  -2.405  1.00 20.00    -0.352 OA
HETATM   11  O11 UNL     1     -33.943  16.293  -4.136  1.00 20.00    -0.352 OA
ENDROOT
TORSDOF 0
ENDMDL
MODEL 4
REMARK VINA RESULT:      -4.5      1.898      2.718
REMARK  0 active torsions:
REMARK  status: ('A' for Active; 'I' for Inactive)
ROOT
HETATM    1  C1  UNL     1     -35.142  13.817  -4.544  1.00 20.00     0.069 C 
HETATM    2  C2  UNL     1     -34.017  16.258  -6.235  1.00 20.00     0.007 C 
HETATM    3  C3  UNL     1     -35.459  15.788  -6.011  1.00 20.00     0.025 C 
HETATM    4  C4  UNL     1     -33.342  16.277  -4.862  1.00 20.00     0.070 C 
HETATM    5  C5  UNL     1     -34.643  16.391  -1.618  1.00 20.00     0.197 C 
HETATM    6  C6  UNL     1     -34.733  17.740  -2.273  1.00 20.00     0.197 C 
HETATM    7  C7  UNL     1     -35.504  15.246  -4.579  1.00 20.00     0.155 C 
HETATM    8  C8  UNL     1     -34.484  16.136  -3.859  1.00 20.00     0.180 C 
HETATM    9  N9  UNL     1     -34.858  12.693  -4.515  1.00 20.00    -0.197 NA
HETATM   10  O10 UNL     1     -34.030  15.584  -2.621  1.00 20.00    -0.352 OA
HETATM   11  O11 UNL     1     -35.079  17.427  -3.621  1.00 20.00    -0.352 OA
ENDROOT
TORSDOF 0
ENDMDL
MODEL 5
REMARK VINA RESULT:      -4.4      2.299      3.432
REMARK  0 active torsions:
REMARK  status: ('A' for Active; 'I' for Inactive)
ROOT
HETATM    1  C1  UNL     1     -34.323  16.135  -3.352  1.00 20.00     0.069 C 
HETATM    2  C2  UNL     1     -34.767  13.627  -5.249  1.00 20.00     0.007 C 
HETATM    3  C3  UNL     1     -34.522  13.696  -3.737  1.00 20.00     0.025 C 
HETATM    4  C4  UNL     1     -35.846  14.664  -5.567  1.00 20.00     0.070 C 
HETATM    5  C5  UNL     1     -38.244  16.233  -3.563  1.00 20.00     0.197 C 
HETATM    6  C6  UNL     1     -38.649  14.817  -3.864  1.00 20.00     0.197 C 
HETATM    7  C7  UNL     1     -35.222  14.971  -3.257  1.00 20.00     0.155 C 
HETATM    8  C8  UNL     1     -36.420  15.065  -4.210  1.00 20.00     0.180 C 
HETATM    9  N9  UNL     1     -33.616  17.051  -3.425  1.00 20.00    -0.197 NA
HETATM   10  O10 UNL     1     -37.004  16.369  -4.253  1.00 20.00    -0.352 OA
HETATM   11  O11 UNL     1     -37.415  14.104  -3.805  1.00 20.00    -0.352 OA
ENDROOT
TORSDOF 0
ENDMDL
MODEL 6
REMARK VINA RESULT:      -4.4      1.873      2.653
REMARK  0 active torsions:
REMARK  status: ('A' for Active; 'I' for Inactive)
ROOT
HETATM    1  C1  UNL     1     -35.329  13.828  -4.816  1.00 20.00     0.069 C 
HETATM    2  C2  UNL     1     -35.612  14.671  -7.864  1.00 20.00     0.007 C 
HETATM    3  C3  UNL     1     -36.599  14.813  -6.701  1.00 20.00     0.025 C 
HETATM    4  C4  UNL     1     -34.258  15.169  -7.355  1.00 20.00     0.070 C 
HETATM    5  C5  UNL     1     -33.385  17.238  -4.674  1.00 20.00     0.197 C 
HETATM    6  C6  UNL     1     -33.945  18.048  -5.809  1.00 20.00     0.197 C 
HETATM    7  C7  UNL     1     -35.747  15.087  -5.459  1.00 20.00     0.155 C 
HETATM    8  C8  UNL     1     -34.568  15.878  -6.039  1.00 20.00     0.180 C 
HETATM    9  N9  UNL     1     -35.001  12.837  -4.309  1.00 20.00    -0.197 NA
HETATM   10  O10 UNL     1     -33.428  15.904  -5.176  1.00 20.00    -0.352 OA
HETATM   11  O11 UNL     1     -34.999  17.226  -6.308  1.00 20.00    -0.352 OA
ENDROOT
TORSDOF 0
ENDMDL
MODEL 7
REMARK VINA RESULT:      -4.3      1.787      2.397
REMARK  0 active torsions:
REMARK  status: ('A' for Active; 'I' for Inactive)
ROOT
HETATM    1  C1  UNL     1     -34.540  13.791  -4.600  1.00 20.00     0.069 C 
HETATM    2  C2  UNL     1     -34.470  15.903  -2.230  1.00 20.00     0.007 C 
HETATM    3  C3  UNL     1     -33.414  15.564  -3.287  1.00 20.00     0.025 C 
HETATM    4  C4  UNL     1     -35.799  16.062  -2.972  1.00 20.00     0.070 C 
HETATM    5  C5  UNL     1     -36.541  16.695  -6.331  1.00 20.00     0.197 C 
HETATM    6  C6  UNL     1     -36.071  17.948  -5.646  1.00 20.00     0.197 C 
HETATM    7  C7  UNL     1     -34.191  15.223  -4.562  1.00 20.00     0.155 C 
HETATM    8  C8  UNL     1     -35.420  16.133  -4.450  1.00 20.00     0.180 C 
HETATM    9  N9  UNL     1     -34.814  12.665  -4.632  1.00 20.00    -0.197 NA
HETATM   10  O10 UNL     1     -36.502  15.722  -5.288  1.00 20.00    -0.352 OA
HETATM   11  O11 UNL     1     -35.035  17.480  -4.784  1.00 20.00    -0.352 OA
ENDROOT
TORSDOF 0
ENDMDL
MODEL 8
REMARK VINA RESULT:      -4.3      1.955      2.263
REMARK  0 active torsions:
REMARK  status: ('A' for Active; 'I' for Inactive)
ROOT
HETATM    1  C1  UNL     1     -34.832  16.274  -1.801  1.00 20.00     0.069 C 
HETATM    2  C2  UNL     1     -33.629  14.047  -3.719  1.00 20.00     0.007 C 
HETATM    3  C3  UNL     1     -35.084  14.456  -3.464  1.00 20.00     0.025 C 
HETATM    4  C4  UNL     1     -32.841  15.341  -3.936  1.00 20.00     0.070 C 
HETATM    5  C5  UNL     1     -33.846  18.568  -4.833  1.00 20.00     0.197 C 
HETATM    6  C6  UNL     1     -33.862  17.656  -6.027  1.00 20.00     0.197 C 
HETATM    7  C7  UNL     1     -35.059  15.968  -3.225  1.00 20.00     0.155 C 
HETATM    8  C8  UNL     1     -33.902  16.423  -4.123  1.00 20.00     0.180 C 
HETATM    9  N9  UNL     1     -34.654  16.515  -0.680  1.00 20.00    -0.197 NA
HETATM   10  O10 UNL     1     -33.398  17.716  -3.780  1.00 20.00    -0.352 OA
HETATM   11  O11 UNL     1     -34.349  16.427  -5.493  1.00 20.00    -0.352 OA
ENDROOT
TORSDOF 0
ENDMDL
MODEL 9
REMARK VINA RESULT:      -4.3      2.151      3.327
REMARK  0 active torsions:
REMARK  status: ('A' for Active; 'I' for Inactive)
ROOT
HETATM    1  C1  UNL     1     -34.230  13.606  -4.617  1.00 20.00     0.069 C 
HETATM    2  C2  UNL     1     -34.248  16.268  -6.348  1.00 20.00     0.007 C 
HETATM    3  C3  UNL     1     -34.416  14.806  -6.776  1.00 20.00     0.025 C 
HETATM    4  C4  UNL     1     -35.160  16.480  -5.137  1.00 20.00     0.070 C 
HETATM    5  C5  UNL     1     -37.943  14.713  -3.969  1.00 20.00     0.197 C 
HETATM    6  C6  UNL     1     -38.308  15.551  -5.162  1.00 20.00     0.197 C 
HETATM    7  C7  UNL     1     -35.168  14.119  -5.632  1.00 20.00     0.155 C 
HETATM    8  C8  UNL     1     -36.060  15.247  -5.102  1.00 20.00     0.180 C 
HETATM    9  N9  UNL     1     -33.492  13.202  -3.818  1.00 20.00    -0.197 NA
HETATM   10  O10 UNL     1     -36.558  15.000  -3.784  1.00 20.00    -0.352 OA
HETATM   11  O11 UNL     1     -37.166  15.432  -6.007  1.00 20.00    -0.352 OA
ENDROOT
TORSDOF 0
ENDMDL
