MODEL 1
REMARK VINA RESULT:      -5.3      0.000      0.000
REMARK  1 active torsions:
REMARK  status: ('A' for Active; 'I' for Inactive)
REMARK    1  A    between atoms: C4_4  and  C7_7 
ROOT
HETATM    1  C1  UNL     1     -34.383   5.633   6.227  1.00 20.00     0.056 A 
HETATM    2  C2  UNL     1     -33.798   6.703   5.697  1.00 20.00     0.010 A 
HETATM    3  C3  UNL     1     -34.839   4.826   5.103  1.00 20.00     0.157 A 
HETATM    4  C4  UNL     1     -33.837   6.667   4.217  1.00 20.00     0.157 A 
HETATM    5  N8  UNL     1     -35.454   3.700   5.144  1.00 20.00    -0.278 NA
HETATM    6  O9  UNL     1     -34.520   5.439   3.927  1.00 20.00    -0.325 OA
HETATM    7  H20 UNL     1     -35.643   3.376   4.188  1.00 20.00     0.189 HD
ENDROOT
BRANCH   4   8
HETATM    8  C7  UNL     1     -32.456   6.635   3.584  1.00 20.00     0.011 C 
HETATM    9  C5  UNL     1     -32.300   5.411   2.679  1.00 20.00     0.012 C 
HETATM   10  C6  UNL     1     -32.191   7.917   2.792  1.00 20.00     0.012 C 
ENDBRANCH   4   8
TORSDOF 1
ENDMDL
MODEL 2
REMARK VINA RESULT:      -4.7      2.146      3.657
REMARK  1 active torsions:
REMARK  status: ('A' for Active; 'I' for Inactive)
REMARK    1  A    between atoms: C4_4  and  C7_7 
ROOT
HETATM    1  C1  UNL     1     -33.155   5.529   2.606  1.00 20.00     0.056 A 
HETATM    2  C2  UNL     1     -34.363   5.145   3.007  1.00 20.00     0.010 A 
HETATM    3  C3  UNL     1     -32.804   6.675   3.434  1.00 20.00     0.157 A 
HETATM    4  C4  UNL     1     -34.873   6.002   4.101  1.00 20.00     0.157 A 
HETATM    5  N8  UNL     1     -31.723   7.366   3.399  1.00 20.00    -0.278 NA
HETATM    6  O9  UNL     1     -33.815   6.951   4.305  1.00 20.00    -0.325 OA
HETATM    7  H20 UNL     1     -31.766   8.111   4.105  1.00 20.00     0.189 HD
ENDROOT
BRANCH   4   8
HETATM    8  C7  UNL     1     -35.120   5.240   5.392  1.00 20.00     0.011 C 
HETATM    9  C5  UNL     1     -34.783   3.758   5.222  1.00 20.00     0.012 C 
HETATM   10  C6  UNL     1     -34.310   5.840   6.542  1.00 20.00     0.012 C 
ENDBRANCH   4   8
TORSDOF 1
ENDMDL
MODEL 3
REMARK VINA RESULT:      -4.4     11.532     13.111
REMARK  1 active torsions:
REMARK  status: ('A' for Active; 'I' for Inactive)
REMARK    1  A    between atoms: C4_4  and  C7_7 
ROOT
HETATM    1  C1  UNL     1     -33.255  13.806  -3.614  1.00 20.00     0.056 A 
HETATM    2  C2  UNL     1     -32.920  15.086  -3.742  1.00 20.00     0.010 A 
HETATM    3  C3  UNL     1     -34.594  13.683  -4.179  1.00 20.00     0.157 A 
HETATM    4  C4  UNL     1     -34.000  15.870  -4.383  1.00 20.00     0.157 A 
HETATM    5  N8  UNL     1     -35.312  12.623  -4.271  1.00 20.00    -0.278 NA
HETATM    6  O9  UNL     1     -35.027  14.897  -4.623  1.00 20.00    -0.325 OA
HETATM    7  H20 UNL     1     -36.208  12.853  -4.716  1.00 20.00     0.189 HD
ENDROOT
BRANCH   4   8
HETATM    8  C7  UNL     1     -33.582  16.496  -5.703  1.00 20.00     0.011 C 
HETATM    9  C5  UNL     1     -34.499  16.036  -6.838  1.00 20.00     0.012 C 
HETATM   10  C6  UNL     1     -33.581  18.022  -5.607  1.00 20.00     0.012 C 
ENDBRANCH   4   8
TORSDOF 1
ENDMDL
MODEL 4
REMARK VINA RESULT:      -4.4     11.704     12.624
REMARK  1 active torsions:
REMARK  status: ('A' for Active; 'I' for Inactive)
REMARK    1  A    between atoms: C4_4  and  C7_7 
ROOT
HETATM    1  C1  UNL     1     -34.339  14.636  -5.355  1.00 20.00     0.056 A 
HETATM    2  C2  UNL     1     -33.754  15.706  -4.826  1.00 20.00     0.010 A 
HETATM    3  C3  UNL     1     -34.705  13.782  -4.232  1.00 20.00     0.157 A 
HETATM    4  C4  UNL     1     -33.697  15.621  -3.348  1.00 20.00     0.157 A 
HETATM    5  N8  UNL     1     -35.298  12.645  -4.272  1.00 20.00    -0.278 NA
HETATM    6  O9  UNL     1     -34.322  14.362  -3.059  1.00 20.00    -0.325 OA
HETATM    7  H20 UNL     1     -35.420  12.285  -3.318  1.00 20.00     0.189 HD
ENDROOT
BRANCH   4   8
HETATM    8  C7  UNL     1     -34.464  16.734  -2.656  1.00 20.00     0.011 C 
HETATM    9  C5  UNL     1     -34.583  16.461  -1.155  1.00 20.00     0.012 C 
HETATM   10  C6  UNL     1     -33.794  18.088  -2.897  1.00 20.00     0.012 C 
ENDBRANCH   4   8
TORSDOF 1
ENDMDL
MODEL 5
REMARK VINA RESULT:      -4.3     12.458     13.145
REMARK  1 active torsions:
REMARK  status: ('A' for Active; 'I' for Inactive)
REMARK    1  A    between atoms: C4_4  and  C7_7 
ROOT
HETATM    1  C1  UNL     1     -34.194  14.936  -3.352  1.00 20.00     0.056 A 
HETATM    2  C2  UNL     1     -34.861  15.501  -2.351  1.00 20.00     0.010 A 
HETATM    3  C3  UNL     1     -33.386  15.995  -3.943  1.00 20.00     0.157 A 
HETATM    4  C4  UNL     1     -34.541  16.942  -2.226  1.00 20.00     0.157 A 
HETATM    5  N8  UNL     1     -32.579  15.904  -4.937  1.00 20.00    -0.278 NA
HETATM    6  O9  UNL     1     -33.596  17.169  -3.282  1.00 20.00    -0.325 OA
HETATM    7  H20 UNL     1     -32.153  16.821  -5.121  1.00 20.00     0.189 HD
ENDROOT
BRANCH   4   8
HETATM    8  C7  UNL     1     -33.902  17.299  -0.895  1.00 20.00     0.011 C 
HETATM    9  C5  UNL     1     -33.180  18.645  -0.981  1.00 20.00     0.012 C 
HETATM   10  C6  UNL     1     -34.948  17.328   0.221  1.00 20.00     0.012 C 
ENDBRANCH   4   8
TORSDOF 1
ENDMDL
MODEL 6
REMARK VINA RESULT:      -4.2     12.113     13.028
REMARK  1 active torsions:
REMARK  status: ('A' for Active; 'I' for Inactive)
REMARK    1  A    between atoms: C4_4  and  C7_7 
ROOT
HETATM    1  C1  UNL     1     -34.104  13.650  -4.594  1.00 20.00     0.056 A 
HETATM    2  C2  UNL     1     -34.449  14.023  -3.365  1.00 20.00     0.010 A 
HETATM    3  C3  UNL     1     -34.298  14.822  -5.438  1.00 20.00     0.157 A 
HETATM    4  C4  UNL     1     -34.885  15.437  -3.327  1.00 20.00     0.157 A 
HETATM    5  N8  UNL     1     -34.087  14.923  -6.700  1.00 20.00    -0.278 NA
HETATM    6  O9  UNL     1     -34.760  15.865  -4.692  1.00 20.00    -0.325 OA
HETATM    7  H20 UNL     1     -34.315  15.874  -7.012  1.00 20.00     0.189 HD
ENDROOT
BRANCH   4   8
HETATM    8  C7  UNL     1     -34.010  16.310  -2.445  1.00 20.00     0.011 C 
HETATM    9  C5  UNL     1     -33.764  17.672  -3.098  1.00 20.00     0.012 C 
HETATM   10  C6  UNL     1     -34.638  16.490  -1.062  1.00 20.00     0.012 C 
ENDBRANCH   4   8
TORSDOF 1
ENDMDL
MODEL 7
REMARK VINA RESULT:      -4.2      9.601     10.309
REMARK  1 active torsions:
REMARK  status: ('A' for Active; 'I' for Inactive)
REMARK    1  A    between atoms: C4_4  and  C7_7 
ROOT
HETATM    1  C1  UNL     1     -41.562   5.925   0.317  1.00 20.00     0.056 A 
HETATM    2  C2  UNL     1     -41.523   4.635  -0.003  1.00 20.00     0.010 A 
HETATM    3  C3  UNL     1     -41.222   6.651  -0.899  1.00 20.00     0.157 A 
HETATM    4  C4  UNL     1     -41.156   4.438  -1.424  1.00 20.00     0.157 A 
HETATM    5  N8  UNL     1     -41.142   7.923  -1.058  1.00 20.00    -0.278 NA
HETATM    6  O9  UNL     1     -40.980   5.775  -1.915  1.00 20.00    -0.325 OA
HETATM    7  H20 UNL     1     -40.882   8.133  -2.028  1.00 20.00     0.189 HD
ENDROOT
BRANCH   4   8
HETATM    8  C7  UNL     1     -42.241   3.745  -2.231  1.00 20.00     0.011 C 
HETATM    9  C5  UNL     1     -43.008   4.753  -3.090  1.00 20.00     0.012 C 
HETATM   10  C6  UNL     1     -41.647   2.643  -3.109  1.00 20.00     0.012 C 
ENDBRANCH   4   8
TORSDOF 1
ENDMDL
MODEL 8
REMARK VINA RESULT:      -4.1     12.225     12.833
REMARK  1 active torsions:
REMARK  status: ('A' for Active; 'I' for Inactive)
REMARK    1  A    between atoms: C4_4  and  C7_7 
ROOT
HETATM    1  C1  UNL     1     -35.903  14.489  -5.675  1.00 20.00     0.056 A 
HETATM    2  C2  UNL     1     -34.574  14.532  -5.678  1.00 20.00     0.010 A 
HETATM    3  C3  UNL     1     -36.297  14.351  -4.279  1.00 20.00     0.157 A 
HETATM    4  C4  UNL     1     -34.023  14.423  -4.308  1.00 20.00     0.157 A 
HETATM    5  N8  UNL     1     -37.487  14.274  -3.804  1.00 20.00    -0.278 NA
HETATM    6  O9  UNL     1     -35.191  14.308  -3.483  1.00 20.00    -0.325 OA
HETATM    7  H20 UNL     1     -37.445  14.183  -2.782  1.00 20.00     0.189 HD
ENDROOT
BRANCH   4   8
HETATM    8  C7  UNL     1     -33.227  15.645  -3.884  1.00 20.00     0.011 C 
HETATM    9  C5  UNL     1     -33.265  16.723  -4.970  1.00 20.00     0.012 C 
HETATM   10  C6  UNL     1     -33.752  16.206  -2.562  1.00 20.00     0.012 C 
ENDBRANCH   4   8
TORSDOF 1
ENDMDL
MODEL 9
REMARK VINA RESULT:      -3.9      1.385      2.013
REMARK  1 active torsions:
REMARK  status: ('A' for Active; 'I' for Inactive)
REMARK    1  A    between atoms: C4_4  and  C7_7 
ROOT
HETATM    1  C1  UNL     1     -35.083   5.387   3.721  1.00 20.00     0.056 A 
HETATM    2  C2  UNL     1     -34.173   5.730   2.815  1.00 20.00     0.010 A 
HETATM    3  C3  UNL     1     -34.412   5.468   5.013  1.00 20.00     0.157 A 
HETATM    4  C4  UNL     1     -32.870   6.048   3.443  1.00 20.00     0.157 A 
HETATM    5  N8  UNL     1     -34.909   5.226   6.171  1.00 20.00    -0.278 NA
HETATM    6  O9  UNL     1     -33.115   5.851   4.843  1.00 20.00    -0.325 OA
HETATM    7  H20 UNL     1     -34.192   5.370   6.891  1.00 20.00     0.189 HD
ENDROOT
BRANCH   4   8
HETATM    8  C7  UNL     1     -32.428   7.482   3.207  1.00 20.00     0.011 C 
HETATM    9  C5  UNL     1     -31.237   7.838   4.100  1.00 20.00     0.012 C 
HETATM   10  C6  UNL     1     -32.074   7.708   1.736  1.00 20.00     0.012 C 
ENDBRANCH   4   8
TORSDOF 1
ENDMDL
