MODEL 1
REMARK VINA RESULT:      -5.0      0.000      0.000
REMARK  1 active torsions:
REMARK  status: ('A' for Active; 'I' for Inactive)
REMARK    1  A    between atoms: C10_10  and  O11_11 
ROOT
HETATM    1  C1  UNL     1     -34.862  16.288  -1.682  1.00 20.00     0.011 A 
HETATM    2  C2  UNL     1     -36.855  14.704  -3.712  1.00 20.00     0.013 A 
HETATM    3  C3  UNL     1     -32.289  14.391  -3.471  1.00 20.00     0.013 A 
HETATM    4  C4  UNL     1     -35.336  16.811  -3.012  1.00 20.00    -0.005 A 
HETATM    5  C5  UNL     1     -33.847  16.569  -2.754  1.00 20.00    -0.005 A 
HETATM    6  C6  UNL     1     -36.183  16.021  -4.033  1.00 20.00    -0.003 A 
HETATM    7  C7  UNL     1     -33.175  15.572  -3.666  1.00 20.00    -0.003 A 
HETATM    8  C8  UNL     1     -35.871  14.758  -4.850  1.00 20.00     0.019 A 
HETATM    9  C9  UNL     1     -33.767  14.174  -3.630  1.00 20.00     0.019 A 
HETATM   10  C10 UNL     1     -34.605  13.926  -4.830  1.00 20.00     0.127 C 
ENDROOT
BRANCH  10  11
HETATM   11  O11 UNL     1     -34.967  12.548  -4.879  1.00 20.00    -0.395 OA
HETATM   12  H25 UNL     1     -34.903  12.215  -3.971  1.00 20.00     0.210 HD
ENDBRANCH  10  11
TORSDOF 1
ENDMDL
MODEL 2
REMARK VINA RESULT:      -4.9      1.756      2.483
REMARK  1 active torsions:
REMARK  status: ('A' for Active; 'I' for Inactive)
REMARK    1  A    between atoms: C10_10  and  O11_11 
ROOT
HETATM    1  C1  UNL     1     -35.000  17.474  -5.582  1.00 20.00     0.011 A 
HETATM    2  C2  UNL     1     -35.872  14.530  -6.665  1.00 20.00     0.013 A 
HETATM    3  C3  UNL     1     -33.700  15.537  -2.757  1.00 20.00     0.013 A 
HETATM    4  C4  UNL     1     -34.173  16.609  -6.496  1.00 20.00    -0.005 A 
HETATM    5  C5  UNL     1     -33.653  17.001  -5.111  1.00 20.00    -0.005 A 
HETATM    6  C6  UNL     1     -34.523  15.166  -6.920  1.00 20.00    -0.003 A 
HETATM    7  C7  UNL     1     -33.358  15.858  -4.172  1.00 20.00    -0.003 A 
HETATM    8  C8  UNL     1     -34.641  13.870  -6.104  1.00 20.00     0.019 A 
HETATM    9  C9  UNL     1     -34.547  14.967  -3.858  1.00 20.00     0.019 A 
HETATM   10  C10 UNL     1     -34.461  13.690  -4.610  1.00 20.00     0.127 C 
ENDROOT
BRANCH  10  11
HETATM   11  O11 UNL     1     -35.463  12.792  -4.138  1.00 20.00    -0.395 OA
HETATM   12  H25 UNL     1     -36.317  13.201  -4.343  1.00 20.00     0.210 HD
ENDBRANCH  10  11
TORSDOF 1
ENDMDL
MODEL 3
REMARK VINA RESULT:      -4.9      1.675      2.754
REMARK  1 active torsions:
REMARK  status: ('A' for Active; 'I' for Inactive)
REMARK    1  A    between atoms: C10_10  and  O11_11 
ROOT
HETATM    1  C1  UNL     1     -33.374  16.989  -5.328  1.00 20.00     0.011 A 
HETATM    2  C2  UNL     1     -34.422  15.265  -2.772  1.00 20.00     0.013 A 
HETATM    3  C3  UNL     1     -35.090  14.361  -7.216  1.00 20.00     0.013 A 
HETATM    4  C4  UNL     1     -34.663  17.235  -4.588  1.00 20.00    -0.005 A 
HETATM    5  C5  UNL     1     -34.674  16.851  -6.069  1.00 20.00    -0.005 A 
HETATM    6  C6  UNL     1     -35.224  16.352  -3.453  1.00 20.00    -0.003 A 
HETATM    7  C7  UNL     1     -35.404  15.575  -6.411  1.00 20.00    -0.003 A 
HETATM    8  C8  UNL     1     -35.715  14.896  -3.449  1.00 20.00     0.019 A 
HETATM    9  C9  UNL     1     -34.864  14.329  -5.731  1.00 20.00     0.019 A 
HETATM   10  C10 UNL     1     -35.743  13.920  -4.607  1.00 20.00     0.127 C 
ENDROOT
BRANCH  10  11
HETATM   11  O11 UNL     1     -35.338  12.639  -4.130  1.00 20.00    -0.395 OA
HETATM   12  H25 UNL     1     -35.791  11.985  -4.683  1.00 20.00     0.210 HD
ENDBRANCH  10  11
TORSDOF 1
ENDMDL
MODEL 4
REMARK VINA RESULT:      -4.9      2.219      3.778
REMARK  1 active torsions:
REMARK  status: ('A' for Active; 'I' for Inactive)
REMARK    1  A    between atoms: C10_10  and  O11_11 
ROOT
HETATM    1  C1  UNL     1     -36.067  13.925  -4.301  1.00 20.00     0.011 A 
HETATM    2  C2  UNL     1     -33.940  15.893  -2.816  1.00 20.00     0.013 A 
HETATM    3  C3  UNL     1     -34.945  15.730  -7.285  1.00 20.00     0.013 A 
HETATM    4  C4  UNL     1     -34.627  13.587  -4.020  1.00 20.00    -0.005 A 
HETATM    5  C5  UNL     1     -35.147  13.654  -5.458  1.00 20.00    -0.005 A 
HETATM    6  C6  UNL     1     -33.582  14.555  -3.425  1.00 20.00    -0.003 A 
HETATM    7  C7  UNL     1     -34.475  14.667  -6.353  1.00 20.00    -0.003 A 
HETATM    8  C8  UNL     1     -32.977  15.857  -3.971  1.00 20.00     0.019 A 
HETATM    9  C9  UNL     1     -34.577  16.105  -5.878  1.00 20.00     0.019 A 
HETATM   10  C10 UNL     1     -33.295  16.554  -5.278  1.00 20.00     0.127 C 
ENDROOT
BRANCH  10  11
HETATM   11  O11 UNL     1     -33.348  17.959  -5.042  1.00 20.00    -0.395 OA
HETATM   12  H25 UNL     1     -33.044  18.095  -4.132  1.00 20.00     0.210 HD
ENDBRANCH  10  11
TORSDOF 1
ENDMDL
MODEL 5
REMARK VINA RESULT:      -4.8      1.679      2.551
REMARK  1 active torsions:
REMARK  status: ('A' for Active; 'I' for Inactive)
REMARK    1  A    between atoms: C10_10  and  O11_11 
ROOT
HETATM    1  C1  UNL     1     -34.062  17.571  -5.144  1.00 20.00     0.011 A 
HETATM    2  C2  UNL     1     -35.910  15.182  -6.361  1.00 20.00     0.013 A 
HETATM    3  C3  UNL     1     -34.792  15.889  -1.972  1.00 20.00     0.013 A 
HETATM    4  C4  UNL     1     -33.543  16.258  -5.668  1.00 20.00    -0.005 A 
HETATM    5  C5  UNL     1     -33.334  16.652  -4.204  1.00 20.00    -0.005 A 
HETATM    6  C6  UNL     1     -34.418  15.074  -6.136  1.00 20.00    -0.003 A 
HETATM    7  C7  UNL     1     -33.936  15.720  -3.180  1.00 20.00    -0.003 A 
HETATM    8  C8  UNL     1     -35.396  14.171  -5.371  1.00 20.00     0.019 A 
HETATM    9  C9  UNL     1     -35.441  15.548  -3.283  1.00 20.00     0.019 A 
HETATM   10  C10 UNL     1     -35.780  14.244  -3.907  1.00 20.00     0.127 C 
ENDROOT
BRANCH  10  11
HETATM   11  O11 UNL     1     -37.182  14.013  -3.793  1.00 20.00    -0.395 OA
HETATM   12  H25 UNL     1     -37.362  13.879  -2.850  1.00 20.00     0.210 HD
ENDBRANCH  10  11
TORSDOF 1
ENDMDL
MODEL 6
REMARK VINA RESULT:      -4.8      1.466      2.962
REMARK  1 active torsions:
REMARK  status: ('A' for Active; 'I' for Inactive)
REMARK    1  A    between atoms: C10_10  and  O11_11 
ROOT
HETATM    1  C1  UNL     1     -36.657  16.266  -4.623  1.00 20.00     0.011 A 
HETATM    2  C2  UNL     1     -33.893  17.373  -3.303  1.00 20.00     0.013 A 
HETATM    3  C3  UNL     1     -34.692  13.201  -5.026  1.00 20.00     0.013 A 
HETATM    4  C4  UNL     1     -36.325  16.231  -3.154  1.00 20.00    -0.005 A 
HETATM    5  C5  UNL     1     -36.560  14.935  -3.932  1.00 20.00    -0.005 A 
HETATM    6  C6  UNL     1     -34.973  16.643  -2.533  1.00 20.00    -0.003 A 
HETATM    7  C7  UNL     1     -35.401  13.968  -3.963  1.00 20.00    -0.003 A 
HETATM    8  C8  UNL     1     -33.566  16.044  -2.677  1.00 20.00     0.019 A 
HETATM    9  C9  UNL     1     -34.127  14.518  -4.578  1.00 20.00     0.019 A 
HETATM   10  C10 UNL     1     -33.140  14.862  -3.524  1.00 20.00     0.127 C 
ENDROOT
BRANCH  10  11
HETATM   11  O11 UNL     1     -31.885  15.168  -4.130  1.00 20.00    -0.395 OA
HETATM   12  H25 UNL     1     -31.575  15.989  -3.719  1.00 20.00     0.210 HD
ENDBRANCH  10  11
TORSDOF 1
ENDMDL
MODEL 7
REMARK VINA RESULT:      -4.8     10.806     12.231
REMARK  1 active torsions:
REMARK  status: ('A' for Active; 'I' for Inactive)
REMARK    1  A    between atoms: C10_10  and  O11_11 
ROOT
HETATM    1  C1  UNL     1     -42.131   5.189   0.698  1.00 20.00     0.011 A 
HETATM    2  C2  UNL     1     -42.578   7.875  -1.088  1.00 20.00     0.013 A 
HETATM    3  C3  UNL     1     -42.313   3.547  -2.572  1.00 20.00     0.013 A 
HETATM    4  C4  UNL     1     -41.028   6.056   0.149  1.00 20.00    -0.005 A 
HETATM    5  C5  UNL     1     -41.156   4.593  -0.279  1.00 20.00    -0.005 A 
HETATM    6  C6  UNL     1     -41.226   7.262  -0.795  1.00 20.00    -0.003 A 
HETATM    7  C7  UNL     1     -41.365   4.356  -1.755  1.00 20.00    -0.003 A 
HETATM    8  C8  UNL     1     -41.757   7.348  -2.234  1.00 20.00     0.019 A 
HETATM    9  C9  UNL     1     -42.613   4.999  -2.334  1.00 20.00     0.019 A 
HETATM   10  C10 UNL     1     -42.267   6.219  -3.107  1.00 20.00     0.127 C 
ENDROOT
BRANCH  10  11
HETATM   11  O11 UNL     1     -43.417   6.675  -3.814  1.00 20.00    -0.395 OA
HETATM   12  H25 UNL     1     -43.817   7.370  -3.268  1.00 20.00     0.210 HD
ENDBRANCH  10  11
TORSDOF 1
ENDMDL
MODEL 8
REMARK VINA RESULT:      -4.8      1.622      2.843
REMARK  1 active torsions:
REMARK  status: ('A' for Active; 'I' for Inactive)
REMARK    1  A    between atoms: C10_10  and  O11_11 
ROOT
HETATM    1  C1  UNL     1     -36.957  14.691  -3.862  1.00 20.00     0.011 A 
HETATM    2  C2  UNL     1     -34.525  14.593  -6.026  1.00 20.00     0.013 A 
HETATM    3  C3  UNL     1     -34.400  16.255  -1.756  1.00 20.00     0.013 A 
HETATM    4  C4  UNL     1     -36.680  15.746  -4.901  1.00 20.00    -0.005 A 
HETATM    5  C5  UNL     1     -36.619  16.084  -3.410  1.00 20.00    -0.005 A 
HETATM    6  C6  UNL     1     -35.464  15.767  -5.852  1.00 20.00    -0.003 A 
HETATM    7  C7  UNL     1     -35.289  16.588  -2.905  1.00 20.00    -0.003 A 
HETATM    8  C8  UNL     1     -33.960  15.912  -5.572  1.00 20.00     0.019 A 
HETATM    9  C9  UNL     1     -34.129  15.625  -3.093  1.00 20.00     0.019 A 
HETATM   10  C10 UNL     1     -33.273  16.049  -4.229  1.00 20.00     0.127 C 
ENDROOT
BRANCH  10  11
HETATM   11  O11 UNL     1     -32.084  15.261  -4.246  1.00 20.00    -0.395 OA
HETATM   12  H25 UNL     1     -31.747  15.254  -3.337  1.00 20.00     0.210 HD
ENDBRANCH  10  11
TORSDOF 1
ENDMDL
MODEL 9
REMARK VINA RESULT:      -4.7      2.091      3.395
REMARK  1 active torsions:
REMARK  status: ('A' for Active; 'I' for Inactive)
REMARK    1  A    between atoms: C10_10  and  O11_11 
ROOT
HETATM    1  C1  UNL     1     -35.605  15.512  -6.774  1.00 20.00     0.011 A 
HETATM    2  C2  UNL     1     -35.667  13.757  -4.032  1.00 20.00     0.013 A 
HETATM    3  C3  UNL     1     -33.585  17.781  -4.727  1.00 20.00     0.013 A 
HETATM    4  C4  UNL     1     -34.636  14.412  -6.429  1.00 20.00    -0.005 A 
HETATM    5  C5  UNL     1     -34.147  15.847  -6.633  1.00 20.00    -0.005 A 
HETATM    6  C6  UNL     1     -34.585  13.656  -5.083  1.00 20.00    -0.003 A 
HETATM    7  C7  UNL     1     -33.461  16.483  -5.448  1.00 20.00    -0.003 A 
HETATM    8  C8  UNL     1     -34.259  14.137  -3.662  1.00 20.00     0.019 A 
HETATM    9  C9  UNL     1     -34.314  16.580  -4.195  1.00 20.00     0.019 A 
HETATM   10  C10 UNL     1     -33.919  15.542  -3.209  1.00 20.00     0.127 C 
ENDROOT
BRANCH  10  11
HETATM   11  O11 UNL     1     -34.578  15.791  -1.969  1.00 20.00    -0.395 OA
HETATM   12  H25 UNL     1     -34.333  16.691  -1.705  1.00 20.00     0.210 HD
ENDBRANCH  10  11
TORSDOF 1
ENDMDL
