MODEL 1
REMARK VINA RESULT:      -5.3      0.000      0.000
REMARK  0 active torsions:
REMARK  status: ('A' for Active; 'I' for Inactive)
ROOT
HETATM    1  C1  UNL     1     -34.638  13.677  -4.699  1.00 20.00     0.136 C 
HETATM    2  C2  UNL     1     -35.615  14.443  -7.079  1.00 20.00     0.018 A 
HETATM    3  C3  UNL     1     -32.523  14.636  -3.589  1.00 20.00     0.018 A 
HETATM    4  C4  UNL     1     -34.238  17.871  -5.290  1.00 20.00     0.011 A 
HETATM    5  C5  UNL     1     -34.555  14.212  -6.063  1.00 20.00     0.060 A 
HETATM    6  C6  UNL     1     -34.021  14.499  -3.615  1.00 20.00     0.060 A 
HETATM    7  C7  UNL     1     -35.263  15.572  -6.167  1.00 20.00     0.002 A 
HETATM    8  C8  UNL     1     -33.370  15.871  -3.777  1.00 20.00     0.002 A 
HETATM    9  C9  UNL     1     -34.241  16.690  -6.217  1.00 20.00    -0.005 A 
HETATM   10  C10 UNL     1     -33.259  16.749  -5.045  1.00 20.00    -0.005 A 
HETATM   11  O11 UNL     1     -35.157  12.594  -4.463  1.00 20.00    -0.297 OA
ENDROOT
TORSDOF 0
ENDMDL
MODEL 2
REMARK VINA RESULT:      -5.2     12.028     13.731
REMARK  0 active torsions:
REMARK  status: ('A' for Active; 'I' for Inactive)
ROOT
HETATM    1  C1  UNL     1     -34.294   5.276   3.183  1.00 20.00     0.136 C 
HETATM    2  C2  UNL     1     -32.278   7.047   3.193  1.00 20.00     0.018 A 
HETATM    3  C3  UNL     1     -34.977   3.800   5.177  1.00 20.00     0.018 A 
HETATM    4  C4  UNL     1     -34.011   7.319   6.904  1.00 20.00     0.011 A 
HETATM    5  C5  UNL     1     -33.001   5.820   3.615  1.00 20.00     0.060 A 
HETATM    6  C6  UNL     1     -35.280   4.951   4.256  1.00 20.00     0.060 A 
HETATM    7  C7  UNL     1     -33.185   7.142   4.375  1.00 20.00     0.002 A 
HETATM    8  C8  UNL     1     -35.100   5.189   5.755  1.00 20.00     0.002 A 
HETATM    9  C9  UNL     1     -33.005   6.917   5.864  1.00 20.00    -0.005 A 
HETATM   10  C10 UNL     1     -33.925   5.868   6.495  1.00 20.00    -0.005 A 
HETATM   11  O11 UNL     1     -34.542   5.066   2.003  1.00 20.00    -0.297 OA
ENDROOT
TORSDOF 0
ENDMDL
MODEL 3
REMARK VINA RESULT:      -4.9      1.006      2.731
REMARK  0 active torsions:
REMARK  status: ('A' for Active; 'I' for Inactive)
ROOT
HETATM    1  C1  UNL     1     -34.976  13.874  -4.637  1.00 20.00     0.136 C 
HETATM    2  C2  UNL     1     -34.842  15.462  -2.478  1.00 20.00     0.018 A 
HETATM    3  C3  UNL     1     -35.711  14.628  -6.986  1.00 20.00     0.018 A 
HETATM    4  C4  UNL     1     -33.557  17.760  -5.627  1.00 20.00     0.011 A 
HETATM    5  C5  UNL     1     -35.355  15.018  -3.800  1.00 20.00     0.060 A 
HETATM    6  C6  UNL     1     -34.620  14.167  -6.058  1.00 20.00     0.060 A 
HETATM    7  C7  UNL     1     -34.206  16.034  -3.702  1.00 20.00     0.002 A 
HETATM    8  C8  UNL     1     -34.547  15.548  -6.707  1.00 20.00     0.002 A 
HETATM    9  C9  UNL     1     -34.496  17.236  -4.578  1.00 20.00    -0.005 A 
HETATM   10  C10 UNL     1     -34.747  16.937  -6.059  1.00 20.00    -0.005 A 
HETATM   11  O11 UNL     1     -34.985  12.730  -4.204  1.00 20.00    -0.297 OA
ENDROOT
TORSDOF 0
ENDMDL
MODEL 4
REMARK VINA RESULT:      -4.8      1.642      2.996
REMARK  0 active torsions:
REMARK  status: ('A' for Active; 'I' for Inactive)
ROOT
HETATM    1  C1  UNL     1     -34.452  15.315  -6.130  1.00 20.00     0.136 C 
HETATM    2  C2  UNL     1     -33.493  17.749  -5.528  1.00 20.00     0.018 A 
HETATM    3  C3  UNL     1     -34.245  13.232  -4.634  1.00 20.00     0.018 A 
HETATM    4  C4  UNL     1     -34.919  16.215  -1.998  1.00 20.00     0.011 A 
HETATM    5  C5  UNL     1     -33.535  16.264  -5.487  1.00 20.00     0.060 A 
HETATM    6  C6  UNL     1     -35.104  14.305  -5.245  1.00 20.00     0.060 A 
HETATM    7  C7  UNL     1     -34.264  17.103  -4.425  1.00 20.00     0.002 A 
HETATM    8  C8  UNL     1     -34.962  14.203  -3.727  1.00 20.00     0.002 A 
HETATM    9  C9  UNL     1     -33.908  16.610  -3.036  1.00 20.00    -0.005 A 
HETATM   10  C10 UNL     1     -34.194  15.131  -2.760  1.00 20.00    -0.005 A 
HETATM   11  O11 UNL     1     -34.646  15.328  -7.338  1.00 20.00    -0.297 OA
ENDROOT
TORSDOF 0
ENDMDL
MODEL 5
REMARK VINA RESULT:      -4.8      2.098      3.307
REMARK  0 active torsions:
REMARK  status: ('A' for Active; 'I' for Inactive)
ROOT
HETATM    1  C1  UNL     1     -33.871  17.223  -4.429  1.00 20.00     0.136 C 
HETATM    2  C2  UNL     1     -34.591  16.599  -6.938  1.00 20.00     0.018 A 
HETATM    3  C3  UNL     1     -34.846  16.154  -2.300  1.00 20.00     0.018 A 
HETATM    4  C4  UNL     1     -34.586  13.052  -4.871  1.00 20.00     0.011 A 
HETATM    5  C5  UNL     1     -34.788  16.751  -5.473  1.00 20.00     0.060 A 
HETATM    6  C6  UNL     1     -33.687  16.334  -3.243  1.00 20.00     0.060 A 
HETATM    7  C7  UNL     1     -34.309  15.418  -6.068  1.00 20.00     0.002 A 
HETATM    8  C8  UNL     1     -34.309  14.953  -3.040  1.00 20.00     0.002 A 
HETATM    9  C9  UNL     1     -35.150  14.276  -5.534  1.00 20.00    -0.005 A 
HETATM   10  C10 UNL     1     -35.192  14.135  -4.010  1.00 20.00    -0.005 A 
HETATM   11  O11 UNL     1     -33.309  18.307  -4.508  1.00 20.00    -0.297 OA
ENDROOT
TORSDOF 0
ENDMDL
MODEL 6
REMARK VINA RESULT:      -4.8      1.577      1.730
REMARK  0 active torsions:
REMARK  status: ('A' for Active; 'I' for Inactive)
ROOT
HETATM    1  C1  UNL     1     -36.106  14.739  -3.928  1.00 20.00     0.136 C 
HETATM    2  C2  UNL     1     -35.162  14.167  -6.375  1.00 20.00     0.018 A 
HETATM    3  C3  UNL     1     -34.756  15.862  -2.046  1.00 20.00     0.018 A 
HETATM    4  C4  UNL     1     -33.516  17.791  -5.370  1.00 20.00     0.011 A 
HETATM    5  C5  UNL     1     -35.068  14.405  -4.910  1.00 20.00     0.060 A 
HETATM    6  C6  UNL     1     -35.858  15.935  -3.068  1.00 20.00     0.060 A 
HETATM    7  C7  UNL     1     -34.863  15.554  -5.909  1.00 20.00     0.002 A 
HETATM    8  C8  UNL     1     -34.663  16.882  -3.156  1.00 20.00     0.002 A 
HETATM    9  C9  UNL     1     -33.587  16.306  -5.584  1.00 20.00    -0.005 A 
HETATM   10  C10 UNL     1     -33.494  16.878  -4.167  1.00 20.00    -0.005 A 
HETATM   11  O11 UNL     1     -37.110  14.052  -3.794  1.00 20.00    -0.297 OA
ENDROOT
TORSDOF 0
ENDMDL
MODEL 7
REMARK VINA RESULT:      -4.8      1.516      2.907
REMARK  0 active torsions:
REMARK  status: ('A' for Active; 'I' for Inactive)
ROOT
HETATM    1  C1  UNL     1     -34.949  13.666  -4.421  1.00 20.00     0.136 C 
HETATM    2  C2  UNL     1     -32.525  14.333  -3.480  1.00 20.00     0.018 A 
HETATM    3  C3  UNL     1     -37.154  14.833  -3.789  1.00 20.00     0.018 A 
HETATM    4  C4  UNL     1     -34.517  17.881  -4.028  1.00 20.00     0.011 A 
HETATM    5  C5  UNL     1     -34.006  14.210  -3.437  1.00 20.00     0.060 A 
HETATM    6  C6  UNL     1     -36.091  14.544  -4.815  1.00 20.00     0.060 A 
HETATM    7  C7  UNL     1     -33.338  15.491  -3.960  1.00 20.00     0.002 A 
HETATM    8  C8  UNL     1     -36.338  15.976  -4.342  1.00 20.00     0.002 A 
HETATM    9  C9  UNL     1     -33.943  16.707  -3.287  1.00 20.00    -0.005 A 
HETATM   10  C10 UNL     1     -35.459  16.862  -3.431  1.00 20.00    -0.005 A 
HETATM   11  O11 UNL     1     -34.826  12.536  -4.873  1.00 20.00    -0.297 OA
ENDROOT
TORSDOF 0
ENDMDL
MODEL 8
REMARK VINA RESULT:      -4.7      2.091      2.435
REMARK  0 active torsions:
REMARK  status: ('A' for Active; 'I' for Inactive)
ROOT
HETATM    1  C1  UNL     1     -35.022  13.825  -4.089  1.00 20.00     0.136 C 
HETATM    2  C2  UNL     1     -37.556  14.697  -4.247  1.00 20.00     0.018 A 
HETATM    3  C3  UNL     1     -32.938  15.333  -4.041  1.00 20.00     0.018 A 
HETATM    4  C4  UNL     1     -35.616  17.364  -1.803  1.00 20.00     0.011 A 
HETATM    5  C5  UNL     1     -36.087  14.762  -4.466  1.00 20.00     0.060 A 
HETATM    6  C6  UNL     1     -33.868  14.390  -3.328  1.00 20.00     0.060 A 
HETATM    7  C7  UNL     1     -36.727  15.401  -3.224  1.00 20.00     0.002 A 
HETATM    8  C8  UNL     1     -33.717  15.832  -2.848  1.00 20.00     0.002 A 
HETATM    9  C9  UNL     1     -36.237  16.826  -3.060  1.00 20.00    -0.005 A 
HETATM   10  C10 UNL     1     -34.720  17.003  -2.964  1.00 20.00    -0.005 A 
HETATM   11  O11 UNL     1     -35.060  12.645  -4.410  1.00 20.00    -0.297 OA
ENDROOT
TORSDOF 0
ENDMDL
MODEL 9
REMARK VINA RESULT:      -4.7      2.205      4.136
REMARK  0 active torsions:
REMARK  status: ('A' for Active; 'I' for Inactive)
ROOT
HETATM    1  C1  UNL     1     -34.844  17.513  -3.959  1.00 20.00     0.136 C 
HETATM    2  C2  UNL     1     -34.437  16.289  -1.604  1.00 20.00     0.018 A 
HETATM    3  C3  UNL     1     -33.994  16.663  -6.234  1.00 20.00     0.018 A 
HETATM    4  C4  UNL     1     -35.089  13.281  -4.319  1.00 20.00     0.011 A 
HETATM    5  C5  UNL     1     -34.120  16.661  -3.008  1.00 20.00     0.060 A 
HETATM    6  C6  UNL     1     -35.143  16.923  -5.298  1.00 20.00     0.060 A 
HETATM    7  C7  UNL     1     -34.915  15.385  -2.692  1.00 20.00     0.002 A 
HETATM    8  C8  UNL     1     -34.827  15.499  -5.752  1.00 20.00     0.002 A 
HETATM    9  C9  UNL     1     -34.313  14.201  -3.421  1.00 20.00    -0.005 A 
HETATM   10  C10 UNL     1     -34.207  14.337  -4.942  1.00 20.00    -0.005 A 
HETATM   11  O11 UNL     1     -35.158  18.662  -3.682  1.00 20.00    -0.297 OA
ENDROOT
TORSDOF 0
ENDMDL
