MODEL 1
REMARK VINA RESULT:      -7.0      0.000      0.000
REMARK  1 active torsions:
REMARK  status: ('A' for Active; 'I' for Inactive)
REMARK    1  A    between atoms: C9_9  and  C10_10 
ROOT
HETATM    1  C1  UNL     1     -32.113   8.491   1.853  1.00 20.00     0.063 C 
HETATM    2  C10 UNL     1     -31.652   7.746   3.007  1.00 20.00     0.163 C 
HETATM    3  N11 UNL     1     -32.453   9.106   0.929  1.00 20.00    -0.197 NA
ENDROOT
BRANCH   2   4
HETATM    4  C9  UNL     1     -32.741   6.748   3.412  1.00 20.00    -0.033 A 
HETATM    5  C6  UNL     1     -33.522   5.761   2.685  1.00 20.00     0.021 A 
HETATM    6  C7  UNL     1     -34.138   5.436   3.827  1.00 20.00    -0.025 A 
HETATM    7  C4  UNL     1     -35.130   4.612   4.531  1.00 20.00     0.012 A 
HETATM    8  C8  UNL     1     -33.377   6.396   4.535  1.00 20.00    -0.019 A 
HETATM    9  C2  UNL     1     -35.283   4.808   5.858  1.00 20.00     0.001 A 
HETATM   10  C3  UNL     1     -34.492   5.803   6.592  1.00 20.00     0.001 A 
HETATM   11  C5  UNL     1     -33.573   6.578   5.979  1.00 20.00     0.013 A 
ENDBRANCH   2   4
TORSDOF 1
ENDMDL
MODEL 2
REMARK VINA RESULT:      -5.9      0.759      1.814
REMARK  1 active torsions:
REMARK  status: ('A' for Active; 'I' for Inactive)
REMARK    1  A    between atoms: C9_9  and  C10_10 
ROOT
HETATM    1  C1  UNL     1     -32.334   8.776   1.817  1.00 20.00     0.063 C 
HETATM    2  C10 UNL     1     -32.087   7.364   2.031  1.00 20.00     0.163 C 
HETATM    3  N11 UNL     1     -32.514   9.905   1.615  1.00 20.00    -0.197 NA
ENDROOT
BRANCH   2   4
HETATM    4  C9  UNL     1     -32.687   6.962   3.381  1.00 20.00    -0.033 A 
HETATM    5  C6  UNL     1     -32.442   7.371   4.754  1.00 20.00     0.021 A 
HETATM    6  C7  UNL     1     -33.391   6.519   5.157  1.00 20.00    -0.025 A 
HETATM    7  C4  UNL     1     -34.163   5.924   6.256  1.00 20.00     0.012 A 
HETATM    8  C8  UNL     1     -33.631   6.121   3.821  1.00 20.00    -0.019 A 
HETATM    9  C2  UNL     1     -35.094   4.998   5.943  1.00 20.00     0.001 A 
HETATM   10  C3  UNL     1     -35.343   4.586   4.556  1.00 20.00     0.001 A 
HETATM   11  C5  UNL     1     -34.652   5.110   3.521  1.00 20.00     0.013 A 
ENDBRANCH   2   4
TORSDOF 1
ENDMDL
MODEL 3
REMARK VINA RESULT:      -5.2     11.211     11.913
REMARK  1 active torsions:
REMARK  status: ('A' for Active; 'I' for Inactive)
REMARK    1  A    between atoms: C9_9  and  C10_10 
ROOT
HETATM    1  C1  UNL     1     -33.320  14.556  -3.726  1.00 20.00     0.063 C 
HETATM    2  C10 UNL     1     -33.239  15.999  -3.611  1.00 20.00     0.163 C 
HETATM    3  N11 UNL     1     -33.371  13.403  -3.850  1.00 20.00    -0.197 NA
ENDROOT
BRANCH   2   4
HETATM    4  C9  UNL     1     -33.882  16.420  -2.287  1.00 20.00    -0.033 A 
HETATM    5  C6  UNL     1     -35.102  16.041  -1.595  1.00 20.00     0.021 A 
HETATM    6  C7  UNL     1     -34.786  16.890  -0.611  1.00 20.00    -0.025 A 
HETATM    7  C4  UNL     1     -35.122  17.497   0.684  1.00 20.00     0.012 A 
HETATM    8  C8  UNL     1     -33.597  17.259  -1.284  1.00 20.00    -0.019 A 
HETATM    9  C2  UNL     1     -34.265  18.407   1.194  1.00 20.00     0.001 A 
HETATM   10  C3  UNL     1     -33.032  18.789   0.496  1.00 20.00     0.001 A 
HETATM   11  C5  UNL     1     -32.691  18.253  -0.695  1.00 20.00     0.013 A 
ENDBRANCH   2   4
TORSDOF 1
ENDMDL
MODEL 4
REMARK VINA RESULT:      -5.1     11.371     12.693
REMARK  1 active torsions:
REMARK  status: ('A' for Active; 'I' for Inactive)
REMARK    1  A    between atoms: C9_9  and  C10_10 
ROOT
HETATM    1  C1  UNL     1     -34.640  13.750  -5.110  1.00 20.00     0.063 C 
HETATM    2  C10 UNL     1     -34.387  14.989  -5.820  1.00 20.00     0.163 C 
HETATM    3  N11 UNL     1     -34.847  12.743  -4.572  1.00 20.00    -0.197 NA
ENDROOT
BRANCH   2   4
HETATM    4  C9  UNL     1     -34.116  16.093  -4.795  1.00 20.00    -0.033 A 
HETATM    5  C6  UNL     1     -33.547  17.427  -4.878  1.00 20.00     0.021 A 
HETATM    6  C7  UNL     1     -33.732  17.569  -3.561  1.00 20.00    -0.025 A 
HETATM    7  C4  UNL     1     -33.610  18.399  -2.356  1.00 20.00     0.012 A 
HETATM    8  C8  UNL     1     -34.287  16.270  -3.479  1.00 20.00    -0.019 A 
HETATM    9  C2  UNL     1     -34.042  17.880  -1.187  1.00 20.00     0.001 A 
HETATM   10  C3  UNL     1     -34.619  16.533  -1.103  1.00 20.00     0.001 A 
HETATM   11  C5  UNL     1     -34.746  15.741  -2.189  1.00 20.00     0.013 A 
ENDBRANCH   2   4
TORSDOF 1
ENDMDL
MODEL 5
REMARK VINA RESULT:      -5.0     10.288     11.416
REMARK  1 active torsions:
REMARK  status: ('A' for Active; 'I' for Inactive)
REMARK    1  A    between atoms: C9_9  and  C10_10 
ROOT
HETATM    1  C1  UNL     1     -42.641   2.070  -4.481  1.00 20.00     0.063 C 
HETATM    2  C10 UNL     1     -42.331   2.240  -3.076  1.00 20.00     0.163 C 
HETATM    3  N11 UNL     1     -42.886   1.899  -5.603  1.00 20.00    -0.197 NA
ENDROOT
BRANCH   2   4
HETATM    4  C9  UNL     1     -42.334   3.737  -2.753  1.00 20.00    -0.033 A 
HETATM    5  C6  UNL     1     -43.061   4.879  -3.280  1.00 20.00     0.021 A 
HETATM    6  C7  UNL     1     -42.413   5.667  -2.414  1.00 20.00    -0.025 A 
HETATM    7  C4  UNL     1     -42.179   7.011  -1.869  1.00 20.00     0.012 A 
HETATM    8  C8  UNL     1     -41.705   4.555  -1.901  1.00 20.00    -0.019 A 
HETATM    9  C2  UNL     1     -41.274   7.137  -0.875  1.00 20.00     0.001 A 
HETATM   10  C3  UNL     1     -40.541   5.983  -0.341  1.00 20.00     0.001 A 
HETATM   11  C5  UNL     1     -40.730   4.734  -0.818  1.00 20.00     0.013 A 
ENDBRANCH   2   4
TORSDOF 1
ENDMDL
MODEL 6
REMARK VINA RESULT:      -5.0     11.448     12.833
REMARK  1 active torsions:
REMARK  status: ('A' for Active; 'I' for Inactive)
REMARK    1  A    between atoms: C9_9  and  C10_10 
ROOT
HETATM    1  C1  UNL     1     -32.553  19.176  -0.341  1.00 20.00     0.063 C 
HETATM    2  C10 UNL     1     -33.890  19.114  -0.899  1.00 20.00     0.163 C 
HETATM    3  N11 UNL     1     -31.489  19.258   0.115  1.00 20.00    -0.197 NA
ENDROOT
BRANCH   2   4
HETATM    4  C9  UNL     1     -34.081  17.747  -1.561  1.00 20.00    -0.033 A 
HETATM    5  C6  UNL     1     -34.571  16.461  -1.093  1.00 20.00     0.021 A 
HETATM    6  C7  UNL     1     -34.364  15.959  -2.315  1.00 20.00    -0.025 A 
HETATM    7  C4  UNL     1     -34.424  14.811  -3.231  1.00 20.00     0.012 A 
HETATM    8  C8  UNL     1     -33.887  17.210  -2.771  1.00 20.00    -0.019 A 
HETATM    9  C2  UNL     1     -34.011  14.998  -4.502  1.00 20.00     0.001 A 
HETATM   10  C3  UNL     1     -33.517  16.297  -4.975  1.00 20.00     0.001 A 
HETATM   11  C5  UNL     1     -33.447  17.373  -4.163  1.00 20.00     0.013 A 
ENDBRANCH   2   4
TORSDOF 1
ENDMDL
MODEL 7
REMARK VINA RESULT:      -4.9     11.089     11.727
REMARK  1 active torsions:
REMARK  status: ('A' for Active; 'I' for Inactive)
REMARK    1  A    between atoms: C9_9  and  C10_10 
ROOT
HETATM    1  C1  UNL     1     -34.598  17.380   0.088  1.00 20.00     0.063 C 
HETATM    2  C10 UNL     1     -33.831  17.255  -1.136  1.00 20.00     0.163 C 
HETATM    3  N11 UNL     1     -35.187  17.499   1.081  1.00 20.00    -0.197 NA
ENDROOT
BRANCH   2   4
HETATM    4  C9  UNL     1     -34.593  16.342  -2.100  1.00 20.00    -0.033 A 
HETATM    5  C6  UNL     1     -35.976  16.276  -2.544  1.00 20.00     0.021 A 
HETATM    6  C7  UNL     1     -35.658  15.230  -3.315  1.00 20.00    -0.025 A 
HETATM    7  C4  UNL     1     -36.080  14.204  -4.278  1.00 20.00     0.012 A 
HETATM    8  C8  UNL     1     -34.313  15.294  -2.883  1.00 20.00    -0.019 A 
HETATM    9  C2  UNL     1     -35.144  13.339  -4.725  1.00 20.00     0.001 A 
HETATM   10  C3  UNL     1     -33.747  13.407  -4.278  1.00 20.00     0.001 A 
HETATM   11  C5  UNL     1     -33.325  14.335  -3.394  1.00 20.00     0.013 A 
ENDBRANCH   2   4
TORSDOF 1
ENDMDL
MODEL 8
REMARK VINA RESULT:      -4.7     10.070     10.801
REMARK  1 active torsions:
REMARK  status: ('A' for Active; 'I' for Inactive)
REMARK    1  A    between atoms: C9_9  and  C10_10 
ROOT
HETATM    1  C1  UNL     1     -42.266   8.850  -4.790  1.00 20.00     0.063 C 
HETATM    2  C10 UNL     1     -43.188   8.529  -3.718  1.00 20.00     0.163 C 
HETATM    3  N11 UNL     1     -41.547   9.136  -5.655  1.00 20.00    -0.197 NA
ENDROOT
BRANCH   2   4
HETATM    4  C9  UNL     1     -42.755   7.205  -3.083  1.00 20.00    -0.033 A 
HETATM    5  C6  UNL     1     -43.034   5.809  -3.375  1.00 20.00     0.021 A 
HETATM    6  C7  UNL     1     -42.258   5.457  -2.344  1.00 20.00    -0.025 A 
HETATM    7  C4  UNL     1     -41.667   4.395  -1.519  1.00 20.00     0.012 A 
HETATM    8  C8  UNL     1     -41.985   6.816  -2.059  1.00 20.00    -0.019 A 
HETATM    9  C2  UNL     1     -40.868   4.765  -0.495  1.00 20.00     0.001 A 
HETATM   10  C3  UNL     1     -40.584   6.175  -0.202  1.00 20.00     0.001 A 
HETATM   11  C5  UNL     1     -41.109   7.177  -0.937  1.00 20.00     0.013 A 
ENDBRANCH   2   4
TORSDOF 1
ENDMDL
MODEL 9
REMARK VINA RESULT:      -4.7     11.184     12.550
REMARK  1 active torsions:
REMARK  status: ('A' for Active; 'I' for Inactive)
REMARK    1  A    between atoms: C9_9  and  C10_10 
ROOT
HETATM    1  C1  UNL     1     -33.564  17.719  -0.757  1.00 20.00     0.063 C 
HETATM    2  C10 UNL     1     -34.388  16.577  -1.100  1.00 20.00     0.163 C 
HETATM    3  N11 UNL     1     -32.914  18.630  -0.450  1.00 20.00    -0.197 NA
ENDROOT
BRANCH   2   4
HETATM    4  C9  UNL     1     -34.315  16.359  -2.614  1.00 20.00    -0.033 A 
HETATM    5  C6  UNL     1     -33.991  17.218  -3.741  1.00 20.00     0.021 A 
HETATM    6  C7  UNL     1     -34.190  16.182  -4.563  1.00 20.00    -0.025 A 
HETATM    7  C4  UNL     1     -34.210  15.647  -5.932  1.00 20.00     0.012 A 
HETATM    8  C8  UNL     1     -34.505  15.345  -3.467  1.00 20.00    -0.019 A 
HETATM    9  C2  UNL     1     -34.536  14.348  -6.095  1.00 20.00     0.001 A 
HETATM   10  C3  UNL     1     -34.861  13.480  -4.957  1.00 20.00     0.001 A 
HETATM   11  C5  UNL     1     -34.853  13.936  -3.686  1.00 20.00     0.013 A 
ENDBRANCH   2   4
TORSDOF 1
ENDMDL
