MODEL 1
REMARK VINA RESULT:      -4.7      0.000      0.000
REMARK  2 active torsions:
REMARK  status: ('A' for Active; 'I' for Inactive)
REMARK    1  A    between atoms: C5_5  and  C9_9 
REMARK    2  A    between atoms: C6_6  and  C10_10 
ROOT
HETATM    1  C1  UNL     1     -33.733  16.157  -4.939  1.00 20.00     0.131 C 
HETATM    2  C2  UNL     1     -33.416  17.527  -4.380  1.00 20.00     0.079 C 
HETATM    3  C3  UNL     1     -34.161  17.756  -3.073  1.00 20.00     0.012 C 
HETATM    4  C4  UNL     1     -34.305  15.271  -2.675  1.00 20.00     0.016 C 
HETATM    5  C5  UNL     1     -33.551  14.986  -3.980  1.00 20.00     0.055 C 
HETATM    6  C6  UNL     1     -33.903  16.625  -2.067  1.00 20.00    -0.014 C 
HETATM    7  O11 UNL     1     -34.028  16.009  -6.124  1.00 20.00    -0.298 OA
ENDROOT
BRANCH   5   8
HETATM    8  C9  UNL     1     -34.020  13.673  -4.596  1.00 20.00     0.007 C 
HETATM    9  C7  UNL     1     -35.450  13.388  -4.272  1.00 20.00     0.006 C 
ENDBRANCH   5   8
BRANCH   6  10
HETATM   10  C10 UNL     1     -34.667  16.878  -0.768  1.00 20.00     0.000 C 
HETATM   11  C8  UNL     1     -34.000  17.918   0.070  1.00 20.00     0.005 C 
ENDBRANCH   6  10
TORSDOF 2
ENDMDL
MODEL 2
REMARK VINA RESULT:      -4.6      1.737      2.566
REMARK  2 active torsions:
REMARK  status: ('A' for Active; 'I' for Inactive)
REMARK    1  A    between atoms: C5_5  and  C9_9 
REMARK    2  A    between atoms: C6_6  and  C10_10 
ROOT
HETATM    1  C1  UNL     1     -35.047  14.112  -4.739  1.00 20.00     0.131 C 
HETATM    2  C2  UNL     1     -33.707  13.930  -4.061  1.00 20.00     0.079 C 
HETATM    3  C3  UNL     1     -33.316  15.190  -3.302  1.00 20.00     0.012 C 
HETATM    4  C4  UNL     1     -35.736  15.863  -3.097  1.00 20.00     0.016 C 
HETATM    5  C5  UNL     1     -36.184  14.605  -3.850  1.00 20.00     0.055 C 
HETATM    6  C6  UNL     1     -34.421  15.635  -2.334  1.00 20.00    -0.014 C 
HETATM    7  O11 UNL     1     -35.212  13.789  -5.915  1.00 20.00    -0.298 OA
ENDROOT
BRANCH   5   8
HETATM    8  C9  UNL     1     -37.451  14.879  -4.653  1.00 20.00     0.007 C 
HETATM    9  C7  UNL     1     -38.661  14.921  -3.778  1.00 20.00     0.006 C 
ENDBRANCH   5   8
BRANCH   6  10
HETATM   10  C10 UNL     1     -34.005  16.904  -1.591  1.00 20.00     0.000 C 
HETATM   11  C8  UNL     1     -34.719  17.039  -0.287  1.00 20.00     0.005 C 
ENDBRANCH   6  10
TORSDOF 2
ENDMDL
MODEL 3
REMARK VINA RESULT:      -4.4      1.199      1.670
REMARK  2 active torsions:
REMARK  status: ('A' for Active; 'I' for Inactive)
REMARK    1  A    between atoms: C5_5  and  C9_9 
REMARK    2  A    between atoms: C6_6  and  C10_10 
ROOT
HETATM    1  C1  UNL     1     -34.215  17.175  -3.815  1.00 20.00     0.131 C 
HETATM    2  C2  UNL     1     -33.671  18.537  -3.447  1.00 20.00     0.079 C 
HETATM    3  C3  UNL     1     -34.030  18.886  -2.010  1.00 20.00     0.012 C 
HETATM    4  C4  UNL     1     -34.235  16.443  -1.427  1.00 20.00     0.016 C 
HETATM    5  C5  UNL     1     -33.870  16.037  -2.860  1.00 20.00     0.055 C 
HETATM    6  C6  UNL     1     -33.597  17.785  -1.033  1.00 20.00    -0.014 C 
HETATM    7  O11 UNL     1     -34.820  16.998  -4.872  1.00 20.00    -0.298 OA
ENDROOT
BRANCH   5   8
HETATM    8  C9  UNL     1     -34.571  14.740  -3.248  1.00 20.00     0.007 C 
HETATM    9  C7  UNL     1     -33.620  13.752  -3.838  1.00 20.00     0.006 C 
ENDBRANCH   5   8
BRANCH   6  10
HETATM   10  C10 UNL     1     -33.975  18.159   0.399  1.00 20.00     0.000 C 
HETATM   11  C8  UNL     1     -35.237  17.485   0.830  1.00 20.00     0.005 C 
ENDBRANCH   6  10
TORSDOF 2
ENDMDL
MODEL 4
REMARK VINA RESULT:      -4.4      2.163      3.353
REMARK  2 active torsions:
REMARK  status: ('A' for Active; 'I' for Inactive)
REMARK    1  A    between atoms: C5_5  and  C9_9 
REMARK    2  A    between atoms: C6_6  and  C10_10 
ROOT
HETATM    1  C1  UNL     1     -34.799  13.831  -3.909  1.00 20.00     0.131 C 
HETATM    2  C2  UNL     1     -33.361  14.170  -3.584  1.00 20.00     0.079 C 
HETATM    3  C3  UNL     1     -32.994  15.537  -4.144  1.00 20.00     0.012 C 
HETATM    4  C4  UNL     1     -35.413  16.244  -4.105  1.00 20.00     0.016 C 
HETATM    5  C5  UNL     1     -35.835  14.885  -3.534  1.00 20.00     0.055 C 
HETATM    6  C6  UNL     1     -33.982  16.620  -3.688  1.00 20.00    -0.014 C 
HETATM    7  O11 UNL     1     -35.103  12.729  -4.364  1.00 20.00    -0.298 OA
ENDROOT
BRANCH   5   8
HETATM    8  C9  UNL     1     -37.229  14.505  -4.020  1.00 20.00     0.007 C 
HETATM    9  C7  UNL     1     -37.639  15.312  -5.208  1.00 20.00     0.006 C 
ENDBRANCH   5   8
BRANCH   6  10
HETATM   10  C10 UNL     1     -33.594  17.979  -4.269  1.00 20.00     0.000 C 
HETATM   11  C8  UNL     1     -33.672  17.984  -5.760  1.00 20.00     0.005 C 
ENDBRANCH   6  10
TORSDOF 2
ENDMDL
MODEL 5
REMARK VINA RESULT:      -4.3      1.631      3.757
REMARK  2 active torsions:
REMARK  status: ('A' for Active; 'I' for Inactive)
REMARK    1  A    between atoms: C5_5  and  C9_9 
REMARK    2  A    between atoms: C6_6  and  C10_10 
ROOT
HETATM    1  C1  UNL     1     -34.203  17.990  -3.733  1.00 20.00     0.131 C 
HETATM    2  C2  UNL     1     -33.909  17.314  -2.413  1.00 20.00     0.079 C 
HETATM    3  C3  UNL     1     -34.081  15.806  -2.533  1.00 20.00     0.012 C 
HETATM    4  C4  UNL     1     -33.653  15.918  -5.014  1.00 20.00     0.016 C 
HETATM    5  C5  UNL     1     -33.463  17.438  -4.946  1.00 20.00     0.055 C 
HETATM    6  C6  UNL     1     -33.259  15.233  -3.696  1.00 20.00    -0.014 C 
HETATM    7  O11 UNL     1     -34.929  18.982  -3.790  1.00 20.00    -0.298 OA
ENDROOT
BRANCH   5   8
HETATM    8  C9  UNL     1     -33.927  18.097  -6.241  1.00 20.00     0.007 C 
HETATM    9  C7  UNL     1     -34.565  17.113  -7.165  1.00 20.00     0.006 C 
ENDBRANCH   5   8
BRANCH   6  10
HETATM   10  C10 UNL     1     -33.456  13.721  -3.797  1.00 20.00     0.000 C 
HETATM   11  C8  UNL     1     -34.683  13.375  -4.574  1.00 20.00     0.005 C 
ENDBRANCH   6  10
TORSDOF 2
ENDMDL
MODEL 6
REMARK VINA RESULT:      -4.3     11.521     12.704
REMARK  2 active torsions:
REMARK  status: ('A' for Active; 'I' for Inactive)
REMARK    1  A    between atoms: C5_5  and  C9_9 
REMARK    2  A    between atoms: C6_6  and  C10_10 
ROOT
HETATM    1  C1  UNL     1     -34.811   5.262   4.003  1.00 20.00     0.131 C 
HETATM    2  C2  UNL     1     -34.273   5.071   2.602  1.00 20.00     0.079 C 
HETATM    3  C3  UNL     1     -33.419   6.262   2.190  1.00 20.00     0.012 C 
HETATM    4  C4  UNL     1     -32.938   6.801   4.604  1.00 20.00     0.016 C 
HETATM    5  C5  UNL     1     -33.781   5.609   5.072  1.00 20.00     0.055 C 
HETATM    6  C6  UNL     1     -32.319   6.554   3.219  1.00 20.00    -0.014 C 
HETATM    7  O11 UNL     1     -35.996   5.056   4.260  1.00 20.00    -0.298 OA
ENDROOT
BRANCH   5   8
HETATM    8  C9  UNL     1     -34.439   5.909   6.415  1.00 20.00     0.007 C 
HETATM    9  C7  UNL     1     -33.916   7.172   7.017  1.00 20.00     0.006 C 
ENDBRANCH   5   8
BRANCH   6  10
HETATM   10  C10 UNL     1     -31.483   7.757   2.782  1.00 20.00     0.000 C 
HETATM   11  C8  UNL     1     -32.145   8.519   1.682  1.00 20.00     0.005 C 
ENDBRANCH   6  10
TORSDOF 2
ENDMDL
MODEL 7
REMARK VINA RESULT:      -4.3      2.055      2.371
REMARK  2 active torsions:
REMARK  status: ('A' for Active; 'I' for Inactive)
REMARK    1  A    between atoms: C5_5  and  C9_9 
REMARK    2  A    between atoms: C6_6  and  C10_10 
ROOT
HETATM    1  C1  UNL     1     -36.673  15.237  -3.524  1.00 20.00     0.131 C 
HETATM    2  C2  UNL     1     -37.038  16.670  -3.206  1.00 20.00     0.079 C 
HETATM    3  C3  UNL     1     -36.190  17.195  -2.056  1.00 20.00     0.012 C 
HETATM    4  C4  UNL     1     -34.380  15.520  -2.577  1.00 20.00     0.016 C 
HETATM    5  C5  UNL     1     -35.191  14.960  -3.751  1.00 20.00     0.055 C 
HETATM    6  C6  UNL     1     -34.690  17.005  -2.324  1.00 20.00    -0.014 C 
HETATM    7  O11 UNL     1     -37.543  14.381  -3.677  1.00 20.00    -0.298 OA
ENDROOT
BRANCH   5   8
HETATM    8  C9  UNL     1     -34.916  13.471  -3.934  1.00 20.00     0.007 C 
HETATM    9  C7  UNL     1     -34.639  13.131  -5.361  1.00 20.00     0.006 C 
ENDBRANCH   5   8
BRANCH   6  10
HETATM   10  C10 UNL     1     -33.864  17.534  -1.153  1.00 20.00     0.000 C 
HETATM   11  C8  UNL     1     -34.615  17.447   0.135  1.00 20.00     0.005 C 
ENDBRANCH   6  10
TORSDOF 2
ENDMDL
MODEL 8
REMARK VINA RESULT:      -4.3     11.623     13.637
REMARK  2 active torsions:
REMARK  status: ('A' for Active; 'I' for Inactive)
REMARK    1  A    between atoms: C5_5  and  C9_9 
REMARK    2  A    between atoms: C6_6  and  C10_10 
ROOT
HETATM    1  C1  UNL     1     -41.694   7.021  -1.377  1.00 20.00     0.131 C 
HETATM    2  C2  UNL     1     -40.845   5.963  -0.707  1.00 20.00     0.079 C 
HETATM    3  C3  UNL     1     -41.476   4.588  -0.873  1.00 20.00     0.012 C 
HETATM    4  C4  UNL     1     -42.689   5.351  -2.946  1.00 20.00     0.016 C 
HETATM    5  C5  UNL     1     -42.075   6.751  -2.829  1.00 20.00     0.055 C 
HETATM    6  C6  UNL     1     -41.772   4.273  -2.345  1.00 20.00    -0.014 C 
HETATM    7  O11 UNL     1     -41.973   8.070  -0.799  1.00 20.00    -0.298 OA
ENDROOT
BRANCH   5   8
HETATM    8  C9  UNL     1     -43.034   7.807  -3.367  1.00 20.00     0.007 C 
HETATM    9  C7  UNL     1     -42.462   8.524  -4.546  1.00 20.00     0.006 C 
ENDBRANCH   5   8
BRANCH   6  10
HETATM   10  C10 UNL     1     -42.410   2.891  -2.481  1.00 20.00     0.000 C 
HETATM   11  C8  UNL     1     -41.689   2.047  -3.481  1.00 20.00     0.005 C 
ENDBRANCH   6  10
TORSDOF 2
ENDMDL
MODEL 9
REMARK VINA RESULT:      -4.3      1.987      4.097
REMARK  2 active torsions:
REMARK  status: ('A' for Active; 'I' for Inactive)
REMARK    1  A    between atoms: C5_5  and  C9_9 
REMARK    2  A    between atoms: C6_6  and  C10_10 
ROOT
HETATM    1  C1  UNL     1     -33.621  15.046  -3.838  1.00 20.00     0.131 C 
HETATM    2  C2  UNL     1     -34.278  14.355  -5.012  1.00 20.00     0.079 C 
HETATM    3  C3  UNL     1     -35.703  13.948  -4.664  1.00 20.00     0.012 C 
HETATM    4  C4  UNL     1     -35.829  15.751  -2.908  1.00 20.00     0.016 C 
HETATM    5  C5  UNL     1     -34.399  16.205  -3.225  1.00 20.00     0.055 C 
HETATM    6  C6  UNL     1     -36.519  15.135  -4.136  1.00 20.00    -0.014 C 
HETATM    7  O11 UNL     1     -32.487  14.738  -3.475  1.00 20.00    -0.298 OA
ENDROOT
BRANCH   5   8
HETATM    8  C9  UNL     1     -33.716  16.746  -1.974  1.00 20.00     0.007 C 
HETATM    9  C7  UNL     1     -34.607  16.666  -0.778  1.00 20.00     0.006 C 
ENDBRANCH   5   8
BRANCH   6  10
HETATM   10  C10 UNL     1     -37.941  14.697  -3.790  1.00 20.00     0.000 C 
HETATM   11  C8  UNL     1     -38.898  15.006  -4.894  1.00 20.00     0.005 C 
ENDBRANCH   6  10
TORSDOF 2
ENDMDL
