MODEL 1
REMARK VINA RESULT:      -4.3      0.000      0.000
REMARK  0 active torsions:
REMARK  status: ('A' for Active; 'I' for Inactive)
ROOT
HETATM    1  C1  UNL     1     -42.798   4.848  -2.959  1.00 20.00     0.050 C 
HETATM    2  C2  UNL     1     -41.956   3.905  -2.501  1.00 20.00     0.003 C 
HETATM    3  C3  UNL     1     -42.654   6.301  -2.640  1.00 20.00     0.027 C 
HETATM    4  C4  UNL     1     -40.620   6.042   0.120  1.00 20.00     0.056 A 
HETATM    5  C5  UNL     1     -42.062   6.100  -0.322  1.00 20.00     0.133 A 
HETATM    6  C6  UNL     1     -41.323   4.796  -0.325  1.00 20.00     0.108 A 
HETATM    7  C7  UNL     1     -42.037   2.511  -3.069  1.00 20.00     0.068 C 
HETATM    8  C8  UNL     1     -42.955   7.240  -3.790  1.00 20.00     0.070 C 
HETATM    9  N9  UNL     1     -42.320   6.870  -1.528  1.00 20.00    -0.287 NA
HETATM   10  N10 UNL     1     -40.975   4.086  -1.548  1.00 20.00    -0.387 N 
HETATM   11  H22 UNL     1     -40.266   3.360  -1.506  1.00 20.00     0.159 HD
ENDROOT
TORSDOF 0
ENDMDL
MODEL 2
REMARK VINA RESULT:      -4.2     12.097     13.478
REMARK  0 active torsions:
REMARK  status: ('A' for Active; 'I' for Inactive)
ROOT
HETATM    1  C1  UNL     1     -34.569  17.059  -3.787  1.00 20.00     0.050 C 
HETATM    2  C2  UNL     1     -33.954  16.845  -4.963  1.00 20.00     0.003 C 
HETATM    3  C3  UNL     1     -34.791  15.986  -2.770  1.00 20.00     0.027 C 
HETATM    4  C4  UNL     1     -34.383  13.238  -4.795  1.00 20.00     0.056 A 
HETATM    5  C5  UNL     1     -35.409  14.206  -4.257  1.00 20.00     0.133 A 
HETATM    6  C6  UNL     1     -34.606  14.555  -5.474  1.00 20.00     0.108 A 
HETATM    7  C7  UNL     1     -33.562  18.027  -5.813  1.00 20.00     0.068 C 
HETATM    8  C8  UNL     1     -34.597  16.421  -1.332  1.00 20.00     0.070 C 
HETATM    9  N9  UNL     1     -35.129  14.751  -2.938  1.00 20.00    -0.287 NA
HETATM   10  N10 UNL     1     -33.609  15.616  -5.488  1.00 20.00    -0.387 N 
HETATM   11  H22 UNL     1     -32.929  15.637  -6.242  1.00 20.00     0.159 HD
ENDROOT
TORSDOF 0
ENDMDL
MODEL 3
REMARK VINA RESULT:      -4.1     12.460     13.710
REMARK  0 active torsions:
REMARK  status: ('A' for Active; 'I' for Inactive)
ROOT
HETATM    1  C1  UNL     1     -34.188  14.950  -3.171  1.00 20.00     0.050 C 
HETATM    2  C2  UNL     1     -34.601  14.613  -4.405  1.00 20.00     0.003 C 
HETATM    3  C3  UNL     1     -34.196  16.354  -2.658  1.00 20.00     0.027 C 
HETATM    4  C4  UNL     1     -34.379  18.018  -5.661  1.00 20.00     0.056 A 
HETATM    5  C5  UNL     1     -33.416  17.463  -4.640  1.00 20.00     0.133 A 
HETATM    6  C6  UNL     1     -33.980  16.574  -5.707  1.00 20.00     0.108 A 
HETATM    7  C7  UNL     1     -34.783  13.155  -4.746  1.00 20.00     0.068 C 
HETATM    8  C8  UNL     1     -34.614  16.501  -1.210  1.00 20.00     0.070 C 
HETATM    9  N9  UNL     1     -33.893  17.453  -3.266  1.00 20.00    -0.287 NA
HETATM   10  N10 UNL     1     -34.908  15.488  -5.427  1.00 20.00    -0.387 N 
HETATM   11  H22 UNL     1     -35.446  15.096  -6.193  1.00 20.00     0.159 HD
ENDROOT
TORSDOF 0
ENDMDL
MODEL 4
REMARK VINA RESULT:      -4.1     12.620     14.023
REMARK  0 active torsions:
REMARK  status: ('A' for Active; 'I' for Inactive)
ROOT
HETATM    1  C1  UNL     1     -34.775  15.342  -2.794  1.00 20.00     0.050 C 
HETATM    2  C2  UNL     1     -34.362  16.494  -2.239  1.00 20.00     0.003 C 
HETATM    3  C3  UNL     1     -34.425  14.932  -4.188  1.00 20.00     0.027 C 
HETATM    4  C4  UNL     1     -33.519  18.004  -5.437  1.00 20.00     0.056 A 
HETATM    5  C5  UNL     1     -34.686  17.063  -5.264  1.00 20.00     0.133 A 
HETATM    6  C6  UNL     1     -34.296  17.994  -4.156  1.00 20.00     0.108 A 
HETATM    7  C7  UNL     1     -34.560  16.708  -0.759  1.00 20.00     0.068 C 
HETATM    8  C8  UNL     1     -34.116  13.459  -4.361  1.00 20.00     0.070 C 
HETATM    9  N9  UNL     1     -34.357  15.646  -5.263  1.00 20.00    -0.287 NA
HETATM   10  N10 UNL     1     -33.733  17.533  -2.894  1.00 20.00    -0.387 N 
HETATM   11  H22 UNL     1     -33.258  18.204  -2.298  1.00 20.00     0.159 HD
ENDROOT
TORSDOF 0
ENDMDL
MODEL 5
REMARK VINA RESULT:      -4.1     12.241     13.547
REMARK  0 active torsions:
REMARK  status: ('A' for Active; 'I' for Inactive)
ROOT
HETATM    1  C1  UNL     1     -33.705  16.961  -3.237  1.00 20.00     0.050 C 
HETATM    2  C2  UNL     1     -34.518  16.273  -2.416  1.00 20.00     0.003 C 
HETATM    3  C3  UNL     1     -33.749  16.838  -4.725  1.00 20.00     0.027 C 
HETATM    4  C4  UNL     1     -35.420  13.843  -4.966  1.00 20.00     0.056 A 
HETATM    5  C5  UNL     1     -34.045  14.460  -4.879  1.00 20.00     0.133 A 
HETATM    6  C6  UNL     1     -34.830  14.187  -3.632  1.00 20.00     0.108 A 
HETATM    7  C7  UNL     1     -34.567  16.640  -0.954  1.00 20.00     0.068 C 
HETATM    8  C8  UNL     1     -33.561  18.139  -5.479  1.00 20.00     0.070 C 
HETATM    9  N9  UNL     1     -33.914  15.787  -5.459  1.00 20.00    -0.287 NA
HETATM   10  N10 UNL     1     -35.361  15.243  -2.782  1.00 20.00    -0.387 N 
HETATM   11  H22 UNL     1     -36.086  15.011  -2.110  1.00 20.00     0.159 HD
ENDROOT
TORSDOF 0
ENDMDL
MODEL 6
REMARK VINA RESULT:      -4.0     11.729     12.712
REMARK  0 active torsions:
REMARK  status: ('A' for Active; 'I' for Inactive)
ROOT
HETATM    1  C1  UNL     1     -34.113  15.661  -2.607  1.00 20.00     0.050 C 
HETATM    2  C2  UNL     1     -34.540  14.660  -3.396  1.00 20.00     0.003 C 
HETATM    3  C3  UNL     1     -35.038  16.586  -1.884  1.00 20.00     0.027 C 
HETATM    4  C4  UNL     1     -37.891  16.034  -3.723  1.00 20.00     0.056 A 
HETATM    5  C5  UNL     1     -36.660  16.903  -3.626  1.00 20.00     0.133 A 
HETATM    6  C6  UNL     1     -36.596  15.578  -4.323  1.00 20.00     0.108 A 
HETATM    7  C7  UNL     1     -33.546  13.636  -3.886  1.00 20.00     0.068 C 
HETATM    8  C8  UNL     1     -34.601  16.957  -0.482  1.00 20.00     0.070 C 
HETATM    9  N9  UNL     1     -36.146  17.119  -2.283  1.00 20.00    -0.287 NA
HETATM   10  N10 UNL     1     -35.840  14.446  -3.806  1.00 20.00    -0.387 N 
HETATM   11  H22 UNL     1     -36.037  13.519  -4.172  1.00 20.00     0.159 HD
ENDROOT
TORSDOF 0
ENDMDL
MODEL 7
REMARK VINA RESULT:      -3.9     12.113     13.241
REMARK  0 active torsions:
REMARK  status: ('A' for Active; 'I' for Inactive)
ROOT
HETATM    1  C1  UNL     1     -35.033  16.306  -6.046  1.00 20.00     0.050 C 
HETATM    2  C2  UNL     1     -35.062  15.029  -6.464  1.00 20.00     0.003 C 
HETATM    3  C3  UNL     1     -34.067  16.813  -5.024  1.00 20.00     0.027 C 
HETATM    4  C4  UNL     1     -33.153  13.811  -3.618  1.00 20.00     0.056 A 
HETATM    5  C5  UNL     1     -34.138  14.950  -3.510  1.00 20.00     0.133 A 
HETATM    6  C6  UNL     1     -34.393  13.818  -4.459  1.00 20.00     0.108 A 
HETATM    7  C7  UNL     1     -35.901  14.668  -7.664  1.00 20.00     0.068 C 
HETATM    8  C8  UNL     1     -33.510  18.194  -5.302  1.00 20.00     0.070 C 
HETATM    9  N9  UNL     1     -33.647  16.250  -3.940  1.00 20.00    -0.287 NA
HETATM   10  N10 UNL     1     -34.365  13.975  -5.907  1.00 20.00    -0.387 N 
HETATM   11  H22 UNL     1     -34.290  13.145  -6.487  1.00 20.00     0.159 HD
ENDROOT
TORSDOF 0
ENDMDL
MODEL 8
REMARK VINA RESULT:      -3.9     11.749     12.637
REMARK  0 active torsions:
REMARK  status: ('A' for Active; 'I' for Inactive)
ROOT
HETATM    1  C1  UNL     1     -35.894  15.174  -4.589  1.00 20.00     0.050 C 
HETATM    2  C2  UNL     1     -36.843  15.793  -3.865  1.00 20.00     0.003 C 
HETATM    3  C3  UNL     1     -34.614  14.671  -4.004  1.00 20.00     0.027 C 
HETATM    4  C4  UNL     1     -34.591  16.514  -1.102  1.00 20.00     0.056 A 
HETATM    5  C5  UNL     1     -34.139  16.515  -2.543  1.00 20.00     0.133 A 
HETATM    6  C6  UNL     1     -35.524  16.963  -2.185  1.00 20.00     0.108 A 
HETATM    7  C7  UNL     1     -38.193  16.046  -4.487  1.00 20.00     0.068 C 
HETATM    8  C8  UNL     1     -34.145  13.337  -4.549  1.00 20.00     0.070 C 
HETATM    9  N9  UNL     1     -33.850  15.209  -3.112  1.00 20.00    -0.287 NA
HETATM   10  N10 UNL     1     -36.719  16.219  -2.558  1.00 20.00    -0.387 N 
HETATM   11  H22 UNL     1     -37.591  16.424  -2.080  1.00 20.00     0.159 HD
ENDROOT
TORSDOF 0
ENDMDL
MODEL 9
REMARK VINA RESULT:      -3.9     11.538     12.721
REMARK  0 active torsions:
REMARK  status: ('A' for Active; 'I' for Inactive)
ROOT
HETATM    1  C1  UNL     1     -35.799  14.576  -5.350  1.00 20.00     0.050 C 
HETATM    2  C2  UNL     1     -34.777  15.252  -5.903  1.00 20.00     0.003 C 
HETATM    3  C3  UNL     1     -36.389  14.926  -4.022  1.00 20.00     0.027 C 
HETATM    4  C4  UNL     1     -33.801  16.807  -2.764  1.00 20.00     0.056 A 
HETATM    5  C5  UNL     1     -34.355  15.404  -2.841  1.00 20.00     0.133 A 
HETATM    6  C6  UNL     1     -33.498  15.940  -3.948  1.00 20.00     0.108 A 
HETATM    7  C7  UNL     1     -34.411  14.982  -7.341  1.00 20.00     0.068 C 
HETATM    8  C8  UNL     1     -37.898  14.807  -3.944  1.00 20.00     0.070 C 
HETATM    9  N9  UNL     1     -35.803  15.304  -2.935  1.00 20.00    -0.287 NA
HETATM   10  N10 UNL     1     -34.010  16.218  -5.283  1.00 20.00    -0.387 N 
HETATM   11  H22 UNL     1     -33.463  16.807  -5.902  1.00 20.00     0.159 HD
ENDROOT
TORSDOF 0
ENDMDL
