MODEL 1
REMARK VINA RESULT:      -5.6      0.000      0.000
REMARK  3 active torsions:
REMARK  status: ('A' for Active; 'I' for Inactive)
REMARK    1  A    between atoms: C6_6  and  C7_7 
REMARK    2  A    between atoms: C8_8  and  C10_10 
REMARK    3  A    between atoms: C9_9  and  C11_11 
ROOT
HETATM    1  C1  UNL     1     -34.438  17.316  -5.844  1.00 20.00    -0.021 C 
HETATM    2  C2  UNL     1     -33.310  16.917  -5.216  1.00 20.00    -0.020 C 
HETATM    3  C5  UNL     1     -35.585  15.264  -5.096  1.00 20.00    -0.003 C 
HETATM    4  C6  UNL     1     -34.459  14.878  -4.468  1.00 20.00     0.024 C 
HETATM    5  C8  UNL     1     -35.729  16.779  -5.217  1.00 20.00     0.039 C 
HETATM    6  C9  UNL     1     -33.555  16.012  -4.005  1.00 20.00     0.056 C 
ENDROOT
BRANCH   4   7
HETATM    7  C7  UNL     1     -34.133  13.426  -4.234  1.00 20.00     0.205 C 
HETATM    8  O12 UNL     1     -33.045  13.205  -3.625  1.00 20.00    -0.644 OA
HETATM    9  O13 UNL     1     -34.985  12.598  -4.673  1.00 20.00    -0.644 OA
ENDBRANCH   4   7
BRANCH   6  10
HETATM   10  C11 UNL     1     -34.391  16.916  -3.042  1.00 20.00     0.029 A 
HETATM   11  C4  UNL     1     -33.702  17.966  -2.187  1.00 20.00    -0.024 A 
HETATM   12  C3  UNL     1     -33.910  17.307  -1.030  1.00 20.00    -0.024 A 
HETATM   13  C10 UNL     1     -34.637  16.147  -1.691  1.00 20.00     0.028 A 
ENDBRANCH   6  10
TORSDOF 3
ENDMDL
MODEL 2
REMARK VINA RESULT:      -5.3      1.403      3.079
REMARK  3 active torsions:
REMARK  status: ('A' for Active; 'I' for Inactive)
REMARK    1  A    between atoms: C6_6  and  C7_7 
REMARK    2  A    between atoms: C8_8  and  C10_10 
REMARK    3  A    between atoms: C9_9  and  C11_11 
ROOT
HETATM    1  C1  UNL     1     -33.881  17.202  -1.957  1.00 20.00    -0.021 C 
HETATM    2  C2  UNL     1     -34.748  16.251  -1.545  1.00 20.00    -0.020 C 
HETATM    3  C5  UNL     1     -33.299  15.825  -3.920  1.00 20.00    -0.003 C 
HETATM    4  C6  UNL     1     -34.169  14.887  -3.505  1.00 20.00     0.024 C 
HETATM    5  C8  UNL     1     -33.665  17.239  -3.474  1.00 20.00     0.039 C 
HETATM    6  C9  UNL     1     -35.338  15.408  -2.680  1.00 20.00     0.056 C 
ENDROOT
BRANCH   4   7
HETATM    7  C7  UNL     1     -33.997  13.430  -3.850  1.00 20.00     0.205 C 
HETATM    8  O12 UNL     1     -35.046  12.838  -4.242  1.00 20.00    -0.644 OA
HETATM    9  O13 UNL     1     -32.826  12.971  -3.707  1.00 20.00    -0.644 OA
ENDBRANCH   4   7
BRANCH   6  10
HETATM   10  C11 UNL     1     -36.099  16.458  -3.553  1.00 20.00     0.029 A 
HETATM   11  C4  UNL     1     -37.412  17.046  -3.070  1.00 20.00    -0.024 A 
HETATM   12  C3  UNL     1     -38.156  16.402  -3.991  1.00 20.00    -0.024 A 
HETATM   13  C10 UNL     1     -36.966  15.707  -4.630  1.00 20.00     0.028 A 
ENDBRANCH   6  10
TORSDOF 3
ENDMDL
MODEL 3
REMARK VINA RESULT:      -5.2      1.097      1.533
REMARK  3 active torsions:
REMARK  status: ('A' for Active; 'I' for Inactive)
REMARK    1  A    between atoms: C6_6  and  C7_7 
REMARK    2  A    between atoms: C8_8  and  C10_10 
REMARK    3  A    between atoms: C9_9  and  C11_11 
ROOT
HETATM    1  C1  UNL     1     -33.322  16.943  -5.273  1.00 20.00    -0.021 C 
HETATM    2  C2  UNL     1     -32.922  15.996  -4.396  1.00 20.00    -0.020 C 
HETATM    3  C5  UNL     1     -35.635  16.094  -5.139  1.00 20.00    -0.003 C 
HETATM    4  C6  UNL     1     -35.229  15.158  -4.262  1.00 20.00     0.024 C 
HETATM    5  C8  UNL     1     -34.788  17.364  -5.116  1.00 20.00     0.039 C 
HETATM    6  C9  UNL     1     -34.016  15.540  -3.425  1.00 20.00     0.056 C 
ENDROOT
BRANCH   4   7
HETATM    7  C7  UNL     1     -35.938  13.837  -4.118  1.00 20.00     0.205 C 
HETATM    8  O12 UNL     1     -37.175  13.911  -3.856  1.00 20.00    -0.644 OA
HETATM    9  O13 UNL     1     -35.214  12.810  -4.275  1.00 20.00    -0.644 OA
ENDBRANCH   4   7
BRANCH   6  10
HETATM   10  C11 UNL     1     -34.374  16.847  -2.646  1.00 20.00     0.029 A 
HETATM   11  C4  UNL     1     -33.494  17.323  -1.504  1.00 20.00    -0.024 A 
HETATM   12  C3  UNL     1     -34.402  17.035  -0.550  1.00 20.00    -0.024 A 
HETATM   13  C10 UNL     1     -35.436  16.513  -1.533  1.00 20.00     0.028 A 
ENDBRANCH   6  10
TORSDOF 3
ENDMDL
MODEL 4
REMARK VINA RESULT:      -4.9      2.451      3.565
REMARK  3 active torsions:
REMARK  status: ('A' for Active; 'I' for Inactive)
REMARK    1  A    between atoms: C6_6  and  C7_7 
REMARK    2  A    between atoms: C8_8  and  C10_10 
REMARK    3  A    between atoms: C9_9  and  C11_11 
ROOT
HETATM    1  C1  UNL     1     -34.458  14.256  -3.483  1.00 20.00    -0.021 C 
HETATM    2  C2  UNL     1     -35.409  15.208  -3.366  1.00 20.00    -0.020 C 
HETATM    3  C5  UNL     1     -32.949  15.889  -4.553  1.00 20.00    -0.003 C 
HETATM    4  C6  UNL     1     -33.899  16.832  -4.426  1.00 20.00     0.024 C 
HETATM    5  C8  UNL     1     -33.024  14.798  -3.487  1.00 20.00     0.039 C 
HETATM    6  C9  UNL     1     -34.856  16.634  -3.259  1.00 20.00     0.056 C 
ENDROOT
BRANCH   4   7
HETATM    7  C7  UNL     1     -33.992  18.004  -5.369  1.00 20.00     0.205 C 
HETATM    8  O12 UNL     1     -34.722  17.825  -6.388  1.00 20.00    -0.644 OA
HETATM    9  O13 UNL     1     -33.330  19.029  -5.030  1.00 20.00    -0.644 OA
ENDBRANCH   4   7
BRANCH   6  10
HETATM   10  C11 UNL     1     -34.002  16.593  -1.951  1.00 20.00     0.029 A 
HETATM   11  C4  UNL     1     -34.680  16.620  -0.593  1.00 20.00    -0.024 A 
HETATM   12  C3  UNL     1     -34.264  17.868  -0.297  1.00 20.00    -0.024 A 
HETATM   13  C10 UNL     1     -33.513  18.049  -1.605  1.00 20.00     0.028 A 
ENDBRANCH   6  10
TORSDOF 3
ENDMDL
MODEL 5
REMARK VINA RESULT:      -4.8      1.100      3.416
REMARK  3 active torsions:
REMARK  status: ('A' for Active; 'I' for Inactive)
REMARK    1  A    between atoms: C6_6  and  C7_7 
REMARK    2  A    between atoms: C8_8  and  C10_10 
REMARK    3  A    between atoms: C9_9  and  C11_11 
ROOT
HETATM    1  C1  UNL     1     -35.641  17.077  -2.731  1.00 20.00    -0.021 C 
HETATM    2  C2  UNL     1     -36.353  16.265  -3.543  1.00 20.00    -0.020 C 
HETATM    3  C5  UNL     1     -33.660  15.635  -3.020  1.00 20.00    -0.003 C 
HETATM    4  C6  UNL     1     -34.374  14.836  -3.832  1.00 20.00     0.024 C 
HETATM    5  C8  UNL     1     -34.135  17.086  -3.016  1.00 20.00     0.039 C 
HETATM    6  C9  UNL     1     -35.507  15.523  -4.583  1.00 20.00     0.056 C 
ENDROOT
BRANCH   4   7
HETATM    7  C7  UNL     1     -34.060  13.371  -3.991  1.00 20.00     0.205 C 
HETATM    8  O12 UNL     1     -35.018  12.651  -4.400  1.00 20.00    -0.644 OA
HETATM    9  O13 UNL     1     -32.876  13.033  -3.697  1.00 20.00    -0.644 OA
ENDBRANCH   4   7
BRANCH   6  10
HETATM   10  C11 UNL     1     -34.879  16.678  -5.428  1.00 20.00     0.029 A 
HETATM   11  C4  UNL     1     -35.720  17.422  -6.451  1.00 20.00    -0.024 A 
HETATM   12  C3  UNL     1     -35.077  16.895  -7.512  1.00 20.00    -0.024 A 
HETATM   13  C10 UNL     1     -34.126  16.064  -6.667  1.00 20.00     0.028 A 
ENDBRANCH   6  10
TORSDOF 3
ENDMDL
MODEL 6
REMARK VINA RESULT:      -4.8      1.533      2.009
REMARK  3 active torsions:
REMARK  status: ('A' for Active; 'I' for Inactive)
REMARK    1  A    between atoms: C6_6  and  C7_7 
REMARK    2  A    between atoms: C8_8  and  C10_10 
REMARK    3  A    between atoms: C9_9  and  C11_11 
ROOT
HETATM    1  C1  UNL     1     -33.620  17.294  -5.931  1.00 20.00    -0.021 C 
HETATM    2  C2  UNL     1     -33.584  17.093  -4.596  1.00 20.00    -0.020 C 
HETATM    3  C5  UNL     1     -34.399  14.976  -6.262  1.00 20.00    -0.003 C 
HETATM    4  C6  UNL     1     -34.366  14.787  -4.931  1.00 20.00     0.024 C 
HETATM    5  C8  UNL     1     -34.647  16.427  -6.668  1.00 20.00     0.039 C 
HETATM    6  C9  UNL     1     -34.579  16.041  -4.094  1.00 20.00     0.056 C 
ENDROOT
BRANCH   4   7
HETATM    7  C7  UNL     1     -34.146  13.426  -4.322  1.00 20.00     0.205 C 
HETATM    8  O12 UNL     1     -33.048  13.276  -3.710  1.00 20.00    -0.644 OA
HETATM    9  O13 UNL     1     -35.086  12.595  -4.494  1.00 20.00    -0.644 OA
ENDBRANCH   4   7
BRANCH   6  10
HETATM   10  C11 UNL     1     -35.967  16.640  -4.488  1.00 20.00     0.029 A 
HETATM   11  C4  UNL     1     -36.557  17.792  -3.694  1.00 20.00    -0.024 A 
HETATM   12  C3  UNL     1     -37.535  17.045  -3.143  1.00 20.00    -0.024 A 
HETATM   13  C10 UNL     1     -37.110  15.767  -3.848  1.00 20.00     0.028 A 
ENDBRANCH   6  10
TORSDOF 3
ENDMDL
MODEL 7
REMARK VINA RESULT:      -4.8      2.031      3.031
REMARK  3 active torsions:
REMARK  status: ('A' for Active; 'I' for Inactive)
REMARK    1  A    between atoms: C6_6  and  C7_7 
REMARK    2  A    between atoms: C8_8  and  C10_10 
REMARK    3  A    between atoms: C9_9  and  C11_11 
ROOT
HETATM    1  C1  UNL     1     -35.975  14.743  -7.430  1.00 20.00    -0.021 C 
HETATM    2  C2  UNL     1     -34.631  14.882  -7.469  1.00 20.00    -0.020 C 
HETATM    3  C5  UNL     1     -35.891  14.589  -4.969  1.00 20.00    -0.003 C 
HETATM    4  C6  UNL     1     -34.555  14.734  -5.017  1.00 20.00     0.024 C 
HETATM    5  C8  UNL     1     -36.621  15.250  -6.136  1.00 20.00     0.039 C 
HETATM    6  C9  UNL     1     -34.032  15.520  -6.212  1.00 20.00     0.056 C 
ENDROOT
BRANCH   4   7
HETATM    7  C7  UNL     1     -33.651  14.168  -3.953  1.00 20.00     0.205 C 
HETATM    8  O12 UNL     1     -32.601  14.836  -3.721  1.00 20.00    -0.644 OA
HETATM    9  O13 UNL     1     -34.048  13.092  -3.417  1.00 20.00    -0.644 OA
ENDBRANCH   4   7
BRANCH   6  10
HETATM   10  C11 UNL     1     -34.697  16.934  -6.173  1.00 20.00     0.029 A 
HETATM   11  C4  UNL     1     -34.307  17.991  -7.191  1.00 20.00    -0.024 A 
HETATM   12  C3  UNL     1     -33.659  18.761  -6.295  1.00 20.00    -0.024 A 
HETATM   13  C10 UNL     1     -33.941  17.833  -5.125  1.00 20.00     0.028 A 
ENDBRANCH   6  10
TORSDOF 3
ENDMDL
MODEL 8
REMARK VINA RESULT:      -4.8      2.354      3.747
REMARK  3 active torsions:
REMARK  status: ('A' for Active; 'I' for Inactive)
REMARK    1  A    between atoms: C6_6  and  C7_7 
REMARK    2  A    between atoms: C8_8  and  C10_10 
REMARK    3  A    between atoms: C9_9  and  C11_11 
ROOT
HETATM    1  C1  UNL     1     -33.456  14.198  -3.474  1.00 20.00    -0.021 C 
HETATM    2  C2  UNL     1     -33.899  15.426  -3.128  1.00 20.00    -0.020 C 
HETATM    3  C5  UNL     1     -35.701  13.624  -4.322  1.00 20.00    -0.003 C 
HETATM    4  C6  UNL     1     -36.131  14.851  -3.979  1.00 20.00     0.024 C 
HETATM    5  C8  UNL     1     -34.211  13.567  -4.650  1.00 20.00     0.039 C 
HETATM    6  C9  UNL     1     -35.063  15.936  -3.984  1.00 20.00     0.056 C 
ENDROOT
BRANCH   4   7
HETATM    7  C7  UNL     1     -37.572  15.124  -3.632  1.00 20.00     0.205 C 
HETATM    8  O12 UNL     1     -37.821  16.303  -3.242  1.00 20.00    -0.644 OA
HETATM    9  O13 UNL     1     -38.361  14.144  -3.771  1.00 20.00    -0.644 OA
ENDBRANCH   4   7
BRANCH   6  10
HETATM   10  C11 UNL     1     -34.455  15.993  -5.423  1.00 20.00     0.029 A 
HETATM   11  C4  UNL     1     -33.516  17.120  -5.813  1.00 20.00    -0.024 A 
HETATM   12  C3  UNL     1     -34.401  17.705  -6.645  1.00 20.00    -0.024 A 
HETATM   13  C10 UNL     1     -35.488  16.674  -6.396  1.00 20.00     0.028 A 
ENDBRANCH   6  10
TORSDOF 3
ENDMDL
MODEL 9
REMARK VINA RESULT:      -4.7      2.183      4.002
REMARK  3 active torsions:
REMARK  status: ('A' for Active; 'I' for Inactive)
REMARK    1  A    between atoms: C6_6  and  C7_7 
REMARK    2  A    between atoms: C8_8  and  C10_10 
REMARK    3  A    between atoms: C9_9  and  C11_11 
ROOT
HETATM    1  C1  UNL     1     -35.160  13.291  -4.234  1.00 20.00    -0.021 C 
HETATM    2  C2  UNL     1     -33.944  13.865  -4.366  1.00 20.00    -0.020 C 
HETATM    3  C5  UNL     1     -35.954  15.255  -2.968  1.00 20.00    -0.003 C 
HETATM    4  C6  UNL     1     -34.742  15.821  -3.109  1.00 20.00     0.024 C 
HETATM    5  C8  UNL     1     -36.314  14.290  -4.096  1.00 20.00     0.039 C 
HETATM    6  C9  UNL     1     -33.971  15.397  -4.352  1.00 20.00     0.056 C 
ENDROOT
BRANCH   4   7
HETATM    7  C7  UNL     1     -34.202  16.813  -2.112  1.00 20.00     0.205 C 
HETATM    8  O12 UNL     1     -33.619  17.821  -2.610  1.00 20.00    -0.644 OA
HETATM    9  O13 UNL     1     -34.396  16.522  -0.895  1.00 20.00    -0.644 OA
ENDBRANCH   4   7
BRANCH   6  10
HETATM   10  C11 UNL     1     -34.848  15.754  -5.595  1.00 20.00     0.029 A 
HETATM   11  C4  UNL     1     -34.275  15.632  -6.996  1.00 20.00    -0.024 A 
HETATM   12  C3  UNL     1     -34.230  16.963  -7.203  1.00 20.00    -0.024 A 
HETATM   13  C10 UNL     1     -34.798  17.309  -5.836  1.00 20.00     0.028 A 
ENDBRANCH   6  10
TORSDOF 3
ENDMDL
