MODEL 1
REMARK VINA RESULT:      -3.7      0.000      0.000
REMARK  0 active torsions:
REMARK  status: ('A' for Active; 'I' for Inactive)
ROOT
HETATM    1  C1  UNL     1     -34.939  15.662  -4.570  1.00 20.00     0.005 A 
HETATM    2  C2  UNL     1     -34.940  14.799  -3.535  1.00 20.00     0.107 A 
HETATM    3  C3  UNL     1     -34.315  14.740  -5.629  1.00 20.00     0.132 A 
HETATM    4  C4  UNL     1     -35.171  14.498  -6.862  1.00 20.00     0.031 C 
HETATM    5  O5  UNL     1     -35.403  12.577  -4.345  1.00 20.00    -0.223 OA
HETATM    6  O6  UNL     1     -33.031  13.334  -3.671  1.00 20.00    -0.223 OA
HETATM    7  S7  UNL     1     -34.245  13.433  -4.448  1.00 20.00     0.172 S 
ENDROOT
TORSDOF 0
ENDMDL
MODEL 2
REMARK VINA RESULT:      -3.6      0.847      2.646
REMARK  0 active torsions:
REMARK  status: ('A' for Active; 'I' for Inactive)
ROOT
HETATM    1  C1  UNL     1     -35.143  15.818  -4.652  1.00 20.00     0.005 A 
HETATM    2  C2  UNL     1     -34.436  14.844  -5.258  1.00 20.00     0.107 A 
HETATM    3  C3  UNL     1     -35.264  15.174  -3.263  1.00 20.00     0.132 A 
HETATM    4  C4  UNL     1     -34.676  15.985  -2.120  1.00 20.00     0.031 C 
HETATM    5  O5  UNL     1     -32.884  13.883  -3.685  1.00 20.00    -0.223 OA
HETATM    6  O6  UNL     1     -35.062  12.690  -4.379  1.00 20.00    -0.223 OA
HETATM    7  S7  UNL     1     -34.319  13.795  -3.821  1.00 20.00     0.172 S 
ENDROOT
TORSDOF 0
ENDMDL
MODEL 3
REMARK VINA RESULT:      -3.6      1.359      2.469
REMARK  0 active torsions:
REMARK  status: ('A' for Active; 'I' for Inactive)
ROOT
HETATM    1  C1  UNL     1     -34.713  15.503  -5.613  1.00 20.00     0.005 A 
HETATM    2  C2  UNL     1     -35.532  14.460  -5.852  1.00 20.00     0.107 A 
HETATM    3  C3  UNL     1     -34.512  15.288  -4.105  1.00 20.00     0.132 A 
HETATM    4  C4  UNL     1     -33.071  15.079  -3.668  1.00 20.00     0.031 C 
HETATM    5  O5  UNL     1     -34.881  12.597  -4.470  1.00 20.00    -0.223 OA
HETATM    6  O6  UNL     1     -36.943  14.053  -3.940  1.00 20.00    -0.223 OA
HETATM    7  S7  UNL     1     -35.532  13.852  -4.175  1.00 20.00     0.172 S 
ENDROOT
TORSDOF 0
ENDMDL
MODEL 4
REMARK VINA RESULT:      -3.5     12.246     12.987
REMARK  0 active torsions:
REMARK  status: ('A' for Active; 'I' for Inactive)
ROOT
HETATM    1  C1  UNL     1     -33.765   6.251   5.901  1.00 20.00     0.005 A 
HETATM    2  C2  UNL     1     -34.964   5.653   6.048  1.00 20.00     0.107 A 
HETATM    3  C3  UNL     1     -33.398   5.677   4.524  1.00 20.00     0.132 A 
HETATM    4  C4  UNL     1     -33.158   6.711   3.435  1.00 20.00     0.031 C 
HETATM    5  O5  UNL     1     -36.064   5.524   3.908  1.00 20.00    -0.223 OA
HETATM    6  O6  UNL     1     -34.943   3.478   5.009  1.00 20.00    -0.223 OA
HETATM    7  S7  UNL     1     -34.937   4.819   4.472  1.00 20.00     0.172 S 
ENDROOT
TORSDOF 0
ENDMDL
MODEL 5
REMARK VINA RESULT:      -3.5      1.763      2.145
REMARK  0 active torsions:
REMARK  status: ('A' for Active; 'I' for Inactive)
ROOT
HETATM    1  C1  UNL     1     -35.164  15.272  -3.137  1.00 20.00     0.005 A 
HETATM    2  C2  UNL     1     -36.008  14.514  -3.865  1.00 20.00     0.107 A 
HETATM    3  C3  UNL     1     -33.863  14.929  -3.878  1.00 20.00     0.132 A 
HETATM    4  C4  UNL     1     -33.135  16.114  -4.492  1.00 20.00     0.031 C 
HETATM    5  O5  UNL     1     -35.308  14.521  -6.171  1.00 20.00    -0.223 OA
HETATM    6  O6  UNL     1     -34.897  12.509  -4.610  1.00 20.00    -0.223 OA
HETATM    7  S7  UNL     1     -34.766  13.897  -4.986  1.00 20.00     0.172 S 
ENDROOT
TORSDOF 0
ENDMDL
MODEL 6
REMARK VINA RESULT:      -3.4      2.412      2.992
REMARK  0 active torsions:
REMARK  status: ('A' for Active; 'I' for Inactive)
ROOT
HETATM    1  C1  UNL     1     -34.082  13.818  -3.720  1.00 20.00     0.005 A 
HETATM    2  C2  UNL     1     -35.068  13.210  -4.408  1.00 20.00     0.107 A 
HETATM    3  C3  UNL     1     -34.687  15.229  -3.663  1.00 20.00     0.132 A 
HETATM    4  C4  UNL     1     -34.921  15.778  -2.265  1.00 20.00     0.031 C 
HETATM    5  O5  UNL     1     -37.195  14.127  -3.741  1.00 20.00    -0.223 OA
HETATM    6  O6  UNL     1     -36.063  14.750  -5.974  1.00 20.00    -0.223 OA
HETATM    7  S7  UNL     1     -36.108  14.654  -4.533  1.00 20.00     0.172 S 
ENDROOT
TORSDOF 0
ENDMDL
MODEL 7
REMARK VINA RESULT:      -3.3      2.190      2.687
REMARK  0 active torsions:
REMARK  status: ('A' for Active; 'I' for Inactive)
ROOT
HETATM    1  C1  UNL     1     -35.146  15.553  -2.820  1.00 20.00     0.005 A 
HETATM    2  C2  UNL     1     -33.930  16.104  -2.637  1.00 20.00     0.107 A 
HETATM    3  C3  UNL     1     -34.889  14.896  -4.185  1.00 20.00     0.132 A 
HETATM    4  C4  UNL     1     -35.077  13.387  -4.223  1.00 20.00     0.031 C 
HETATM    5  O5  UNL     1     -32.241  14.635  -3.529  1.00 20.00    -0.223 OA
HETATM    6  O6  UNL     1     -32.993  16.778  -4.753  1.00 20.00    -0.223 OA
HETATM    7  S7  UNL     1     -33.228  15.484  -4.155  1.00 20.00     0.172 S 
ENDROOT
TORSDOF 0
ENDMDL
MODEL 8
REMARK VINA RESULT:      -3.3      1.343      1.666
REMARK  0 active torsions:
REMARK  status: ('A' for Active; 'I' for Inactive)
ROOT
HETATM    1  C1  UNL     1     -33.471  15.301  -4.093  1.00 20.00     0.005 A 
HETATM    2  C2  UNL     1     -34.135  14.440  -3.295  1.00 20.00     0.107 A 
HETATM    3  C3  UNL     1     -34.292  15.095  -5.375  1.00 20.00     0.132 A 
HETATM    4  C4  UNL     1     -34.963  16.345  -5.922  1.00 20.00     0.031 C 
HETATM    5  O5  UNL     1     -36.481  14.488  -3.843  1.00 20.00    -0.223 OA
HETATM    6  O6  UNL     1     -34.931  12.562  -4.578  1.00 20.00    -0.223 OA
HETATM    7  S7  UNL     1     -35.329  13.949  -4.526  1.00 20.00     0.172 S 
ENDROOT
TORSDOF 0
ENDMDL
MODEL 9
REMARK VINA RESULT:      -3.2     11.729     12.622
REMARK  0 active torsions:
REMARK  status: ('A' for Active; 'I' for Inactive)
ROOT
HETATM    1  C1  UNL     1     -35.142   4.789   4.509  1.00 20.00     0.005 A 
HETATM    2  C2  UNL     1     -34.870   5.390   3.334  1.00 20.00     0.107 A 
HETATM    3  C3  UNL     1     -33.958   5.336   5.319  1.00 20.00     0.132 A 
HETATM    4  C4  UNL     1     -34.333   6.142   6.552  1.00 20.00     0.031 C 
HETATM    5  O5  UNL     1     -33.956   7.581   3.747  1.00 20.00    -0.223 OA
HETATM    6  O6  UNL     1     -32.487   5.585   3.031  1.00 20.00    -0.223 OA
HETATM    7  S7  UNL     1     -33.418   6.251   3.912  1.00 20.00     0.172 S 
ENDROOT
TORSDOF 0
ENDMDL
