MODEL 1
REMARK VINA RESULT:      -5.0      0.000      0.000
REMARK  0 active torsions:
REMARK  status: ('A' for Active; 'I' for Inactive)
ROOT
HETATM    1  C1  UNL     1     -33.522  17.451  -5.413  1.00 20.00     0.052 A 
HETATM    2  C2  UNL     1     -36.076  16.343  -5.585  1.00 20.00     0.126 A 
HETATM    3  C3  UNL     1     -33.970  16.557  -4.470  1.00 20.00    -0.043 A 
HETATM    4  C4  UNL     1     -35.250  15.995  -4.549  1.00 20.00    -0.028 A 
HETATM    5  C5  UNL     1     -34.427  17.750  -6.422  1.00 20.00     0.126 A 
HETATM    6  C6  UNL     1     -34.567  15.841  -2.361  1.00 20.00     0.020 C 
HETATM    7  C7  UNL     1     -33.023  14.473  -3.565  1.00 20.00     0.030 C 
HETATM    8  C8  UNL     1     -33.312  15.959  -3.252  1.00 20.00     0.021 C 
HETATM    9  C9  UNL     1     -35.392  15.040  -3.394  1.00 20.00     0.040 C 
HETATM   10  C10 UNL     1     -34.444  13.832  -3.589  1.00 20.00     0.091 C 
HETATM   11  N11 UNL     1     -35.684  17.225  -6.533  1.00 20.00    -0.248 NA
HETATM   12 CL12 UNL     1     -34.009  18.853  -7.672  1.00 20.00    -0.062 Cl
HETATM   13 CL13 UNL     1     -34.760  12.908  -5.069  1.00 20.00    -0.124 Cl
ENDROOT
TORSDOF 0
ENDMDL
MODEL 2
REMARK VINA RESULT:      -4.9      2.751      3.597
REMARK  0 active torsions:
REMARK  status: ('A' for Active; 'I' for Inactive)
ROOT
HETATM    1  C1  UNL     1     -33.526  15.952  -2.696  1.00 20.00     0.052 A 
HETATM    2  C2  UNL     1     -36.295  16.277  -2.642  1.00 20.00     0.126 A 
HETATM    3  C3  UNL     1     -34.341  15.199  -3.505  1.00 20.00    -0.043 A 
HETATM    4  C4  UNL     1     -35.732  15.356  -3.485  1.00 20.00    -0.028 A 
HETATM    5  C5  UNL     1     -34.181  16.856  -1.870  1.00 20.00     0.126 A 
HETATM    6  C6  UNL     1     -35.290  13.263  -4.324  1.00 20.00     0.020 C 
HETATM    7  C7  UNL     1     -34.344  14.761  -5.928  1.00 20.00     0.030 C 
HETATM    8  C8  UNL     1     -34.042  14.146  -4.542  1.00 20.00     0.021 C 
HETATM    9  C9  UNL     1     -36.304  14.415  -4.513  1.00 20.00     0.040 C 
HETATM   10  C10 UNL     1     -35.899  14.877  -5.933  1.00 20.00     0.091 C 
HETATM   11  N11 UNL     1     -35.534  17.037  -1.820  1.00 20.00    -0.248 NA
HETATM   12 CL12 UNL     1     -33.293  17.866  -0.801  1.00 20.00    -0.062 Cl
HETATM   13 CL13 UNL     1     -36.469  16.504  -6.345  1.00 20.00    -0.124 Cl
ENDROOT
TORSDOF 0
ENDMDL
MODEL 3
REMARK VINA RESULT:      -4.9      3.068      4.170
REMARK  0 active torsions:
REMARK  status: ('A' for Active; 'I' for Inactive)
ROOT
HETATM    1  C1  UNL     1     -34.606  16.493  -0.925  1.00 20.00     0.052 A 
HETATM    2  C2  UNL     1     -36.144  17.955  -2.733  1.00 20.00     0.126 A 
HETATM    3  C3  UNL     1     -34.730  16.091  -2.232  1.00 20.00    -0.043 A 
HETATM    4  C4  UNL     1     -35.499  16.819  -3.148  1.00 20.00    -0.028 A 
HETATM    5  C5  UNL     1     -35.298  17.649  -0.592  1.00 20.00     0.126 A 
HETATM    6  C6  UNL     1     -35.318  14.677  -3.956  1.00 20.00     0.020 C 
HETATM    7  C7  UNL     1     -33.078  15.507  -3.962  1.00 20.00     0.030 C 
HETATM    8  C8  UNL     1     -34.138  14.933  -2.995  1.00 20.00     0.021 C 
HETATM    9  C9  UNL     1     -35.381  16.130  -4.481  1.00 20.00     0.040 C 
HETATM   10  C10 UNL     1     -33.937  16.265  -5.019  1.00 20.00     0.091 C 
HETATM   11  N11 UNL     1     -36.060  18.386  -1.454  1.00 20.00    -0.248 NA
HETATM   12 CL12 UNL     1     -35.239  18.272   1.009  1.00 20.00    -0.062 Cl
HETATM   13 CL13 UNL     1     -33.418  17.944  -5.256  1.00 20.00    -0.124 Cl
ENDROOT
TORSDOF 0
ENDMDL
MODEL 4
REMARK VINA RESULT:      -4.9      2.577      3.446
REMARK  0 active torsions:
REMARK  status: ('A' for Active; 'I' for Inactive)
ROOT
HETATM    1  C1  UNL     1     -34.407  15.816  -2.247  1.00 20.00     0.052 A 
HETATM    2  C2  UNL     1     -35.328  17.672  -4.113  1.00 20.00     0.126 A 
HETATM    3  C3  UNL     1     -35.146  15.417  -3.334  1.00 20.00    -0.043 A 
HETATM    4  C4  UNL     1     -35.612  16.342  -4.276  1.00 20.00    -0.028 A 
HETATM    5  C5  UNL     1     -34.173  17.181  -2.158  1.00 20.00     0.126 A 
HETATM    6  C6  UNL     1     -36.945  14.476  -4.430  1.00 20.00     0.020 C 
HETATM    7  C7  UNL     1     -34.773  13.713  -5.072  1.00 20.00     0.030 C 
HETATM    8  C8  UNL     1     -35.595  14.058  -3.808  1.00 20.00     0.021 C 
HETATM    9  C9  UNL     1     -36.339  15.567  -5.343  1.00 20.00     0.040 C 
HETATM   10  C10 UNL     1     -35.336  14.698  -6.140  1.00 20.00     0.091 C 
HETATM   11  N11 UNL     1     -34.611  18.115  -3.054  1.00 20.00    -0.248 NA
HETATM   12 CL12 UNL     1     -33.264  17.829  -0.851  1.00 20.00    -0.062 Cl
HETATM   13 CL13 UNL     1     -34.068  15.635  -6.952  1.00 20.00    -0.124 Cl
ENDROOT
TORSDOF 0
ENDMDL
MODEL 5
REMARK VINA RESULT:      -4.8      2.578      3.707
REMARK  0 active torsions:
REMARK  status: ('A' for Active; 'I' for Inactive)
ROOT
HETATM    1  C1  UNL     1     -37.231  16.559  -3.218  1.00 20.00     0.052 A 
HETATM    2  C2  UNL     1     -36.160  14.104  -3.994  1.00 20.00     0.126 A 
HETATM    3  C3  UNL     1     -35.872  16.376  -3.303  1.00 20.00    -0.043 A 
HETATM    4  C4  UNL     1     -35.325  15.148  -3.692  1.00 20.00    -0.028 A 
HETATM    5  C5  UNL     1     -37.999  15.447  -3.535  1.00 20.00     0.126 A 
HETATM    6  C6  UNL     1     -33.705  16.277  -2.518  1.00 20.00     0.020 C 
HETATM    7  C7  UNL     1     -34.089  17.625  -4.453  1.00 20.00     0.030 C 
HETATM    8  C8  UNL     1     -34.710  17.310  -3.073  1.00 20.00     0.021 C 
HETATM    9  C9  UNL     1     -33.828  15.311  -3.719  1.00 20.00     0.040 C 
HETATM   10  C10 UNL     1     -33.424  16.276  -4.859  1.00 20.00     0.091 C 
HETATM   11  N11 UNL     1     -37.504  14.232  -3.917  1.00 20.00    -0.248 NA
HETATM   12 CL12 UNL     1     -39.715  15.523  -3.472  1.00 20.00    -0.062 Cl
HETATM   13 CL13 UNL     1     -33.914  15.721  -6.470  1.00 20.00    -0.124 Cl
ENDROOT
TORSDOF 0
ENDMDL
MODEL 6
REMARK VINA RESULT:      -4.7      2.274      3.632
REMARK  0 active torsions:
REMARK  status: ('A' for Active; 'I' for Inactive)
ROOT
HETATM    1  C1  UNL     1     -37.224  14.968  -3.566  1.00 20.00     0.052 A 
HETATM    2  C2  UNL     1     -36.403  15.129  -6.226  1.00 20.00     0.126 A 
HETATM    3  C3  UNL     1     -35.900  14.831  -3.906  1.00 20.00    -0.043 A 
HETATM    4  C4  UNL     1     -35.478  14.912  -5.239  1.00 20.00    -0.028 A 
HETATM    5  C5  UNL     1     -38.090  15.178  -4.630  1.00 20.00     0.126 A 
HETATM    6  C6  UNL     1     -33.868  13.754  -4.079  1.00 20.00     0.020 C 
HETATM    7  C7  UNL     1     -33.850  15.937  -3.106  1.00 20.00     0.030 C 
HETATM    8  C8  UNL     1     -34.660  14.620  -3.075  1.00 20.00     0.021 C 
HETATM    9  C9  UNL     1     -33.980  14.764  -5.244  1.00 20.00     0.040 C 
HETATM   10  C10 UNL     1     -33.326  15.995  -4.573  1.00 20.00     0.091 C 
HETATM   11  N11 UNL     1     -37.719  15.260  -5.942  1.00 20.00    -0.248 NA
HETATM   12 CL12 UNL     1     -39.777  15.364  -4.360  1.00 20.00    -0.062 Cl
HETATM   13 CL13 UNL     1     -33.699  17.530  -5.379  1.00 20.00    -0.124 Cl
ENDROOT
TORSDOF 0
ENDMDL
MODEL 7
REMARK VINA RESULT:      -4.7      2.738      3.886
REMARK  0 active torsions:
REMARK  status: ('A' for Active; 'I' for Inactive)
ROOT
HETATM    1  C1  UNL     1     -37.650  14.566  -3.946  1.00 20.00     0.052 A 
HETATM    2  C2  UNL     1     -36.582  17.104  -4.382  1.00 20.00     0.126 A 
HETATM    3  C3  UNL     1     -36.357  14.723  -4.383  1.00 20.00    -0.043 A 
HETATM    4  C4  UNL     1     -35.812  15.993  -4.604  1.00 20.00    -0.028 A 
HETATM    5  C5  UNL     1     -38.358  15.744  -3.755  1.00 20.00     0.126 A 
HETATM    6  C6  UNL     1     -34.581  14.495  -5.836  1.00 20.00     0.020 C 
HETATM    7  C7  UNL     1     -34.203  13.852  -3.566  1.00 20.00     0.030 C 
HETATM    8  C8  UNL     1     -35.264  13.728  -4.684  1.00 20.00     0.021 C 
HETATM    9  C9  UNL     1     -34.381  15.799  -5.030  1.00 20.00     0.040 C 
HETATM   10  C10 UNL     1     -33.551  15.239  -3.850  1.00 20.00     0.091 C 
HETATM   11  N11 UNL     1     -37.864  17.001  -3.961  1.00 20.00    -0.248 NA
HETATM   12 CL12 UNL     1     -39.988  15.707  -3.213  1.00 20.00    -0.062 Cl
HETATM   13 CL13 UNL     1     -33.530  16.296  -2.427  1.00 20.00    -0.124 Cl
ENDROOT
TORSDOF 0
ENDMDL
MODEL 8
REMARK VINA RESULT:      -4.6      2.671      3.886
REMARK  0 active torsions:
REMARK  status: ('A' for Active; 'I' for Inactive)
ROOT
HETATM    1  C1  UNL     1     -33.994  16.961  -4.100  1.00 20.00     0.052 A 
HETATM    2  C2  UNL     1     -35.140  14.446  -3.731  1.00 20.00     0.126 A 
HETATM    3  C3  UNL     1     -34.442  16.225  -5.170  1.00 20.00    -0.043 A 
HETATM    4  C4  UNL     1     -35.020  14.962  -4.994  1.00 20.00    -0.028 A 
HETATM    5  C5  UNL     1     -34.150  16.358  -2.859  1.00 20.00     0.126 A 
HETATM    6  C6  UNL     1     -34.261  15.073  -7.160  1.00 20.00     0.020 C 
HETATM    7  C7  UNL     1     -35.961  16.748  -7.036  1.00 20.00     0.030 C 
HETATM    8  C8  UNL     1     -34.483  16.513  -6.649  1.00 20.00     0.021 C 
HETATM    9  C9  UNL     1     -35.432  14.464  -6.354  1.00 20.00     0.040 C 
HETATM   10  C10 UNL     1     -36.592  15.329  -6.903  1.00 20.00     0.091 C 
HETATM   11  N11 UNL     1     -34.706  15.129  -2.646  1.00 20.00    -0.248 NA
HETATM   12 CL12 UNL     1     -33.634  17.158  -1.428  1.00 20.00    -0.062 Cl
HETATM   13 CL13 UNL     1     -38.041  15.310  -5.883  1.00 20.00    -0.124 Cl
ENDROOT
TORSDOF 0
ENDMDL
MODEL 9
REMARK VINA RESULT:      -4.6      2.596      3.900
REMARK  0 active torsions:
REMARK  status: ('A' for Active; 'I' for Inactive)
ROOT
HETATM    1  C1  UNL     1     -37.154  16.703  -4.130  1.00 20.00     0.052 A 
HETATM    2  C2  UNL     1     -36.170  14.098  -4.273  1.00 20.00     0.126 A 
HETATM    3  C3  UNL     1     -35.915  16.444  -4.663  1.00 20.00    -0.043 A 
HETATM    4  C4  UNL     1     -35.413  15.140  -4.740  1.00 20.00    -0.028 A 
HETATM    5  C5  UNL     1     -37.848  15.589  -3.675  1.00 20.00     0.126 A 
HETATM    6  C6  UNL     1     -33.617  16.571  -4.815  1.00 20.00     0.020 C 
HETATM    7  C7  UNL     1     -34.856  17.064  -6.798  1.00 20.00     0.030 C 
HETATM    8  C8  UNL     1     -34.872  17.343  -5.277  1.00 20.00     0.021 C 
HETATM    9  C9  UNL     1     -34.067  15.216  -5.410  1.00 20.00     0.040 C 
HETATM   10  C10 UNL     1     -34.237  15.636  -6.889  1.00 20.00     0.091 C 
HETATM   11  N11 UNL     1     -37.393  14.303  -3.730  1.00 20.00    -0.248 NA
HETATM   12 CL12 UNL     1     -39.411  15.757  -2.980  1.00 20.00    -0.062 Cl
HETATM   13 CL13 UNL     1     -35.227  14.514  -7.841  1.00 20.00    -0.124 Cl
ENDROOT
TORSDOF 0
ENDMDL
