MODEL 1
REMARK VINA RESULT:      -6.0      0.000      0.000
REMARK  2 active torsions:
REMARK  status: ('A' for Active; 'I' for Inactive)
REMARK    1  A    between atoms: C7_7  and  C9_9 
REMARK    2  A    between atoms: C8_8  and  C9_9 
ROOT
HETATM    1  C1  UNL     1     -32.120   9.105   1.135  1.00 20.00     0.012 C 
HETATM    2  C2  UNL     1     -32.087   8.261   1.987  1.00 20.00    -0.117 C 
HETATM    3  C8  UNL     1     -32.045   7.231   3.034  1.00 20.00     0.093 C 
ENDROOT
BRANCH   3   4
HETATM    4  C9  UNL     1     -33.169   6.227   2.836  1.00 20.00     0.017 C 
BRANCH   4   5
HETATM    5  C7  UNL     1     -34.089   6.193   4.045  1.00 20.00    -0.006 C 
HETATM    6  C5  UNL     1     -34.614   4.789   4.354  1.00 20.00     0.082 C 
HETATM    7  C3  UNL     1     -34.900   4.886   5.831  1.00 20.00     0.127 C 
HETATM    8  C4  UNL     1     -34.313   6.131   6.445  1.00 20.00     0.079 C 
HETATM    9  O10 UNL     1     -35.537   4.050   6.458  1.00 20.00    -0.298 OA
HETATM   10  C6  UNL     1     -33.389   6.619   5.337  1.00 20.00     0.012 C 
ENDBRANCH   4   5
ENDBRANCH   3   4
TORSDOF 2
ENDMDL
MODEL 2
REMARK VINA RESULT:      -5.5      0.728      1.478
REMARK  2 active torsions:
REMARK  status: ('A' for Active; 'I' for Inactive)
REMARK    1  A    between atoms: C7_7  and  C9_9 
REMARK    2  A    between atoms: C8_8  and  C9_9 
ROOT
HETATM    1  C1  UNL     1     -32.169   9.424   1.053  1.00 20.00     0.012 C 
HETATM    2  C2  UNL     1     -32.157   8.445   1.747  1.00 20.00    -0.117 C 
HETATM    3  C8  UNL     1     -32.138   7.246   2.596  1.00 20.00     0.093 C 
ENDROOT
BRANCH   3   4
HETATM    4  C9  UNL     1     -33.109   7.400   3.755  1.00 20.00     0.017 C 
BRANCH   4   5
HETATM    5  C7  UNL     1     -33.510   6.045   4.314  1.00 20.00    -0.006 C 
HETATM    6  C5  UNL     1     -34.043   6.127   5.746  1.00 20.00     0.082 C 
HETATM    7  C3  UNL     1     -34.926   4.908   5.815  1.00 20.00     0.127 C 
HETATM    8  C4  UNL     1     -35.168   4.300   4.458  1.00 20.00     0.079 C 
HETATM    9  O10 UNL     1     -35.393   4.462   6.855  1.00 20.00    -0.298 OA
HETATM   10  C6  UNL     1     -34.651   5.394   3.531  1.00 20.00     0.012 C 
ENDBRANCH   4   5
ENDBRANCH   3   4
TORSDOF 2
ENDMDL
MODEL 3
REMARK VINA RESULT:      -5.1     11.142     12.298
REMARK  2 active torsions:
REMARK  status: ('A' for Active; 'I' for Inactive)
REMARK    1  A    between atoms: C7_7  and  C9_9 
REMARK    2  A    between atoms: C8_8  and  C9_9 
ROOT
HETATM    1  C1  UNL     1     -34.693  17.672   0.575  1.00 20.00     0.012 C 
HETATM    2  C2  UNL     1     -34.726  16.993  -0.415  1.00 20.00    -0.117 C 
HETATM    3  C8  UNL     1     -34.769  16.162  -1.625  1.00 20.00     0.093 C 
ENDROOT
BRANCH   3   4
HETATM    4  C9  UNL     1     -33.607  16.499  -2.544  1.00 20.00     0.017 C 
BRANCH   4   5
HETATM    5  C7  UNL     1     -33.515  15.510  -3.693  1.00 20.00    -0.006 C 
HETATM    6  C5  UNL     1     -34.118  14.145  -3.352  1.00 20.00     0.082 C 
HETATM    7  C3  UNL     1     -34.497  13.627  -4.716  1.00 20.00     0.127 C 
HETATM    8  C4  UNL     1     -34.425  14.698  -5.774  1.00 20.00     0.079 C 
HETATM    9  O10 UNL     1     -34.824  12.469  -4.939  1.00 20.00    -0.298 OA
HETATM   10  C6  UNL     1     -34.294  15.960  -4.930  1.00 20.00     0.012 C 
ENDBRANCH   4   5
ENDBRANCH   3   4
TORSDOF 2
ENDMDL
MODEL 4
REMARK VINA RESULT:      -4.8     11.167     11.924
REMARK  2 active torsions:
REMARK  status: ('A' for Active; 'I' for Inactive)
REMARK    1  A    between atoms: C7_7  and  C9_9 
REMARK    2  A    between atoms: C8_8  and  C9_9 
ROOT
HETATM    1  C1  UNL     1     -32.649  18.792  -0.090  1.00 20.00     0.012 C 
HETATM    2  C2  UNL     1     -33.516  18.001  -0.339  1.00 20.00    -0.117 C 
HETATM    3  C8  UNL     1     -34.579  17.032  -0.639  1.00 20.00     0.093 C 
ENDROOT
BRANCH   3   4
HETATM    4  C9  UNL     1     -34.664  16.784  -2.136  1.00 20.00     0.017 C 
BRANCH   4   5
HETATM    5  C7  UNL     1     -34.337  15.338  -2.468  1.00 20.00    -0.006 C 
HETATM    6  C5  UNL     1     -35.404  14.672  -3.342  1.00 20.00     0.082 C 
HETATM    7  C3  UNL     1     -34.606  13.598  -4.036  1.00 20.00     0.127 C 
HETATM    8  C4  UNL     1     -33.121  13.780  -3.850  1.00 20.00     0.079 C 
HETATM    9  O10 UNL     1     -35.106  12.683  -4.676  1.00 20.00    -0.298 OA
HETATM   10  C6  UNL     1     -33.050  15.191  -3.280  1.00 20.00     0.012 C 
ENDBRANCH   4   5
ENDBRANCH   3   4
TORSDOF 2
ENDMDL
MODEL 5
REMARK VINA RESULT:      -4.5     11.919     13.190
REMARK  2 active torsions:
REMARK  status: ('A' for Active; 'I' for Inactive)
REMARK    1  A    between atoms: C7_7  and  C9_9 
REMARK    2  A    between atoms: C8_8  and  C9_9 
ROOT
HETATM    1  C1  UNL     1     -34.807  16.935  -0.337  1.00 20.00     0.012 C 
HETATM    2  C2  UNL     1     -34.318  16.604  -1.382  1.00 20.00    -0.117 C 
HETATM    3  C8  UNL     1     -33.715  16.201  -2.660  1.00 20.00     0.093 C 
ENDROOT
BRANCH   3   4
HETATM    4  C9  UNL     1     -34.326  14.898  -3.148  1.00 20.00     0.017 C 
BRANCH   4   5
HETATM    5  C7  UNL     1     -34.084  14.706  -4.635  1.00 20.00    -0.006 C 
HETATM    6  C5  UNL     1     -35.276  14.067  -5.354  1.00 20.00     0.082 C 
HETATM    7  C3  UNL     1     -35.090  14.570  -6.763  1.00 20.00     0.127 C 
HETATM    8  C4  UNL     1     -34.061  15.668  -6.846  1.00 20.00     0.079 C 
HETATM    9  O10 UNL     1     -35.702  14.133  -7.728  1.00 20.00    -0.298 OA
HETATM   10  C6  UNL     1     -33.868  16.025  -5.378  1.00 20.00     0.012 C 
ENDBRANCH   4   5
ENDBRANCH   3   4
TORSDOF 2
ENDMDL
MODEL 6
REMARK VINA RESULT:      -4.2     11.227     12.344
REMARK  2 active torsions:
REMARK  status: ('A' for Active; 'I' for Inactive)
REMARK    1  A    between atoms: C7_7  and  C9_9 
REMARK    2  A    between atoms: C8_8  and  C9_9 
ROOT
HETATM    1  C1  UNL     1     -33.420  18.441  -4.412  1.00 20.00     0.012 C 
HETATM    2  C2  UNL     1     -33.808  18.129  -3.320  1.00 20.00    -0.117 C 
HETATM    3  C8  UNL     1     -34.285  17.751  -1.983  1.00 20.00     0.093 C 
ENDROOT
BRANCH   3   4
HETATM    4  C9  UNL     1     -34.335  16.238  -1.845  1.00 20.00     0.017 C 
BRANCH   4   5
HETATM    5  C7  UNL     1     -34.754  15.585  -3.151  1.00 20.00    -0.006 C 
HETATM    6  C5  UNL     1     -34.055  14.245  -3.396  1.00 20.00     0.082 C 
HETATM    7  C3  UNL     1     -35.042  13.544  -4.295  1.00 20.00     0.127 C 
HETATM    8  C4  UNL     1     -36.370  14.255  -4.349  1.00 20.00     0.079 C 
HETATM    9  O10 UNL     1     -34.793  12.517  -4.912  1.00 20.00    -0.298 OA
HETATM   10  C6  UNL     1     -36.243  15.239  -3.193  1.00 20.00     0.012 C 
ENDBRANCH   4   5
ENDBRANCH   3   4
TORSDOF 2
ENDMDL
MODEL 7
REMARK VINA RESULT:      -4.2     11.043     12.973
REMARK  2 active torsions:
REMARK  status: ('A' for Active; 'I' for Inactive)
REMARK    1  A    between atoms: C7_7  and  C9_9 
REMARK    2  A    between atoms: C8_8  and  C9_9 
ROOT
HETATM    1  C1  UNL     1     -34.786  17.654  -7.482  1.00 20.00     0.012 C 
HETATM    2  C2  UNL     1     -34.214  17.632  -6.427  1.00 20.00    -0.117 C 
HETATM    3  C8  UNL     1     -33.510  17.608  -5.138  1.00 20.00     0.093 C 
ENDROOT
BRANCH   3   4
HETATM    4  C9  UNL     1     -34.483  17.322  -4.006  1.00 20.00     0.017 C 
BRANCH   4   5
HETATM    5  C7  UNL     1     -34.372  15.880  -3.542  1.00 20.00    -0.006 C 
HETATM    6  C5  UNL     1     -35.326  14.941  -4.285  1.00 20.00     0.082 C 
HETATM    7  C3  UNL     1     -34.613  13.618  -4.161  1.00 20.00     0.127 C 
HETATM    8  C4  UNL     1     -33.200  13.776  -3.662  1.00 20.00     0.079 C 
HETATM    9  O10 UNL     1     -35.125  12.540  -4.432  1.00 20.00    -0.298 OA
HETATM   10  C6  UNL     1     -32.989  15.279  -3.795  1.00 20.00     0.012 C 
ENDBRANCH   4   5
ENDBRANCH   3   4
TORSDOF 2
ENDMDL
MODEL 8
REMARK VINA RESULT:      -4.2     11.567     12.934
REMARK  2 active torsions:
REMARK  status: ('A' for Active; 'I' for Inactive)
REMARK    1  A    between atoms: C7_7  and  C9_9 
REMARK    2  A    between atoms: C8_8  and  C9_9 
ROOT
HETATM    1  C1  UNL     1     -34.429  16.602  -1.402  1.00 20.00     0.012 C 
HETATM    2  C2  UNL     1     -34.019  15.973  -2.339  1.00 20.00    -0.117 C 
HETATM    3  C8  UNL     1     -33.515  15.207  -3.486  1.00 20.00     0.093 C 
ENDROOT
BRANCH   3   4
HETATM    4  C9  UNL     1     -34.241  13.876  -3.597  1.00 20.00     0.017 C 
BRANCH   4   5
HETATM    5  C7  UNL     1     -35.173  13.861  -4.797  1.00 20.00    -0.006 C 
HETATM    6  C5  UNL     1     -36.452  14.670  -4.567  1.00 20.00     0.082 C 
HETATM    7  C3  UNL     1     -36.837  15.042  -5.976  1.00 20.00     0.127 C 
HETATM    8  C4  UNL     1     -35.734  14.760  -6.963  1.00 20.00     0.079 C 
HETATM    9  O10 UNL     1     -37.923  15.517  -6.283  1.00 20.00    -0.298 OA
HETATM   10  C6  UNL     1     -34.551  14.498  -6.040  1.00 20.00     0.012 C 
ENDBRANCH   4   5
ENDBRANCH   3   4
TORSDOF 2
ENDMDL
MODEL 9
REMARK VINA RESULT:      -4.2     11.836     12.865
REMARK  2 active torsions:
REMARK  status: ('A' for Active; 'I' for Inactive)
REMARK    1  A    between atoms: C7_7  and  C9_9 
REMARK    2  A    between atoms: C8_8  and  C9_9 
ROOT
HETATM    1  C1  UNL     1     -35.237  14.408  -7.177  1.00 20.00     0.012 C 
HETATM    2  C2  UNL     1     -35.187  14.067  -6.027  1.00 20.00    -0.117 C 
HETATM    3  C8  UNL     1     -35.129  13.648  -4.620  1.00 20.00     0.093 C 
ENDROOT
BRANCH   3   4
HETATM    4  C9  UNL     1     -33.715  13.785  -4.082  1.00 20.00     0.017 C 
BRANCH   4   5
HETATM    5  C7  UNL     1     -33.559  15.065  -3.279  1.00 20.00    -0.006 C 
HETATM    6  C5  UNL     1     -33.283  16.288  -4.156  1.00 20.00     0.082 C 
HETATM    7  C3  UNL     1     -33.807  17.409  -3.294  1.00 20.00     0.127 C 
HETATM    8  C4  UNL     1     -34.616  16.902  -2.129  1.00 20.00     0.079 C 
HETATM    9  O10 UNL     1     -33.597  18.594  -3.515  1.00 20.00    -0.298 OA
HETATM   10  C6  UNL     1     -34.824  15.441  -2.507  1.00 20.00     0.012 C 
ENDBRANCH   4   5
ENDBRANCH   3   4
TORSDOF 2
ENDMDL
