MODEL 1
REMARK VINA RESULT:      -5.2      0.000      0.000
REMARK  2 active torsions:
REMARK  status: ('A' for Active; 'I' for Inactive)
REMARK    1  A    between atoms: C6_6  and  C10_10 
REMARK    2  A    between atoms: C10_10  and  O11_11 
ROOT
HETATM    1  C1  UNL     1     -35.044   4.378   4.534  1.00 20.00    -0.024 C 
HETATM    2  C2  UNL     1     -34.574   5.388   3.780  1.00 20.00    -0.081 C 
HETATM    3  C3  UNL     1     -34.989   4.350   6.032  1.00 20.00     0.027 C 
HETATM    4  C4  UNL     1     -34.680   5.716   6.639  1.00 20.00     0.004 C 
HETATM    5  C5  UNL     1     -33.544   6.395   5.886  1.00 20.00     0.012 C 
HETATM    6  C6  UNL     1     -33.892   6.603   4.398  1.00 20.00     0.042 C 
HETATM    7  C7  UNL     1     -34.755   5.372   2.287  1.00 20.00     0.043 C 
ENDROOT
BRANCH   6   8
HETATM    8  C10 UNL     1     -32.621   7.023   3.651  1.00 20.00     0.124 C 
HETATM    9  C8  UNL     1     -31.915   5.827   3.042  1.00 20.00     0.040 C 
BRANCH   8  10
HETATM   10  O11 UNL     1     -32.975   7.942   2.627  1.00 20.00    -0.390 OA
HETATM   11  C9  UNL     1     -31.868   8.239   1.786  1.00 20.00     0.202 C 
ENDBRANCH   8  10
ENDBRANCH   6   8
TORSDOF 2
ENDMDL
MODEL 2
REMARK VINA RESULT:      -5.0     11.189     12.920
REMARK  2 active torsions:
REMARK  status: ('A' for Active; 'I' for Inactive)
REMARK    1  A    between atoms: C6_6  and  C10_10 
REMARK    2  A    between atoms: C10_10  and  O11_11 
ROOT
HETATM    1  C1  UNL     1     -33.728  18.400  -3.122  1.00 20.00    -0.024 C 
HETATM    2  C2  UNL     1     -33.749  17.200  -3.732  1.00 20.00    -0.081 C 
HETATM    3  C3  UNL     1     -33.998  18.605  -1.662  1.00 20.00     0.027 C 
HETATM    4  C4  UNL     1     -33.947  17.307  -0.862  1.00 20.00     0.004 C 
HETATM    5  C5  UNL     1     -34.697  16.198  -1.587  1.00 20.00     0.012 C 
HETATM    6  C6  UNL     1     -34.097  15.922  -2.981  1.00 20.00     0.042 C 
HETATM    7  C7  UNL     1     -33.374  17.079  -5.183  1.00 20.00     0.043 C 
ENDROOT
BRANCH   6   8
HETATM    8  C10 UNL     1     -35.055  15.011  -3.756  1.00 20.00     0.124 C 
HETATM    9  C8  UNL     1     -34.548  13.582  -3.799  1.00 20.00     0.040 C 
BRANCH   8  10
HETATM   10  O11 UNL     1     -36.329  15.047  -3.129  1.00 20.00    -0.390 OA
HETATM   11  C9  UNL     1     -37.365  14.679  -4.029  1.00 20.00     0.202 C 
ENDBRANCH   8  10
ENDBRANCH   6   8
TORSDOF 2
ENDMDL
MODEL 3
REMARK VINA RESULT:      -4.9     11.270     12.455
REMARK  2 active torsions:
REMARK  status: ('A' for Active; 'I' for Inactive)
REMARK    1  A    between atoms: C6_6  and  C10_10 
REMARK    2  A    between atoms: C10_10  and  O11_11 
ROOT
HETATM    1  C1  UNL     1     -35.688  14.076  -4.534  1.00 20.00    -0.024 C 
HETATM    2  C2  UNL     1     -35.769  15.029  -3.588  1.00 20.00    -0.081 C 
HETATM    3  C3  UNL     1     -34.433  13.327  -4.868  1.00 20.00     0.027 C 
HETATM    4  C4  UNL     1     -33.348  13.485  -3.806  1.00 20.00     0.004 C 
HETATM    5  C5  UNL     1     -33.228  14.939  -3.371  1.00 20.00     0.012 C 
HETATM    6  C6  UNL     1     -34.552  15.468  -2.782  1.00 20.00     0.042 C 
HETATM    7  C7  UNL     1     -37.092  15.663  -3.258  1.00 20.00     0.043 C 
ENDROOT
BRANCH   6   8
HETATM    8  C10 UNL     1     -34.449  16.990  -2.631  1.00 20.00     0.124 C 
HETATM    9  C8  UNL     1     -33.774  17.372  -1.328  1.00 20.00     0.040 C 
BRANCH   8  10
HETATM   10  O11 UNL     1     -33.706  17.509  -3.724  1.00 20.00    -0.390 OA
HETATM   11  C9  UNL     1     -33.727  18.930  -3.744  1.00 20.00     0.202 C 
ENDBRANCH   8  10
ENDBRANCH   6   8
TORSDOF 2
ENDMDL
MODEL 4
REMARK VINA RESULT:      -4.8     11.807     12.650
REMARK  2 active torsions:
REMARK  status: ('A' for Active; 'I' for Inactive)
REMARK    1  A    between atoms: C6_6  and  C10_10 
REMARK    2  A    between atoms: C10_10  and  O11_11 
ROOT
HETATM    1  C1  UNL     1     -33.528  15.084  -3.542  1.00 20.00    -0.024 C 
HETATM    2  C2  UNL     1     -34.632  14.409  -3.910  1.00 20.00    -0.081 C 
HETATM    3  C3  UNL     1     -33.530  16.247  -2.596  1.00 20.00     0.027 C 
HETATM    4  C4  UNL     1     -34.835  16.373  -1.815  1.00 20.00     0.004 C 
HETATM    5  C5  UNL     1     -36.034  16.188  -2.735  1.00 20.00     0.012 C 
HETATM    6  C6  UNL     1     -36.018  14.804  -3.417  1.00 20.00     0.042 C 
HETATM    7  C7  UNL     1     -34.523  13.196  -4.793  1.00 20.00     0.043 C 
ENDROOT
BRANCH   6   8
HETATM    8  C10 UNL     1     -37.077  14.792  -4.526  1.00 20.00     0.124 C 
HETATM    9  C8  UNL     1     -38.480  14.842  -3.952  1.00 20.00     0.040 C 
BRANCH   8  10
HETATM   10  O11 UNL     1     -36.866  15.912  -5.372  1.00 20.00    -0.390 OA
HETATM   11  C9  UNL     1     -36.847  15.536  -6.742  1.00 20.00     0.202 C 
ENDBRANCH   8  10
ENDBRANCH   6   8
TORSDOF 2
ENDMDL
MODEL 5
REMARK VINA RESULT:      -4.7     11.616     13.479
REMARK  2 active torsions:
REMARK  status: ('A' for Active; 'I' for Inactive)
REMARK    1  A    between atoms: C6_6  and  C10_10 
REMARK    2  A    between atoms: C10_10  and  O11_11 
ROOT
HETATM    1  C1  UNL     1     -34.467  14.877  -6.541  1.00 20.00    -0.024 C 
HETATM    2  C2  UNL     1     -34.426  14.630  -5.219  1.00 20.00    -0.081 C 
HETATM    3  C3  UNL     1     -34.405  16.249  -7.143  1.00 20.00     0.027 C 
HETATM    4  C4  UNL     1     -33.934  17.309  -6.153  1.00 20.00     0.004 C 
HETATM    5  C5  UNL     1     -34.632  17.140  -4.810  1.00 20.00     0.012 C 
HETATM    6  C6  UNL     1     -34.351  15.754  -4.194  1.00 20.00     0.042 C 
HETATM    7  C7  UNL     1     -34.401  13.216  -4.710  1.00 20.00     0.043 C 
ENDROOT
BRANCH   6   8
HETATM    8  C10 UNL     1     -35.294  15.546  -3.003  1.00 20.00     0.124 C 
HETATM    9  C8  UNL     1     -34.732  16.162  -1.736  1.00 20.00     0.040 C 
BRANCH   8  10
HETATM   10  O11 UNL     1     -36.550  16.137  -3.306  1.00 20.00    -0.390 OA
HETATM   11  C9  UNL     1     -37.540  15.153  -3.574  1.00 20.00     0.202 C 
ENDBRANCH   8  10
ENDBRANCH   6   8
TORSDOF 2
ENDMDL
MODEL 6
REMARK VINA RESULT:      -4.7     11.455     12.350
REMARK  2 active torsions:
REMARK  status: ('A' for Active; 'I' for Inactive)
REMARK    1  A    between atoms: C6_6  and  C10_10 
REMARK    2  A    between atoms: C10_10  and  O11_11 
ROOT
HETATM    1  C1  UNL     1     -35.078  13.994  -3.953  1.00 20.00    -0.024 C 
HETATM    2  C2  UNL     1     -34.172  14.894  -3.528  1.00 20.00    -0.081 C 
HETATM    3  C3  UNL     1     -36.543  14.277  -4.093  1.00 20.00     0.027 C 
HETATM    4  C4  UNL     1     -36.865  15.768  -4.053  1.00 20.00     0.004 C 
HETATM    5  C5  UNL     1     -36.100  16.454  -2.929  1.00 20.00     0.012 C 
HETATM    6  C6  UNL     1     -34.575  16.300  -3.103  1.00 20.00     0.042 C 
HETATM    7  C7  UNL     1     -32.709  14.549  -3.507  1.00 20.00     0.043 C 
ENDROOT
BRANCH   6   8
HETATM    8  C10 UNL     1     -33.886  16.759  -1.813  1.00 20.00     0.124 C 
HETATM    9  C8  UNL     1     -33.661  18.259  -1.808  1.00 20.00     0.040 C 
BRANCH   8  10
HETATM   10  O11 UNL     1     -34.696  16.393  -0.706  1.00 20.00    -0.390 OA
HETATM   11  C9  UNL     1     -34.722  17.414   0.283  1.00 20.00     0.202 C 
ENDBRANCH   8  10
ENDBRANCH   6   8
TORSDOF 2
ENDMDL
MODEL 7
REMARK VINA RESULT:      -4.6     11.335     12.929
REMARK  2 active torsions:
REMARK  status: ('A' for Active; 'I' for Inactive)
REMARK    1  A    between atoms: C6_6  and  C10_10 
REMARK    2  A    between atoms: C10_10  and  O11_11 
ROOT
HETATM    1  C1  UNL     1     -34.971  18.534  -2.989  1.00 20.00    -0.024 C 
HETATM    2  C2  UNL     1     -34.152  17.691  -3.646  1.00 20.00    -0.081 C 
HETATM    3  C3  UNL     1     -35.528  18.271  -1.623  1.00 20.00     0.027 C 
HETATM    4  C4  UNL     1     -34.809  17.138  -0.897  1.00 20.00     0.004 C 
HETATM    5  C5  UNL     1     -34.592  15.954  -1.830  1.00 20.00     0.012 C 
HETATM    6  C6  UNL     1     -33.746  16.346  -3.059  1.00 20.00     0.042 C 
HETATM    7  C7  UNL     1     -33.567  18.081  -4.975  1.00 20.00     0.043 C 
ENDROOT
BRANCH   6   8
HETATM    8  C10 UNL     1     -33.804  15.203  -4.079  1.00 20.00     0.124 C 
HETATM    9  C8  UNL     1     -33.011  13.999  -3.607  1.00 20.00     0.040 C 
BRANCH   8  10
HETATM   10  O11 UNL     1     -35.161  14.834  -4.277  1.00 20.00    -0.390 OA
HETATM   11  C9  UNL     1     -35.311  13.424  -4.376  1.00 20.00     0.202 C 
ENDBRANCH   8  10
ENDBRANCH   6   8
TORSDOF 2
ENDMDL
MODEL 8
REMARK VINA RESULT:      -4.6     11.351     12.940
REMARK  2 active torsions:
REMARK  status: ('A' for Active; 'I' for Inactive)
REMARK    1  A    between atoms: C6_6  and  C10_10 
REMARK    2  A    between atoms: C10_10  and  O11_11 
ROOT
HETATM    1  C1  UNL     1     -34.176  14.122  -3.430  1.00 20.00    -0.024 C 
HETATM    2  C2  UNL     1     -34.908  15.223  -3.179  1.00 20.00    -0.081 C 
HETATM    3  C3  UNL     1     -34.254  13.333  -4.702  1.00 20.00     0.027 C 
HETATM    4  C4  UNL     1     -34.967  14.083  -5.822  1.00 20.00     0.004 C 
HETATM    5  C5  UNL     1     -36.237  14.745  -5.304  1.00 20.00     0.012 C 
HETATM    6  C6  UNL     1     -35.933  15.751  -4.175  1.00 20.00     0.042 C 
HETATM    7  C7  UNL     1     -34.697  16.004  -1.911  1.00 20.00     0.043 C 
ENDROOT
BRANCH   6   8
HETATM    8  C10 UNL     1     -37.255  16.162  -3.516  1.00 20.00     0.124 C 
HETATM    9  C8  UNL     1     -37.994  17.189  -4.352  1.00 20.00     0.040 C 
BRANCH   8  10
HETATM   10  O11 UNL     1     -38.063  15.006  -3.352  1.00 20.00    -0.390 OA
HETATM   11  C9  UNL     1     -39.438  15.344  -3.226  1.00 20.00     0.202 C 
ENDBRANCH   8  10
ENDBRANCH   6   8
TORSDOF 2
ENDMDL
MODEL 9
REMARK VINA RESULT:      -4.6     11.392     13.586
REMARK  2 active torsions:
REMARK  status: ('A' for Active; 'I' for Inactive)
REMARK    1  A    between atoms: C6_6  and  C10_10 
REMARK    2  A    between atoms: C10_10  and  O11_11 
ROOT
HETATM    1  C1  UNL     1     -37.273  15.387  -6.327  1.00 20.00    -0.024 C 
HETATM    2  C2  UNL     1     -36.575  14.934  -5.269  1.00 20.00    -0.081 C 
HETATM    3  C3  UNL     1     -36.758  15.391  -7.735  1.00 20.00     0.027 C 
HETATM    4  C4  UNL     1     -35.524  14.513  -7.916  1.00 20.00     0.004 C 
HETATM    5  C5  UNL     1     -34.531  14.738  -6.784  1.00 20.00     0.012 C 
HETATM    6  C6  UNL     1     -35.152  14.409  -5.410  1.00 20.00     0.042 C 
HETATM    7  C7  UNL     1     -37.207  14.884  -3.906  1.00 20.00     0.043 C 
ENDROOT
BRANCH   6   8
HETATM    8  C10 UNL     1     -34.211  14.919  -4.312  1.00 20.00     0.124 C 
HETATM    9  C8  UNL     1     -33.342  13.803  -3.765  1.00 20.00     0.040 C 
BRANCH   8  10
HETATM   10  O11 UNL     1     -33.390  15.944  -4.853  1.00 20.00    -0.390 OA
HETATM   11  C9  UNL     1     -33.644  17.198  -4.233  1.00 20.00     0.202 C 
ENDBRANCH   8  10
ENDBRANCH   6   8
TORSDOF 2
ENDMDL
