MODEL 1
REMARK VINA RESULT:      -5.2      0.000      0.000
REMARK  0 active torsions:
REMARK  status: ('A' for Active; 'I' for Inactive)
ROOT
HETATM    1  C1  UNL     1     -33.788  16.649  -2.921  1.00 20.00    -0.021 C 
HETATM    2  C2  UNL     1     -33.644  17.590  -5.536  1.00 20.00    -0.021 C 
HETATM    3  C3  UNL     1     -34.455  15.508  -2.614  1.00 20.00    -0.018 C 
HETATM    4  C4  UNL     1     -34.096  16.848  -6.594  1.00 20.00    -0.024 C 
HETATM    5  C5  UNL     1     -35.058  13.720  -4.769  1.00 20.00     0.135 C 
HETATM    6  C6  UNL     1     -35.237  14.240  -6.229  1.00 20.00     0.087 C 
HETATM    7  C7  UNL     1     -33.500  16.660  -4.368  1.00 20.00     0.036 C 
HETATM    8  C8  UNL     1     -35.158  14.884  -3.780  1.00 20.00     0.083 C 
HETATM    9  C9  UNL     1     -34.301  15.423  -6.125  1.00 20.00     0.021 C 
HETATM   10  C10 UNL     1     -34.754  15.927  -4.774  1.00 20.00     0.020 C 
HETATM   11  O11 UNL     1     -34.937  12.546  -4.454  1.00 20.00    -0.297 OA
ENDROOT
TORSDOF 0
ENDMDL
MODEL 2
REMARK VINA RESULT:      -5.1     12.061     13.671
REMARK  0 active torsions:
REMARK  status: ('A' for Active; 'I' for Inactive)
ROOT
HETATM    1  C1  UNL     1     -33.815   6.767   6.771  1.00 20.00    -0.021 C 
HETATM    2  C2  UNL     1     -35.217   4.498   5.981  1.00 20.00    -0.021 C 
HETATM    3  C3  UNL     1     -32.941   7.387   5.939  1.00 20.00    -0.018 C 
HETATM    4  C4  UNL     1     -35.187   4.047   4.688  1.00 20.00    -0.024 C 
HETATM    5  C5  UNL     1     -33.127   6.771   3.148  1.00 20.00     0.135 C 
HETATM    6  C6  UNL     1     -33.678   5.398   2.654  1.00 20.00     0.087 C 
HETATM    7  C7  UNL     1     -34.711   5.909   5.973  1.00 20.00     0.036 C 
HETATM    8  C8  UNL     1     -32.751   6.685   4.628  1.00 20.00     0.083 C 
HETATM    9  C9  UNL     1     -34.616   5.142   3.813  1.00 20.00     0.021 C 
HETATM   10  C10 UNL     1     -33.682   5.553   4.929  1.00 20.00     0.020 C 
HETATM   11  O11 UNL     1     -32.945   7.748   2.437  1.00 20.00    -0.297 OA
ENDROOT
TORSDOF 0
ENDMDL
MODEL 3
REMARK VINA RESULT:      -5.0     11.647     13.164
REMARK  0 active torsions:
REMARK  status: ('A' for Active; 'I' for Inactive)
ROOT
HETATM    1  C1  UNL     1     -42.163   3.396  -2.512  1.00 20.00    -0.021 C 
HETATM    2  C2  UNL     1     -40.715   4.765  -0.570  1.00 20.00    -0.021 C 
HETATM    3  C3  UNL     1     -43.100   4.019  -3.269  1.00 20.00    -0.018 C 
HETATM    4  C4  UNL     1     -40.791   6.126  -0.442  1.00 20.00    -0.024 C 
HETATM    5  C5  UNL     1     -43.028   6.882  -3.351  1.00 20.00     0.135 C 
HETATM    6  C6  UNL     1     -42.449   7.714  -2.165  1.00 20.00     0.087 C 
HETATM    7  C7  UNL     1     -41.276   4.412  -1.915  1.00 20.00     0.036 C 
HETATM    8  C8  UNL     1     -43.327   5.452  -2.894  1.00 20.00     0.083 C 
HETATM    9  C9  UNL     1     -41.446   6.687  -1.686  1.00 20.00     0.021 C 
HETATM   10  C10 UNL     1     -42.340   5.471  -1.770  1.00 20.00     0.020 C 
HETATM   11  O11 UNL     1     -43.282   7.327  -4.460  1.00 20.00    -0.297 OA
ENDROOT
TORSDOF 0
ENDMDL
MODEL 4
REMARK VINA RESULT:      -5.0      1.817      3.059
REMARK  0 active torsions:
REMARK  status: ('A' for Active; 'I' for Inactive)
ROOT
HETATM    1  C1  UNL     1     -34.918  13.257  -4.613  1.00 20.00    -0.021 C 
HETATM    2  C2  UNL     1     -35.137  14.453  -7.115  1.00 20.00    -0.021 C 
HETATM    3  C3  UNL     1     -34.213  13.836  -3.609  1.00 20.00    -0.018 C 
HETATM    4  C4  UNL     1     -34.684  15.724  -7.348  1.00 20.00    -0.024 C 
HETATM    5  C5  UNL     1     -33.598  16.621  -3.876  1.00 20.00     0.135 C 
HETATM    6  C6  UNL     1     -33.461  17.292  -5.277  1.00 20.00     0.087 C 
HETATM    7  C7  UNL     1     -35.233  14.279  -5.629  1.00 20.00     0.036 C 
HETATM    8  C8  UNL     1     -33.513  15.099  -4.010  1.00 20.00     0.083 C 
HETATM    9  C9  UNL     1     -34.429  16.392  -6.013  1.00 20.00     0.021 C 
HETATM   10  C10 UNL     1     -33.966  15.074  -5.437  1.00 20.00     0.020 C 
HETATM   11  O11 UNL     1     -33.679  17.224  -2.817  1.00 20.00    -0.297 OA
ENDROOT
TORSDOF 0
ENDMDL
MODEL 5
REMARK VINA RESULT:      -4.9      1.167      2.074
REMARK  0 active torsions:
REMARK  status: ('A' for Active; 'I' for Inactive)
ROOT
HETATM    1  C1  UNL     1     -33.550  17.144  -5.427  1.00 20.00    -0.021 C 
HETATM    2  C2  UNL     1     -35.270  15.987  -7.283  1.00 20.00    -0.021 C 
HETATM    3  C3  UNL     1     -33.248  16.525  -4.258  1.00 20.00    -0.018 C 
HETATM    4  C4  UNL     1     -35.722  14.702  -7.143  1.00 20.00    -0.024 C 
HETATM    5  C5  UNL     1     -33.806  13.721  -4.076  1.00 20.00     0.135 C 
HETATM    6  C6  UNL     1     -34.940  13.062  -4.920  1.00 20.00     0.087 C 
HETATM    7  C7  UNL     1     -34.091  16.147  -6.371  1.00 20.00     0.036 C 
HETATM    8  C8  UNL     1     -33.988  15.240  -4.043  1.00 20.00     0.083 C 
HETATM    9  C9  UNL     1     -34.873  14.009  -6.099  1.00 20.00     0.021 C 
HETATM   10  C10 UNL     1     -34.765  15.300  -5.321  1.00 20.00     0.020 C 
HETATM   11  O11 UNL     1     -32.944  13.109  -3.463  1.00 20.00    -0.297 OA
ENDROOT
TORSDOF 0
ENDMDL
MODEL 6
REMARK VINA RESULT:      -4.9      1.065      2.675
REMARK  0 active torsions:
REMARK  status: ('A' for Active; 'I' for Inactive)
ROOT
HETATM    1  C1  UNL     1     -35.640  15.857  -7.441  1.00 20.00    -0.021 C 
HETATM    2  C2  UNL     1     -34.010  17.489  -5.885  1.00 20.00    -0.021 C 
HETATM    3  C3  UNL     1     -35.689  14.515  -7.250  1.00 20.00    -0.018 C 
HETATM    4  C4  UNL     1     -33.348  17.008  -4.787  1.00 20.00    -0.024 C 
HETATM    5  C5  UNL     1     -34.678  13.506  -4.767  1.00 20.00     0.135 C 
HETATM    6  C6  UNL     1     -33.571  14.265  -3.972  1.00 20.00     0.087 C 
HETATM    7  C7  UNL     1     -35.074  16.492  -6.236  1.00 20.00     0.036 C 
HETATM    8  C8  UNL     1     -34.734  14.015  -6.209  1.00 20.00     0.083 C 
HETATM    9  C9  UNL     1     -33.937  15.661  -4.426  1.00 20.00     0.021 C 
HETATM   10  C10 UNL     1     -34.146  15.354  -5.891  1.00 20.00     0.020 C 
HETATM   11  O11 UNL     1     -35.347  12.583  -4.327  1.00 20.00    -0.297 OA
ENDROOT
TORSDOF 0
ENDMDL
MODEL 7
REMARK VINA RESULT:      -4.9      1.904      3.055
REMARK  0 active torsions:
REMARK  status: ('A' for Active; 'I' for Inactive)
ROOT
HETATM    1  C1  UNL     1     -33.896  16.238  -2.821  1.00 20.00    -0.021 C 
HETATM    2  C2  UNL     1     -34.363  13.601  -3.576  1.00 20.00    -0.021 C 
HETATM    3  C3  UNL     1     -33.632  17.203  -3.738  1.00 20.00    -0.018 C 
HETATM    4  C4  UNL     1     -34.502  13.243  -4.890  1.00 20.00    -0.024 C 
HETATM    5  C5  UNL     1     -34.300  16.635  -6.466  1.00 20.00     0.135 C 
HETATM    6  C6  UNL     1     -34.331  15.173  -7.007  1.00 20.00     0.087 C 
HETATM    7  C7  UNL     1     -34.525  15.090  -3.500  1.00 20.00     0.036 C 
HETATM    8  C8  UNL     1     -33.532  16.691  -5.143  1.00 20.00     0.083 C 
HETATM    9  C9  UNL     1     -34.713  14.499  -5.708  1.00 20.00     0.021 C 
HETATM   10  C10 UNL     1     -33.774  15.255  -4.797  1.00 20.00     0.020 C 
HETATM   11  O11 UNL     1     -34.751  17.608  -7.051  1.00 20.00    -0.297 OA
ENDROOT
TORSDOF 0
ENDMDL
MODEL 8
REMARK VINA RESULT:      -4.8      1.278      2.960
REMARK  0 active torsions:
REMARK  status: ('A' for Active; 'I' for Inactive)
ROOT
HETATM    1  C1  UNL     1     -33.710  18.348  -4.484  1.00 20.00    -0.021 C 
HETATM    2  C2  UNL     1     -34.281  17.621  -1.860  1.00 20.00    -0.021 C 
HETATM    3  C3  UNL     1     -33.446  17.419  -5.436  1.00 20.00    -0.018 C 
HETATM    4  C4  UNL     1     -34.472  16.313  -1.501  1.00 20.00    -0.024 C 
HETATM    5  C5  UNL     1     -34.216  14.716  -4.880  1.00 20.00     0.135 C 
HETATM    6  C6  UNL     1     -34.308  14.183  -3.417  1.00 20.00     0.087 C 
HETATM    7  C7  UNL     1     -34.395  17.694  -3.353  1.00 20.00     0.036 C 
HETATM    8  C8  UNL     1     -33.405  16.014  -4.917  1.00 20.00     0.083 C 
HETATM    9  C9  UNL     1     -34.670  15.496  -2.760  1.00 20.00     0.021 C 
HETATM   10  C10 UNL     1     -33.680  16.373  -3.491  1.00 20.00     0.020 C 
HETATM   11  O11 UNL     1     -34.656  14.141  -5.864  1.00 20.00    -0.297 OA
ENDROOT
TORSDOF 0
ENDMDL
MODEL 9
REMARK VINA RESULT:      -4.8     12.460     13.935
REMARK  0 active torsions:
REMARK  status: ('A' for Active; 'I' for Inactive)
ROOT
HETATM    1  C1  UNL     1     -35.459   4.238   4.890  1.00 20.00    -0.021 C 
HETATM    2  C2  UNL     1     -33.999   5.180   2.717  1.00 20.00    -0.021 C 
HETATM    3  C3  UNL     1     -35.193   4.648   6.156  1.00 20.00    -0.018 C 
HETATM    4  C4  UNL     1     -33.091   6.197   2.847  1.00 20.00    -0.024 C 
HETATM    5  C5  UNL     1     -33.627   7.027   6.461  1.00 20.00     0.135 C 
HETATM    6  C6  UNL     1     -32.600   7.468   5.373  1.00 20.00     0.087 C 
HETATM    7  C7  UNL     1     -34.866   5.198   3.940  1.00 20.00     0.036 C 
HETATM    8  C8  UNL     1     -34.007   5.558   6.260  1.00 20.00     0.083 C 
HETATM    9  C9  UNL     1     -33.318   6.873   4.182  1.00 20.00     0.021 C 
HETATM   10  C10 UNL     1     -33.676   5.541   4.801  1.00 20.00     0.020 C 
HETATM   11  O11 UNL     1     -34.010   7.726   7.386  1.00 20.00    -0.297 OA
ENDROOT
TORSDOF 0
ENDMDL
