MODEL 1
REMARK VINA RESULT:      -4.9      0.000      0.000
REMARK  1 active torsions:
REMARK  status: ('A' for Active; 'I' for Inactive)
REMARK    1  A    between atoms: C3_3  and  C8_8 
ROOT
HETATM    1  C1  UNL     1     -33.836  15.364  -4.030  1.00 20.00     0.147 C 
HETATM    2  C4  UNL     1     -36.165  16.847  -4.900  1.00 20.00     0.007 C 
HETATM    3  C5  UNL     1     -35.113  17.444  -3.944  1.00 20.00     0.022 C 
HETATM    4  C6  UNL     1     -35.951  15.382  -3.071  1.00 20.00     0.027 C 
HETATM    5  C7  UNL     1     -36.097  15.331  -4.600  1.00 20.00     0.002 C 
HETATM    6  C8  UNL     1     -34.683  16.234  -3.111  1.00 20.00     0.038 C 
HETATM    7  C9  UNL     1     -34.744  14.694  -5.062  1.00 20.00     0.018 C 
HETATM    8  C10 UNL     1     -34.728  13.175  -4.883  1.00 20.00     0.023 C 
HETATM    9  C11 UNL     1     -34.331  15.058  -6.486  1.00 20.00     0.023 C 
HETATM   10  O12 UNL     1     -32.621  15.242  -3.983  1.00 20.00    -0.296 OA
ENDROOT
BRANCH   6  11
HETATM   11  C3  UNL     1     -34.040  16.518  -1.809  1.00 20.00    -0.020 C 
HETATM   12  C2  UNL     1     -34.713  16.790  -0.686  1.00 20.00     0.008 C 
ENDBRANCH   6  11
TORSDOF 1
ENDMDL
MODEL 2
REMARK VINA RESULT:      -4.8      1.353      3.614
REMARK  1 active torsions:
REMARK  status: ('A' for Active; 'I' for Inactive)
REMARK    1  A    between atoms: C3_3  and  C8_8 
ROOT
HETATM    1  C1  UNL     1     -33.826  16.062  -4.840  1.00 20.00     0.147 C 
HETATM    2  C4  UNL     1     -34.857  13.359  -4.940  1.00 20.00     0.007 C 
HETATM    3  C5  UNL     1     -34.752  14.253  -6.193  1.00 20.00     0.022 C 
HETATM    4  C6  UNL     1     -36.011  15.358  -4.488  1.00 20.00     0.027 C 
HETATM    5  C7  UNL     1     -35.053  14.378  -3.793  1.00 20.00     0.002 C 
HETATM    6  C8  UNL     1     -35.053  15.648  -5.641  1.00 20.00     0.038 C 
HETATM    7  C9  UNL     1     -33.776  15.248  -3.547  1.00 20.00     0.018 C 
HETATM    8  C10 UNL     1     -33.925  16.165  -2.331  1.00 20.00     0.023 C 
HETATM    9  C11 UNL     1     -32.480  14.448  -3.443  1.00 20.00     0.023 C 
HETATM   10  O12 UNL     1     -32.990  16.885  -5.182  1.00 20.00    -0.296 OA
ENDROOT
BRANCH   6  11
HETATM   11  C3  UNL     1     -35.490  16.668  -6.620  1.00 20.00    -0.020 C 
HETATM   12  C2  UNL     1     -35.164  16.648  -7.918  1.00 20.00     0.008 C 
ENDBRANCH   6  11
TORSDOF 1
ENDMDL
MODEL 3
REMARK VINA RESULT:      -4.7      1.461      2.095
REMARK  1 active torsions:
REMARK  status: ('A' for Active; 'I' for Inactive)
REMARK    1  A    between atoms: C3_3  and  C8_8 
ROOT
HETATM    1  C1  UNL     1     -35.329  14.849  -4.283  1.00 20.00     0.147 C 
HETATM    2  C4  UNL     1     -33.361  16.685  -5.348  1.00 20.00     0.007 C 
HETATM    3  C5  UNL     1     -33.194  15.995  -3.980  1.00 20.00     0.022 C 
HETATM    4  C6  UNL     1     -35.279  17.161  -4.072  1.00 20.00     0.027 C 
HETATM    5  C7  UNL     1     -34.896  16.783  -5.511  1.00 20.00     0.002 C 
HETATM    6  C8  UNL     1     -34.631  15.921  -3.457  1.00 20.00     0.038 C 
HETATM    7  C9  UNL     1     -35.565  15.380  -5.697  1.00 20.00     0.018 C 
HETATM    8  C10 UNL     1     -37.063  15.486  -5.986  1.00 20.00     0.023 C 
HETATM    9  C11 UNL     1     -34.891  14.496  -6.743  1.00 20.00     0.023 C 
HETATM   10  O12 UNL     1     -35.625  13.727  -3.898  1.00 20.00    -0.296 OA
ENDROOT
BRANCH   6  11
HETATM   11  C3  UNL     1     -34.799  15.745  -1.998  1.00 20.00    -0.020 C 
HETATM   12  C2  UNL     1     -34.473  16.673  -1.090  1.00 20.00     0.008 C 
ENDBRANCH   6  11
TORSDOF 1
ENDMDL
MODEL 4
REMARK VINA RESULT:      -4.7      1.352      1.973
REMARK  1 active torsions:
REMARK  status: ('A' for Active; 'I' for Inactive)
REMARK    1  A    between atoms: C3_3  and  C8_8 
ROOT
HETATM    1  C1  UNL     1     -34.838  16.407  -4.657  1.00 20.00     0.147 C 
HETATM    2  C4  UNL     1     -36.913  14.481  -4.055  1.00 20.00     0.007 C 
HETATM    3  C5  UNL     1     -36.428  15.524  -3.028  1.00 20.00     0.022 C 
HETATM    4  C6  UNL     1     -34.582  14.246  -3.847  1.00 20.00     0.027 C 
HETATM    5  C7  UNL     1     -35.665  14.244  -4.937  1.00 20.00     0.002 C 
HETATM    6  C8  UNL     1     -34.935  15.643  -3.343  1.00 20.00     0.038 C 
HETATM    7  C9  UNL     1     -35.300  15.500  -5.797  1.00 20.00     0.018 C 
HETATM    8  C10 UNL     1     -34.146  15.225  -6.764  1.00 20.00     0.023 C 
HETATM    9  C11 UNL     1     -36.479  16.111  -6.551  1.00 20.00     0.023 C 
HETATM   10  O12 UNL     1     -34.484  17.569  -4.786  1.00 20.00    -0.296 OA
ENDROOT
BRANCH   6  11
HETATM   11  C3  UNL     1     -34.074  16.195  -2.274  1.00 20.00    -0.020 C 
HETATM   12  C2  UNL     1     -34.525  16.590  -1.078  1.00 20.00     0.008 C 
ENDBRANCH   6  11
TORSDOF 1
ENDMDL
MODEL 5
REMARK VINA RESULT:      -4.6      1.700      2.731
REMARK  1 active torsions:
REMARK  status: ('A' for Active; 'I' for Inactive)
REMARK    1  A    between atoms: C3_3  and  C8_8 
ROOT
HETATM    1  C1  UNL     1     -35.165  16.913  -3.997  1.00 20.00     0.147 C 
HETATM    2  C4  UNL     1     -34.447  14.230  -4.813  1.00 20.00     0.007 C 
HETATM    3  C5  UNL     1     -35.217  14.521  -3.509  1.00 20.00     0.022 C 
HETATM    4  C6  UNL     1     -33.185  15.778  -3.570  1.00 20.00     0.027 C 
HETATM    5  C7  UNL     1     -33.608  15.512  -5.023  1.00 20.00     0.002 C 
HETATM    6  C8  UNL     1     -34.619  15.853  -3.050  1.00 20.00     0.038 C 
HETATM    7  C9  UNL     1     -34.498  16.755  -5.363  1.00 20.00     0.018 C 
HETATM    8  C10 UNL     1     -33.662  17.992  -5.698  1.00 20.00     0.023 C 
HETATM    9  C11 UNL     1     -35.530  16.508  -6.462  1.00 20.00     0.023 C 
HETATM   10  O12 UNL     1     -36.026  17.739  -3.730  1.00 20.00    -0.296 OA
ENDROOT
BRANCH   6  11
HETATM   11  C3  UNL     1     -34.784  16.197  -1.621  1.00 20.00    -0.020 C 
HETATM   12  C2  UNL     1     -34.035  17.100  -0.977  1.00 20.00     0.008 C 
ENDBRANCH   6  11
TORSDOF 1
ENDMDL
MODEL 6
REMARK VINA RESULT:      -4.6      1.672      3.874
REMARK  1 active torsions:
REMARK  status: ('A' for Active; 'I' for Inactive)
REMARK    1  A    between atoms: C3_3  and  C8_8 
ROOT
HETATM    1  C1  UNL     1     -35.461  16.152  -4.909  1.00 20.00     0.147 C 
HETATM    2  C4  UNL     1     -33.167  15.129  -3.470  1.00 20.00     0.007 C 
HETATM    3  C5  UNL     1     -33.035  15.901  -4.798  1.00 20.00     0.022 C 
HETATM    4  C6  UNL     1     -34.510  14.039  -5.065  1.00 20.00     0.027 C 
HETATM    5  C7  UNL     1     -34.555  14.458  -3.587  1.00 20.00     0.002 C 
HETATM    6  C8  UNL     1     -34.278  15.461  -5.574  1.00 20.00     0.038 C 
HETATM    7  C9  UNL     1     -35.724  15.499  -3.552  1.00 20.00     0.018 C 
HETATM    8  C10 UNL     1     -37.098  14.828  -3.538  1.00 20.00     0.023 C 
HETATM    9  C11 UNL     1     -35.626  16.516  -2.417  1.00 20.00     0.023 C 
HETATM   10  O12 UNL     1     -36.085  17.100  -5.362  1.00 20.00    -0.296 OA
ENDROOT
BRANCH   6  11
HETATM   11  C3  UNL     1     -34.241  15.636  -7.043  1.00 20.00    -0.020 C 
HETATM   12  C2  UNL     1     -34.920  14.871  -7.905  1.00 20.00     0.008 C 
ENDBRANCH   6  11
TORSDOF 1
ENDMDL
MODEL 7
REMARK VINA RESULT:      -4.5      0.904      3.648
REMARK  1 active torsions:
REMARK  status: ('A' for Active; 'I' for Inactive)
REMARK    1  A    between atoms: C3_3  and  C8_8 
ROOT
HETATM    1  C1  UNL     1     -34.007  15.575  -3.876  1.00 20.00     0.147 C 
HETATM    2  C4  UNL     1     -36.843  15.437  -3.316  1.00 20.00     0.007 C 
HETATM    3  C5  UNL     1     -36.101  14.342  -4.108  1.00 20.00     0.022 C 
HETATM    4  C6  UNL     1     -35.748  16.479  -5.118  1.00 20.00     0.027 C 
HETATM    5  C7  UNL     1     -36.027  16.713  -3.625  1.00 20.00     0.002 C 
HETATM    6  C8  UNL     1     -35.054  15.138  -4.891  1.00 20.00     0.038 C 
HETATM    7  C9  UNL     1     -34.597  16.672  -2.989  1.00 20.00     0.018 C 
HETATM    8  C10 UNL     1     -33.837  17.986  -3.186  1.00 20.00     0.023 C 
HETATM    9  C11 UNL     1     -34.574  16.270  -1.517  1.00 20.00     0.023 C 
HETATM   10  O12 UNL     1     -32.884  15.107  -3.756  1.00 20.00    -0.296 OA
ENDROOT
BRANCH   6  11
HETATM   11  C3  UNL     1     -34.480  14.483  -6.087  1.00 20.00    -0.020 C 
HETATM   12  C2  UNL     1     -34.517  15.007  -7.317  1.00 20.00     0.008 C 
ENDBRANCH   6  11
TORSDOF 1
ENDMDL
MODEL 8
REMARK VINA RESULT:      -4.5      1.298      3.127
REMARK  1 active torsions:
REMARK  status: ('A' for Active; 'I' for Inactive)
REMARK    1  A    between atoms: C3_3  and  C8_8 
ROOT
HETATM    1  C1  UNL     1     -33.795  16.419  -4.217  1.00 20.00     0.147 C 
HETATM    2  C4  UNL     1     -35.350  17.283  -1.934  1.00 20.00     0.007 C 
HETATM    3  C5  UNL     1     -34.454  16.028  -1.899  1.00 20.00     0.022 C 
HETATM    4  C6  UNL     1     -36.000  15.893  -3.717  1.00 20.00     0.027 C 
HETATM    5  C7  UNL     1     -35.764  17.382  -3.421  1.00 20.00     0.002 C 
HETATM    6  C8  UNL     1     -34.586  15.476  -3.321  1.00 20.00     0.038 C 
HETATM    7  C9  UNL     1     -34.556  17.738  -4.351  1.00 20.00     0.018 C 
HETATM    8  C10 UNL     1     -34.988  17.962  -5.802  1.00 20.00     0.023 C 
HETATM    9  C11 UNL     1     -33.715  18.917  -3.867  1.00 20.00     0.023 C 
HETATM   10  O12 UNL     1     -32.708  16.183  -4.725  1.00 20.00    -0.296 OA
ENDROOT
BRANCH   6  11
HETATM   11  C3  UNL     1     -34.241  14.050  -3.513  1.00 20.00    -0.020 C 
HETATM   12  C2  UNL     1     -34.773  13.274  -4.464  1.00 20.00     0.008 C 
ENDBRANCH   6  11
TORSDOF 1
ENDMDL
MODEL 9
REMARK VINA RESULT:      -4.5      1.718      2.884
REMARK  1 active torsions:
REMARK  status: ('A' for Active; 'I' for Inactive)
REMARK    1  A    between atoms: C3_3  and  C8_8 
ROOT
HETATM    1  C1  UNL     1     -35.061  15.824  -5.095  1.00 20.00     0.147 C 
HETATM    2  C4  UNL     1     -34.885  16.099  -2.219  1.00 20.00     0.007 C 
HETATM    3  C5  UNL     1     -34.762  17.302  -3.175  1.00 20.00     0.022 C 
HETATM    4  C6  UNL     1     -33.174  15.614  -3.758  1.00 20.00     0.027 C 
HETATM    5  C7  UNL     1     -34.355  14.918  -3.065  1.00 20.00     0.002 C 
HETATM    6  C8  UNL     1     -34.041  16.704  -4.385  1.00 20.00     0.038 C 
HETATM    7  C9  UNL     1     -35.307  14.568  -4.258  1.00 20.00     0.018 C 
HETATM    8  C10 UNL     1     -34.850  13.321  -5.017  1.00 20.00     0.023 C 
HETATM    9  C11 UNL     1     -36.778  14.437  -3.871  1.00 20.00     0.023 C 
HETATM   10  O12 UNL     1     -35.626  16.085  -6.147  1.00 20.00    -0.296 OA
ENDROOT
BRANCH   6  11
HETATM   11  C3  UNL     1     -33.354  17.656  -5.286  1.00 20.00    -0.020 C 
HETATM   12  C2  UNL     1     -33.727  18.929  -5.454  1.00 20.00     0.008 C 
ENDBRANCH   6  11
TORSDOF 1
ENDMDL
