MODEL 1
REMARK VINA RESULT:      -5.1      0.000      0.000
REMARK  1 active torsions:
REMARK  status: ('A' for Active; 'I' for Inactive)
REMARK    1  A    between atoms: C10_10  and  O11_11 
ROOT
HETATM    1  C1  UNL     1     -34.233  17.420  -3.341  1.00 20.00    -0.021 C 
HETATM    2  C2  UNL     1     -36.238  16.441  -4.705  1.00 20.00    -0.021 C 
HETATM    3  C3  UNL     1     -33.609  16.419  -2.682  1.00 20.00    -0.025 C 
HETATM    4  C4  UNL     1     -36.286  15.165  -5.144  1.00 20.00    -0.022 C 
HETATM    5  C5  UNL     1     -33.392  13.795  -3.620  1.00 20.00     0.041 C 
HETATM    6  C6  UNL     1     -34.832  16.971  -4.660  1.00 20.00     0.035 C 
HETATM    7  C7  UNL     1     -33.991  15.150  -3.339  1.00 20.00     0.016 C 
HETATM    8  C8  UNL     1     -34.917  14.597  -5.459  1.00 20.00     0.042 C 
HETATM    9  C9  UNL     1     -34.087  15.667  -4.790  1.00 20.00     0.015 C 
HETATM   10  C10 UNL     1     -34.356  13.316  -4.761  1.00 20.00     0.127 C 
ENDROOT
BRANCH  10  11
HETATM   11  O11 UNL     1     -35.404  12.529  -4.216  1.00 20.00    -0.395 OA
HETATM   12  H23 UNL     1     -36.161  12.612  -4.818  1.00 20.00     0.210 HD
ENDBRANCH  10  11
TORSDOF 1
ENDMDL
MODEL 2
REMARK VINA RESULT:      -5.0      1.598      2.855
REMARK  1 active torsions:
REMARK  status: ('A' for Active; 'I' for Inactive)
REMARK    1  A    between atoms: C10_10  and  O11_11 
ROOT
HETATM    1  C1  UNL     1     -32.651  14.684  -3.482  1.00 20.00    -0.021 C 
HETATM    2  C2  UNL     1     -34.023  16.404  -2.067  1.00 20.00    -0.021 C 
HETATM    3  C3  UNL     1     -33.466  13.684  -3.884  1.00 20.00    -0.025 C 
HETATM    4  C4  UNL     1     -35.354  16.585  -2.205  1.00 20.00    -0.022 C 
HETATM    5  C5  UNL     1     -36.180  13.991  -4.477  1.00 20.00     0.041 C 
HETATM    6  C6  UNL     1     -33.368  16.015  -3.363  1.00 20.00     0.035 C 
HETATM    7  C7  UNL     1     -34.856  14.176  -3.779  1.00 20.00     0.016 C 
HETATM    8  C8  UNL     1     -35.840  16.336  -3.618  1.00 20.00     0.042 C 
HETATM    9  C9  UNL     1     -34.603  15.653  -4.150  1.00 20.00     0.015 C 
HETATM   10  C10 UNL     1     -36.929  15.268  -3.957  1.00 20.00     0.127 C 
ENDROOT
BRANCH  10  11
HETATM   11  O11 UNL     1     -37.704  14.945  -2.813  1.00 20.00    -0.395 OA
HETATM   12  H23 UNL     1     -37.119  15.032  -2.043  1.00 20.00     0.210 HD
ENDBRANCH  10  11
TORSDOF 1
ENDMDL
MODEL 3
REMARK VINA RESULT:      -4.9      1.501      2.861
REMARK  1 active torsions:
REMARK  status: ('A' for Active; 'I' for Inactive)
REMARK    1  A    between atoms: C10_10  and  O11_11 
ROOT
HETATM    1  C1  UNL     1     -34.803  16.287  -7.276  1.00 20.00    -0.021 C 
HETATM    2  C2  UNL     1     -33.341  16.893  -5.195  1.00 20.00    -0.021 C 
HETATM    3  C3  UNL     1     -34.898  14.943  -7.381  1.00 20.00    -0.025 C 
HETATM    4  C4  UNL     1     -33.208  16.087  -4.120  1.00 20.00    -0.022 C 
HETATM    5  C5  UNL     1     -34.924  13.181  -5.212  1.00 20.00     0.041 C 
HETATM    6  C6  UNL     1     -34.692  16.758  -5.839  1.00 20.00     0.035 C 
HETATM    7  C7  UNL     1     -34.554  14.371  -6.062  1.00 20.00     0.016 C 
HETATM    8  C8  UNL     1     -34.443  15.249  -3.854  1.00 20.00     0.042 C 
HETATM    9  C9  UNL     1     -35.144  15.484  -5.171  1.00 20.00     0.015 C 
HETATM   10  C10 UNL     1     -34.409  13.688  -3.819  1.00 20.00     0.127 C 
ENDROOT
BRANCH  10  11
HETATM   11  O11 UNL     1     -33.095  13.209  -3.581  1.00 20.00    -0.395 OA
HETATM   12  H23 UNL     1     -32.484  13.889  -3.908  1.00 20.00     0.210 HD
ENDBRANCH  10  11
TORSDOF 1
ENDMDL
MODEL 4
REMARK VINA RESULT:      -4.9      1.146      2.223
REMARK  1 active torsions:
REMARK  status: ('A' for Active; 'I' for Inactive)
REMARK    1  A    between atoms: C10_10  and  O11_11 
ROOT
HETATM    1  C1  UNL     1     -33.539  17.549  -4.945  1.00 20.00    -0.021 C 
HETATM    2  C2  UNL     1     -33.991  16.456  -2.613  1.00 20.00    -0.021 C 
HETATM    3  C3  UNL     1     -33.516  16.587  -5.894  1.00 20.00    -0.025 C 
HETATM    4  C4  UNL     1     -34.651  15.289  -2.454  1.00 20.00    -0.022 C 
HETATM    5  C5  UNL     1     -35.054  14.254  -5.822  1.00 20.00     0.041 C 
HETATM    6  C6  UNL     1     -34.485  17.228  -3.804  1.00 20.00     0.035 C 
HETATM    7  C7  UNL     1     -34.204  15.401  -5.338  1.00 20.00     0.016 C 
HETATM    8  C8  UNL     1     -35.701  15.055  -3.522  1.00 20.00     0.042 C 
HETATM    9  C9  UNL     1     -35.264  16.132  -4.487  1.00 20.00     0.015 C 
HETATM   10  C10 UNL     1     -35.685  13.804  -4.457  1.00 20.00     0.127 C 
ENDROOT
BRANCH  10  11
HETATM   11  O11 UNL     1     -34.922  12.750  -3.891  1.00 20.00    -0.395 OA
HETATM   12  H23 UNL     1     -33.987  12.976  -4.026  1.00 20.00     0.210 HD
ENDBRANCH  10  11
TORSDOF 1
ENDMDL
MODEL 5
REMARK VINA RESULT:      -4.7     11.031     12.308
REMARK  1 active torsions:
REMARK  status: ('A' for Active; 'I' for Inactive)
REMARK    1  A    between atoms: C10_10  and  O11_11 
ROOT
HETATM    1  C1  UNL     1     -43.080   7.914  -2.592  1.00 20.00    -0.021 C 
HETATM    2  C2  UNL     1     -41.191   7.695  -0.798  1.00 20.00    -0.021 C 
HETATM    3  C3  UNL     1     -43.065   6.826  -3.394  1.00 20.00    -0.025 C 
HETATM    4  C4  UNL     1     -40.702   6.509  -0.375  1.00 20.00    -0.022 C 
HETATM    5  C5  UNL     1     -42.346   4.256  -2.564  1.00 20.00     0.041 C 
HETATM    6  C6  UNL     1     -42.644   7.606  -1.173  1.00 20.00     0.035 C 
HETATM    7  C7  UNL     1     -42.333   5.759  -2.678  1.00 20.00     0.016 C 
HETATM    8  C8  UNL     1     -41.734   5.400  -0.404  1.00 20.00     0.042 C 
HETATM    9  C9  UNL     1     -42.776   6.105  -1.241  1.00 20.00     0.015 C 
HETATM   10  C10 UNL     1     -41.538   4.089  -1.230  1.00 20.00     0.127 C 
ENDROOT
BRANCH  10  11
HETATM   11  O11 UNL     1     -40.166   3.865  -1.516  1.00 20.00    -0.395 OA
HETATM   12  H23 UNL     1     -40.129   3.395  -2.365  1.00 20.00     0.210 HD
ENDBRANCH  10  11
TORSDOF 1
ENDMDL
MODEL 6
REMARK VINA RESULT:      -4.7      2.111      3.362
REMARK  1 active torsions:
REMARK  status: ('A' for Active; 'I' for Inactive)
REMARK    1  A    between atoms: C10_10  and  O11_11 
ROOT
HETATM    1  C1  UNL     1     -34.423  13.220  -4.788  1.00 20.00    -0.021 C 
HETATM    2  C2  UNL     1     -34.516  14.772  -6.891  1.00 20.00    -0.021 C 
HETATM    3  C3  UNL     1     -33.722  13.834  -3.809  1.00 20.00    -0.025 C 
HETATM    4  C4  UNL     1     -34.416  16.117  -6.827  1.00 20.00    -0.022 C 
HETATM    5  C5  UNL     1     -33.664  16.598  -3.395  1.00 20.00     0.041 C 
HETATM    6  C6  UNL     1     -35.178  14.195  -5.671  1.00 20.00     0.035 C 
HETATM    7  C7  UNL     1     -33.693  15.279  -4.125  1.00 20.00     0.016 C 
HETATM    8  C8  UNL     1     -34.980  16.690  -5.542  1.00 20.00     0.042 C 
HETATM    9  C9  UNL     1     -35.091  15.399  -4.767  1.00 20.00     0.015 C 
HETATM   10  C10 UNL     1     -34.123  17.548  -4.556  1.00 20.00     0.127 C 
ENDROOT
BRANCH  10  11
HETATM   11  O11 UNL     1     -32.992  18.101  -5.209  1.00 20.00    -0.395 OA
HETATM   12  H23 UNL     1     -32.207  17.702  -4.800  1.00 20.00     0.210 HD
ENDBRANCH  10  11
TORSDOF 1
ENDMDL
MODEL 7
REMARK VINA RESULT:      -4.6      1.577      2.693
REMARK  1 active torsions:
REMARK  status: ('A' for Active; 'I' for Inactive)
REMARK    1  A    between atoms: C10_10  and  O11_11 
ROOT
HETATM    1  C1  UNL     1     -33.670  16.113  -2.945  1.00 20.00    -0.021 C 
HETATM    2  C2  UNL     1     -34.054  13.666  -3.785  1.00 20.00    -0.021 C 
HETATM    3  C3  UNL     1     -33.514  16.932  -4.008  1.00 20.00    -0.025 C 
HETATM    4  C4  UNL     1     -34.581  13.369  -4.992  1.00 20.00    -0.022 C 
HETATM    5  C5  UNL     1     -34.778  16.584  -6.477  1.00 20.00     0.041 C 
HETATM    6  C6  UNL     1     -34.601  14.951  -3.229  1.00 20.00     0.035 C 
HETATM    7  C7  UNL     1     -34.076  16.239  -5.187  1.00 20.00     0.016 C 
HETATM    8  C8  UNL     1     -35.570  14.410  -5.476  1.00 20.00     0.042 C 
HETATM    9  C9  UNL     1     -35.233  15.498  -4.484  1.00 20.00     0.015 C 
HETATM   10  C10 UNL     1     -35.388  15.180  -6.823  1.00 20.00     0.127 C 
ENDROOT
BRANCH  10  11
HETATM   11  O11 UNL     1     -34.525  14.477  -7.703  1.00 20.00    -0.395 OA
HETATM   12  H23 UNL     1     -33.988  13.882  -7.155  1.00 20.00     0.210 HD
ENDBRANCH  10  11
TORSDOF 1
ENDMDL
MODEL 8
REMARK VINA RESULT:      -4.6      2.129      3.591
REMARK  1 active torsions:
REMARK  status: ('A' for Active; 'I' for Inactive)
REMARK    1  A    between atoms: C10_10  and  O11_11 
ROOT
HETATM    1  C1  UNL     1     -34.832  13.331  -4.209  1.00 20.00    -0.021 C 
HETATM    2  C2  UNL     1     -34.838  15.413  -2.626  1.00 20.00    -0.021 C 
HETATM    3  C3  UNL     1     -34.993  13.740  -5.487  1.00 20.00    -0.025 C 
HETATM    4  C4  UNL     1     -34.476  16.651  -3.025  1.00 20.00    -0.022 C 
HETATM    5  C5  UNL     1     -34.038  16.160  -6.510  1.00 20.00     0.041 C 
HETATM    6  C6  UNL     1     -34.083  14.339  -3.359  1.00 20.00     0.035 C 
HETATM    7  C7  UNL     1     -34.643  15.176  -5.540  1.00 20.00     0.016 C 
HETATM    8  C8  UNL     1     -33.421  16.636  -4.113  1.00 20.00     0.042 C 
HETATM    9  C9  UNL     1     -33.520  15.174  -4.481  1.00 20.00     0.015 C 
HETATM   10  C10 UNL     1     -33.642  17.302  -5.509  1.00 20.00     0.127 C 
ENDROOT
BRANCH  10  11
HETATM   11  O11 UNL     1     -34.670  18.279  -5.453  1.00 20.00    -0.395 OA
HETATM   12  H23 UNL     1     -34.239  19.146  -5.527  1.00 20.00     0.210 HD
ENDBRANCH  10  11
TORSDOF 1
ENDMDL
MODEL 9
REMARK VINA RESULT:      -4.6      1.771      2.913
REMARK  1 active torsions:
REMARK  status: ('A' for Active; 'I' for Inactive)
REMARK    1  A    between atoms: C10_10  and  O11_11 
ROOT
HETATM    1  C1  UNL     1     -37.166  15.661  -3.525  1.00 20.00    -0.021 C 
HETATM    2  C2  UNL     1     -35.433  17.619  -3.483  1.00 20.00    -0.021 C 
HETATM    3  C3  UNL     1     -36.594  14.569  -4.078  1.00 20.00    -0.025 C 
HETATM    4  C4  UNL     1     -34.096  17.428  -3.456  1.00 20.00    -0.022 C 
HETATM    5  C5  UNL     1     -33.887  13.910  -3.854  1.00 20.00     0.041 C 
HETATM    6  C6  UNL     1     -36.175  16.524  -2.768  1.00 20.00     0.035 C 
HETATM    7  C7  UNL     1     -35.128  14.752  -4.008  1.00 20.00     0.016 C 
HETATM    8  C8  UNL     1     -33.695  16.159  -2.732  1.00 20.00     0.042 C 
HETATM    9  C9  UNL     1     -35.059  15.514  -2.667  1.00 20.00     0.015 C 
HETATM   10  C10 UNL     1     -32.870  15.024  -3.418  1.00 20.00     0.127 C 
ENDROOT
BRANCH  10  11
HETATM   11  O11 UNL     1     -32.168  15.513  -4.550  1.00 20.00    -0.395 OA
HETATM   12  H23 UNL     1     -31.848  14.738  -5.040  1.00 20.00     0.210 HD
ENDBRANCH  10  11
TORSDOF 1
ENDMDL
