MODEL 1
REMARK VINA RESULT:      -5.3      0.000      0.000
REMARK  0 active torsions:
REMARK  status: ('A' for Active; 'I' for Inactive)
ROOT
HETATM    1  C1  UNL     1     -33.430  13.943  -3.881  1.00 20.00    -0.023 C 
HETATM    2  C2  UNL     1     -34.469  13.149  -4.318  1.00 20.00    -0.013 C 
HETATM    3  C3  UNL     1     -36.695  14.758  -3.760  1.00 20.00     0.140 C 
HETATM    4  C4  UNL     1     -36.441  16.035  -2.916  1.00 20.00     0.088 C 
HETATM    5  C5  UNL     1     -34.442  14.723  -3.102  1.00 20.00     0.035 C 
HETATM    6  C6  UNL     1     -35.331  14.412  -4.414  1.00 20.00     0.042 C 
HETATM    7  C7  UNL     1     -34.863  16.151  -2.798  1.00 20.00    -0.033 C 
HETATM    8  C8  UNL     1     -35.278  14.985  -5.839  1.00 20.00     0.029 C 
HETATM    9  C9  UNL     1     -34.235  17.207  -3.706  1.00 20.00     0.016 C 
HETATM   10  C10 UNL     1     -34.474  16.493  -1.348  1.00 20.00     0.016 C 
HETATM   11  O11 UNL     1     -37.782  14.212  -3.873  1.00 20.00    -0.297 OA
ENDROOT
TORSDOF 0
ENDMDL
MODEL 2
REMARK VINA RESULT:      -5.0      1.740      3.229
REMARK  0 active torsions:
REMARK  status: ('A' for Active; 'I' for Inactive)
ROOT
HETATM    1  C1  UNL     1     -35.053  16.899  -2.497  1.00 20.00    -0.023 C 
HETATM    2  C2  UNL     1     -33.884  16.245  -2.168  1.00 20.00    -0.013 C 
HETATM    3  C3  UNL     1     -34.037  13.955  -3.777  1.00 20.00     0.140 C 
HETATM    4  C4  UNL     1     -35.382  13.702  -4.509  1.00 20.00     0.088 C 
HETATM    5  C5  UNL     1     -35.546  15.599  -3.050  1.00 20.00     0.035 C 
HETATM    6  C6  UNL     1     -33.997  15.479  -3.491  1.00 20.00     0.042 C 
HETATM    7  C7  UNL     1     -36.241  15.014  -4.268  1.00 20.00    -0.033 C 
HETATM    8  C8  UNL     1     -33.194  16.193  -4.589  1.00 20.00     0.029 C 
HETATM    9  C9  UNL     1     -36.315  15.953  -5.471  1.00 20.00     0.016 C 
HETATM   10  C10 UNL     1     -37.683  14.628  -3.890  1.00 20.00     0.016 C 
HETATM   11  O11 UNL     1     -33.207  13.089  -3.543  1.00 20.00    -0.297 OA
ENDROOT
TORSDOF 0
ENDMDL
MODEL 3
REMARK VINA RESULT:      -4.8      2.136      3.810
REMARK  0 active torsions:
REMARK  status: ('A' for Active; 'I' for Inactive)
ROOT
HETATM    1  C1  UNL     1     -34.877  13.095  -4.467  1.00 20.00    -0.023 C 
HETATM    2  C2  UNL     1     -33.835  13.737  -3.831  1.00 20.00    -0.013 C 
HETATM    3  C3  UNL     1     -33.801  16.213  -5.145  1.00 20.00     0.140 C 
HETATM    4  C4  UNL     1     -34.697  16.350  -6.403  1.00 20.00     0.088 C 
HETATM    5  C5  UNL     1     -34.740  14.103  -5.564  1.00 20.00     0.035 C 
HETATM    6  C6  UNL     1     -34.428  15.068  -4.307  1.00 20.00     0.042 C 
HETATM    7  C7  UNL     1     -35.572  15.026  -6.439  1.00 20.00    -0.033 C 
HETATM    8  C8  UNL     1     -35.346  15.658  -3.225  1.00 20.00     0.029 C 
HETATM    9  C9  UNL     1     -37.017  15.209  -5.978  1.00 20.00     0.016 C 
HETATM   10  C10 UNL     1     -35.608  14.466  -7.873  1.00 20.00     0.016 C 
HETATM   11  O11 UNL     1     -32.835  16.922  -4.907  1.00 20.00    -0.297 OA
ENDROOT
TORSDOF 0
ENDMDL
MODEL 4
REMARK VINA RESULT:      -4.8      1.631      2.413
REMARK  0 active torsions:
REMARK  status: ('A' for Active; 'I' for Inactive)
ROOT
HETATM    1  C1  UNL     1     -34.132  16.655  -6.233  1.00 20.00    -0.023 C 
HETATM    2  C2  UNL     1     -34.135  15.424  -6.855  1.00 20.00    -0.013 C 
HETATM    3  C3  UNL     1     -34.842  13.718  -4.746  1.00 20.00     0.140 C 
HETATM    4  C4  UNL     1     -34.868  14.337  -3.324  1.00 20.00     0.088 C 
HETATM    5  C5  UNL     1     -34.055  15.922  -4.931  1.00 20.00     0.035 C 
HETATM    6  C6  UNL     1     -35.031  14.908  -5.723  1.00 20.00     0.042 C 
HETATM    7  C7  UNL     1     -34.676  15.897  -3.544  1.00 20.00    -0.033 C 
HETATM    8  C8  UNL     1     -36.510  15.023  -6.122  1.00 20.00     0.029 C 
HETATM    9  C9  UNL     1     -35.956  16.720  -3.404  1.00 20.00     0.016 C 
HETATM   10  C10 UNL     1     -33.658  16.444  -2.526  1.00 20.00     0.016 C 
HETATM   11  O11 UNL     1     -34.731  12.523  -4.975  1.00 20.00    -0.297 OA
ENDROOT
TORSDOF 0
ENDMDL
MODEL 5
REMARK VINA RESULT:      -4.8      1.222      2.806
REMARK  0 active torsions:
REMARK  status: ('A' for Active; 'I' for Inactive)
ROOT
HETATM    1  C1  UNL     1     -33.664  15.911  -3.710  1.00 20.00    -0.023 C 
HETATM    2  C2  UNL     1     -34.486  15.307  -2.781  1.00 20.00    -0.013 C 
HETATM    3  C3  UNL     1     -36.710  14.625  -4.344  1.00 20.00     0.140 C 
HETATM    4  C4  UNL     1     -36.756  15.197  -5.785  1.00 20.00     0.088 C 
HETATM    5  C5  UNL     1     -34.872  16.064  -4.580  1.00 20.00     0.035 C 
HETATM    6  C6  UNL     1     -35.211  14.620  -3.943  1.00 20.00     0.042 C 
HETATM    7  C7  UNL     1     -35.335  15.865  -6.013  1.00 20.00    -0.033 C 
HETATM    8  C8  UNL     1     -34.610  13.228  -4.196  1.00 20.00     0.029 C 
HETATM    9  C9  UNL     1     -34.381  15.047  -6.883  1.00 20.00     0.016 C 
HETATM   10  C10 UNL     1     -35.509  17.241  -6.682  1.00 20.00     0.016 C 
HETATM   11  O11 UNL     1     -37.690  14.239  -3.725  1.00 20.00    -0.297 OA
ENDROOT
TORSDOF 0
ENDMDL
MODEL 6
REMARK VINA RESULT:      -4.7     10.870     12.309
REMARK  0 active torsions:
REMARK  status: ('A' for Active; 'I' for Inactive)
ROOT
HETATM    1  C1  UNL     1     -40.757   5.882  -0.262  1.00 20.00    -0.023 C 
HETATM    2  C2  UNL     1     -40.922   7.144  -0.793  1.00 20.00    -0.013 C 
HETATM    3  C3  UNL     1     -42.742   6.658  -2.868  1.00 20.00     0.140 C 
HETATM    4  C4  UNL     1     -43.042   5.173  -3.203  1.00 20.00     0.088 C 
HETATM    5  C5  UNL     1     -41.325   5.344  -1.538  1.00 20.00     0.035 C 
HETATM    6  C6  UNL     1     -42.245   6.663  -1.399  1.00 20.00     0.042 C 
HETATM    7  C7  UNL     1     -42.338   4.336  -2.054  1.00 20.00    -0.033 C 
HETATM    8  C8  UNL     1     -43.413   6.995  -0.457  1.00 20.00     0.029 C 
HETATM    9  C9  UNL     1     -43.291   3.790  -0.992  1.00 20.00     0.016 C 
HETATM   10  C10 UNL     1     -41.590   3.138  -2.668  1.00 20.00     0.016 C 
HETATM   11  O11 UNL     1     -42.922   7.588  -3.641  1.00 20.00    -0.297 OA
ENDROOT
TORSDOF 0
ENDMDL
MODEL 7
REMARK VINA RESULT:      -4.7      1.558      3.196
REMARK  0 active torsions:
REMARK  status: ('A' for Active; 'I' for Inactive)
ROOT
HETATM    1  C1  UNL     1     -35.002  16.794  -3.044  1.00 20.00    -0.023 C 
HETATM    2  C2  UNL     1     -34.913  15.578  -2.399  1.00 20.00    -0.013 C 
HETATM    3  C3  UNL     1     -34.883  13.786  -4.554  1.00 20.00     0.140 C 
HETATM    4  C4  UNL     1     -35.188  14.374  -5.957  1.00 20.00     0.088 C 
HETATM    5  C5  UNL     1     -35.458  16.042  -4.255  1.00 20.00     0.035 C 
HETATM    6  C6  UNL     1     -34.374  14.980  -3.703  1.00 20.00     0.042 C 
HETATM    7  C7  UNL     1     -35.221  15.947  -5.753  1.00 20.00    -0.033 C 
HETATM    8  C8  UNL     1     -32.838  15.000  -3.702  1.00 20.00     0.029 C 
HETATM    9  C9  UNL     1     -33.973  16.677  -6.248  1.00 20.00     0.016 C 
HETATM   10  C10 UNL     1     -36.432  16.542  -6.494  1.00 20.00     0.016 C 
HETATM   11  O11 UNL     1     -35.003  12.606  -4.260  1.00 20.00    -0.297 OA
ENDROOT
TORSDOF 0
ENDMDL
MODEL 8
REMARK VINA RESULT:      -4.7      2.134      3.797
REMARK  0 active torsions:
REMARK  status: ('A' for Active; 'I' for Inactive)
ROOT
HETATM    1  C1  UNL     1     -34.507  16.390  -1.351  1.00 20.00    -0.023 C 
HETATM    2  C2  UNL     1     -34.138  17.659  -1.745  1.00 20.00    -0.013 C 
HETATM    3  C3  UNL     1     -33.805  17.324  -4.508  1.00 20.00     0.140 C 
HETATM    4  C4  UNL     1     -33.843  15.870  -5.047  1.00 20.00     0.088 C 
HETATM    5  C5  UNL     1     -33.955  15.897  -2.651  1.00 20.00     0.035 C 
HETATM    6  C6  UNL     1     -34.582  17.293  -3.166  1.00 20.00     0.042 C 
HETATM    7  C7  UNL     1     -34.295  14.980  -3.814  1.00 20.00    -0.033 C 
HETATM    8  C8  UNL     1     -36.037  17.732  -3.398  1.00 20.00     0.029 C 
HETATM    9  C9  UNL     1     -35.753  14.525  -3.861  1.00 20.00     0.016 C 
HETATM   10  C10 UNL     1     -33.417  13.717  -3.734  1.00 20.00     0.016 C 
HETATM   11  O11 UNL     1     -33.285  18.262  -5.094  1.00 20.00    -0.297 OA
ENDROOT
TORSDOF 0
ENDMDL
MODEL 9
REMARK VINA RESULT:      -4.7      1.415      2.351
REMARK  0 active torsions:
REMARK  status: ('A' for Active; 'I' for Inactive)
ROOT
HETATM    1  C1  UNL     1     -34.537  14.793  -6.979  1.00 20.00    -0.023 C 
HETATM    2  C2  UNL     1     -35.909  14.656  -7.018  1.00 20.00    -0.013 C 
HETATM    3  C3  UNL     1     -36.568  14.721  -4.295  1.00 20.00     0.140 C 
HETATM    4  C4  UNL     1     -35.390  14.657  -3.288  1.00 20.00     0.088 C 
HETATM    5  C5  UNL     1     -34.605  14.394  -5.539  1.00 20.00     0.035 C 
HETATM    6  C6  UNL     1     -35.961  15.267  -5.614  1.00 20.00     0.042 C 
HETATM    7  C7  UNL     1     -34.078  14.792  -4.170  1.00 20.00    -0.033 C 
HETATM    8  C8  UNL     1     -36.191  16.784  -5.703  1.00 20.00     0.029 C 
HETATM    9  C9  UNL     1     -33.418  16.169  -4.118  1.00 20.00     0.016 C 
HETATM   10  C10 UNL     1     -33.034  13.758  -3.711  1.00 20.00     0.016 C 
HETATM   11  O11 UNL     1     -37.722  14.424  -4.025  1.00 20.00    -0.297 OA
ENDROOT
TORSDOF 0
ENDMDL
