MODEL 1
REMARK VINA RESULT:      -6.2      0.000      0.000
REMARK  0 active torsions:
REMARK  status: ('A' for Active; 'I' for Inactive)
ROOT
HETATM    1  C1  UNL     1     -37.617  14.873  -4.319  1.00 20.00     0.064 C 
HETATM    2  C2  UNL     1     -32.798  14.744  -3.537  1.00 20.00    -0.030 C 
HETATM    3  C3  UNL     1     -33.463  13.617  -3.825  1.00 20.00    -0.030 C 
HETATM    4  C4  UNL     1     -33.495  16.071  -3.535  1.00 20.00     0.037 C 
HETATM    5  C5  UNL     1     -34.922  13.662  -4.168  1.00 20.00     0.038 C 
HETATM    6  C6  UNL     1     -34.595  16.875  -7.184  1.00 20.00     0.001 C 
HETATM    7  C7  UNL     1     -34.942  15.464  -7.654  1.00 20.00     0.001 C 
HETATM    8  C8  UNL     1     -33.777  16.904  -5.903  1.00 20.00     0.011 C 
HETATM    9  C9  UNL     1     -34.798  14.370  -6.595  1.00 20.00     0.012 C 
HETATM   10  C10 UNL     1     -35.868  16.705  -4.307  1.00 20.00     0.030 C 
HETATM   11  C11 UNL     1     -36.564  15.545  -5.051  1.00 20.00     0.103 C 
HETATM   12  C12 UNL     1     -34.467  16.165  -4.736  1.00 20.00    -0.027 C 
HETATM   13  C13 UNL     1     -35.175  14.817  -5.166  1.00 20.00    -0.013 C 
HETATM   14  N14 UNL     1     -38.461  14.336  -3.732  1.00 20.00    -0.197 NA
ENDROOT
TORSDOF 0
ENDMDL
MODEL 2
REMARK VINA RESULT:      -5.8      2.062      3.819
REMARK  0 active torsions:
REMARK  status: ('A' for Active; 'I' for Inactive)
ROOT
HETATM    1  C1  UNL     1     -34.782  16.638  -1.074  1.00 20.00     0.064 C 
HETATM    2  C2  UNL     1     -34.634  17.630  -5.853  1.00 20.00    -0.030 C 
HETATM    3  C3  UNL     1     -33.581  17.916  -5.074  1.00 20.00    -0.030 C 
HETATM    4  C4  UNL     1     -35.835  16.926  -5.299  1.00 20.00     0.037 C 
HETATM    5  C5  UNL     1     -33.577  17.521  -3.628  1.00 20.00     0.038 C 
HETATM    6  C6  UNL     1     -34.771  13.318  -4.287  1.00 20.00     0.001 C 
HETATM    7  C7  UNL     1     -33.354  13.607  -3.795  1.00 20.00     0.001 C 
HETATM    8  C8  UNL     1     -35.372  14.450  -5.104  1.00 20.00     0.011 C 
HETATM    9  C9  UNL     1     -32.941  15.080  -3.824  1.00 20.00     0.012 C 
HETATM   10  C10 UNL     1     -36.200  15.815  -3.005  1.00 20.00     0.030 C 
HETATM   11  C11 UNL     1     -34.891  15.723  -2.191  1.00 20.00     0.103 C 
HETATM   12  C12 UNL     1     -35.393  15.792  -4.341  1.00 20.00    -0.027 C 
HETATM   13  C13 UNL     1     -34.084  16.065  -3.496  1.00 20.00    -0.013 C 
HETATM   14  N14 UNL     1     -34.695  17.371  -0.179  1.00 20.00    -0.197 NA
ENDROOT
TORSDOF 0
ENDMDL
MODEL 3
REMARK VINA RESULT:      -5.5      1.926      4.005
REMARK  0 active torsions:
REMARK  status: ('A' for Active; 'I' for Inactive)
ROOT
HETATM    1  C1  UNL     1     -34.542  13.628  -4.089  1.00 20.00     0.064 C 
HETATM    2  C2  UNL     1     -35.042  18.231  -5.643  1.00 20.00    -0.030 C 
HETATM    3  C3  UNL     1     -36.117  17.439  -5.531  1.00 20.00    -0.030 C 
HETATM    4  C4  UNL     1     -33.686  17.756  -5.215  1.00 20.00     0.037 C 
HETATM    5  C5  UNL     1     -35.987  16.060  -4.957  1.00 20.00     0.038 C 
HETATM    6  C6  UNL     1     -33.733  17.262  -1.352  1.00 20.00     0.001 C 
HETATM    7  C7  UNL     1     -35.166  16.760  -1.185  1.00 20.00     0.001 C 
HETATM    8  C8  UNL     1     -33.471  17.908  -2.703  1.00 20.00     0.011 C 
HETATM    9  C9  UNL     1     -35.956  16.597  -2.484  1.00 20.00     0.012 C 
HETATM   10  C10 UNL     1     -32.995  15.628  -3.942  1.00 20.00     0.030 C 
HETATM   11  C11 UNL     1     -34.216  14.857  -3.395  1.00 20.00     0.103 C 
HETATM   12  C12 UNL     1     -33.792  16.969  -3.886  1.00 20.00    -0.027 C 
HETATM   13  C13 UNL     1     -35.110  16.118  -3.684  1.00 20.00    -0.013 C 
HETATM   14  N14 UNL     1     -34.803  12.644  -4.644  1.00 20.00    -0.197 NA
ENDROOT
TORSDOF 0
ENDMDL
MODEL 4
REMARK VINA RESULT:      -5.3      1.085      1.317
REMARK  0 active torsions:
REMARK  status: ('A' for Active; 'I' for Inactive)
ROOT
HETATM    1  C1  UNL     1     -37.854  14.872  -4.442  1.00 20.00     0.064 C 
HETATM    2  C2  UNL     1     -33.668  16.932  -3.001  1.00 20.00    -0.030 C 
HETATM    3  C3  UNL     1     -33.909  15.641  -2.733  1.00 20.00    -0.030 C 
HETATM    4  C4  UNL     1     -34.628  17.743  -3.817  1.00 20.00     0.037 C 
HETATM    5  C5  UNL     1     -35.143  14.974  -3.261  1.00 20.00     0.038 C 
HETATM    6  C6  UNL     1     -34.651  16.318  -7.442  1.00 20.00     0.001 C 
HETATM    7  C7  UNL     1     -34.473  14.835  -7.125  1.00 20.00     0.001 C 
HETATM    8  C8  UNL     1     -34.323  17.231  -6.272  1.00 20.00     0.011 C 
HETATM    9  C9  UNL     1     -34.417  14.487  -5.637  1.00 20.00     0.012 C 
HETATM   10  C10 UNL     1     -36.703  17.012  -5.155  1.00 20.00     0.030 C 
HETATM   11  C11 UNL     1     -36.818  15.476  -5.254  1.00 20.00     0.103 C 
HETATM   12  C12 UNL     1     -35.152  16.907  -5.010  1.00 20.00    -0.027 C 
HETATM   13  C13 UNL     1     -35.333  15.357  -4.748  1.00 20.00    -0.013 C 
HETATM   14  N14 UNL     1     -38.685  14.388  -3.793  1.00 20.00    -0.197 NA
ENDROOT
TORSDOF 0
ENDMDL
MODEL 5
REMARK VINA RESULT:      -5.3      1.033      3.305
REMARK  0 active torsions:
REMARK  status: ('A' for Active; 'I' for Inactive)
ROOT
HETATM    1  C1  UNL     1     -37.831  14.625  -3.832  1.00 20.00     0.064 C 
HETATM    2  C2  UNL     1     -34.600  16.063  -7.200  1.00 20.00    -0.030 C 
HETATM    3  C3  UNL     1     -35.706  16.786  -6.977  1.00 20.00    -0.030 C 
HETATM    4  C4  UNL     1     -34.288  14.856  -6.367  1.00 20.00     0.037 C 
HETATM    5  C5  UNL     1     -36.651  16.410  -5.876  1.00 20.00     0.038 C 
HETATM    6  C6  UNL     1     -33.574  16.041  -2.726  1.00 20.00     0.001 C 
HETATM    7  C7  UNL     1     -34.572  17.193  -2.641  1.00 20.00     0.001 C 
HETATM    8  C8  UNL     1     -33.315  15.566  -4.147  1.00 20.00     0.011 C 
HETATM    9  C9  UNL     1     -35.442  17.396  -3.883  1.00 20.00     0.012 C 
HETATM   10  C10 UNL     1     -35.416  13.973  -4.228  1.00 20.00     0.030 C 
HETATM   11  C11 UNL     1     -36.438  14.979  -3.655  1.00 20.00     0.103 C 
HETATM   12  C12 UNL     1     -34.605  15.138  -4.879  1.00 20.00    -0.027 C 
HETATM   13  C13 UNL     1     -35.840  16.086  -4.598  1.00 20.00    -0.013 C 
HETATM   14  N14 UNL     1     -38.947  14.342  -3.973  1.00 20.00    -0.197 NA
ENDROOT
TORSDOF 0
ENDMDL
MODEL 6
REMARK VINA RESULT:      -5.3      1.910      3.193
REMARK  0 active torsions:
REMARK  status: ('A' for Active; 'I' for Inactive)
ROOT
HETATM    1  C1  UNL     1     -33.686  13.638  -4.115  1.00 20.00     0.064 C 
HETATM    2  C2  UNL     1     -34.905  18.308  -4.863  1.00 20.00    -0.030 C 
HETATM    3  C3  UNL     1     -33.668  17.881  -5.152  1.00 20.00    -0.030 C 
HETATM    4  C4  UNL     1     -35.959  17.352  -4.391  1.00 20.00     0.037 C 
HETATM    5  C5  UNL     1     -33.316  16.430  -5.024  1.00 20.00     0.038 C 
HETATM    6  C6  UNL     1     -36.777  14.903  -7.308  1.00 20.00     0.001 C 
HETATM    7  C7  UNL     1     -35.383  14.772  -7.918  1.00 20.00     0.001 C 
HETATM    8  C8  UNL     1     -36.913  16.079  -6.353  1.00 20.00     0.011 C 
HETATM    9  C9  UNL     1     -34.276  15.534  -7.187  1.00 20.00     0.012 C 
HETATM   10  C10 UNL     1     -35.941  14.781  -4.273  1.00 20.00     0.030 C 
HETATM   11  C11 UNL     1     -34.711  14.176  -4.984  1.00 20.00     0.103 C 
HETATM   12  C12 UNL     1     -35.886  16.035  -5.201  1.00 20.00    -0.027 C 
HETATM   13  C13 UNL     1     -34.442  15.574  -5.652  1.00 20.00    -0.013 C 
HETATM   14  N14 UNL     1     -32.865  13.206  -3.418  1.00 20.00    -0.197 NA
ENDROOT
TORSDOF 0
ENDMDL
MODEL 7
REMARK VINA RESULT:      -5.3      1.843      2.754
REMARK  0 active torsions:
REMARK  status: ('A' for Active; 'I' for Inactive)
ROOT
HETATM    1  C1  UNL     1     -37.031  15.136  -3.947  1.00 20.00     0.064 C 
HETATM    2  C2  UNL     1     -34.420  18.119  -1.094  1.00 20.00    -0.030 C 
HETATM    3  C3  UNL     1     -34.312  16.791  -0.956  1.00 20.00    -0.030 C 
HETATM    4  C4  UNL     1     -35.271  18.715  -2.176  1.00 20.00     0.037 C 
HETATM    5  C5  UNL     1     -35.029  15.868  -1.894  1.00 20.00     0.038 C 
HETATM    6  C6  UNL     1     -33.666  17.828  -5.612  1.00 20.00     0.001 C 
HETATM    7  C7  UNL     1     -33.138  16.433  -5.286  1.00 20.00     0.001 C 
HETATM    8  C8  UNL     1     -34.042  18.637  -4.382  1.00 20.00     0.011 C 
HETATM    9  C9  UNL     1     -33.460  15.926  -3.879  1.00 20.00     0.012 C 
HETATM   10  C10 UNL     1     -36.455  17.593  -4.168  1.00 20.00     0.030 C 
HETATM   11  C11 UNL     1     -36.037  16.116  -4.333  1.00 20.00     0.103 C 
HETATM   12  C12 UNL     1     -35.086  17.925  -3.494  1.00 20.00    -0.027 C 
HETATM   13  C13 UNL     1     -34.840  16.370  -3.346  1.00 20.00    -0.013 C 
HETATM   14  N14 UNL     1     -37.828  14.352  -3.637  1.00 20.00    -0.197 NA
ENDROOT
TORSDOF 0
ENDMDL
MODEL 8
REMARK VINA RESULT:      -5.3      1.794      2.922
REMARK  0 active torsions:
REMARK  status: ('A' for Active; 'I' for Inactive)
ROOT
HETATM    1  C1  UNL     1     -35.033  13.793  -4.827  1.00 20.00     0.064 C 
HETATM    2  C2  UNL     1     -35.373  17.387  -1.538  1.00 20.00    -0.030 C 
HETATM    3  C3  UNL     1     -34.266  16.634  -1.599  1.00 20.00    -0.030 C 
HETATM    4  C4  UNL     1     -36.486  17.204  -2.525  1.00 20.00     0.037 C 
HETATM    5  C5  UNL     1     -34.111  15.599  -2.671  1.00 20.00     0.038 C 
HETATM    6  C6  UNL     1     -35.178  18.249  -6.042  1.00 20.00     0.001 C 
HETATM    7  C7  UNL     1     -33.735  17.761  -5.924  1.00 20.00     0.001 C 
HETATM    8  C8  UNL     1     -35.900  18.334  -4.707  1.00 20.00     0.011 C 
HETATM    9  C9  UNL     1     -33.390  17.055  -4.611  1.00 20.00     0.012 C 
HETATM   10  C10 UNL     1     -36.587  15.787  -4.672  1.00 20.00     0.030 C 
HETATM   11  C11 UNL     1     -35.206  15.213  -5.054  1.00 20.00     0.103 C 
HETATM   12  C12 UNL     1     -35.908  16.991  -3.945  1.00 20.00    -0.027 C 
HETATM   13  C13 UNL     1     -34.539  16.203  -4.029  1.00 20.00    -0.013 C 
HETATM   14  N14 UNL     1     -34.895  12.656  -4.645  1.00 20.00    -0.197 NA
ENDROOT
TORSDOF 0
ENDMDL
MODEL 9
REMARK VINA RESULT:      -5.2      1.351      3.618
REMARK  0 active torsions:
REMARK  status: ('A' for Active; 'I' for Inactive)
ROOT
HETATM    1  C1  UNL     1     -36.615  17.349  -3.720  1.00 20.00     0.064 C 
HETATM    2  C2  UNL     1     -34.946  15.306  -7.830  1.00 20.00    -0.030 C 
HETATM    3  C3  UNL     1     -34.577  16.551  -7.500  1.00 20.00    -0.030 C 
HETATM    4  C4  UNL     1     -35.800  14.486  -6.911  1.00 20.00     0.037 C 
HETATM    5  C5  UNL     1     -35.000  17.147  -6.192  1.00 20.00     0.038 C 
HETATM    6  C6  UNL     1     -33.745  13.728  -3.690  1.00 20.00     0.001 C 
HETATM    7  C7  UNL     1     -32.971  15.040  -3.577  1.00 20.00     0.001 C 
HETATM    8  C8  UNL     1     -34.390  13.520  -5.051  1.00 20.00     0.011 C 
HETATM    9  C9  UNL     1     -33.305  16.089  -4.639  1.00 20.00     0.012 C 
HETATM   10  C10 UNL     1     -36.543  14.936  -4.487  1.00 20.00     0.030 C 
HETATM   11  C11 UNL     1     -35.815  16.152  -3.874  1.00 20.00     0.103 C 
HETATM   12  C12 UNL     1     -35.338  14.673  -5.445  1.00 20.00    -0.027 C 
HETATM   13  C13 UNL     1     -34.789  16.107  -5.066  1.00 20.00    -0.013 C 
HETATM   14  N14 UNL     1     -37.256  18.308  -3.597  1.00 20.00    -0.197 NA
ENDROOT
TORSDOF 0
ENDMDL
