MODEL 1
REMARK VINA RESULT:      -4.2      0.000      0.000
REMARK  3 active torsions:
REMARK  status: ('A' for Active; 'I' for Inactive)
REMARK    1  A    between atoms: C3_3  and  C7_7 
REMARK    2  A    between atoms: C6_6  and  N9_9 
REMARK    3  A    between atoms: C7_7  and  N9_9 
ROOT
HETATM    1  C1  UNL     1     -33.965  13.528  -4.126  1.00 20.00     0.089 C 
HETATM    2  C6  UNL     1     -32.868  14.373  -3.657  1.00 20.00     0.395 C 
HETATM    3  N8  UNL     1     -34.832  12.853  -4.498  1.00 20.00    -0.195 NA
ENDROOT
BRANCH   2   4
HETATM    4  N9  UNL     1     -33.320  15.762  -3.472  1.00 20.00     0.100 N 
HETATM    5  C5  UNL     1     -33.677  16.339  -4.778  1.00 20.00     0.311 C 
BRANCH   4   6
HETATM    6  C7  UNL     1     -34.417  15.838  -2.547  1.00 20.00     0.300 C 
BRANCH   6   7
HETATM    7  C3  UNL     1     -34.077  16.801  -1.458  1.00 20.00    -0.002 C 
HETATM    8  C2  UNL     1     -34.808  16.951  -0.344  1.00 20.00    -0.033 C 
HETATM    9  C4  UNL     1     -34.470  17.908   0.751  1.00 20.00     0.036 C 
ENDBRANCH   6   7
ENDBRANCH   4   6
ENDBRANCH   2   4
TORSDOF 3
ENDMDL
MODEL 2
REMARK VINA RESULT:      -4.1      1.307      1.426
REMARK  3 active torsions:
REMARK  status: ('A' for Active; 'I' for Inactive)
REMARK    1  A    between atoms: C3_3  and  C7_7 
REMARK    2  A    between atoms: C6_6  and  N9_9 
REMARK    3  A    between atoms: C7_7  and  N9_9 
ROOT
HETATM    1  C1  UNL     1     -35.196  13.665  -4.158  1.00 20.00     0.089 C 
HETATM    2  C6  UNL     1     -35.649  14.885  -3.491  1.00 20.00     0.395 C 
HETATM    3  N8  UNL     1     -34.841  12.695  -4.684  1.00 20.00    -0.195 NA
ENDROOT
BRANCH   2   4
HETATM    4  N9  UNL     1     -34.723  16.000  -3.754  1.00 20.00     0.100 N 
HETATM    5  C5  UNL     1     -35.496  17.221  -4.035  1.00 20.00     0.311 C 
BRANCH   4   6
HETATM    6  C7  UNL     1     -33.813  16.195  -2.660  1.00 20.00     0.300 C 
BRANCH   6   7
HETATM    7  C3  UNL     1     -34.590  16.359  -1.395  1.00 20.00    -0.002 C 
HETATM    8  C2  UNL     1     -34.327  17.302  -0.479  1.00 20.00    -0.033 C 
HETATM    9  C4  UNL     1     -35.106  17.475   0.783  1.00 20.00     0.036 C 
ENDBRANCH   6   7
ENDBRANCH   4   6
ENDBRANCH   2   4
TORSDOF 3
ENDMDL
MODEL 3
REMARK VINA RESULT:      -4.1      1.926      2.296
REMARK  3 active torsions:
REMARK  status: ('A' for Active; 'I' for Inactive)
REMARK    1  A    between atoms: C3_3  and  C7_7 
REMARK    2  A    between atoms: C6_6  and  N9_9 
REMARK    3  A    between atoms: C7_7  and  N9_9 
ROOT
HETATM    1  C1  UNL     1     -37.014  14.760  -3.971  1.00 20.00     0.089 C 
HETATM    2  C6  UNL     1     -35.719  15.347  -4.313  1.00 20.00     0.395 C 
HETATM    3  N8  UNL     1     -38.043  14.297  -3.703  1.00 20.00    -0.195 NA
ENDROOT
BRANCH   2   4
HETATM    4  N9  UNL     1     -34.701  14.989  -3.313  1.00 20.00     0.100 N 
HETATM    5  C5  UNL     1     -34.147  13.662  -3.632  1.00 20.00     0.311 C 
BRANCH   4   6
HETATM    6  C7  UNL     1     -33.667  15.984  -3.236  1.00 20.00     0.300 C 
BRANCH   6   7
HETATM    7  C3  UNL     1     -33.923  16.869  -2.061  1.00 20.00    -0.002 C 
HETATM    8  C2  UNL     1     -34.605  16.482  -0.974  1.00 20.00    -0.033 C 
HETATM    9  C4  UNL     1     -34.858  17.360   0.207  1.00 20.00     0.036 C 
ENDBRANCH   6   7
ENDBRANCH   4   6
ENDBRANCH   2   4
TORSDOF 3
ENDMDL
MODEL 4
REMARK VINA RESULT:      -4.0     10.857     11.819
REMARK  3 active torsions:
REMARK  status: ('A' for Active; 'I' for Inactive)
REMARK    1  A    between atoms: C3_3  and  C7_7 
REMARK    2  A    between atoms: C6_6  and  N9_9 
REMARK    3  A    between atoms: C7_7  and  N9_9 
ROOT
HETATM    1  C1  UNL     1     -35.039   4.526   4.633  1.00 20.00     0.089 C 
HETATM    2  C6  UNL     1     -34.934   5.731   3.811  1.00 20.00     0.395 C 
HETATM    3  N8  UNL     1     -35.126   3.569   5.282  1.00 20.00    -0.195 NA
ENDROOT
BRANCH   2   4
HETATM    4  N9  UNL     1     -33.841   6.595   4.286  1.00 20.00     0.100 N 
HETATM    5  C5  UNL     1     -33.820   6.592   5.758  1.00 20.00     0.311 C 
BRANCH   4   6
HETATM    6  C7  UNL     1     -32.575   6.188   3.742  1.00 20.00     0.300 C 
BRANCH   6   7
HETATM    7  C3  UNL     1     -32.359   6.873   2.433  1.00 20.00    -0.002 C 
HETATM    8  C2  UNL     1     -32.177   8.195   2.308  1.00 20.00    -0.033 C 
HETATM    9  C4  UNL     1     -31.953   8.884   1.002  1.00 20.00     0.036 C 
ENDBRANCH   6   7
ENDBRANCH   4   6
ENDBRANCH   2   4
TORSDOF 3
ENDMDL
MODEL 5
REMARK VINA RESULT:      -4.0     10.676     11.624
REMARK  3 active torsions:
REMARK  status: ('A' for Active; 'I' for Inactive)
REMARK    1  A    between atoms: C3_3  and  C7_7 
REMARK    2  A    between atoms: C6_6  and  N9_9 
REMARK    3  A    between atoms: C7_7  and  N9_9 
ROOT
HETATM    1  C1  UNL     1     -34.597   5.325   5.764  1.00 20.00     0.089 C 
HETATM    2  C6  UNL     1     -33.783   6.281   5.016  1.00 20.00     0.395 C 
HETATM    3  N8  UNL     1     -35.244   4.569   6.360  1.00 20.00    -0.195 NA
ENDROOT
BRANCH   2   4
HETATM    4  N9  UNL     1     -33.218   5.657   3.808  1.00 20.00     0.100 N 
HETATM    5  C5  UNL     1     -34.275   5.515   2.792  1.00 20.00     0.311 C 
BRANCH   4   6
HETATM    6  C7  UNL     1     -32.102   6.407   3.303  1.00 20.00     0.300 C 
BRANCH   6   7
HETATM    7  C3  UNL     1     -32.603   7.637   2.621  1.00 20.00    -0.002 C 
HETATM    8  C2  UNL     1     -31.882   8.343   1.738  1.00 20.00    -0.033 C 
HETATM    9  C4  UNL     1     -32.381   9.569   1.048  1.00 20.00     0.036 C 
ENDBRANCH   6   7
ENDBRANCH   4   6
ENDBRANCH   2   4
TORSDOF 3
ENDMDL
MODEL 6
REMARK VINA RESULT:      -3.8      1.426      1.753
REMARK  3 active torsions:
REMARK  status: ('A' for Active; 'I' for Inactive)
REMARK    1  A    between atoms: C3_3  and  C7_7 
REMARK    2  A    between atoms: C6_6  and  N9_9 
REMARK    3  A    between atoms: C7_7  and  N9_9 
ROOT
HETATM    1  C1  UNL     1     -34.897  14.007  -5.664  1.00 20.00     0.089 C 
HETATM    2  C6  UNL     1     -34.619  13.268  -4.434  1.00 20.00     0.395 C 
HETATM    3  N8  UNL     1     -35.117  14.589  -6.643  1.00 20.00    -0.195 NA
ENDROOT
BRANCH   2   4
HETATM    4  N9  UNL     1     -34.144  14.173  -3.375  1.00 20.00     0.100 N 
HETATM    5  C5  UNL     1     -32.856  14.762  -3.777  1.00 20.00     0.311 C 
BRANCH   4   6
HETATM    6  C7  UNL     1     -35.115  15.189  -3.077  1.00 20.00     0.300 C 
BRANCH   6   7
HETATM    7  C3  UNL     1     -34.457  16.291  -2.313  1.00 20.00    -0.002 C 
HETATM    8  C2  UNL     1     -34.695  16.541  -1.018  1.00 20.00    -0.033 C 
HETATM    9  C4  UNL     1     -34.036  17.637  -0.247  1.00 20.00     0.036 C 
ENDBRANCH   6   7
ENDBRANCH   4   6
ENDBRANCH   2   4
TORSDOF 3
ENDMDL
MODEL 7
REMARK VINA RESULT:      -3.6     10.549     11.336
REMARK  3 active torsions:
REMARK  status: ('A' for Active; 'I' for Inactive)
REMARK    1  A    between atoms: C3_3  and  C7_7 
REMARK    2  A    between atoms: C6_6  and  N9_9 
REMARK    3  A    between atoms: C7_7  and  N9_9 
ROOT
HETATM    1  C1  UNL     1     -32.165   8.769   1.650  1.00 20.00     0.089 C 
HETATM    2  C6  UNL     1     -31.824   7.856   2.740  1.00 20.00     0.395 C 
HETATM    3  N8  UNL     1     -32.432   9.497   0.787  1.00 20.00    -0.195 NA
ENDROOT
BRANCH   2   4
HETATM    4  N9  UNL     1     -32.837   6.796   2.871  1.00 20.00     0.100 N 
HETATM    5  C5  UNL     1     -32.166   5.487   2.953  1.00 20.00     0.311 C 
BRANCH   4   6
HETATM    6  C7  UNL     1     -33.689   7.021   4.005  1.00 20.00     0.300 C 
BRANCH   6   7
HETATM    7  C3  UNL     1     -34.294   5.724   4.431  1.00 20.00    -0.002 C 
HETATM    8  C2  UNL     1     -34.599   5.429   5.703  1.00 20.00    -0.033 C 
HETATM    9  C4  UNL     1     -35.210   4.136   6.134  1.00 20.00     0.036 C 
ENDBRANCH   6   7
ENDBRANCH   4   6
ENDBRANCH   2   4
TORSDOF 3
ENDMDL
MODEL 8
REMARK VINA RESULT:      -3.6     10.993     11.988
REMARK  3 active torsions:
REMARK  status: ('A' for Active; 'I' for Inactive)
REMARK    1  A    between atoms: C3_3  and  C7_7 
REMARK    2  A    between atoms: C6_6  and  N9_9 
REMARK    3  A    between atoms: C7_7  and  N9_9 
ROOT
HETATM    1  C1  UNL     1     -34.071   6.420   6.350  1.00 20.00     0.089 C 
HETATM    2  C6  UNL     1     -34.538   5.263   5.587  1.00 20.00     0.395 C 
HETATM    3  N8  UNL     1     -33.704   7.336   6.959  1.00 20.00    -0.195 NA
ENDROOT
BRANCH   2   4
HETATM    4  N9  UNL     1     -34.004   5.290   4.215  1.00 20.00     0.100 N 
HETATM    5  C5  UNL     1     -35.058   5.740   3.290  1.00 20.00     0.311 C 
BRANCH   4   6
HETATM    6  C7  UNL     1     -32.835   6.120   4.123  1.00 20.00     0.300 C 
BRANCH   6   7
HETATM    7  C3  UNL     1     -32.870   6.878   2.836  1.00 20.00    -0.002 C 
HETATM    8  C2  UNL     1     -32.025   7.876   2.539  1.00 20.00    -0.033 C 
HETATM    9  C4  UNL     1     -32.051   8.632   1.252  1.00 20.00     0.036 C 
ENDBRANCH   6   7
ENDBRANCH   4   6
ENDBRANCH   2   4
TORSDOF 3
ENDMDL
MODEL 9
REMARK VINA RESULT:      -3.5      1.340      2.663
REMARK  3 active torsions:
REMARK  status: ('A' for Active; 'I' for Inactive)
REMARK    1  A    between atoms: C3_3  and  C7_7 
REMARK    2  A    between atoms: C6_6  and  N9_9 
REMARK    3  A    between atoms: C7_7  and  N9_9 
ROOT
HETATM    1  C1  UNL     1     -33.642  17.171  -5.262  1.00 20.00     0.089 C 
HETATM    2  C6  UNL     1     -33.904  15.737  -5.145  1.00 20.00     0.395 C 
HETATM    3  N8  UNL     1     -33.432  18.308  -5.360  1.00 20.00    -0.195 NA
ENDROOT
BRANCH   2   4
HETATM    4  N9  UNL     1     -34.488  15.418  -3.832  1.00 20.00     0.100 N 
HETATM    5  C5  UNL     1     -34.603  13.956  -3.691  1.00 20.00     0.311 C 
BRANCH   4   6
HETATM    6  C7  UNL     1     -33.718  15.989  -2.762  1.00 20.00     0.300 C 
BRANCH   6   7
HETATM    7  C3  UNL     1     -34.630  16.341  -1.633  1.00 20.00    -0.002 C 
HETATM    8  C2  UNL     1     -34.256  17.080  -0.579  1.00 20.00    -0.033 C 
HETATM    9  C4  UNL     1     -35.166  17.441   0.549  1.00 20.00     0.036 C 
ENDBRANCH   6   7
ENDBRANCH   4   6
ENDBRANCH   2   4
TORSDOF 3
ENDMDL
