MODEL 1
REMARK VINA RESULT:      -5.2      0.000      0.000
REMARK  0 active torsions:
REMARK  status: ('A' for Active; 'I' for Inactive)
ROOT
HETATM    1  C1  UNL     1     -35.708  15.703  -5.060  1.00 20.00    -0.002 C 
HETATM    2  C2  UNL     1     -35.012  13.568  -3.938  1.00 20.00    -0.002 C 
HETATM    3  C3  UNL     1     -34.540  16.336  -5.247  1.00 20.00    -0.022 C 
HETATM    4  C4  UNL     1     -33.678  13.693  -3.860  1.00 20.00    -0.022 C 
HETATM    5  C5  UNL     1     -34.700  16.075  -2.165  1.00 20.00     0.079 C 
HETATM    6  C6  UNL     1     -35.941  14.744  -3.930  1.00 20.00     0.128 C 
HETATM    7  C7  UNL     1     -33.331  16.227  -4.421  1.00 20.00     0.028 A 
HETATM    8  C8  UNL     1     -32.911  14.941  -3.745  1.00 20.00     0.028 A 
HETATM    9  C9  UNL     1     -33.410  16.104  -2.914  1.00 20.00     0.063 A 
HETATM   10  N10 UNL     1     -35.826  15.450  -2.658  1.00 20.00    -0.373 N 
HETATM   11  S11 UNL     1     -34.715  16.849  -0.682  1.00 20.00    -0.065 SA
HETATM   12  H20 UNL     1     -36.658  15.484  -2.077  1.00 20.00     0.161 HD
ENDROOT
TORSDOF 0
ENDMDL
MODEL 2
REMARK VINA RESULT:      -5.1      2.285      3.362
REMARK  0 active torsions:
REMARK  status: ('A' for Active; 'I' for Inactive)
ROOT
HETATM    1  C1  UNL     1     -33.682  15.940  -2.661  1.00 20.00    -0.002 C 
HETATM    2  C2  UNL     1     -33.329  13.732  -3.801  1.00 20.00    -0.002 C 
HETATM    3  C3  UNL     1     -35.019  16.027  -2.587  1.00 20.00    -0.022 C 
HETATM    4  C4  UNL     1     -34.583  13.294  -3.997  1.00 20.00    -0.022 C 
HETATM    5  C5  UNL     1     -34.500  15.920  -5.638  1.00 20.00     0.079 C 
HETATM    6  C6  UNL     1     -32.976  15.188  -3.749  1.00 20.00     0.128 C 
HETATM    7  C7  UNL     1     -35.997  15.443  -3.513  1.00 20.00     0.028 A 
HETATM    8  C8  UNL     1     -35.786  14.113  -4.199  1.00 20.00     0.028 A 
HETATM    9  C9  UNL     1     -35.745  15.394  -5.004  1.00 20.00     0.063 A 
HETATM   10  N10 UNL     1     -33.264  15.808  -5.039  1.00 20.00    -0.373 N 
HETATM   11  S11 UNL     1     -34.680  16.659  -7.127  1.00 20.00    -0.065 SA
HETATM   12  H20 UNL     1     -32.474  16.196  -5.546  1.00 20.00     0.161 HD
ENDROOT
TORSDOF 0
ENDMDL
MODEL 3
REMARK VINA RESULT:      -5.0      2.634      3.562
REMARK  0 active torsions:
REMARK  status: ('A' for Active; 'I' for Inactive)
ROOT
HETATM    1  C1  UNL     1     -34.442  16.431  -3.370  1.00 20.00    -0.002 C 
HETATM    2  C2  UNL     1     -32.635  14.723  -3.712  1.00 20.00    -0.002 C 
HETATM    3  C3  UNL     1     -35.549  15.679  -3.273  1.00 20.00    -0.022 C 
HETATM    4  C4  UNL     1     -33.312  13.564  -3.695  1.00 20.00    -0.022 C 
HETATM    5  C5  UNL     1     -34.529  15.045  -6.128  1.00 20.00     0.079 C 
HETATM    6  C6  UNL     1     -33.243  16.014  -4.169  1.00 20.00     0.128 C 
HETATM    7  C7  UNL     1     -35.793  14.376  -3.905  1.00 20.00     0.028 A 
HETATM    8  C8  UNL     1     -34.705  13.346  -4.111  1.00 20.00     0.028 A 
HETATM    9  C9  UNL     1     -35.297  14.069  -5.301  1.00 20.00     0.063 A 
HETATM   10  N10 UNL     1     -33.607  15.911  -5.579  1.00 20.00    -0.373 N 
HETATM   11  S11 UNL     1     -34.845  15.039  -7.770  1.00 20.00    -0.065 SA
HETATM   12  H20 UNL     1     -33.134  16.541  -6.220  1.00 20.00     0.161 HD
ENDROOT
TORSDOF 0
ENDMDL
MODEL 4
REMARK VINA RESULT:      -4.9      2.080      2.923
REMARK  0 active torsions:
REMARK  status: ('A' for Active; 'I' for Inactive)
ROOT
HETATM    1  C1  UNL     1     -34.827  13.419  -4.151  1.00 20.00    -0.002 C 
HETATM    2  C2  UNL     1     -36.039  15.262  -2.954  1.00 20.00    -0.002 C 
HETATM    3  C3  UNL     1     -33.538  13.707  -3.915  1.00 20.00    -0.022 C 
HETATM    4  C4  UNL     1     -35.038  15.988  -2.432  1.00 20.00    -0.022 C 
HETATM    5  C5  UNL     1     -34.527  16.190  -5.480  1.00 20.00     0.079 C 
HETATM    6  C6  UNL     1     -35.895  14.470  -4.218  1.00 20.00     0.128 C 
HETATM    7  C7  UNL     1     -32.953  15.036  -3.698  1.00 20.00     0.028 A 
HETATM    8  C8  UNL     1     -33.682  16.147  -2.976  1.00 20.00     0.028 A 
HETATM    9  C9  UNL     1     -33.434  16.248  -4.466  1.00 20.00     0.063 A 
HETATM   10  N10 UNL     1     -35.626  15.371  -5.333  1.00 20.00    -0.373 N 
HETATM   11  S11 UNL     1     -34.351  17.176  -6.819  1.00 20.00    -0.065 SA
HETATM   12  H20 UNL     1     -36.318  15.399  -6.076  1.00 20.00     0.161 HD
ENDROOT
TORSDOF 0
ENDMDL
MODEL 5
REMARK VINA RESULT:      -4.8      1.704      3.119
REMARK  0 active torsions:
REMARK  status: ('A' for Active; 'I' for Inactive)
ROOT
HETATM    1  C1  UNL     1     -33.061  15.180  -3.675  1.00 20.00    -0.002 C 
HETATM    2  C2  UNL     1     -33.705  16.193  -5.880  1.00 20.00    -0.002 C 
HETATM    3  C3  UNL     1     -33.467  13.908  -3.801  1.00 20.00    -0.022 C 
HETATM    4  C4  UNL     1     -34.264  15.160  -6.530  1.00 20.00    -0.022 C 
HETATM    5  C5  UNL     1     -36.106  15.508  -4.064  1.00 20.00     0.079 C 
HETATM    6  C6  UNL     1     -33.727  16.320  -4.386  1.00 20.00     0.128 C 
HETATM    7  C7  UNL     1     -34.589  13.412  -4.608  1.00 20.00     0.028 A 
HETATM    8  C8  UNL     1     -34.978  14.021  -5.936  1.00 20.00     0.028 A 
HETATM    9  C9  UNL     1     -35.880  14.193  -4.733  1.00 20.00     0.063 A 
HETATM   10  N10 UNL     1     -35.106  16.446  -3.925  1.00 20.00    -0.373 N 
HETATM   11  S11 UNL     1     -37.649  15.790  -3.484  1.00 20.00    -0.065 SA
HETATM   12  H20 UNL     1     -35.354  17.311  -3.455  1.00 20.00     0.161 HD
ENDROOT
TORSDOF 0
ENDMDL
MODEL 6
REMARK VINA RESULT:      -4.7      1.466      1.856
REMARK  0 active torsions:
REMARK  status: ('A' for Active; 'I' for Inactive)
ROOT
HETATM    1  C1  UNL     1     -34.980  13.917  -5.900  1.00 20.00    -0.002 C 
HETATM    2  C2  UNL     1     -33.777  13.740  -3.705  1.00 20.00    -0.002 C 
HETATM    3  C3  UNL     1     -34.447  15.021  -6.444  1.00 20.00    -0.022 C 
HETATM    4  C4  UNL     1     -32.957  14.802  -3.728  1.00 20.00    -0.022 C 
HETATM    5  C5  UNL     1     -35.769  16.093  -3.856  1.00 20.00     0.079 C 
HETATM    6  C6  UNL     1     -35.094  13.715  -4.419  1.00 20.00     0.128 C 
HETATM    7  C7  UNL     1     -33.910  16.189  -5.733  1.00 20.00     0.028 A 
HETATM    8  C8  UNL     1     -33.185  16.083  -4.411  1.00 20.00     0.028 A 
HETATM    9  C9  UNL     1     -34.559  16.714  -4.471  1.00 20.00     0.063 A 
HETATM   10  N10 UNL     1     -35.977  14.730  -3.853  1.00 20.00    -0.373 N 
HETATM   11  S11 UNL     1     -36.873  17.142  -3.166  1.00 20.00    -0.065 SA
HETATM   12  H20 UNL     1     -36.830  14.399  -3.412  1.00 20.00     0.161 HD
ENDROOT
TORSDOF 0
ENDMDL
MODEL 7
REMARK VINA RESULT:      -4.7      1.050      1.050
REMARK  0 active torsions:
REMARK  status: ('A' for Active; 'I' for Inactive)
ROOT
HETATM    1  C1  UNL     1     -35.085  15.052  -6.074  1.00 20.00    -0.002 C 
HETATM    2  C2  UNL     1     -34.685  13.412  -4.217  1.00 20.00    -0.002 C 
HETATM    3  C3  UNL     1     -33.986  15.821  -6.035  1.00 20.00    -0.022 C 
HETATM    4  C4  UNL     1     -33.490  13.791  -3.736  1.00 20.00    -0.022 C 
HETATM    5  C5  UNL     1     -35.259  16.287  -3.249  1.00 20.00     0.079 C 
HETATM    6  C6  UNL     1     -35.642  14.369  -4.861  1.00 20.00     0.128 C 
HETATM    7  C7  UNL     1     -33.166  16.135  -4.857  1.00 20.00     0.028 A 
HETATM    8  C8  UNL     1     -32.924  15.148  -3.738  1.00 20.00     0.028 A 
HETATM    9  C9  UNL     1     -33.789  16.366  -3.497  1.00 20.00     0.063 A 
HETATM   10  N10 UNL     1     -36.066  15.369  -3.886  1.00 20.00    -0.373 N 
HETATM   11  S11 UNL     1     -35.886  17.380  -2.149  1.00 20.00    -0.065 SA
HETATM   12  H20 UNL     1     -37.054  15.392  -3.654  1.00 20.00     0.161 HD
ENDROOT
TORSDOF 0
ENDMDL
MODEL 8
REMARK VINA RESULT:      -4.7      0.945      2.719
REMARK  0 active torsions:
REMARK  status: ('A' for Active; 'I' for Inactive)
ROOT
HETATM    1  C1  UNL     1     -33.516  13.892  -3.922  1.00 20.00    -0.002 C 
HETATM    2  C2  UNL     1     -33.492  16.123  -5.072  1.00 20.00    -0.002 C 
HETATM    3  C3  UNL     1     -34.826  13.607  -3.851  1.00 20.00    -0.022 C 
HETATM    4  C4  UNL     1     -34.796  16.368  -5.275  1.00 20.00    -0.022 C 
HETATM    5  C5  UNL     1     -34.592  16.210  -2.188  1.00 20.00     0.079 C 
HETATM    6  C6  UNL     1     -32.989  15.296  -3.927  1.00 20.00     0.128 C 
HETATM    7  C7  UNL     1     -35.936  14.563  -3.759  1.00 20.00     0.028 A 
HETATM    8  C8  UNL     1     -35.923  15.907  -4.452  1.00 20.00     0.028 A 
HETATM    9  C9  UNL     1     -35.822  15.833  -2.944  1.00 20.00     0.063 A 
HETATM   10  N10 UNL     1     -33.325  15.949  -2.666  1.00 20.00    -0.373 N 
HETATM   11  S11 UNL     1     -34.826  16.971  -0.718  1.00 20.00    -0.065 SA
HETATM   12  H20 UNL     1     -32.548  16.242  -2.082  1.00 20.00     0.161 HD
ENDROOT
TORSDOF 0
ENDMDL
MODEL 9
REMARK VINA RESULT:      -4.6      1.808      3.017
REMARK  0 active torsions:
REMARK  status: ('A' for Active; 'I' for Inactive)
ROOT
HETATM    1  C1  UNL     1     -34.287  13.654  -3.634  1.00 20.00    -0.002 C 
HETATM    2  C2  UNL     1     -33.342  15.978  -3.714  1.00 20.00    -0.002 C 
HETATM    3  C3  UNL     1     -34.490  13.371  -4.930  1.00 20.00    -0.022 C 
HETATM    4  C4  UNL     1     -33.319  16.246  -5.028  1.00 20.00    -0.022 C 
HETATM    5  C5  UNL     1     -36.333  15.815  -4.460  1.00 20.00     0.079 C 
HETATM    6  C6  UNL     1     -34.341  15.051  -3.090  1.00 20.00     0.128 C 
HETATM    7  C7  UNL     1     -34.798  14.320  -6.007  1.00 20.00     0.028 A 
HETATM    8  C8  UNL     1     -34.228  15.720  -6.056  1.00 20.00     0.028 A 
HETATM    9  C9  UNL     1     -35.701  15.512  -5.777  1.00 20.00     0.063 A 
HETATM   10  N10 UNL     1     -35.685  15.592  -3.263  1.00 20.00    -0.373 N 
HETATM   11  S11 UNL     1     -37.881  16.444  -4.506  1.00 20.00    -0.065 SA
HETATM   12  H20 UNL     1     -36.195  15.828  -2.417  1.00 20.00     0.161 HD
ENDROOT
TORSDOF 0
ENDMDL
