MODEL 1
REMARK VINA RESULT:      -5.1      0.000      0.000
REMARK  0 active torsions:
REMARK  status: ('A' for Active; 'I' for Inactive)
ROOT
HETATM    1  C1  UNL     1     -36.890  15.666  -3.317  1.00 20.00    -0.023 C 
HETATM    2  C2  UNL     1     -37.248  14.659  -4.136  1.00 20.00    -0.013 C 
HETATM    3  C3  UNL     1     -34.961  13.605  -4.490  1.00 20.00     0.140 C 
HETATM    4  C4  UNL     1     -34.102  14.150  -3.365  1.00 20.00     0.088 C 
HETATM    5  C5  UNL     1     -35.627  15.996  -4.101  1.00 20.00     0.035 C 
HETATM    6  C6  UNL     1     -35.963  14.727  -4.941  1.00 20.00     0.042 C 
HETATM    7  C7  UNL     1     -34.240  15.692  -3.476  1.00 20.00    -0.033 C 
HETATM    8  C8  UNL     1     -36.106  14.902  -6.439  1.00 20.00     0.029 C 
HETATM    9  C9  UNL     1     -34.102  16.363  -2.107  1.00 20.00     0.016 C 
HETATM   10  C10 UNL     1     -33.151  16.244  -4.415  1.00 20.00     0.016 C 
HETATM   11  O11 UNL     1     -34.873  12.452  -4.896  1.00 20.00    -0.297 OA
ENDROOT
TORSDOF 0
ENDMDL
MODEL 2
REMARK VINA RESULT:      -4.9      0.993      3.395
REMARK  0 active torsions:
REMARK  status: ('A' for Active; 'I' for Inactive)
ROOT
HETATM    1  C1  UNL     1     -34.077  16.657  -5.701  1.00 20.00    -0.023 C 
HETATM    2  C2  UNL     1     -33.065  16.311  -4.883  1.00 20.00    -0.013 C 
HETATM    3  C3  UNL     1     -33.905  14.021  -4.162  1.00 20.00     0.140 C 
HETATM    4  C4  UNL     1     -34.958  13.651  -5.188  1.00 20.00     0.088 C 
HETATM    5  C5  UNL     1     -35.154  16.113  -4.773  1.00 20.00     0.035 C 
HETATM    6  C6  UNL     1     -33.971  15.571  -3.916  1.00 20.00     0.042 C 
HETATM    7  C7  UNL     1     -35.948  14.846  -5.184  1.00 20.00    -0.033 C 
HETATM    8  C8  UNL     1     -33.910  15.998  -2.463  1.00 20.00     0.029 C 
HETATM    9  C9  UNL     1     -36.598  15.035  -6.558  1.00 20.00     0.016 C 
HETATM   10  C10 UNL     1     -37.053  14.602  -4.139  1.00 20.00     0.016 C 
HETATM   11  O11 UNL     1     -33.126  13.205  -3.683  1.00 20.00    -0.297 OA
ENDROOT
TORSDOF 0
ENDMDL
MODEL 3
REMARK VINA RESULT:      -4.9      1.338      3.331
REMARK  0 active torsions:
REMARK  status: ('A' for Active; 'I' for Inactive)
ROOT
HETATM    1  C1  UNL     1     -33.169  16.373  -5.015  1.00 20.00    -0.023 C 
HETATM    2  C2  UNL     1     -33.111  15.511  -3.982  1.00 20.00    -0.013 C 
HETATM    3  C3  UNL     1     -34.882  13.854  -4.750  1.00 20.00     0.140 C 
HETATM    4  C4  UNL     1     -35.058  14.130  -6.231  1.00 20.00     0.088 C 
HETATM    5  C5  UNL     1     -34.689  16.334  -5.100  1.00 20.00     0.035 C 
HETATM    6  C6  UNL     1     -34.599  15.215  -4.019  1.00 20.00     0.042 C 
HETATM    7  C7  UNL     1     -35.368  15.648  -6.314  1.00 20.00    -0.033 C 
HETATM    8  C8  UNL     1     -35.369  15.429  -2.731  1.00 20.00     0.029 C 
HETATM    9  C9  UNL     1     -34.864  16.249  -7.629  1.00 20.00     0.016 C 
HETATM   10  C10 UNL     1     -36.888  15.874  -6.213  1.00 20.00     0.016 C 
HETATM   11  O11 UNL     1     -34.912  12.725  -4.274  1.00 20.00    -0.297 OA
ENDROOT
TORSDOF 0
ENDMDL
MODEL 4
REMARK VINA RESULT:      -4.7      2.117      3.386
REMARK  0 active torsions:
REMARK  status: ('A' for Active; 'I' for Inactive)
ROOT
HETATM    1  C1  UNL     1     -36.578  15.291  -3.480  1.00 20.00    -0.023 C 
HETATM    2  C2  UNL     1     -36.356  16.542  -3.032  1.00 20.00    -0.013 C 
HETATM    3  C3  UNL     1     -33.979  16.850  -3.881  1.00 20.00     0.140 C 
HETATM    4  C4  UNL     1     -33.798  15.773  -4.934  1.00 20.00     0.088 C 
HETATM    5  C5  UNL     1     -35.191  14.794  -3.097  1.00 20.00     0.035 C 
HETATM    6  C6  UNL     1     -34.891  16.281  -2.736  1.00 20.00     0.042 C 
HETATM    7  C7  UNL     1     -34.168  14.451  -4.211  1.00 20.00    -0.033 C 
HETATM    8  C8  UNL     1     -34.417  16.573  -1.327  1.00 20.00     0.029 C 
HETATM    9  C9  UNL     1     -34.753  13.427  -5.188  1.00 20.00     0.016 C 
HETATM   10  C10 UNL     1     -32.913  13.850  -3.552  1.00 20.00     0.016 C 
HETATM   11  O11 UNL     1     -33.509  17.976  -3.993  1.00 20.00    -0.297 OA
ENDROOT
TORSDOF 0
ENDMDL
MODEL 5
REMARK VINA RESULT:      -4.7      1.486      2.713
REMARK  0 active torsions:
REMARK  status: ('A' for Active; 'I' for Inactive)
ROOT
HETATM    1  C1  UNL     1     -33.922  16.246  -5.431  1.00 20.00    -0.023 C 
HETATM    2  C2  UNL     1     -34.422  15.026  -5.707  1.00 20.00    -0.013 C 
HETATM    3  C3  UNL     1     -36.062  14.824  -3.774  1.00 20.00     0.140 C 
HETATM    4  C4  UNL     1     -36.244  16.242  -3.268  1.00 20.00     0.088 C 
HETATM    5  C5  UNL     1     -33.843  15.991  -3.932  1.00 20.00     0.035 C 
HETATM    6  C6  UNL     1     -34.574  14.650  -4.245  1.00 20.00     0.042 C 
HETATM    7  C7  UNL     1     -34.805  16.745  -2.978  1.00 20.00    -0.033 C 
HETATM    8  C8  UNL     1     -33.899  13.369  -3.796  1.00 20.00     0.029 C 
HETATM    9  C9  UNL     1     -34.693  18.259  -3.178  1.00 20.00     0.016 C 
HETATM   10  C10 UNL     1     -34.418  16.404  -1.527  1.00 20.00     0.016 C 
HETATM   11  O11 UNL     1     -36.979  14.014  -3.830  1.00 20.00    -0.297 OA
ENDROOT
TORSDOF 0
ENDMDL
MODEL 6
REMARK VINA RESULT:      -4.6      1.762      3.351
REMARK  0 active torsions:
REMARK  status: ('A' for Active; 'I' for Inactive)
ROOT
HETATM    1  C1  UNL     1     -36.394  15.116  -3.431  1.00 20.00    -0.023 C 
HETATM    2  C2  UNL     1     -35.186  15.284  -2.860  1.00 20.00    -0.013 C 
HETATM    3  C3  UNL     1     -33.876  16.011  -4.915  1.00 20.00     0.140 C 
HETATM    4  C4  UNL     1     -34.930  16.429  -5.922  1.00 20.00     0.088 C 
HETATM    5  C5  UNL     1     -35.829  14.450  -4.678  1.00 20.00     0.035 C 
HETATM    6  C6  UNL     1     -34.431  14.800  -4.084  1.00 20.00     0.042 C 
HETATM    7  C7  UNL     1     -35.875  15.203  -6.033  1.00 20.00    -0.033 C 
HETATM    8  C8  UNL     1     -33.457  13.657  -3.876  1.00 20.00     0.029 C 
HETATM    9  C9  UNL     1     -37.307  15.632  -6.367  1.00 20.00     0.016 C 
HETATM   10  C10 UNL     1     -35.369  14.255  -7.136  1.00 20.00     0.016 C 
HETATM   11  O11 UNL     1     -32.808  16.599  -4.785  1.00 20.00    -0.297 OA
ENDROOT
TORSDOF 0
ENDMDL
MODEL 7
REMARK VINA RESULT:      -4.5      1.678      3.323
REMARK  0 active torsions:
REMARK  status: ('A' for Active; 'I' for Inactive)
ROOT
HETATM    1  C1  UNL     1     -33.714  13.806  -4.521  1.00 20.00    -0.023 C 
HETATM    2  C2  UNL     1     -34.421  13.631  -3.388  1.00 20.00    -0.013 C 
HETATM    3  C3  UNL     1     -36.548  14.855  -4.055  1.00 20.00     0.140 C 
HETATM    4  C4  UNL     1     -36.481  14.957  -5.567  1.00 20.00     0.088 C 
HETATM    5  C5  UNL     1     -34.152  15.253  -4.696  1.00 20.00     0.035 C 
HETATM    6  C6  UNL     1     -35.092  14.989  -3.481  1.00 20.00     0.042 C 
HETATM    7  C7  UNL     1     -35.111  15.626  -5.856  1.00 20.00    -0.033 C 
HETATM    8  C8  UNL     1     -34.952  15.902  -2.280  1.00 20.00     0.029 C 
HETATM    9  C9  UNL     1     -34.540  15.168  -7.201  1.00 20.00     0.016 C 
HETATM   10  C10 UNL     1     -35.276  17.157  -5.879  1.00 20.00     0.016 C 
HETATM   11  O11 UNL     1     -37.591  14.647  -3.447  1.00 20.00    -0.297 OA
ENDROOT
TORSDOF 0
ENDMDL
MODEL 8
REMARK VINA RESULT:      -4.5      1.880      3.574
REMARK  0 active torsions:
REMARK  status: ('A' for Active; 'I' for Inactive)
ROOT
HETATM    1  C1  UNL     1     -34.854  16.260  -1.756  1.00 20.00    -0.023 C 
HETATM    2  C2  UNL     1     -33.608  16.655  -2.079  1.00 20.00    -0.013 C 
HETATM    3  C3  UNL     1     -33.884  16.810  -4.602  1.00 20.00     0.140 C 
HETATM    4  C4  UNL     1     -35.383  16.854  -4.829  1.00 20.00     0.088 C 
HETATM    5  C5  UNL     1     -34.962  15.286  -2.921  1.00 20.00     0.035 C 
HETATM    6  C6  UNL     1     -33.591  15.871  -3.378  1.00 20.00     0.042 C 
HETATM    7  C7  UNL     1     -35.929  15.602  -4.092  1.00 20.00    -0.033 C 
HETATM    8  C8  UNL     1     -32.448  14.895  -3.571  1.00 20.00     0.029 C 
HETATM    9  C9  UNL     1     -37.351  15.836  -3.575  1.00 20.00     0.016 C 
HETATM   10  C10 UNL     1     -35.940  14.398  -5.053  1.00 20.00     0.016 C 
HETATM   11  O11 UNL     1     -33.090  17.467  -5.266  1.00 20.00    -0.297 OA
ENDROOT
TORSDOF 0
ENDMDL
MODEL 9
REMARK VINA RESULT:      -4.5      2.250      3.246
REMARK  0 active torsions:
REMARK  status: ('A' for Active; 'I' for Inactive)
ROOT
HETATM    1  C1  UNL     1     -34.808  14.400  -6.485  1.00 20.00    -0.023 C 
HETATM    2  C2  UNL     1     -34.899  15.595  -7.099  1.00 20.00    -0.013 C 
HETATM    3  C3  UNL     1     -33.797  17.039  -5.319  1.00 20.00     0.140 C 
HETATM    4  C4  UNL     1     -33.045  16.063  -4.435  1.00 20.00     0.088 C 
HETATM    5  C5  UNL     1     -35.185  14.955  -5.118  1.00 20.00     0.035 C 
HETATM    6  C6  UNL     1     -35.124  16.353  -5.804  1.00 20.00     0.042 C 
HETATM    7  C7  UNL     1     -34.112  15.024  -4.000  1.00 20.00    -0.033 C 
HETATM    8  C8  UNL     1     -36.365  17.220  -5.729  1.00 20.00     0.029 C 
HETATM    9  C9  UNL     1     -33.485  13.647  -3.764  1.00 20.00     0.016 C 
HETATM   10  C10 UNL     1     -34.792  15.492  -2.700  1.00 20.00     0.016 C 
HETATM   11  O11 UNL     1     -33.360  18.146  -5.612  1.00 20.00    -0.297 OA
ENDROOT
TORSDOF 0
ENDMDL
